MODEL 1
REMARK VINA RESULT:    -5.512      0.000      0.000
REMARK INTER + INTRA:         -15.328
REMARK INTER:                 -12.602
REMARK INTRA:                  -2.726
REMARK UNBOUND:                -2.726
REMARK SMILES CCCCCCCCCCCCCCCCCCCCCCCC(=O)[O-]
REMARK SMILES IDX 13 1 14 2 15 3 16 4 17 5 18 6 19 7 20 8 21 9 22 10 23 11
REMARK SMILES IDX 24 12 25 13 26 14 12 15 11 16 10 17 9 18 8 19 7 20 6 21 5 22
REMARK SMILES IDX 4 23 3 24 2 25 1 26
REMARK H PARENT
REMARK Flexibility Score: inf
ROOT
ATOM      1  C   UNL     1      16.105  -4.966  34.011  1.00  0.00     0.000 C 
ENDROOT
BRANCH   1   2
ATOM      2  C   UNL     1      15.826  -6.339  33.373  1.00  0.00     0.000 C 
BRANCH   2   3
ATOM      3  C   UNL     1      16.192  -6.393  31.879  1.00  0.00     0.000 C 
BRANCH   3   4
ATOM      4  C   UNL     1      16.215  -5.001  31.227  1.00  0.00     0.000 C 
BRANCH   4   5
ATOM      5  C   UNL     1      15.741  -5.021  29.763  1.00  0.00     0.000 C 
BRANCH   5   6
ATOM      6  C   UNL     1      15.366  -3.624  29.243  1.00  0.00     0.000 C 
BRANCH   6   7
ATOM      7  C   UNL     1      15.764  -3.414  27.772  1.00  0.00     0.000 C 
BRANCH   7   8
ATOM      8  C   UNL     1      15.642  -1.945  27.335  1.00  0.00     0.000 C 
BRANCH   8   9
ATOM      9  C   UNL     1      15.030  -1.056  28.431  1.00  0.00     0.000 C 
BRANCH   9  10
ATOM     10  C   UNL     1      14.561   0.310  27.899  1.00  0.00     0.006 C 
BRANCH  10  11
ATOM     11  C   UNL     1      14.423   0.382  26.369  1.00  0.00     0.053 C 
BRANCH  11  12
ATOM     12  C   UNL     1      12.995   0.283  25.928  1.00  0.00     0.041 C 
ATOM     13  O   UNL     1      12.527   1.113  25.105  1.00  0.00    -0.550 OA
ATOM     14  O   UNL     1      12.187  -0.741  26.408  1.00  0.00    -0.550 OA
ENDBRANCH  11  12
ENDBRANCH  10  11
ENDBRANCH   9  10
ENDBRANCH   8   9
ENDBRANCH   7   8
ENDBRANCH   6   7
ENDBRANCH   5   6
ENDBRANCH   4   5
ENDBRANCH   3   4
ENDBRANCH   2   3
ENDBRANCH   1   2
BRANCH   1  15
ATOM     15  C   UNL     1      16.027  -4.929  35.548  1.00  0.00     0.000 C 
BRANCH  15  16
ATOM     16  C   UNL     1      17.406  -4.867  36.219  1.00  0.00     0.000 C 
BRANCH  16  17
ATOM     17  C   UNL     1      18.005  -6.272  36.378  1.00  0.00     0.000 C 
BRANCH  17  18
ATOM     18  C   UNL     1      19.358  -6.431  35.661  1.00  0.00    -0.000 C 
BRANCH  18  19
ATOM     19  C   UNL     1      19.289  -7.113  34.279  1.00  0.00    -0.000 C 
BRANCH  19  20
ATOM     20  C   UNL     1      19.797  -6.261  33.102  1.00  0.00    -0.000 C 
BRANCH  20  21
ATOM     21  C   UNL     1      19.371  -4.786  33.208  1.00  0.00    -0.000 C 
BRANCH  21  22
ATOM     22  C   UNL     1      20.559  -3.842  33.455  1.00  0.00    -0.000 C 
BRANCH  22  23
ATOM     23  C   UNL     1      20.334  -2.910  34.659  1.00  0.00    -0.000 C 
BRANCH  23  24
ATOM     24  C   UNL     1      18.958  -2.220  34.631  1.00  0.00    -0.000 C 
BRANCH  24  25
ATOM     25  C   UNL     1      18.811  -1.026  35.592  1.00  0.00    -0.003 C 
ATOM     26  C   UNL     1      20.153  -0.443  36.031  1.00  0.00     0.004 C 
ENDBRANCH  24  25
ENDBRANCH  23  24
ENDBRANCH  22  23
ENDBRANCH  21  22
ENDBRANCH  20  21
ENDBRANCH  19  20
ENDBRANCH  18  19
ENDBRANCH  17  18
ENDBRANCH  16  17
ENDBRANCH  15  16
ENDBRANCH   1  15
TORSDOF 22
ENDMDL
MODEL 2
REMARK VINA RESULT:    -5.291      8.120     13.738
REMARK INTER + INTRA:         -14.821
REMARK INTER:                 -11.828
REMARK INTRA:                  -2.993
REMARK UNBOUND:                -2.726
REMARK SMILES CCCCCCCCCCCCCCCCCCCCCCCC(=O)[O-]
REMARK SMILES IDX 13 1 14 2 15 3 16 4 17 5 18 6 19 7 20 8 21 9 22 10 23 11
REMARK SMILES IDX 24 12 25 13 26 14 12 15 11 16 10 17 9 18 8 19 7 20 6 21 5 22
REMARK SMILES IDX 4 23 3 24 2 25 1 26
REMARK H PARENT
REMARK Flexibility Score: inf
ROOT
ATOM      1  C   UNL     1      12.447   5.854  22.124  1.00  0.00     0.000 C 
ENDROOT
BRANCH   1   2
ATOM      2  C   UNL     1      11.512   5.766  20.904  1.00  0.00     0.000 C 
BRANCH   2   3
ATOM      3  C   UNL     1      12.054   4.844  19.798  1.00  0.00     0.000 C 
BRANCH   3   4
ATOM      4  C   UNL     1      12.126   5.542  18.430  1.00  0.00     0.000 C 
BRANCH   4   5
ATOM      5  C   UNL     1      11.863   7.056  18.520  1.00  0.00     0.000 C 
BRANCH   5   6
ATOM      6  C   UNL     1      10.616   7.488  17.732  1.00  0.00     0.000 C 
BRANCH   6   7
ATOM      7  C   UNL     1       9.954   6.317  16.985  1.00  0.00     0.000 C 
BRANCH   7   8
ATOM      8  C   UNL     1       8.507   6.073  17.442  1.00  0.00     0.000 C 
BRANCH   8   9
ATOM      9  C   UNL     1       8.363   6.105  18.974  1.00  0.00     0.000 C 
BRANCH   9  10
ATOM     10  C   UNL     1       8.352   4.699  19.602  1.00  0.00     0.006 C 
BRANCH  10  11
ATOM     11  C   UNL     1       8.197   3.553  18.589  1.00  0.00     0.053 C 
BRANCH  11  12
ATOM     12  C   UNL     1       9.425   2.698  18.515  1.00  0.00     0.041 C 
ATOM     13  O   UNL     1       9.814   2.058  19.528  1.00  0.00    -0.550 OA
ATOM     14  O   UNL     1      10.126   2.587  17.320  1.00  0.00    -0.550 OA
ENDBRANCH  11  12
ENDBRANCH  10  11
ENDBRANCH   9  10
ENDBRANCH   8   9
ENDBRANCH   7   8
ENDBRANCH   6   7
ENDBRANCH   5   6
ENDBRANCH   4   5
ENDBRANCH   3   4
ENDBRANCH   2   3
ENDBRANCH   1   2
BRANCH   1  15
ATOM     15  C   UNL     1      12.840   4.502  22.747  1.00  0.00     0.000 C 
BRANCH  15  16
ATOM     16  C   UNL     1      13.677   4.650  24.026  1.00  0.00     0.000 C 
BRANCH  16  17
ATOM     17  C   UNL     1      13.811   3.305  24.755  1.00  0.00     0.000 C 
BRANCH  17  18
ATOM     18  C   UNL     1      15.017   2.481  24.271  1.00  0.00    -0.000 C 
BRANCH  18  19
ATOM     19  C   UNL     1      15.621   1.527  25.322  1.00  0.00    -0.000 C 
BRANCH  19  20
ATOM     20  C   UNL     1      15.206   1.808  26.778  1.00  0.00    -0.000 C 
BRANCH  20  21
ATOM     21  C   UNL     1      14.399   0.655  27.400  1.00  0.00    -0.000 C 
BRANCH  21  22
ATOM     22  C   UNL     1      14.502  -0.646  26.588  1.00  0.00    -0.000 C 
BRANCH  22  23
ATOM     23  C   UNL     1      13.143  -1.105  26.029  1.00  0.00    -0.000 C 
BRANCH  23  24
ATOM     24  C   UNL     1      11.957  -0.343  26.647  1.00  0.00    -0.000 C 
BRANCH  24  25
ATOM     25  C   UNL     1      11.296   0.692  25.718  1.00  0.00    -0.003 C 
ATOM     26  C   UNL     1      11.741   0.560  24.262  1.00  0.00     0.004 C 
ENDBRANCH  24  25
ENDBRANCH  23  24
ENDBRANCH  22  23
ENDBRANCH  21  22
ENDBRANCH  20  21
ENDBRANCH  19  20
ENDBRANCH  18  19
ENDBRANCH  17  18
ENDBRANCH  16  17
ENDBRANCH  15  16
ENDBRANCH   1  15
TORSDOF 22
ENDMDL
MODEL 3
REMARK VINA RESULT:    -5.267      7.570     16.553
REMARK INTER + INTRA:         -14.766
REMARK INTER:                 -12.584
REMARK INTRA:                  -2.182
REMARK UNBOUND:                -2.726
REMARK SMILES CCCCCCCCCCCCCCCCCCCCCCCC(=O)[O-]
REMARK SMILES IDX 13 1 14 2 15 3 16 4 17 5 18 6 19 7 20 8 21 9 22 10 23 11
REMARK SMILES IDX 24 12 25 13 26 14 12 15 11 16 10 17 9 18 8 19 7 20 6 21 5 22
REMARK SMILES IDX 4 23 3 24 2 25 1 26
REMARK H PARENT
REMARK Flexibility Score: inf
ROOT
ATOM      1  C   UNL     1      10.630   6.668  21.312  1.00  0.00     0.000 C 
ENDROOT
BRANCH   1   2
ATOM      2  C   UNL     1      11.558   5.439  21.312  1.00  0.00     0.000 C 
BRANCH   2   3
ATOM      3  C   UNL     1      12.616   5.486  22.429  1.00  0.00     0.000 C 
BRANCH   3   4
ATOM      4  C   UNL     1      12.909   4.098  23.022  1.00  0.00     0.000 C 
BRANCH   4   5
ATOM      5  C   UNL     1      13.851   4.158  24.238  1.00  0.00     0.000 C 
BRANCH   5   6
ATOM      6  C   UNL     1      13.937   2.817  24.986  1.00  0.00     0.000 C 
BRANCH   6   7
ATOM      7  C   UNL     1      15.230   2.045  24.670  1.00  0.00     0.000 C 
BRANCH   7   8
ATOM      8  C   UNL     1      15.589   1.029  25.767  1.00  0.00     0.000 C 
BRANCH   8   9
ATOM      9  C   UNL     1      14.557   1.009  26.908  1.00  0.00     0.000 C 
BRANCH   9  10
ATOM     10  C   UNL     1      13.556  -0.155  26.785  1.00  0.00     0.006 C 
BRANCH  10  11
ATOM     11  C   UNL     1      14.199  -1.516  26.472  1.00  0.00     0.053 C 
BRANCH  11  12
ATOM     12  C   UNL     1      15.290  -1.859  27.441  1.00  0.00     0.041 C 
ATOM     13  O   UNL     1      16.380  -2.332  27.026  1.00  0.00    -0.550 OA
ATOM     14  O   UNL     1      15.111  -1.631  28.800  1.00  0.00    -0.550 OA
ENDBRANCH  11  12
ENDBRANCH  10  11
ENDBRANCH   9  10
ENDBRANCH   8   9
ENDBRANCH   7   8
ENDBRANCH   6   7
ENDBRANCH   5   6
ENDBRANCH   4   5
ENDBRANCH   3   4
ENDBRANCH   2   3
ENDBRANCH   1   2
BRANCH   1  15
ATOM     15  C   UNL     1      10.844   7.651  20.147  1.00  0.00     0.000 C 
BRANCH  15  16
ATOM     16  C   UNL     1      11.755   7.089  19.046  1.00  0.00     0.000 C 
BRANCH  16  17
ATOM     17  C   UNL     1      11.134   7.299  17.657  1.00  0.00     0.000 C 
BRANCH  17  18
ATOM     18  C   UNL     1       9.827   8.112  17.703  1.00  0.00    -0.000 C 
BRANCH  18  19
ATOM     19  C   UNL     1       8.576   7.365  17.197  1.00  0.00    -0.000 C 
BRANCH  19  20
ATOM     20  C   UNL     1       8.648   5.830  17.283  1.00  0.00    -0.000 C 
BRANCH  20  21
ATOM     21  C   UNL     1       8.105   5.283  18.616  1.00  0.00    -0.000 C 
BRANCH  21  22
ATOM     22  C   UNL     1       8.957   4.132  19.174  1.00  0.00    -0.000 C 
BRANCH  22  23
ATOM     23  C   UNL     1      10.105   3.733  18.229  1.00  0.00    -0.000 C 
BRANCH  23  24
ATOM     24  C   UNL     1       9.869   2.375  17.544  1.00  0.00    -0.000 C 
BRANCH  24  25
ATOM     25  C   UNL     1       8.863   1.454  18.257  1.00  0.00    -0.003 C 
ATOM     26  C   UNL     1       8.293   0.369  17.344  1.00  0.00     0.004 C 
ENDBRANCH  24  25
ENDBRANCH  23  24
ENDBRANCH  22  23
ENDBRANCH  21  22
ENDBRANCH  20  21
ENDBRANCH  19  20
ENDBRANCH  18  19
ENDBRANCH  17  18
ENDBRANCH  16  17
ENDBRANCH  15  16
ENDBRANCH   1  15
TORSDOF 22
ENDMDL
MODEL 4
REMARK VINA RESULT:    -5.154      3.266      8.328
REMARK INTER + INTRA:         -14.508
REMARK INTER:                 -11.411
REMARK INTRA:                  -3.098
REMARK UNBOUND:                -2.726
REMARK SMILES CCCCCCCCCCCCCCCCCCCCCCCC(=O)[O-]
REMARK SMILES IDX 13 1 14 2 15 3 16 4 17 5 18 6 19 7 20 8 21 9 22 10 23 11
REMARK SMILES IDX 24 12 25 13 26 14 12 15 11 16 10 17 9 18 8 19 7 20 6 21 5 22
REMARK SMILES IDX 4 23 3 24 2 25 1 26
REMARK H PARENT
REMARK Flexibility Score: inf
ROOT
ATOM      1  C   UNL     1      16.036  -6.783  32.549  1.00  0.00     0.000 C 
ENDROOT
BRANCH   1   2
ATOM      2  C   UNL     1      15.547  -6.670  34.005  1.00  0.00     0.000 C 
BRANCH   2   3
ATOM      3  C   UNL     1      15.553  -5.223  34.529  1.00  0.00     0.000 C 
BRANCH   3   4
ATOM      4  C   UNL     1      16.561  -5.012  35.670  1.00  0.00     0.000 C 
BRANCH   4   5
ATOM      5  C   UNL     1      17.269  -6.314  36.087  1.00  0.00     0.000 C 
BRANCH   5   6
ATOM      6  C   UNL     1      18.700  -6.073  36.595  1.00  0.00     0.000 C 
BRANCH   6   7
ATOM      7  C   UNL     1      19.762  -6.753  35.714  1.00  0.00     0.000 C 
BRANCH   7   8
ATOM      8  C   UNL     1      19.145  -7.489  34.513  1.00  0.00     0.000 C 
BRANCH   8   9
ATOM      9  C   UNL     1      19.494  -6.819  33.173  1.00  0.00     0.000 C 
BRANCH   9  10
ATOM     10  C   UNL     1      20.125  -5.425  33.350  1.00  0.00     0.006 C 
BRANCH  10  11
ATOM     11  C   UNL     1      19.129  -4.259  33.241  1.00  0.00     0.053 C 
BRANCH  11  12
ATOM     12  C   UNL     1      19.399  -3.192  34.257  1.00  0.00     0.041 C 
ATOM     13  O   UNL     1      20.390  -3.287  35.028  1.00  0.00    -0.550 OA
ATOM     14  O   UNL     1      18.570  -2.079  34.337  1.00  0.00    -0.550 OA
ENDBRANCH  11  12
ENDBRANCH  10  11
ENDBRANCH   9  10
ENDBRANCH   8   9
ENDBRANCH   7   8
ENDBRANCH   6   7
ENDBRANCH   5   6
ENDBRANCH   4   5
ENDBRANCH   3   4
ENDBRANCH   2   3
ENDBRANCH   1   2
BRANCH   1  15
ATOM     15  C   UNL     1      16.370  -5.445  31.864  1.00  0.00     0.000 C 
BRANCH  15  16
ATOM     16  C   UNL     1      15.851  -5.362  30.422  1.00  0.00     0.000 C 
BRANCH  16  17
ATOM     17  C   UNL     1      15.885  -3.916  29.906  1.00  0.00     0.000 C 
BRANCH  17  18
ATOM     18  C   UNL     1      15.217  -3.756  28.529  1.00  0.00    -0.000 C 
BRANCH  18  19
ATOM     19  C   UNL     1      16.154  -3.280  27.399  1.00  0.00    -0.000 C 
BRANCH  19  20
ATOM     20  C   UNL     1      15.983  -1.808  26.982  1.00  0.00    -0.000 C 
BRANCH  20  21
ATOM     21  C   UNL     1      14.753  -1.584  26.084  1.00  0.00    -0.000 C 
BRANCH  21  22
ATOM     22  C   UNL     1      13.735  -0.613  26.706  1.00  0.00    -0.000 C 
BRANCH  22  23
ATOM     23  C   UNL     1      14.403   0.630  27.322  1.00  0.00    -0.000 C 
BRANCH  23  24
ATOM     24  C   UNL     1      13.726   1.085  28.627  1.00  0.00    -0.000 C 
BRANCH  24  25
ATOM     25  C   UNL     1      13.766   0.056  29.772  1.00  0.00    -0.003 C 
ATOM     26  C   UNL     1      15.187  -0.317  30.193  1.00  0.00     0.004 C 
ENDBRANCH  24  25
ENDBRANCH  23  24
ENDBRANCH  22  23
ENDBRANCH  21  22
ENDBRANCH  20  21
ENDBRANCH  19  20
ENDBRANCH  18  19
ENDBRANCH  17  18
ENDBRANCH  16  17
ENDBRANCH  15  16
ENDBRANCH   1  15
TORSDOF 22
ENDMDL
MODEL 5
REMARK VINA RESULT:    -5.084      8.430     14.002
REMARK INTER + INTRA:         -14.348
REMARK INTER:                 -11.955
REMARK INTRA:                  -2.393
REMARK UNBOUND:                -2.726
REMARK SMILES CCCCCCCCCCCCCCCCCCCCCCCC(=O)[O-]
REMARK SMILES IDX 13 1 14 2 15 3 16 4 17 5 18 6 19 7 20 8 21 9 22 10 23 11
REMARK SMILES IDX 24 12 25 13 26 14 12 15 11 16 10 17 9 18 8 19 7 20 6 21 5 22
REMARK SMILES IDX 4 23 3 24 2 25 1 26
REMARK H PARENT
REMARK Flexibility Score: inf
ROOT
ATOM      1  C   UNL     1      11.386   5.133  20.802  1.00  0.00     0.000 C 
ENDROOT
BRANCH   1   2
ATOM      2  C   UNL     1      10.387   3.962  20.835  1.00  0.00     0.000 C 
BRANCH   2   3
ATOM      3  C   UNL     1      10.246   3.255  19.475  1.00  0.00     0.000 C 
BRANCH   3   4
ATOM      4  C   UNL     1       8.844   3.418  18.867  1.00  0.00     0.000 C 
BRANCH   4   5
ATOM      5  C   UNL     1       8.230   4.802  19.150  1.00  0.00     0.000 C 
BRANCH   5   6
ATOM      6  C   UNL     1       8.433   5.787  17.987  1.00  0.00     0.000 C 
BRANCH   6   7
ATOM      7  C   UNL     1       9.411   6.922  18.338  1.00  0.00     0.000 C 
BRANCH   7   8
ATOM      8  C   UNL     1      10.766   6.768  17.627  1.00  0.00     0.000 C 
BRANCH   8   9
ATOM      9  C   UNL     1      11.746   7.900  17.982  1.00  0.00     0.000 C 
BRANCH   9  10
ATOM     10  C   UNL     1      12.821   7.463  18.993  1.00  0.00     0.006 C 
BRANCH  10  11
ATOM     11  C   UNL     1      13.526   8.625  19.712  1.00  0.00     0.053 C 
BRANCH  11  12
ATOM     12  C   UNL     1      13.157   8.697  21.162  1.00  0.00     0.041 C 
ATOM     13  O   UNL     1      14.043   8.579  22.049  1.00  0.00    -0.550 OA
ATOM     14  O   UNL     1      11.836   8.918  21.534  1.00  0.00    -0.550 OA
ENDBRANCH  11  12
ENDBRANCH  10  11
ENDBRANCH   9  10
ENDBRANCH   8   9
ENDBRANCH   7   8
ENDBRANCH   6   7
ENDBRANCH   5   6
ENDBRANCH   4   5
ENDBRANCH   3   4
ENDBRANCH   2   3
ENDBRANCH   1   2
BRANCH   1  15
ATOM     15  C   UNL     1      12.141   5.387  22.120  1.00  0.00     0.000 C 
BRANCH  15  16
ATOM     16  C   UNL     1      12.642   4.096  22.784  1.00  0.00     0.000 C 
BRANCH  16  17
ATOM     17  C   UNL     1      13.609   4.408  23.935  1.00  0.00     0.000 C 
BRANCH  17  18
ATOM     18  C   UNL     1      14.027   3.153  24.722  1.00  0.00    -0.000 C 
BRANCH  18  19
ATOM     19  C   UNL     1      15.418   2.591  24.364  1.00  0.00    -0.000 C 
BRANCH  19  20
ATOM     20  C   UNL     1      15.883   1.398  25.219  1.00  0.00    -0.000 C 
BRANCH  20  21
ATOM     21  C   UNL     1      14.895   1.055  26.349  1.00  0.00    -0.000 C 
BRANCH  21  22
ATOM     22  C   UNL     1      14.698  -0.460  26.524  1.00  0.00    -0.000 C 
BRANCH  22  23
ATOM     23  C   UNL     1      13.229  -0.888  26.358  1.00  0.00    -0.000 C 
BRANCH  23  24
ATOM     24  C   UNL     1      12.237   0.240  26.695  1.00  0.00    -0.000 C 
BRANCH  24  25
ATOM     25  C   UNL     1      11.135   0.469  25.645  1.00  0.00    -0.003 C 
ATOM     26  C   UNL     1      11.686   0.714  24.241  1.00  0.00     0.004 C 
ENDBRANCH  24  25
ENDBRANCH  23  24
ENDBRANCH  22  23
ENDBRANCH  21  22
ENDBRANCH  20  21
ENDBRANCH  19  20
ENDBRANCH  18  19
ENDBRANCH  17  18
ENDBRANCH  16  17
ENDBRANCH  15  16
ENDBRANCH   1  15
TORSDOF 22
ENDMDL
MODEL 6
REMARK VINA RESULT:    -5.074      3.450      8.769
REMARK INTER + INTRA:         -14.325
REMARK INTER:                 -11.992
REMARK INTRA:                  -2.333
REMARK UNBOUND:                -2.726
REMARK SMILES CCCCCCCCCCCCCCCCCCCCCCCC(=O)[O-]
REMARK SMILES IDX 13 1 14 2 15 3 16 4 17 5 18 6 19 7 20 8 21 9 22 10 23 11
REMARK SMILES IDX 24 12 25 13 26 14 12 15 11 16 10 17 9 18 8 19 7 20 6 21 5 22
REMARK SMILES IDX 4 23 3 24 2 25 1 26
REMARK H PARENT
REMARK Flexibility Score: inf
ROOT
ATOM      1  C   UNL     1      16.933  -4.848  32.602  1.00  0.00     0.000 C 
ENDROOT
BRANCH   1   2
ATOM      2  C   UNL     1      16.924  -3.397  33.116  1.00  0.00     0.000 C 
BRANCH   2   3
ATOM      3  C   UNL     1      18.293  -2.942  33.653  1.00  0.00     0.000 C 
BRANCH   3   4
ATOM      4  C   UNL     1      18.814  -3.847  34.780  1.00  0.00     0.000 C 
BRANCH   4   5
ATOM      5  C   UNL     1      17.760  -4.107  35.872  1.00  0.00     0.000 C 
BRANCH   5   6
ATOM      6  C   UNL     1      17.667  -5.591  36.263  1.00  0.00     0.000 C 
BRANCH   6   7
ATOM      7  C   UNL     1      18.959  -6.367  35.948  1.00  0.00     0.000 C 
BRANCH   7   8
ATOM      8  C   UNL     1      18.703  -7.596  35.061  1.00  0.00     0.000 C 
BRANCH   8   9
ATOM      9  C   UNL     1      19.156  -7.375  33.607  1.00  0.00     0.000 C 
BRANCH   9  10
ATOM     10  C   UNL     1      18.323  -8.181  32.594  1.00  0.00     0.006 C 
BRANCH  10  11
ATOM     11  C   UNL     1      16.815  -8.206  32.888  1.00  0.00     0.053 C 
BRANCH  11  12
ATOM     12  C   UNL     1      16.049  -8.952  31.839  1.00  0.00     0.041 C 
ATOM     13  O   UNL     1      16.424  -8.921  30.637  1.00  0.00    -0.550 OA
ATOM     14  O   UNL     1      14.933  -9.703  32.192  1.00  0.00    -0.550 OA
ENDBRANCH  11  12
ENDBRANCH  10  11
ENDBRANCH   9  10
ENDBRANCH   8   9
ENDBRANCH   7   8
ENDBRANCH   6   7
ENDBRANCH   5   6
ENDBRANCH   4   5
ENDBRANCH   3   4
ENDBRANCH   2   3
ENDBRANCH   1   2
BRANCH   1  15
ATOM     15  C   UNL     1      16.296  -5.056  31.215  1.00  0.00     0.000 C 
BRANCH  15  16
ATOM     16  C   UNL     1      16.095  -3.744  30.443  1.00  0.00     0.000 C 
BRANCH  16  17
ATOM     17  C   UNL     1      15.539  -4.012  29.038  1.00  0.00     0.000 C 
BRANCH  17  18
ATOM     18  C   UNL     1      15.095  -2.727  28.315  1.00  0.00    -0.000 C 
BRANCH  18  19
ATOM     19  C   UNL     1      15.979  -2.309  27.123  1.00  0.00    -0.000 C 
BRANCH  19  20
ATOM     20  C   UNL     1      15.226  -1.683  25.936  1.00  0.00    -0.000 C 
BRANCH  20  21
ATOM     21  C   UNL     1      13.727  -1.481  26.222  1.00  0.00    -0.000 C 
BRANCH  21  22
ATOM     22  C   UNL     1      13.292  -0.012  26.095  1.00  0.00    -0.000 C 
BRANCH  22  23
ATOM     23  C   UNL     1      14.450   0.971  26.345  1.00  0.00    -0.000 C 
BRANCH  23  24
ATOM     24  C   UNL     1      14.772   1.145  27.841  1.00  0.00    -0.000 C 
BRANCH  24  25
ATOM     25  C   UNL     1      13.553   1.080  28.779  1.00  0.00    -0.003 C 
ATOM     26  C   UNL     1      13.780   0.181  29.994  1.00  0.00     0.004 C 
ENDBRANCH  24  25
ENDBRANCH  23  24
ENDBRANCH  22  23
ENDBRANCH  21  22
ENDBRANCH  20  21
ENDBRANCH  19  20
ENDBRANCH  18  19
ENDBRANCH  17  18
ENDBRANCH  16  17
ENDBRANCH  15  16
ENDBRANCH   1  15
TORSDOF 22
ENDMDL
MODEL 7
REMARK VINA RESULT:    -5.049      1.324      2.793
REMARK INTER + INTRA:         -14.270
REMARK INTER:                 -11.552
REMARK INTRA:                  -2.718
REMARK UNBOUND:                -2.726
REMARK SMILES CCCCCCCCCCCCCCCCCCCCCCCC(=O)[O-]
REMARK SMILES IDX 13 1 14 2 15 3 16 4 17 5 18 6 19 7 20 8 21 9 22 10 23 11
REMARK SMILES IDX 24 12 25 13 26 14 12 15 11 16 10 17 9 18 8 19 7 20 6 21 5 22
REMARK SMILES IDX 4 23 3 24 2 25 1 26
REMARK H PARENT
REMARK Flexibility Score: inf
ROOT
ATOM      1  C   UNL     1      15.987  -6.654  32.456  1.00  0.00     0.000 C 
ENDROOT
BRANCH   1   2
ATOM      2  C   UNL     1      16.472  -5.394  31.716  1.00  0.00     0.000 C 
BRANCH   2   3
ATOM      3  C   UNL     1      15.876  -5.261  30.303  1.00  0.00     0.000 C 
BRANCH   3   4
ATOM      4  C   UNL     1      15.879  -3.810  29.796  1.00  0.00     0.000 C 
BRANCH   4   5
ATOM      5  C   UNL     1      15.135  -3.646  28.458  1.00  0.00     0.000 C 
BRANCH   5   6
ATOM      6  C   UNL     1      15.374  -2.270  27.813  1.00  0.00     0.000 C 
BRANCH   6   7
ATOM      7  C   UNL     1      15.400  -1.130  28.846  1.00  0.00     0.000 C 
BRANCH   7   8
ATOM      8  C   UNL     1      14.075  -0.351  28.893  1.00  0.00     0.000 C 
BRANCH   8   9
ATOM      9  C   UNL     1      14.199   1.053  28.276  1.00  0.00     0.000 C 
BRANCH   9  10
ATOM     10  C   UNL     1      14.824   1.033  26.869  1.00  0.00     0.006 C 
BRANCH  10  11
ATOM     11  C   UNL     1      13.808   1.147  25.721  1.00  0.00     0.053 C 
BRANCH  11  12
ATOM     12  C   UNL     1      12.701   0.146  25.848  1.00  0.00     0.041 C 
ATOM     13  O   UNL     1      12.940  -1.084  25.718  1.00  0.00    -0.550 OA
ATOM     14  O   UNL     1      11.408   0.569  26.135  1.00  0.00    -0.550 OA
ENDBRANCH  11  12
ENDBRANCH  10  11
ENDBRANCH   9  10
ENDBRANCH   8   9
ENDBRANCH   7   8
ENDBRANCH   6   7
ENDBRANCH   5   6
ENDBRANCH   4   5
ENDBRANCH   3   4
ENDBRANCH   2   3
ENDBRANCH   1   2
BRANCH   1  15
ATOM     15  C   UNL     1      15.674  -6.456  33.951  1.00  0.00     0.000 C 
BRANCH  15  16
ATOM     16  C   UNL     1      15.835  -5.000  34.411  1.00  0.00     0.000 C 
BRANCH  16  17
ATOM     17  C   UNL     1      16.244  -4.932  35.890  1.00  0.00     0.000 C 
BRANCH  17  18
ATOM     18  C   UNL     1      17.699  -4.471  36.088  1.00  0.00    -0.000 C 
BRANCH  18  19
ATOM     19  C   UNL     1      18.606  -5.471  36.834  1.00  0.00    -0.000 C 
BRANCH  19  20
ATOM     20  C   UNL     1      18.084  -6.919  36.883  1.00  0.00    -0.000 C 
BRANCH  20  21
ATOM     21  C   UNL     1      18.643  -7.792  35.746  1.00  0.00    -0.000 C 
BRANCH  21  22
ATOM     22  C   UNL     1      19.737  -7.078  34.934  1.00  0.00    -0.000 C 
BRANCH  22  23
ATOM     23  C   UNL     1      19.384  -6.960  33.440  1.00  0.00    -0.000 C 
BRANCH  23  24
ATOM     24  C   UNL     1      20.098  -5.786  32.749  1.00  0.00    -0.000 C 
BRANCH  24  25
ATOM     25  C   UNL     1      19.528  -4.395  33.078  1.00  0.00    -0.003 C 
ATOM     26  C   UNL     1      20.513  -3.509  33.840  1.00  0.00     0.004 C 
ENDBRANCH  24  25
ENDBRANCH  23  24
ENDBRANCH  22  23
ENDBRANCH  21  22
ENDBRANCH  20  21
ENDBRANCH  19  20
ENDBRANCH  18  19
ENDBRANCH  17  18
ENDBRANCH  16  17
ENDBRANCH  15  16
ENDBRANCH   1  15
TORSDOF 22
ENDMDL
MODEL 8
REMARK VINA RESULT:    -5.022      3.387      8.609
REMARK INTER + INTRA:         -14.206
REMARK INTER:                 -11.431
REMARK INTRA:                  -2.775
REMARK UNBOUND:                -2.726
REMARK SMILES CCCCCCCCCCCCCCCCCCCCCCCC(=O)[O-]
REMARK SMILES IDX 13 1 14 2 15 3 16 4 17 5 18 6 19 7 20 8 21 9 22 10 23 11
REMARK SMILES IDX 24 12 25 13 26 14 12 15 11 16 10 17 9 18 8 19 7 20 6 21 5 22
REMARK SMILES IDX 4 23 3 24 2 25 1 26
REMARK H PARENT
REMARK Flexibility Score: inf
ROOT
ATOM      1  C   UNL     1      16.569  -5.363  31.658  1.00  0.00     0.000 C 
ENDROOT
BRANCH   1   2
ATOM      2  C   UNL     1      15.836  -6.182  32.737  1.00  0.00     0.000 C 
BRANCH   2   3
ATOM      3  C   UNL     1      16.533  -7.517  33.054  1.00  0.00     0.000 C 
BRANCH   3   4
ATOM      4  C   UNL     1      18.058  -7.442  32.878  1.00  0.00     0.000 C 
BRANCH   4   5
ATOM      5  C   UNL     1      18.816  -7.514  34.216  1.00  0.00     0.000 C 
BRANCH   5   6
ATOM      6  C   UNL     1      17.893  -7.320  35.430  1.00  0.00     0.000 C 
BRANCH   6   7
ATOM      7  C   UNL     1      18.614  -6.667  36.622  1.00  0.00     0.000 C 
BRANCH   7   8
ATOM      8  C   UNL     1      18.239  -5.186  36.795  1.00  0.00     0.000 C 
BRANCH   8   9
ATOM      9  C   UNL     1      17.248  -4.704  35.721  1.00  0.00     0.000 C 
BRANCH   9  10
ATOM     10  C   UNL     1      17.878  -3.703  34.735  1.00  0.00     0.006 C 
BRANCH  10  11
ATOM     11  C   UNL     1      19.379  -3.454  34.954  1.00  0.00     0.053 C 
BRANCH  11  12
ATOM     12  C   UNL     1      20.186  -3.762  33.730  1.00  0.00     0.041 C 
ATOM     13  O   UNL     1      19.708  -4.494  32.824  1.00  0.00    -0.550 OA
ATOM     14  O   UNL     1      21.457  -3.221  33.579  1.00  0.00    -0.550 OA
ENDBRANCH  11  12
ENDBRANCH  10  11
ENDBRANCH   9  10
ENDBRANCH   8   9
ENDBRANCH   7   8
ENDBRANCH   6   7
ENDBRANCH   5   6
ENDBRANCH   4   5
ENDBRANCH   3   4
ENDBRANCH   2   3
ENDBRANCH   1   2
BRANCH   1  15
ATOM     15  C   UNL     1      15.802  -5.188  30.335  1.00  0.00     0.000 C 
BRANCH  15  16
ATOM     16  C   UNL     1      15.820  -3.743  29.816  1.00  0.00     0.000 C 
BRANCH  16  17
ATOM     17  C   UNL     1      15.350  -3.677  28.355  1.00  0.00     0.000 C 
BRANCH  17  18
ATOM     18  C   UNL     1      16.238  -2.772  27.482  1.00  0.00    -0.000 C 
BRANCH  18  19
ATOM     19  C   UNL     1      15.490  -1.979  26.391  1.00  0.00    -0.000 C 
BRANCH  19  20
ATOM     20  C   UNL     1      13.966  -1.877  26.583  1.00  0.00    -0.000 C 
BRANCH  20  21
ATOM     21  C   UNL     1      13.432  -0.450  26.360  1.00  0.00    -0.000 C 
BRANCH  21  22
ATOM     22  C   UNL     1      14.552   0.603  26.333  1.00  0.00    -0.000 C 
BRANCH  22  23
ATOM     23  C   UNL     1      14.837   1.199  27.723  1.00  0.00    -0.000 C 
BRANCH  23  24
ATOM     24  C   UNL     1      13.633   1.092  28.676  1.00  0.00    -0.000 C 
BRANCH  24  25
ATOM     25  C   UNL     1      13.793   0.064  29.811  1.00  0.00    -0.003 C 
ATOM     26  C   UNL     1      15.253  -0.226  30.154  1.00  0.00     0.004 C 
ENDBRANCH  24  25
ENDBRANCH  23  24
ENDBRANCH  22  23
ENDBRANCH  21  22
ENDBRANCH  20  21
ENDBRANCH  19  20
ENDBRANCH  18  19
ENDBRANCH  17  18
ENDBRANCH  16  17
ENDBRANCH  15  16
ENDBRANCH   1  15
TORSDOF 22
ENDMDL
MODEL 9
REMARK VINA RESULT:    -4.976      1.171      1.551
REMARK INTER + INTRA:         -14.101
REMARK INTER:                 -11.349
REMARK INTRA:                  -2.752
REMARK UNBOUND:                -2.726
REMARK SMILES CCCCCCCCCCCCCCCCCCCCCCCC(=O)[O-]
REMARK SMILES IDX 13 1 14 2 15 3 16 4 17 5 18 6 19 7 20 8 21 9 22 10 23 11
REMARK SMILES IDX 24 12 25 13 26 14 12 15 11 16 10 17 9 18 8 19 7 20 6 21 5 22
REMARK SMILES IDX 4 23 3 24 2 25 1 26
REMARK H PARENT
REMARK Flexibility Score: inf
ROOT
ATOM      1  C   UNL     1      15.716  -6.535  33.761  1.00  0.00     0.000 C 
ENDROOT
BRANCH   1   2
ATOM      2  C   UNL     1      16.331  -6.645  32.354  1.00  0.00     0.000 C 
BRANCH   2   3
ATOM      3  C   UNL     1      16.522  -5.278  31.673  1.00  0.00     0.000 C 
BRANCH   3   4
ATOM      4  C   UNL     1      15.857  -5.210  30.289  1.00  0.00     0.000 C 
BRANCH   4   5
ATOM      5  C   UNL     1      15.878  -3.793  29.688  1.00  0.00     0.000 C 
BRANCH   5   6
ATOM      6  C   UNL     1      15.500  -3.777  28.198  1.00  0.00     0.000 C 
BRANCH   6   7
ATOM      7  C   UNL     1      16.184  -2.634  27.427  1.00  0.00     0.000 C 
BRANCH   7   8
ATOM      8  C   UNL     1      15.186  -1.559  26.965  1.00  0.00     0.000 C 
BRANCH   8   9
ATOM      9  C   UNL     1      14.754  -0.629  28.112  1.00  0.00     0.000 C 
BRANCH   9  10
ATOM     10  C   UNL     1      13.736   0.436  27.665  1.00  0.00     0.006 C 
BRANCH  10  11
ATOM     11  C   UNL     1      13.578   0.563  26.141  1.00  0.00     0.053 C 
BRANCH  11  12
ATOM     12  C   UNL     1      14.414   1.672  25.579  1.00  0.00     0.041 C 
ATOM     13  O   UNL     1      15.645   1.731  25.836  1.00  0.00    -0.550 OA
ATOM     14  O   UNL     1      13.838   2.627  24.750  1.00  0.00    -0.550 OA
ENDBRANCH  11  12
ENDBRANCH  10  11
ENDBRANCH   9  10
ENDBRANCH   8   9
ENDBRANCH   7   8
ENDBRANCH   6   7
ENDBRANCH   5   6
ENDBRANCH   4   5
ENDBRANCH   3   4
ENDBRANCH   2   3
ENDBRANCH   1   2
BRANCH   1  15
ATOM     15  C   UNL     1      15.553  -5.100  34.294  1.00  0.00     0.000 C 
BRANCH  15  16
ATOM     16  C   UNL     1      16.265  -4.872  35.635  1.00  0.00     0.000 C 
BRANCH  16  17
ATOM     17  C   UNL     1      17.130  -6.084  36.012  1.00  0.00     0.000 C 
BRANCH  17  18
ATOM     18  C   UNL     1      18.485  -5.684  36.622  1.00  0.00    -0.000 C 
BRANCH  18  19
ATOM     19  C   UNL     1      19.691  -5.792  35.666  1.00  0.00    -0.000 C 
BRANCH  19  20
ATOM     20  C   UNL     1      19.345  -6.176  34.216  1.00  0.00    -0.000 C 
BRANCH  20  21
ATOM     21  C   UNL     1      19.995  -5.240  33.181  1.00  0.00    -0.000 C 
BRANCH  21  22
ATOM     22  C   UNL     1      20.017  -3.774  33.641  1.00  0.00    -0.000 C 
BRANCH  22  23
ATOM     23  C   UNL     1      18.614  -3.141  33.670  1.00  0.00    -0.000 C 
BRANCH  23  24
ATOM     24  C   UNL     1      18.513  -1.958  34.650  1.00  0.00    -0.000 C 
BRANCH  24  25
ATOM     25  C   UNL     1      19.694  -1.823  35.628  1.00  0.00    -0.003 C 
ATOM     26  C   UNL     1      19.998  -0.373  36.003  1.00  0.00     0.004 C 
ENDBRANCH  24  25
ENDBRANCH  23  24
ENDBRANCH  22  23
ENDBRANCH  21  22
ENDBRANCH  20  21
ENDBRANCH  19  20
ENDBRANCH  18  19
ENDBRANCH  17  18
ENDBRANCH  16  17
ENDBRANCH  15  16
ENDBRANCH   1  15
TORSDOF 22
ENDMDL
