MODEL 1
REMARK VINA RESULT:    -0.924      0.000      0.000
REMARK INTER + INTRA:          -1.272
REMARK INTER:                  -2.003
REMARK INTRA:                   0.732
REMARK UNBOUND:                 0.732
REMARK SMILES CCCCCCCCCCCCCCCCCCCCCC(=O)[O-]
REMARK SMILES IDX 12 1 11 2 10 3 9 4 8 5 7 6 6 7 5 8 4 9 3 10 2 11 1 12 13 13
REMARK SMILES IDX 14 14 15 15 16 16 17 17 18 18 19 19 20 20 21 21 22 22 23 23
REMARK SMILES IDX 24 24
REMARK H PARENT
REMARK Flexibility Score: inf
ROOT
ATOM      1  C   UNL     1     -11.302  -9.052   2.054  1.00  0.00     0.000 C 
ENDROOT
BRANCH   1   2
ATOM      2  C   UNL     1     -11.632 -10.513   1.704  1.00  0.00     0.000 C 
BRANCH   2   3
ATOM      3  C   UNL     1     -12.047 -11.334   2.938  1.00  0.00     0.000 C 
BRANCH   3   4
ATOM      4  C   UNL     1     -11.217 -10.988   4.186  1.00  0.00    -0.000 C 
BRANCH   4   5
ATOM      5  C   UNL     1     -11.213 -12.122   5.227  1.00  0.00    -0.000 C 
BRANCH   5   6
ATOM      6  C   UNL     1     -12.125 -11.821   6.429  1.00  0.00    -0.000 C 
BRANCH   6   7
ATOM      7  C   UNL     1     -11.421 -10.995   7.515  1.00  0.00    -0.000 C 
BRANCH   7   8
ATOM      8  C   UNL     1     -10.560 -11.894   8.415  1.00  0.00    -0.000 C 
BRANCH   8   9
ATOM      9  C   UNL     1     -10.623 -11.487   9.896  1.00  0.00    -0.000 C 
BRANCH   9  10
ATOM     10  C   UNL     1     -10.939  -9.997  10.089  1.00  0.00    -0.000 C 
BRANCH  10  11
ATOM     11  C   UNL     1     -11.877  -9.786  11.283  1.00  0.00    -0.003 C 
ATOM     12  C   UNL     1     -11.167  -9.057  12.420  1.00  0.00     0.004 C 
ENDBRANCH  10  11
ENDBRANCH   9  10
ENDBRANCH   8   9
ENDBRANCH   7   8
ENDBRANCH   6   7
ENDBRANCH   5   6
ENDBRANCH   4   5
ENDBRANCH   3   4
ENDBRANCH   2   3
ENDBRANCH   1   2
BRANCH   1  13
ATOM     13  C   UNL     1     -12.121  -8.046   1.230  1.00  0.00     0.000 C 
BRANCH  13  14
ATOM     14  C   UNL     1     -12.045  -8.373  -0.265  1.00  0.00     0.000 C 
BRANCH  14  15
ATOM     15  C   UNL     1     -11.667  -9.842  -0.491  1.00  0.00     0.000 C 
BRANCH  15  16
ATOM     16  C   UNL     1     -11.619 -10.173  -1.987  1.00  0.00     0.000 C 
BRANCH  16  17
ATOM     17  C   UNL     1     -11.909  -8.932  -2.839  1.00  0.00     0.000 C 
BRANCH  17  18
ATOM     18  C   UNL     1     -12.096  -9.311  -4.316  1.00  0.00     0.000 C 
BRANCH  18  19
ATOM     19  C   UNL     1     -10.764  -9.415  -5.074  1.00  0.00     0.000 C 
BRANCH  19  20
ATOM     20  C   UNL     1     -10.134 -10.816  -4.976  1.00  0.00     0.006 C 
BRANCH  20  21
ATOM     21  C   UNL     1      -8.846 -10.815  -4.141  1.00  0.00     0.053 C 
BRANCH  21  22
ATOM     22  C   UNL     1      -7.626 -10.659  -4.997  1.00  0.00     0.041 C 
ATOM     23  O   UNL     1      -7.347 -11.526  -5.866  1.00  0.00    -0.550 OA
ATOM     24  O   UNL     1      -6.815  -9.540  -4.856  1.00  0.00    -0.550 OA
ENDBRANCH  21  22
ENDBRANCH  20  21
ENDBRANCH  19  20
ENDBRANCH  18  19
ENDBRANCH  17  18
ENDBRANCH  16  17
ENDBRANCH  15  16
ENDBRANCH  14  15
ENDBRANCH  13  14
ENDBRANCH   1  13
TORSDOF 20
ENDMDL
MODEL 2
REMARK VINA RESULT:    -0.478      5.229     11.934
REMARK INTER + INTRA:          -0.304
REMARK INTER:                   1.179
REMARK INTRA:                  -1.483
REMARK UNBOUND:                 0.732
REMARK SMILES CCCCCCCCCCCCCCCCCCCCCC(=O)[O-]
REMARK SMILES IDX 12 1 11 2 10 3 9 4 8 5 7 6 6 7 5 8 4 9 3 10 2 11 1 12 13 13
REMARK SMILES IDX 14 14 15 15 16 16 17 17 18 18 19 19 20 20 21 21 22 22 23 23
REMARK SMILES IDX 24 24
REMARK H PARENT
REMARK Flexibility Score: inf
ROOT
ATOM      1  C   UNL     1     -12.125  -9.028   2.043  1.00  0.00     0.000 C 
ENDROOT
BRANCH   1   2
ATOM      2  C   UNL     1     -11.023  -8.486   1.117  1.00  0.00     0.000 C 
BRANCH   2   3
ATOM      3  C   UNL     1     -11.206  -8.939  -0.343  1.00  0.00     0.000 C 
BRANCH   3   4
ATOM      4  C   UNL     1     -10.262 -10.091  -0.728  1.00  0.00    -0.000 C 
BRANCH   4   5
ATOM      5  C   UNL     1     -10.988 -11.229  -1.468  1.00  0.00    -0.000 C 
BRANCH   5   6
ATOM      6  C   UNL     1     -12.026 -10.707  -2.476  1.00  0.00    -0.000 C 
BRANCH   6   7
ATOM      7  C   UNL     1     -11.717 -11.132  -3.919  1.00  0.00    -0.000 C 
BRANCH   7   8
ATOM      8  C   UNL     1     -11.259  -9.929  -4.759  1.00  0.00    -0.000 C 
BRANCH   8   9
ATOM      9  C   UNL     1      -9.987 -10.220  -5.569  1.00  0.00    -0.000 C 
BRANCH   9  10
ATOM     10  C   UNL     1      -9.089 -11.276  -4.907  1.00  0.00    -0.000 C 
BRANCH  10  11
ATOM     11  C   UNL     1      -7.689 -10.714  -4.640  1.00  0.00    -0.003 C 
ATOM     12  C   UNL     1      -6.956 -10.414  -5.945  1.00  0.00     0.004 C 
ENDBRANCH  10  11
ENDBRANCH   9  10
ENDBRANCH   8   9
ENDBRANCH   7   8
ENDBRANCH   6   7
ENDBRANCH   5   6
ENDBRANCH   4   5
ENDBRANCH   3   4
ENDBRANCH   2   3
ENDBRANCH   1   2
BRANCH   1  13
ATOM     13  C   UNL     1     -11.568  -9.595   3.359  1.00  0.00     0.000 C 
BRANCH  13  14
ATOM     14  C   UNL     1     -10.981 -10.995   3.145  1.00  0.00     0.000 C 
BRANCH  14  15
ATOM     15  C   UNL     1     -11.974 -12.083   3.571  1.00  0.00     0.000 C 
BRANCH  15  16
ATOM     16  C   UNL     1     -12.124 -12.124   5.096  1.00  0.00     0.000 C 
BRANCH  16  17
ATOM     17  C   UNL     1     -10.756 -12.086   5.788  1.00  0.00     0.000 C 
BRANCH  17  18
ATOM     18  C   UNL     1     -10.879 -11.534   7.217  1.00  0.00     0.000 C 
BRANCH  18  19
ATOM     19  C   UNL     1      -9.555 -11.598   7.993  1.00  0.00     0.000 C 
BRANCH  19  20
ATOM     20  C   UNL     1      -9.736 -11.327   9.497  1.00  0.00     0.006 C 
BRANCH  20  21
ATOM     21  C   UNL     1     -11.002 -10.510   9.790  1.00  0.00     0.053 C 
BRANCH  21  22
ATOM     22  C   UNL     1     -11.256 -10.381  11.261  1.00  0.00     0.041 C 
ATOM     23  O   UNL     1     -11.254  -9.247  11.807  1.00  0.00    -0.550 OA
ATOM     24  O   UNL     1     -11.526 -11.511  12.022  1.00  0.00    -0.550 OA
ENDBRANCH  21  22
ENDBRANCH  20  21
ENDBRANCH  19  20
ENDBRANCH  18  19
ENDBRANCH  17  18
ENDBRANCH  16  17
ENDBRANCH  15  16
ENDBRANCH  14  15
ENDBRANCH  13  14
ENDBRANCH   1  13
TORSDOF 20
ENDMDL
MODEL 3
REMARK VINA RESULT:    -0.231      3.287     10.291
REMARK INTER + INTRA:           0.230
REMARK INTER:                   1.591
REMARK INTRA:                  -1.361
REMARK UNBOUND:                 0.732
REMARK SMILES CCCCCCCCCCCCCCCCCCCCCC(=O)[O-]
REMARK SMILES IDX 12 1 11 2 10 3 9 4 8 5 7 6 6 7 5 8 4 9 3 10 2 11 1 12 13 13
REMARK SMILES IDX 14 14 15 15 16 16 17 17 18 18 19 19 20 20 21 21 22 22 23 23
REMARK SMILES IDX 24 24
REMARK H PARENT
REMARK Flexibility Score: inf
ROOT
ATOM      1  C   UNL     1     -11.814 -10.926   4.517  1.00  0.00     0.000 C 
ENDROOT
BRANCH   1   2
ATOM      2  C   UNL     1     -12.083  -9.701   3.628  1.00  0.00     0.000 C 
BRANCH   2   3
ATOM      3  C   UNL     1     -12.091 -10.051   2.130  1.00  0.00     0.000 C 
BRANCH   3   4
ATOM      4  C   UNL     1     -12.021 -11.567   1.876  1.00  0.00    -0.000 C 
BRANCH   4   5
ATOM      5  C   UNL     1     -12.011 -11.916   0.377  1.00  0.00    -0.000 C 
BRANCH   5   6
ATOM      6  C   UNL     1     -10.642 -11.663  -0.278  1.00  0.00    -0.000 C 
BRANCH   6   7
ATOM      7  C   UNL     1     -10.561 -10.294  -0.971  1.00  0.00    -0.000 C 
BRANCH   7   8
ATOM      8  C   UNL     1     -11.327 -10.308  -2.302  1.00  0.00    -0.000 C 
BRANCH   8   9
ATOM      9  C   UNL     1     -10.428  -9.997  -3.508  1.00  0.00    -0.000 C 
BRANCH   9  10
ATOM     10  C   UNL     1     -11.211  -9.907  -4.826  1.00  0.00    -0.000 C 
BRANCH  10  11
ATOM     11  C   UNL     1     -10.346 -10.356  -6.009  1.00  0.00    -0.003 C 
ATOM     12  C   UNL     1      -8.864 -10.118  -5.731  1.00  0.00     0.004 C 
ENDBRANCH  10  11
ENDBRANCH   9  10
ENDBRANCH   8   9
ENDBRANCH   7   8
ENDBRANCH   6   7
ENDBRANCH   5   6
ENDBRANCH   4   5
ENDBRANCH   3   4
ENDBRANCH   2   3
ENDBRANCH   1   2
BRANCH   1  13
ATOM     13  C   UNL     1     -12.124 -10.664   6.000  1.00  0.00     0.000 C 
BRANCH  13  14
ATOM     14  C   UNL     1     -11.576  -9.302   6.440  1.00  0.00     0.000 C 
BRANCH  14  15
ATOM     15  C   UNL     1     -11.204  -9.310   7.927  1.00  0.00     0.000 C 
BRANCH  15  16
ATOM     16  C   UNL     1     -11.495 -10.676   8.560  1.00  0.00     0.000 C 
BRANCH  16  17
ATOM     17  C   UNL     1     -10.197 -11.399   8.938  1.00  0.00     0.000 C 
BRANCH  17  18
ATOM     18  C   UNL     1      -9.599 -12.124   7.722  1.00  0.00     0.000 C 
BRANCH  18  19
ATOM     19  C   UNL     1      -8.243 -11.543   7.294  1.00  0.00     0.000 C 
BRANCH  19  20
ATOM     20  C   UNL     1      -7.818 -12.006   5.889  1.00  0.00     0.006 C 
BRANCH  20  21
ATOM     21  C   UNL     1      -6.311 -11.837   5.654  1.00  0.00     0.053 C 
BRANCH  21  22
ATOM     22  C   UNL     1      -6.012 -11.360   4.265  1.00  0.00     0.041 C 
ATOM     23  O   UNL     1      -6.726 -11.735   3.299  1.00  0.00    -0.550 OA
ATOM     24  O   UNL     1      -4.964 -10.476   4.044  1.00  0.00    -0.550 OA
ENDBRANCH  21  22
ENDBRANCH  20  21
ENDBRANCH  19  20
ENDBRANCH  18  19
ENDBRANCH  17  18
ENDBRANCH  16  17
ENDBRANCH  15  16
ENDBRANCH  14  15
ENDBRANCH  13  14
ENDBRANCH   1  13
TORSDOF 20
ENDMDL
MODEL 4
REMARK VINA RESULT:     0.983     22.757     24.533
REMARK INTER + INTRA:           2.865
REMARK INTER:                   3.796
REMARK INTRA:                  -0.931
REMARK UNBOUND:                 0.732
REMARK SMILES CCCCCCCCCCCCCCCCCCCCCC(=O)[O-]
REMARK SMILES IDX 12 1 11 2 10 3 9 4 8 5 7 6 6 7 5 8 4 9 3 10 2 11 1 12 13 13
REMARK SMILES IDX 14 14 15 15 16 16 17 17 18 18 19 19 20 20 21 21 22 22 23 23
REMARK SMILES IDX 24 24
REMARK H PARENT
REMARK Flexibility Score: inf
ROOT
ATOM      1  C   UNL     1       6.687   7.064   3.625  1.00  0.00     0.000 C 
ENDROOT
BRANCH   1   2
ATOM      2  C   UNL     1       5.577   8.123   3.728  1.00  0.00     0.000 C 
BRANCH   2   3
ATOM      3  C   UNL     1       4.724   7.959   5.000  1.00  0.00     0.000 C 
BRANCH   3   4
ATOM      4  C   UNL     1       3.232   7.751   4.689  1.00  0.00    -0.000 C 
BRANCH   4   5
ATOM      5  C   UNL     1       2.906   7.942   3.197  1.00  0.00    -0.000 C 
BRANCH   5   6
ATOM      6  C   UNL     1       2.533   6.622   2.502  1.00  0.00    -0.000 C 
BRANCH   6   7
ATOM      7  C   UNL     1       3.465   6.286   1.328  1.00  0.00    -0.000 C 
BRANCH   7   8
ATOM      8  C   UNL     1       4.316   5.046   1.641  1.00  0.00    -0.000 C 
BRANCH   8   9
ATOM      9  C   UNL     1       5.583   4.962   0.776  1.00  0.00    -0.000 C 
BRANCH   9  10
ATOM     10  C   UNL     1       6.059   3.518   0.558  1.00  0.00    -0.000 C 
BRANCH  10  11
ATOM     11  C   UNL     1       7.568   3.397   0.795  1.00  0.00    -0.003 C 
ATOM     12  C   UNL     1       7.994   4.167   2.043  1.00  0.00     0.004 C 
ENDBRANCH  10  11
ENDBRANCH   9  10
ENDBRANCH   8   9
ENDBRANCH   7   8
ENDBRANCH   6   7
ENDBRANCH   5   6
ENDBRANCH   4   5
ENDBRANCH   3   4
ENDBRANCH   2   3
ENDBRANCH   1   2
BRANCH   1  13
ATOM     13  C   UNL     1       8.056   7.672   3.278  1.00  0.00     0.000 C 
BRANCH  13  14
ATOM     14  C   UNL     1       8.105   8.103   1.808  1.00  0.00     0.000 C 
BRANCH  14  15
ATOM     15  C   UNL     1       7.355   7.107   0.914  1.00  0.00     0.000 C 
BRANCH  15  16
ATOM     16  C   UNL     1       6.785   7.804  -0.327  1.00  0.00     0.000 C 
BRANCH  16  17
ATOM     17  C   UNL     1       7.853   7.958  -1.416  1.00  0.00     0.000 C 
BRANCH  17  18
ATOM     18  C   UNL     1       7.215   7.964  -2.813  1.00  0.00     0.000 C 
BRANCH  18  19
ATOM     19  C   UNL     1       5.835   7.289  -2.837  1.00  0.00     0.000 C 
BRANCH  19  20
ATOM     20  C   UNL     1       4.967   7.760  -4.018  1.00  0.00     0.006 C 
BRANCH  20  21
ATOM     21  C   UNL     1       5.807   8.103  -5.255  1.00  0.00     0.053 C 
BRANCH  21  22
ATOM     22  C   UNL     1       6.693   6.964  -5.662  1.00  0.00     0.041 C 
ATOM     23  O   UNL     1       7.903   7.171  -5.940  1.00  0.00    -0.550 OA
ATOM     24  O   UNL     1       6.188   5.671  -5.703  1.00  0.00    -0.550 OA
ENDBRANCH  21  22
ENDBRANCH  20  21
ENDBRANCH  19  20
ENDBRANCH  18  19
ENDBRANCH  17  18
ENDBRANCH  16  17
ENDBRANCH  15  16
ENDBRANCH  14  15
ENDBRANCH  13  14
ENDBRANCH   1  13
TORSDOF 20
ENDMDL
MODEL 5
REMARK VINA RESULT:     1.916     22.142     24.164
REMARK INTER + INTRA:           4.889
REMARK INTER:                   5.068
REMARK INTRA:                  -0.179
REMARK UNBOUND:                 0.732
REMARK SMILES CCCCCCCCCCCCCCCCCCCCCC(=O)[O-]
REMARK SMILES IDX 12 1 11 2 10 3 9 4 8 5 7 6 6 7 5 8 4 9 3 10 2 11 1 12 13 13
REMARK SMILES IDX 14 14 15 15 16 16 17 17 18 18 19 19 20 20 21 21 22 22 23 23
REMARK SMILES IDX 24 24
REMARK H PARENT
REMARK Flexibility Score: inf
ROOT
ATOM      1  C   UNL     1       4.359   6.951   3.997  1.00  0.00     0.000 C 
ENDROOT
BRANCH   1   2
ATOM      2  C   UNL     1       5.867   7.221   3.865  1.00  0.00     0.000 C 
BRANCH   2   3
ATOM      3  C   UNL     1       6.255   7.714   2.459  1.00  0.00     0.000 C 
BRANCH   3   4
ATOM      4  C   UNL     1       7.759   7.562   2.173  1.00  0.00    -0.000 C 
BRANCH   4   5
ATOM      5  C   UNL     1       8.072   6.351   1.276  1.00  0.00    -0.000 C 
BRANCH   5   6
ATOM      6  C   UNL     1       7.907   5.013   2.016  1.00  0.00    -0.000 C 
BRANCH   6   7
ATOM      7  C   UNL     1       7.418   3.883   1.096  1.00  0.00    -0.000 C 
BRANCH   7   8
ATOM      8  C   UNL     1       5.883   3.832   1.061  1.00  0.00    -0.000 C 
BRANCH   8   9
ATOM      9  C   UNL     1       5.294   4.530  -0.174  1.00  0.00    -0.000 C 
BRANCH   9  10
ATOM     10  C   UNL     1       3.960   3.916  -0.623  1.00  0.00    -0.000 C 
BRANCH  10  11
ATOM     11  C   UNL     1       4.096   3.257  -2.000  1.00  0.00    -0.003 C 
ATOM     12  C   UNL     1       4.401   1.768  -1.872  1.00  0.00     0.004 C 
ENDBRANCH  10  11
ENDBRANCH   9  10
ENDBRANCH   8   9
ENDBRANCH   7   8
ENDBRANCH   6   7
ENDBRANCH   5   6
ENDBRANCH   4   5
ENDBRANCH   3   4
ENDBRANCH   2   3
ENDBRANCH   1   2
BRANCH   1  13
ATOM     13  C   UNL     1       3.938   5.616   3.362  1.00  0.00     0.000 C 
BRANCH  13  14
ATOM     14  C   UNL     1       3.201   5.850   2.038  1.00  0.00     0.000 C 
BRANCH  14  15
ATOM     15  C   UNL     1       3.087   7.347   1.726  1.00  0.00     0.000 C 
BRANCH  15  16
ATOM     16  C   UNL     1       4.339   7.854   1.000  1.00  0.00     0.000 C 
BRANCH  16  17
ATOM     17  C   UNL     1       4.048   8.125  -0.482  1.00  0.00     0.000 C 
BRANCH  17  18
ATOM     18  C   UNL     1       5.335   8.047  -1.316  1.00  0.00     0.000 C 
BRANCH  18  19
ATOM     19  C   UNL     1       5.164   7.207  -2.592  1.00  0.00     0.000 C 
BRANCH  19  20
ATOM     20  C   UNL     1       5.076   8.071  -3.862  1.00  0.00     0.006 C 
BRANCH  20  21
ATOM     21  C   UNL     1       5.887   7.480  -5.023  1.00  0.00     0.053 C 
BRANCH  21  22
ATOM     22  C   UNL     1       7.344   7.817  -4.916  1.00  0.00     0.041 C 
ATOM     23  O   UNL     1       8.013   8.068  -5.952  1.00  0.00    -0.550 OA
ATOM     24  O   UNL     1       7.953   7.885  -3.670  1.00  0.00    -0.550 OA
ENDBRANCH  21  22
ENDBRANCH  20  21
ENDBRANCH  19  20
ENDBRANCH  18  19
ENDBRANCH  17  18
ENDBRANCH  16  17
ENDBRANCH  15  16
ENDBRANCH  14  15
ENDBRANCH  13  14
ENDBRANCH   1  13
TORSDOF 20
ENDMDL
