MODEL 1
REMARK VINA RESULT:    -3.479      0.000      0.000
REMARK INTER + INTRA:          -6.334
REMARK INTER:                  -5.513
REMARK INTRA:                  -0.821
REMARK UNBOUND:                -0.821
REMARK SMILES CCCCCCCCCCCC(=O)[O-]
REMARK SMILES IDX 7 1 8 2 9 3 10 4 11 5 12 6 13 7 14 8 6 9 5 10 4 11 3 12 2 13
REMARK SMILES IDX 1 14
REMARK H PARENT
REMARK Flexibility Score: inf
ROOT
ATOM      1  C   UNL     1      13.810  38.366   7.776  1.00  0.00     0.000 C 
ENDROOT
BRANCH   1   2
ATOM      2  C   UNL     1      14.824  38.829   6.715  1.00  0.00     0.000 C 
BRANCH   2   3
ATOM      3  C   UNL     1      16.255  39.074   7.236  1.00  0.00     0.000 C 
BRANCH   3   4
ATOM      4  C   UNL     1      16.747  40.532   7.137  1.00  0.00     0.006 C 
BRANCH   4   5
ATOM      5  C   UNL     1      16.871  41.254   8.487  1.00  0.00     0.053 C 
BRANCH   5   6
ATOM      6  C   UNL     1      16.001  42.472   8.554  1.00  0.00     0.041 C 
ATOM      7  O   UNL     1      14.755  42.367   8.411  1.00  0.00    -0.550 OA
ATOM      8  O   UNL     1      16.564  43.716   8.807  1.00  0.00    -0.550 OA
ENDBRANCH   5   6
ENDBRANCH   4   5
ENDBRANCH   3   4
ENDBRANCH   2   3
ENDBRANCH   1   2
BRANCH   1   9
ATOM      9  C   UNL     1      14.222  38.758   9.206  1.00  0.00     0.000 C 
BRANCH   9  10
ATOM     10  C   UNL     1      14.064  37.599  10.203  1.00  0.00    -0.000 C 
BRANCH  10  11
ATOM     11  C   UNL     1      15.232  37.516  11.201  1.00  0.00    -0.000 C 
BRANCH  11  12
ATOM     12  C   UNL     1      15.163  38.608  12.281  1.00  0.00    -0.000 C 
BRANCH  12  13
ATOM     13  C   UNL     1      14.473  38.129  13.566  1.00  0.00    -0.003 C 
ATOM     14  C   UNL     1      13.048  38.670  13.660  1.00  0.00     0.004 C 
ENDBRANCH  12  13
ENDBRANCH  11  12
ENDBRANCH  10  11
ENDBRANCH   9  10
ENDBRANCH   1   9
TORSDOF 10
ENDMDL
MODEL 2
REMARK VINA RESULT:    -3.454      3.416      5.758
REMARK INTER + INTRA:          -6.294
REMARK INTER:                  -5.447
REMARK INTRA:                  -0.847
REMARK UNBOUND:                -0.821
REMARK SMILES CCCCCCCCCCCC(=O)[O-]
REMARK SMILES IDX 7 1 8 2 9 3 10 4 11 5 12 6 13 7 14 8 6 9 5 10 4 11 3 12 2 13
REMARK SMILES IDX 1 14
REMARK H PARENT
REMARK Flexibility Score: inf
ROOT
ATOM      1  C   UNL     1      13.891  38.361   7.745  1.00  0.00     0.000 C 
ENDROOT
BRANCH   1   2
ATOM      2  C   UNL     1      14.124  38.820   9.196  1.00  0.00     0.000 C 
BRANCH   2   3
ATOM      3  C   UNL     1      14.169  37.689  10.243  1.00  0.00     0.000 C 
BRANCH   3   4
ATOM      4  C   UNL     1      14.890  38.043  11.559  1.00  0.00     0.006 C 
BRANCH   4   5
ATOM      5  C   UNL     1      16.341  37.546  11.642  1.00  0.00     0.053 C 
BRANCH   5   6
ATOM      6  C   UNL     1      16.435  36.193  12.278  1.00  0.00     0.041 C 
ATOM      7  O   UNL     1      16.449  36.083  13.532  1.00  0.00    -0.550 OA
ATOM      8  O   UNL     1      16.473  35.052  11.486  1.00  0.00    -0.550 OA
ENDBRANCH   5   6
ENDBRANCH   4   5
ENDBRANCH   3   4
ENDBRANCH   2   3
ENDBRANCH   1   2
BRANCH   1   9
ATOM      9  C   UNL     1      14.967  38.882   6.776  1.00  0.00     0.000 C 
BRANCH   9  10
ATOM     10  C   UNL     1      16.284  39.228   7.489  1.00  0.00    -0.000 C 
BRANCH  10  11
ATOM     11  C   UNL     1      16.733  40.676   7.227  1.00  0.00    -0.000 C 
BRANCH  11  12
ATOM     12  C   UNL     1      15.547  41.642   7.069  1.00  0.00    -0.000 C 
BRANCH  12  13
ATOM     13  C   UNL     1      15.109  42.266   8.402  1.00  0.00    -0.003 C 
ATOM     14  C   UNL     1      16.071  43.369   8.835  1.00  0.00     0.004 C 
ENDBRANCH  12  13
ENDBRANCH  11  12
ENDBRANCH  10  11
ENDBRANCH   9  10
ENDBRANCH   1   9
TORSDOF 10
ENDMDL
MODEL 3
REMARK VINA RESULT:    -3.448      2.442      5.207
REMARK INTER + INTRA:          -6.285
REMARK INTER:                  -5.450
REMARK INTRA:                  -0.835
REMARK UNBOUND:                -0.821
REMARK SMILES CCCCCCCCCCCC(=O)[O-]
REMARK SMILES IDX 7 1 8 2 9 3 10 4 11 5 12 6 13 7 14 8 6 9 5 10 4 11 3 12 2 13
REMARK SMILES IDX 1 14
REMARK H PARENT
REMARK Flexibility Score: inf
ROOT
ATOM      1  C   UNL     1      13.859  38.325   7.730  1.00  0.00     0.000 C 
ENDROOT
BRANCH   1   2
ATOM      2  C   UNL     1      14.160  38.879   9.135  1.00  0.00     0.000 C 
BRANCH   2   3
ATOM      3  C   UNL     1      14.191  37.827  10.263  1.00  0.00     0.000 C 
BRANCH   3   4
ATOM      4  C   UNL     1      15.329  38.001  11.289  1.00  0.00     0.006 C 
BRANCH   4   5
ATOM      5  C   UNL     1      14.938  37.661  12.735  1.00  0.00     0.053 C 
BRANCH   5   6
ATOM      6  C   UNL     1      14.102  38.736  13.358  1.00  0.00     0.041 C 
ATOM      7  O   UNL     1      12.858  38.581  13.478  1.00  0.00    -0.550 OA
ATOM      8  O   UNL     1      14.701  39.895  13.836  1.00  0.00    -0.550 OA
ENDBRANCH   5   6
ENDBRANCH   4   5
ENDBRANCH   3   4
ENDBRANCH   2   3
ENDBRANCH   1   2
BRANCH   1   9
ATOM      9  C   UNL     1      14.884  38.784   6.678  1.00  0.00     0.000 C 
BRANCH   9  10
ATOM     10  C   UNL     1      16.268  39.062   7.286  1.00  0.00    -0.000 C 
BRANCH  10  11
ATOM     11  C   UNL     1      16.739  40.507   7.045  1.00  0.00    -0.000 C 
BRANCH  11  12
ATOM     12  C   UNL     1      16.637  41.379   8.307  1.00  0.00    -0.000 C 
BRANCH  12  13
ATOM     13  C   UNL     1      15.386  42.269   8.314  1.00  0.00    -0.003 C 
ATOM     14  C   UNL     1      15.552  43.443   9.276  1.00  0.00     0.004 C 
ENDBRANCH  12  13
ENDBRANCH  11  12
ENDBRANCH  10  11
ENDBRANCH   9  10
ENDBRANCH   1   9
TORSDOF 10
ENDMDL
MODEL 4
REMARK VINA RESULT:    -3.244      2.582      4.922
REMARK INTER + INTRA:          -5.962
REMARK INTER:                  -4.765
REMARK INTRA:                  -1.197
REMARK UNBOUND:                -0.821
REMARK SMILES CCCCCCCCCCCC(=O)[O-]
REMARK SMILES IDX 7 1 8 2 9 3 10 4 11 5 12 6 13 7 14 8 6 9 5 10 4 11 3 12 2 13
REMARK SMILES IDX 1 14
REMARK H PARENT
REMARK Flexibility Score: inf
ROOT
ATOM      1  C   UNL     1      14.177  38.770   9.160  1.00  0.00     0.000 C 
ENDROOT
BRANCH   1   2
ATOM      2  C   UNL     1      14.085  37.657  10.219  1.00  0.00     0.000 C 
BRANCH   2   3
ATOM      3  C   UNL     1      15.297  37.550  11.167  1.00  0.00     0.000 C 
BRANCH   3   4
ATOM      4  C   UNL     1      16.439  38.545  10.884  1.00  0.00     0.006 C 
BRANCH   4   5
ATOM      5  C   UNL     1      16.406  39.813  11.751  1.00  0.00     0.053 C 
BRANCH   5   6
ATOM      6  C   UNL     1      16.096  39.506  13.184  1.00  0.00     0.041 C 
ATOM      7  O   UNL     1      15.015  39.899  13.696  1.00  0.00    -0.550 OA
ATOM      8  O   UNL     1      16.986  38.757  13.943  1.00  0.00    -0.550 OA
ENDBRANCH   5   6
ENDBRANCH   4   5
ENDBRANCH   3   4
ENDBRANCH   2   3
ENDBRANCH   1   2
BRANCH   1   9
ATOM      9  C   UNL     1      13.768  38.292   7.756  1.00  0.00     0.000 C 
BRANCH   9  10
ATOM     10  C   UNL     1      14.766  38.729   6.671  1.00  0.00    -0.000 C 
BRANCH  10  11
ATOM     11  C   UNL     1      16.136  39.118   7.254  1.00  0.00    -0.000 C 
BRANCH  11  12
ATOM     12  C   UNL     1      16.485  40.594   7.004  1.00  0.00    -0.000 C 
BRANCH  12  13
ATOM     13  C   UNL     1      16.460  41.435   8.289  1.00  0.00    -0.003 C 
ATOM     14  C   UNL     1      15.189  42.276   8.370  1.00  0.00     0.004 C 
ENDBRANCH  12  13
ENDBRANCH  11  12
ENDBRANCH  10  11
ENDBRANCH   9  10
ENDBRANCH   1   9
TORSDOF 10
ENDMDL
MODEL 5
REMARK VINA RESULT:    -3.166      1.071      1.905
REMARK INTER + INTRA:          -5.838
REMARK INTER:                  -5.033
REMARK INTRA:                  -0.805
REMARK UNBOUND:                -0.821
REMARK SMILES CCCCCCCCCCCC(=O)[O-]
REMARK SMILES IDX 7 1 8 2 9 3 10 4 11 5 12 6 13 7 14 8 6 9 5 10 4 11 3 12 2 13
REMARK SMILES IDX 1 14
REMARK H PARENT
REMARK Flexibility Score: inf
ROOT
ATOM      1  C   UNL     1      14.062  38.594   8.069  1.00  0.00     0.000 C 
ENDROOT
BRANCH   1   2
ATOM      2  C   UNL     1      14.961  39.004   6.889  1.00  0.00     0.000 C 
BRANCH   2   3
ATOM      3  C   UNL     1      16.451  39.200   7.235  1.00  0.00     0.000 C 
BRANCH   3   4
ATOM      4  C   UNL     1      16.963  40.651   7.129  1.00  0.00     0.006 C 
BRANCH   4   5
ATOM      5  C   UNL     1      17.071  41.386   8.473  1.00  0.00     0.053 C 
BRANCH   5   6
ATOM      6  C   UNL     1      16.138  42.555   8.551  1.00  0.00     0.041 C 
ATOM      7  O   UNL     1      16.594  43.719   8.699  1.00  0.00    -0.550 OA
ATOM      8  O   UNL     1      14.768  42.362   8.426  1.00  0.00    -0.550 OA
ENDBRANCH   5   6
ENDBRANCH   4   5
ENDBRANCH   3   4
ENDBRANCH   2   3
ENDBRANCH   1   2
BRANCH   1   9
ATOM      9  C   UNL     1      14.761  38.746   9.431  1.00  0.00     0.000 C 
BRANCH   9  10
ATOM     10  C   UNL     1      14.018  38.013  10.560  1.00  0.00    -0.000 C 
BRANCH  10  11
ATOM     11  C   UNL     1      14.833  37.956  11.863  1.00  0.00    -0.000 C 
BRANCH  11  12
ATOM     12  C   UNL     1      16.336  37.752  11.610  1.00  0.00    -0.000 C 
BRANCH  12  13
ATOM     13  C   UNL     1      16.733  36.270  11.559  1.00  0.00    -0.003 C 
ATOM     14  C   UNL     1      16.748  35.656  12.957  1.00  0.00     0.004 C 
ENDBRANCH  12  13
ENDBRANCH  11  12
ENDBRANCH  10  11
ENDBRANCH   9  10
ENDBRANCH   1   9
TORSDOF 10
ENDMDL
MODEL 6
REMARK VINA RESULT:    -3.102      1.202      1.941
REMARK INTER + INTRA:          -5.737
REMARK INTER:                  -4.948
REMARK INTRA:                  -0.789
REMARK UNBOUND:                -0.821
REMARK SMILES CCCCCCCCCCCC(=O)[O-]
REMARK SMILES IDX 7 1 8 2 9 3 10 4 11 5 12 6 13 7 14 8 6 9 5 10 4 11 3 12 2 13
REMARK SMILES IDX 1 14
REMARK H PARENT
REMARK Flexibility Score: inf
ROOT
ATOM      1  C   UNL     1      14.322  38.815   9.340  1.00  0.00     0.000 C 
ENDROOT
BRANCH   1   2
ATOM      2  C   UNL     1      13.916  38.416   7.910  1.00  0.00     0.000 C 
BRANCH   2   3
ATOM      3  C   UNL     1      14.907  38.833   6.805  1.00  0.00     0.000 C 
BRANCH   3   4
ATOM      4  C   UNL     1      16.205  39.499   7.306  1.00  0.00     0.006 C 
BRANCH   4   5
ATOM      5  C   UNL     1      16.289  41.008   7.036  1.00  0.00     0.053 C 
BRANCH   5   6
ATOM      6  C   UNL     1      15.913  41.815   8.240  1.00  0.00     0.041 C 
ATOM      7  O   UNL     1      14.825  42.449   8.262  1.00  0.00    -0.550 OA
ATOM      8  O   UNL     1      16.747  41.840   9.350  1.00  0.00    -0.550 OA
ENDBRANCH   5   6
ENDBRANCH   4   5
ENDBRANCH   3   4
ENDBRANCH   2   3
ENDBRANCH   1   2
BRANCH   1   9
ATOM      9  C   UNL     1      14.096  37.686  10.361  1.00  0.00     0.000 C 
BRANCH   9  10
ATOM     10  C   UNL     1      15.190  37.641  11.440  1.00  0.00    -0.000 C 
BRANCH  10  11
ATOM     11  C   UNL     1      14.643  37.942  12.846  1.00  0.00    -0.000 C 
BRANCH  11  12
ATOM     12  C   UNL     1      15.085  39.319  13.369  1.00  0.00    -0.000 C 
BRANCH  12  13
ATOM     13  C   UNL     1      16.225  39.929  12.542  1.00  0.00    -0.003 C 
ATOM     14  C   UNL     1      16.418  41.406  12.878  1.00  0.00     0.004 C 
ENDBRANCH  12  13
ENDBRANCH  11  12
ENDBRANCH  10  11
ENDBRANCH   9  10
ENDBRANCH   1   9
TORSDOF 10
ENDMDL
MODEL 7
REMARK VINA RESULT:    -2.965      2.368      3.955
REMARK INTER + INTRA:          -5.520
REMARK INTER:                  -4.465
REMARK INTRA:                  -1.054
REMARK UNBOUND:                -0.821
REMARK SMILES CCCCCCCCCCCC(=O)[O-]
REMARK SMILES IDX 7 1 8 2 9 3 10 4 11 5 12 6 13 7 14 8 6 9 5 10 4 11 3 12 2 13
REMARK SMILES IDX 1 14
REMARK H PARENT
REMARK Flexibility Score: inf
ROOT
ATOM      1  C   UNL     1      17.007  42.416  10.108  1.00  0.00     0.000 C 
ENDROOT
BRANCH   1   2
ATOM      2  C   UNL     1      16.002  43.189   9.235  1.00  0.00     0.000 C 
BRANCH   2   3
ATOM      3  C   UNL     1      15.118  42.316   8.322  1.00  0.00     0.000 C 
BRANCH   3   4
ATOM      4  C   UNL     1      15.659  40.898   8.047  1.00  0.00     0.006 C 
BRANCH   4   5
ATOM      5  C   UNL     1      14.751  39.764   8.547  1.00  0.00     0.053 C 
BRANCH   5   6
ATOM      6  C   UNL     1      14.481  38.750   7.478  1.00  0.00     0.041 C 
ATOM      7  O   UNL     1      13.420  38.073   7.503  1.00  0.00    -0.550 OA
ATOM      8  O   UNL     1      15.385  38.576   6.438  1.00  0.00    -0.550 OA
ENDBRANCH   5   6
ENDBRANCH   4   5
ENDBRANCH   3   4
ENDBRANCH   2   3
ENDBRANCH   1   2
BRANCH   1   9
ATOM      9  C   UNL     1      16.695  42.522  11.611  1.00  0.00     0.000 C 
BRANCH   9  10
ATOM     10  C   UNL     1      16.912  41.193  12.353  1.00  0.00    -0.000 C 
BRANCH  10  11
ATOM     11  C   UNL     1      17.125  40.010  11.393  1.00  0.00    -0.000 C 
BRANCH  11  12
ATOM     12  C   UNL     1      16.218  38.813  11.721  1.00  0.00    -0.000 C 
BRANCH  12  13
ATOM     13  C   UNL     1      15.430  39.005  13.024  1.00  0.00    -0.003 C 
ATOM     14  C   UNL     1      13.991  38.519  12.872  1.00  0.00     0.004 C 
ENDBRANCH  12  13
ENDBRANCH  11  12
ENDBRANCH  10  11
ENDBRANCH   9  10
ENDBRANCH   1   9
TORSDOF 10
ENDMDL
MODEL 8
REMARK VINA RESULT:    -2.937      2.235      3.836
REMARK INTER + INTRA:          -5.476
REMARK INTER:                  -4.671
REMARK INTRA:                  -0.805
REMARK UNBOUND:                -0.821
REMARK SMILES CCCCCCCCCCCC(=O)[O-]
REMARK SMILES IDX 7 1 8 2 9 3 10 4 11 5 12 6 13 7 14 8 6 9 5 10 4 11 3 12 2 13
REMARK SMILES IDX 1 14
REMARK H PARENT
REMARK Flexibility Score: inf
ROOT
ATOM      1  C   UNL     1      15.899  41.111   7.001  1.00  0.00     0.000 C 
ENDROOT
BRANCH   1   2
ATOM      2  C   UNL     1      16.821  41.941   7.913  1.00  0.00     0.000 C 
BRANCH   2   3
ATOM      3  C   UNL     1      16.103  42.962   8.819  1.00  0.00     0.000 C 
BRANCH   3   4
ATOM      4  C   UNL     1      16.487  42.896  10.311  1.00  0.00     0.006 C 
BRANCH   4   5
ATOM      5  C   UNL     1      16.787  41.481  10.828  1.00  0.00     0.053 C 
BRANCH   5   6
ATOM      6  C   UNL     1      16.711  41.402  12.322  1.00  0.00     0.041 C 
ATOM      7  O   UNL     1      16.848  42.441  13.018  1.00  0.00    -0.550 OA
ATOM      8  O   UNL     1      16.454  40.185  12.942  1.00  0.00    -0.550 OA
ENDBRANCH   5   6
ENDBRANCH   4   5
ENDBRANCH   3   4
ENDBRANCH   2   3
ENDBRANCH   1   2
BRANCH   1   9
ATOM      9  C   UNL     1      16.050  39.596   7.221  1.00  0.00     0.000 C 
BRANCH   9  10
ATOM     10  C   UNL     1      14.822  38.806   6.741  1.00  0.00    -0.000 C 
BRANCH  10  11
ATOM     11  C   UNL     1      13.895  38.396   7.899  1.00  0.00    -0.000 C 
BRANCH  11  12
ATOM     12  C   UNL     1      14.435  38.834   9.270  1.00  0.00    -0.000 C 
BRANCH  12  13
ATOM     13  C   UNL     1      14.071  37.853  10.392  1.00  0.00    -0.003 C 
ATOM     14  C   UNL     1      15.314  37.407  11.158  1.00  0.00     0.004 C 
ENDBRANCH  12  13
ENDBRANCH  11  12
ENDBRANCH  10  11
ENDBRANCH   9  10
ENDBRANCH   1   9
TORSDOF 10
ENDMDL
MODEL 9
REMARK VINA RESULT:    -2.908      2.644      5.430
REMARK INTER + INTRA:          -5.428
REMARK INTER:                  -4.371
REMARK INTRA:                  -1.058
REMARK UNBOUND:                -0.821
REMARK SMILES CCCCCCCCCCCC(=O)[O-]
REMARK SMILES IDX 7 1 8 2 9 3 10 4 11 5 12 6 13 7 14 8 6 9 5 10 4 11 3 12 2 13
REMARK SMILES IDX 1 14
REMARK H PARENT
REMARK Flexibility Score: inf
ROOT
ATOM      1  C   UNL     1      16.913  42.312   9.316  1.00  0.00     0.000 C 
ENDROOT
BRANCH   1   2
ATOM      2  C   UNL     1      16.598  42.458  10.816  1.00  0.00     0.000 C 
BRANCH   2   3
ATOM      3  C   UNL     1      16.820  41.188  11.661  1.00  0.00     0.000 C 
BRANCH   3   4
ATOM      4  C   UNL     1      16.470  39.862  10.955  1.00  0.00     0.006 C 
BRANCH   4   5
ATOM      5  C   UNL     1      16.408  38.643  11.888  1.00  0.00     0.053 C 
BRANCH   5   6
ATOM      6  C   UNL     1      15.182  37.816  11.650  1.00  0.00     0.041 C 
ATOM      7  O   UNL     1      15.285  36.655  11.176  1.00  0.00    -0.550 OA
ATOM      8  O   UNL     1      13.930  38.317  11.983  1.00  0.00    -0.550 OA
ENDBRANCH   5   6
ENDBRANCH   4   5
ENDBRANCH   3   4
ENDBRANCH   2   3
ENDBRANCH   1   2
BRANCH   1   9
ATOM      9  C   UNL     1      15.670  42.487   8.426  1.00  0.00     0.000 C 
BRANCH   9  10
ATOM     10  C   UNL     1      15.660  41.520   7.231  1.00  0.00    -0.000 C 
BRANCH  10  11
ATOM     11  C   UNL     1      16.763  40.451   7.329  1.00  0.00    -0.000 C 
BRANCH  11  12
ATOM     12  C   UNL     1      16.239  39.035   7.042  1.00  0.00    -0.000 C 
BRANCH  12  13
ATOM     13  C   UNL     1      14.715  38.990   6.864  1.00  0.00    -0.003 C 
ATOM     14  C   UNL     1      14.029  38.481   8.129  1.00  0.00     0.004 C 
ENDBRANCH  12  13
ENDBRANCH  11  12
ENDBRANCH  10  11
ENDBRANCH   9  10
ENDBRANCH   1   9
TORSDOF 10
ENDMDL
