MODEL 1
REMARK VINA RESULT:    -4.641      0.000      0.000
REMARK INTER + INTRA:         -13.047
REMARK INTER:                 -10.068
REMARK INTRA:                  -2.979
REMARK UNBOUND:                -2.979
REMARK SMILES CCCCCCCCCCCCCCCCCCCCCC(=O)[O-]
REMARK SMILES IDX 12 1 11 2 10 3 9 4 8 5 7 6 6 7 5 8 4 9 3 10 2 11 1 12 13 13
REMARK SMILES IDX 14 14 15 15 16 16 17 17 18 18 19 19 20 20 21 21 22 22 23 23
REMARK SMILES IDX 24 24
REMARK H PARENT
REMARK Flexibility Score: inf
ROOT
ATOM      1  C   UNL     1      -5.324   6.725  16.710  1.00  0.00     0.000 C 
ENDROOT
BRANCH   1   2
ATOM      2  C   UNL     1      -6.525   7.357  15.989  1.00  0.00     0.000 C 
BRANCH   2   3
ATOM      3  C   UNL     1      -6.103   8.240  14.802  1.00  0.00     0.000 C 
BRANCH   3   4
ATOM      4  C   UNL     1      -4.570   8.320  14.638  1.00  0.00    -0.000 C 
BRANCH   4   5
ATOM      5  C   UNL     1      -4.026   7.490  13.460  1.00  0.00    -0.000 C 
BRANCH   5   6
ATOM      6  C   UNL     1      -4.756   7.705  12.121  1.00  0.00    -0.000 C 
BRANCH   6   7
ATOM      7  C   UNL     1      -5.252   6.418  11.430  1.00  0.00    -0.000 C 
BRANCH   7   8
ATOM      8  C   UNL     1      -5.592   5.258  12.382  1.00  0.00    -0.000 C 
BRANCH   8   9
ATOM      9  C   UNL     1      -7.061   4.814  12.280  1.00  0.00    -0.000 C 
BRANCH   9  10
ATOM     10  C   UNL     1      -7.787   4.856  13.634  1.00  0.00    -0.000 C 
BRANCH  10  11
ATOM     11  C   UNL     1      -8.920   5.893  13.662  1.00  0.00    -0.003 C 
ATOM     12  C   UNL     1      -8.883   6.782  12.422  1.00  0.00     0.004 C 
ENDBRANCH  10  11
ENDBRANCH   9  10
ENDBRANCH   8   9
ENDBRANCH   7   8
ENDBRANCH   6   7
ENDBRANCH   5   6
ENDBRANCH   4   5
ENDBRANCH   3   4
ENDBRANCH   2   3
ENDBRANCH   1   2
BRANCH   1  13
ATOM     13  C   UNL     1      -5.515   5.221  16.973  1.00  0.00     0.000 C 
BRANCH  13  14
ATOM     14  C   UNL     1      -4.932   4.339  15.854  1.00  0.00     0.000 C 
BRANCH  14  15
ATOM     15  C   UNL     1      -3.413   4.480  15.642  1.00  0.00     0.000 C 
BRANCH  15  16
ATOM     16  C   UNL     1      -2.606   3.363  16.319  1.00  0.00     0.000 C 
BRANCH  16  17
ATOM     17  C   UNL     1      -1.145   3.789  16.517  1.00  0.00     0.000 C 
BRANCH  17  18
ATOM     18  C   UNL     1      -0.962   5.318  16.527  1.00  0.00     0.000 C 
BRANCH  18  19
ATOM     19  C   UNL     1       0.147   5.838  17.462  1.00  0.00     0.000 C 
BRANCH  19  20
ATOM     20  C   UNL     1      -0.270   6.042  18.932  1.00  0.00     0.006 C 
BRANCH  20  21
ATOM     21  C   UNL     1       0.371   7.274  19.600  1.00  0.00     0.053 C 
BRANCH  21  22
ATOM     22  C   UNL     1       0.575   7.090  21.073  1.00  0.00     0.041 C 
ATOM     23  O   UNL     1      -0.404   6.826  21.820  1.00  0.00    -0.550 OA
ATOM     24  O   UNL     1       1.850   7.179  21.618  1.00  0.00    -0.550 OA
ENDBRANCH  21  22
ENDBRANCH  20  21
ENDBRANCH  19  20
ENDBRANCH  18  19
ENDBRANCH  17  18
ENDBRANCH  16  17
ENDBRANCH  15  16
ENDBRANCH  14  15
ENDBRANCH  13  14
ENDBRANCH   1  13
TORSDOF 20
ENDMDL
MODEL 2
REMARK VINA RESULT:    -4.579      1.153      2.698
REMARK INTER + INTRA:         -12.913
REMARK INTER:                  -9.949
REMARK INTRA:                  -2.964
REMARK UNBOUND:                -2.979
REMARK SMILES CCCCCCCCCCCCCCCCCCCCCC(=O)[O-]
REMARK SMILES IDX 12 1 11 2 10 3 9 4 8 5 7 6 6 7 5 8 4 9 3 10 2 11 1 12 13 13
REMARK SMILES IDX 14 14 15 15 16 16 17 17 18 18 19 19 20 20 21 21 22 22 23 23
REMARK SMILES IDX 24 24
REMARK H PARENT
REMARK Flexibility Score: inf
ROOT
ATOM      1  C   UNL     1      -5.020   5.771  16.817  1.00  0.00     0.000 C 
ENDROOT
BRANCH   1   2
ATOM      2  C   UNL     1      -6.100   6.481  17.649  1.00  0.00     0.000 C 
BRANCH   2   3
ATOM      3  C   UNL     1      -6.955   7.444  16.807  1.00  0.00     0.000 C 
BRANCH   3   4
ATOM      4  C   UNL     1      -8.206   6.759  16.212  1.00  0.00    -0.000 C 
BRANCH   4   5
ATOM      5  C   UNL     1      -8.711   7.412  14.911  1.00  0.00    -0.000 C 
BRANCH   5   6
ATOM      6  C   UNL     1      -8.797   6.467  13.699  1.00  0.00    -0.000 C 
BRANCH   6   7
ATOM      7  C   UNL     1      -8.312   5.025  13.956  1.00  0.00    -0.000 C 
BRANCH   7   8
ATOM      8  C   UNL     1      -6.898   4.712  13.434  1.00  0.00    -0.000 C 
BRANCH   8   9
ATOM      9  C   UNL     1      -6.322   5.841  12.562  1.00  0.00    -0.000 C 
BRANCH   9  10
ATOM     10  C   UNL     1      -5.025   6.429  13.139  1.00  0.00    -0.000 C 
BRANCH  10  11
ATOM     11  C   UNL     1      -5.210   7.859  13.667  1.00  0.00    -0.003 C 
ATOM     12  C   UNL     1      -3.868   8.493  14.024  1.00  0.00     0.004 C 
ENDBRANCH  10  11
ENDBRANCH   9  10
ENDBRANCH   8   9
ENDBRANCH   7   8
ENDBRANCH   6   7
ENDBRANCH   5   6
ENDBRANCH   4   5
ENDBRANCH   3   4
ENDBRANCH   2   3
ENDBRANCH   1   2
BRANCH   1  13
ATOM     13  C   UNL     1      -5.264   4.256  16.698  1.00  0.00     0.000 C 
BRANCH  13  14
ATOM     14  C   UNL     1      -4.091   3.511  16.036  1.00  0.00     0.000 C 
BRANCH  14  15
ATOM     15  C   UNL     1      -3.039   4.418  15.371  1.00  0.00     0.000 C 
BRANCH  15  16
ATOM     16  C   UNL     1      -1.601   3.922  15.580  1.00  0.00     0.000 C 
BRANCH  16  17
ATOM     17  C   UNL     1      -1.133   4.190  17.017  1.00  0.00     0.000 C 
BRANCH  17  18
ATOM     18  C   UNL     1      -0.804   5.673  17.273  1.00  0.00     0.000 C 
BRANCH  18  19
ATOM     19  C   UNL     1       0.332   5.925  18.282  1.00  0.00     0.000 C 
BRANCH  19  20
ATOM     20  C   UNL     1      -0.105   6.526  19.633  1.00  0.00     0.006 C 
BRANCH  20  21
ATOM     21  C   UNL     1       0.330   7.990  19.837  1.00  0.00     0.053 C 
BRANCH  21  22
ATOM     22  C   UNL     1       1.567   8.113  20.675  1.00  0.00     0.041 C 
ATOM     23  O   UNL     1       1.857   7.215  21.510  1.00  0.00    -0.550 OA
ATOM     24  O   UNL     1       2.415   9.201  20.515  1.00  0.00    -0.550 OA
ENDBRANCH  21  22
ENDBRANCH  20  21
ENDBRANCH  19  20
ENDBRANCH  18  19
ENDBRANCH  17  18
ENDBRANCH  16  17
ENDBRANCH  15  16
ENDBRANCH  14  15
ENDBRANCH  13  14
ENDBRANCH   1  13
TORSDOF 20
ENDMDL
MODEL 3
REMARK VINA RESULT:    -4.558      2.919      7.949
REMARK INTER + INTRA:         -12.867
REMARK INTER:                 -10.608
REMARK INTRA:                  -2.259
REMARK UNBOUND:                -2.979
REMARK SMILES CCCCCCCCCCCCCCCCCCCCCC(=O)[O-]
REMARK SMILES IDX 12 1 11 2 10 3 9 4 8 5 7 6 6 7 5 8 4 9 3 10 2 11 1 12 13 13
REMARK SMILES IDX 14 14 15 15 16 16 17 17 18 18 19 19 20 20 21 21 22 22 23 23
REMARK SMILES IDX 24 24
REMARK H PARENT
REMARK Flexibility Score: inf
ROOT
ATOM      1  C   UNL     1      -4.906   3.783  15.424  1.00  0.00     0.000 C 
ENDROOT
BRANCH   1   2
ATOM      2  C   UNL     1      -3.849   4.471  16.302  1.00  0.00     0.000 C 
BRANCH   2   3
ATOM      3  C   UNL     1      -2.790   5.220  15.475  1.00  0.00     0.000 C 
BRANCH   3   4
ATOM      4  C   UNL     1      -1.402   4.546  15.539  1.00  0.00    -0.000 C 
BRANCH   4   5
ATOM      5  C   UNL     1      -0.786   4.528  16.951  1.00  0.00    -0.000 C 
BRANCH   5   6
ATOM      6  C   UNL     1       0.006   5.792  17.332  1.00  0.00    -0.000 C 
BRANCH   6   7
ATOM      7  C   UNL     1      -0.013   6.152  18.833  1.00  0.00    -0.000 C 
BRANCH   7   8
ATOM      8  C   UNL     1       0.673   7.482  19.191  1.00  0.00    -0.000 C 
BRANCH   8   9
ATOM      9  C   UNL     1       0.550   7.832  20.684  1.00  0.00    -0.000 C 
BRANCH   9  10
ATOM     10  C   UNL     1      -0.435   6.915  21.426  1.00  0.00    -0.000 C 
BRANCH  10  11
ATOM     11  C   UNL     1       0.069   6.518  22.822  1.00  0.00    -0.003 C 
ATOM     12  C   UNL     1       1.560   6.806  22.972  1.00  0.00     0.004 C 
ENDBRANCH  10  11
ENDBRANCH   9  10
ENDBRANCH   8   9
ENDBRANCH   7   8
ENDBRANCH   6   7
ENDBRANCH   5   6
ENDBRANCH   4   5
ENDBRANCH   3   4
ENDBRANCH   2   3
ENDBRANCH   1   2
BRANCH   1  13
ATOM     13  C   UNL     1      -4.907   4.309  13.978  1.00  0.00     0.000 C 
BRANCH  13  14
ATOM     14  C   UNL     1      -6.322   4.614  13.452  1.00  0.00     0.000 C 
BRANCH  14  15
ATOM     15  C   UNL     1      -7.355   4.965  14.538  1.00  0.00     0.000 C 
BRANCH  15  16
ATOM     16  C   UNL     1      -7.492   6.477  14.770  1.00  0.00     0.000 C 
BRANCH  16  17
ATOM     17  C   UNL     1      -7.266   6.827  16.247  1.00  0.00     0.000 C 
BRANCH  17  18
ATOM     18  C   UNL     1      -5.861   7.395  16.520  1.00  0.00     0.000 C 
BRANCH  18  19
ATOM     19  C   UNL     1      -5.760   8.932  16.488  1.00  0.00     0.000 C 
BRANCH  19  20
ATOM     20  C   UNL     1      -4.997   9.520  15.284  1.00  0.00     0.006 C 
BRANCH  20  21
ATOM     21  C   UNL     1      -4.537   8.466  14.259  1.00  0.00     0.053 C 
BRANCH  21  22
ATOM     22  C   UNL     1      -3.265   8.851  13.567  1.00  0.00     0.041 C 
ATOM     23  O   UNL     1      -3.127  10.011  13.094  1.00  0.00    -0.550 OA
ATOM     24  O   UNL     1      -2.219   7.942  13.469  1.00  0.00    -0.550 OA
ENDBRANCH  21  22
ENDBRANCH  20  21
ENDBRANCH  19  20
ENDBRANCH  18  19
ENDBRANCH  17  18
ENDBRANCH  16  17
ENDBRANCH  15  16
ENDBRANCH  14  15
ENDBRANCH  13  14
ENDBRANCH   1  13
TORSDOF 20
ENDMDL
MODEL 4
REMARK VINA RESULT:    -4.476      2.882      7.617
REMARK INTER + INTRA:         -12.688
REMARK INTER:                 -10.019
REMARK INTRA:                  -2.669
REMARK UNBOUND:                -2.979
REMARK SMILES CCCCCCCCCCCCCCCCCCCCCC(=O)[O-]
REMARK SMILES IDX 12 1 11 2 10 3 9 4 8 5 7 6 6 7 5 8 4 9 3 10 2 11 1 12 13 13
REMARK SMILES IDX 14 14 15 15 16 16 17 17 18 18 19 19 20 20 21 21 22 22 23 23
REMARK SMILES IDX 24 24
REMARK H PARENT
REMARK Flexibility Score: inf
ROOT
ATOM      1  C   UNL     1      -4.833   6.222  16.631  1.00  0.00     0.000 C 
ENDROOT
BRANCH   1   2
ATOM      2  C   UNL     1      -5.689   5.144  17.316  1.00  0.00     0.000 C 
BRANCH   2   3
ATOM      3  C   UNL     1      -5.301   3.719  16.883  1.00  0.00     0.000 C 
BRANCH   3   4
ATOM      4  C   UNL     1      -4.148   3.705  15.856  1.00  0.00    -0.000 C 
BRANCH   4   5
ATOM      5  C   UNL     1      -2.831   3.125  16.408  1.00  0.00    -0.000 C 
BRANCH   5   6
ATOM      6  C   UNL     1      -1.550   3.752  15.828  1.00  0.00    -0.000 C 
BRANCH   6   7
ATOM      7  C   UNL     1      -1.166   5.125  16.420  1.00  0.00    -0.000 C 
BRANCH   7   8
ATOM      8  C   UNL     1      -0.291   5.066  17.685  1.00  0.00    -0.000 C 
BRANCH   8   9
ATOM      9  C   UNL     1       0.142   6.458  18.175  1.00  0.00    -0.000 C 
BRANCH   9  10
ATOM     10  C   UNL     1       0.004   6.617  19.697  1.00  0.00    -0.000 C 
BRANCH  10  11
ATOM     11  C   UNL     1       0.347   8.036  20.175  1.00  0.00    -0.003 C 
ATOM     12  C   UNL     1       1.292   8.732  19.199  1.00  0.00     0.004 C 
ENDBRANCH  10  11
ENDBRANCH   9  10
ENDBRANCH   8   9
ENDBRANCH   7   8
ENDBRANCH   6   7
ENDBRANCH   5   6
ENDBRANCH   4   5
ENDBRANCH   3   4
ENDBRANCH   2   3
ENDBRANCH   1   2
BRANCH   1  13
ATOM     13  C   UNL     1      -5.625   7.508  16.336  1.00  0.00     0.000 C 
BRANCH  13  14
ATOM     14  C   UNL     1      -7.143   7.333  16.528  1.00  0.00     0.000 C 
BRANCH  14  15
ATOM     15  C   UNL     1      -7.958   7.263  15.224  1.00  0.00     0.000 C 
BRANCH  15  16
ATOM     16  C   UNL     1      -8.552   5.871  14.961  1.00  0.00     0.000 C 
BRANCH  16  17
ATOM     17  C   UNL     1      -8.060   5.311  13.620  1.00  0.00     0.000 C 
BRANCH  17  18
ATOM     18  C   UNL     1      -6.572   4.913  13.647  1.00  0.00     0.000 C 
BRANCH  18  19
ATOM     19  C   UNL     1      -5.844   5.013  12.293  1.00  0.00     0.000 C 
BRANCH  19  20
ATOM     20  C   UNL     1      -5.645   6.444  11.754  1.00  0.00     0.006 C 
BRANCH  20  21
ATOM     21  C   UNL     1      -5.242   7.469  12.833  1.00  0.00     0.053 C 
BRANCH  21  22
ATOM     22  C   UNL     1      -3.772   7.763  12.827  1.00  0.00     0.041 C 
ATOM     23  O   UNL     1      -3.262   8.425  11.885  1.00  0.00    -0.550 OA
ATOM     24  O   UNL     1      -2.969   7.332  13.876  1.00  0.00    -0.550 OA
ENDBRANCH  21  22
ENDBRANCH  20  21
ENDBRANCH  19  20
ENDBRANCH  18  19
ENDBRANCH  17  18
ENDBRANCH  16  17
ENDBRANCH  15  16
ENDBRANCH  14  15
ENDBRANCH  13  14
ENDBRANCH   1  13
TORSDOF 20
ENDMDL
MODEL 5
REMARK VINA RESULT:    -4.406      3.822      5.713
REMARK INTER + INTRA:         -12.536
REMARK INTER:                  -8.164
REMARK INTRA:                  -4.372
REMARK UNBOUND:                -2.979
REMARK SMILES CCCCCCCCCCCCCCCCCCCCCC(=O)[O-]
REMARK SMILES IDX 12 1 11 2 10 3 9 4 8 5 7 6 6 7 5 8 4 9 3 10 2 11 1 12 13 13
REMARK SMILES IDX 14 14 15 15 16 16 17 17 18 18 19 19 20 20 21 21 22 22 23 23
REMARK SMILES IDX 24 24
REMARK H PARENT
REMARK Flexibility Score: inf
ROOT
ATOM      1  C   UNL     1      -5.873   7.799  16.578  1.00  0.00     0.000 C 
ENDROOT
BRANCH   1   2
ATOM      2  C   UNL     1      -5.731   8.149  15.088  1.00  0.00     0.000 C 
BRANCH   2   3
ATOM      3  C   UNL     1      -5.227   9.585  14.864  1.00  0.00     0.000 C 
BRANCH   3   4
ATOM      4  C   UNL     1      -5.870  10.253  13.629  1.00  0.00    -0.000 C 
BRANCH   4   5
ATOM      5  C   UNL     1      -7.258   9.688  13.270  1.00  0.00    -0.000 C 
BRANCH   5   6
ATOM      6  C   UNL     1      -7.398   9.174  11.826  1.00  0.00    -0.000 C 
BRANCH   6   7
ATOM      7  C   UNL     1      -6.077   9.077  11.033  1.00  0.00    -0.000 C 
BRANCH   7   8
ATOM      8  C   UNL     1      -5.692   7.657  10.582  1.00  0.00    -0.000 C 
BRANCH   8   9
ATOM      9  C   UNL     1      -4.183   7.384  10.697  1.00  0.00    -0.000 C 
BRANCH   9  10
ATOM     10  C   UNL     1      -3.632   7.693  12.098  1.00  0.00    -0.000 C 
BRANCH  10  11
ATOM     11  C   UNL     1      -2.628   8.855  12.093  1.00  0.00    -0.003 C 
ATOM     12  C   UNL     1      -1.845   8.912  13.402  1.00  0.00     0.004 C 
ENDBRANCH  10  11
ENDBRANCH   9  10
ENDBRANCH   8   9
ENDBRANCH   7   8
ENDBRANCH   6   7
ENDBRANCH   5   6
ENDBRANCH   4   5
ENDBRANCH   3   4
ENDBRANCH   2   3
ENDBRANCH   1   2
BRANCH   1  13
ATOM     13  C   UNL     1      -7.134   6.969  16.874  1.00  0.00     0.000 C 
BRANCH  13  14
ATOM     14  C   UNL     1      -8.286   7.261  15.896  1.00  0.00     0.000 C 
BRANCH  14  15
ATOM     15  C   UNL     1      -8.778   6.043  15.092  1.00  0.00     0.000 C 
BRANCH  15  16
ATOM     16  C   UNL     1      -9.015   6.358  13.608  1.00  0.00     0.000 C 
BRANCH  16  17
ATOM     17  C   UNL     1      -7.918   5.732  12.735  1.00  0.00     0.000 C 
BRANCH  17  18
ATOM     18  C   UNL     1      -7.090   4.670  13.481  1.00  0.00     0.000 C 
BRANCH  18  19
ATOM     19  C   UNL     1      -5.565   4.786  13.303  1.00  0.00     0.000 C 
BRANCH  19  20
ATOM     20  C   UNL     1      -4.730   4.555  14.578  1.00  0.00     0.006 C 
BRANCH  20  21
ATOM     21  C   UNL     1      -5.517   3.899  15.730  1.00  0.00     0.053 C 
BRANCH  21  22
ATOM     22  C   UNL     1      -4.666   2.989  16.563  1.00  0.00     0.041 C 
ATOM     23  O   UNL     1      -5.203   2.133  17.316  1.00  0.00    -0.550 OA
ATOM     24  O   UNL     1      -3.281   3.064  16.488  1.00  0.00    -0.550 OA
ENDBRANCH  21  22
ENDBRANCH  20  21
ENDBRANCH  19  20
ENDBRANCH  18  19
ENDBRANCH  17  18
ENDBRANCH  16  17
ENDBRANCH  15  16
ENDBRANCH  14  15
ENDBRANCH  13  14
ENDBRANCH   1  13
TORSDOF 20
ENDMDL
MODEL 6
REMARK VINA RESULT:    -4.400      1.221      2.784
REMARK INTER + INTRA:         -12.523
REMARK INTER:                  -9.406
REMARK INTRA:                  -3.116
REMARK UNBOUND:                -2.979
REMARK SMILES CCCCCCCCCCCCCCCCCCCCCC(=O)[O-]
REMARK SMILES IDX 12 1 11 2 10 3 9 4 8 5 7 6 6 7 5 8 4 9 3 10 2 11 1 12 13 13
REMARK SMILES IDX 14 14 15 15 16 16 17 17 18 18 19 19 20 20 21 21 22 22 23 23
REMARK SMILES IDX 24 24
REMARK H PARENT
REMARK Flexibility Score: inf
ROOT
ATOM      1  C   UNL     1      -6.337   7.581  16.995  1.00  0.00     0.000 C 
ENDROOT
BRANCH   1   2
ATOM      2  C   UNL     1      -7.723   7.010  16.658  1.00  0.00     0.000 C 
BRANCH   2   3
ATOM      3  C   UNL     1      -8.198   7.406  15.249  1.00  0.00     0.000 C 
BRANCH   3   4
ATOM      4  C   UNL     1      -9.223   6.407  14.666  1.00  0.00    -0.000 C 
BRANCH   4   5
ATOM      5  C   UNL     1      -8.672   5.560  13.503  1.00  0.00    -0.000 C 
BRANCH   5   6
ATOM      6  C   UNL     1      -7.528   4.601  13.882  1.00  0.00    -0.000 C 
BRANCH   6   7
ATOM      7  C   UNL     1      -6.211   4.812  13.106  1.00  0.00    -0.000 C 
BRANCH   7   8
ATOM      8  C   UNL     1      -6.366   5.495  11.735  1.00  0.00    -0.000 C 
BRANCH   8   9
ATOM      9  C   UNL     1      -5.412   6.689  11.554  1.00  0.00    -0.000 C 
BRANCH   9  10
ATOM     10  C   UNL     1      -4.614   7.006  12.829  1.00  0.00    -0.000 C 
BRANCH  10  11
ATOM     11  C   UNL     1      -5.125   8.266  13.544  1.00  0.00    -0.003 C 
ATOM     12  C   UNL     1      -5.928   9.151  12.595  1.00  0.00     0.004 C 
ENDBRANCH  10  11
ENDBRANCH   9  10
ENDBRANCH   8   9
ENDBRANCH   7   8
ENDBRANCH   6   7
ENDBRANCH   5   6
ENDBRANCH   4   5
ENDBRANCH   3   4
ENDBRANCH   2   3
ENDBRANCH   1   2
BRANCH   1  13
ATOM     13  C   UNL     1      -5.203   6.575  16.734  1.00  0.00     0.000 C 
BRANCH  13  14
ATOM     14  C   UNL     1      -5.627   5.116  16.983  1.00  0.00     0.000 C 
BRANCH  14  15
ATOM     15  C   UNL     1      -4.718   4.057  16.334  1.00  0.00     0.000 C 
BRANCH  15  16
ATOM     16  C   UNL     1      -3.454   4.656  15.700  1.00  0.00     0.000 C 
BRANCH  16  17
ATOM     17  C   UNL     1      -2.334   3.610  15.620  1.00  0.00     0.000 C 
BRANCH  17  18
ATOM     18  C   UNL     1      -1.170   3.902  16.584  1.00  0.00     0.000 C 
BRANCH  18  19
ATOM     19  C   UNL     1      -1.191   5.302  17.228  1.00  0.00     0.000 C 
BRANCH  19  20
ATOM     20  C   UNL     1       0.137   5.754  17.869  1.00  0.00     0.006 C 
BRANCH  20  21
ATOM     21  C   UNL     1      -0.033   6.470  19.222  1.00  0.00     0.053 C 
BRANCH  21  22
ATOM     22  C   UNL     1       0.800   7.712  19.325  1.00  0.00     0.041 C 
ATOM     23  O   UNL     1       1.254   8.080  20.442  1.00  0.00    -0.550 OA
ATOM     24  O   UNL     1       1.100   8.449  18.186  1.00  0.00    -0.550 OA
ENDBRANCH  21  22
ENDBRANCH  20  21
ENDBRANCH  19  20
ENDBRANCH  18  19
ENDBRANCH  17  18
ENDBRANCH  16  17
ENDBRANCH  15  16
ENDBRANCH  14  15
ENDBRANCH  13  14
ENDBRANCH   1  13
TORSDOF 20
ENDMDL
MODEL 7
REMARK VINA RESULT:    -4.368      3.106      5.395
REMARK INTER + INTRA:         -12.455
REMARK INTER:                  -8.382
REMARK INTRA:                  -4.073
REMARK UNBOUND:                -2.979
REMARK SMILES CCCCCCCCCCCCCCCCCCCCCC(=O)[O-]
REMARK SMILES IDX 12 1 11 2 10 3 9 4 8 5 7 6 6 7 5 8 4 9 3 10 2 11 1 12 13 13
REMARK SMILES IDX 14 14 15 15 16 16 17 17 18 18 19 19 20 20 21 21 22 22 23 23
REMARK SMILES IDX 24 24
REMARK H PARENT
REMARK Flexibility Score: inf
ROOT
ATOM      1  C   UNL     1      -6.083   5.441  13.166  1.00  0.00     0.000 C 
ENDROOT
BRANCH   1   2
ATOM      2  C   UNL     1      -6.029   5.657  11.645  1.00  0.00     0.000 C 
BRANCH   2   3
ATOM      3  C   UNL     1      -7.277   5.113  10.928  1.00  0.00     0.000 C 
BRANCH   3   4
ATOM      4  C   UNL     1      -8.066   6.217  10.191  1.00  0.00    -0.000 C 
BRANCH   4   5
ATOM      5  C   UNL     1      -9.016   7.016  11.105  1.00  0.00    -0.000 C 
BRANCH   5   6
ATOM      6  C   UNL     1      -8.557   8.449  11.428  1.00  0.00    -0.000 C 
BRANCH   6   7
ATOM      7  C   UNL     1      -7.436   8.999  10.522  1.00  0.00    -0.000 C 
BRANCH   7   8
ATOM      8  C   UNL     1      -6.343   9.799  11.252  1.00  0.00    -0.000 C 
BRANCH   8   9
ATOM      9  C   UNL     1      -5.902   9.139  12.571  1.00  0.00    -0.000 C 
BRANCH   9  10
ATOM     10  C   UNL     1      -4.423   9.399  12.895  1.00  0.00    -0.000 C 
BRANCH  10  11
ATOM     11  C   UNL     1      -3.534   8.180  12.604  1.00  0.00    -0.003 C 
ATOM     12  C   UNL     1      -2.978   7.584  13.895  1.00  0.00     0.004 C 
ENDBRANCH  10  11
ENDBRANCH   9  10
ENDBRANCH   8   9
ENDBRANCH   7   8
ENDBRANCH   6   7
ENDBRANCH   5   6
ENDBRANCH   4   5
ENDBRANCH   3   4
ENDBRANCH   2   3
ENDBRANCH   1   2
BRANCH   1  13
ATOM     13  C   UNL     1      -7.349   4.689  13.613  1.00  0.00     0.000 C 
BRANCH  13  14
ATOM     14  C   UNL     1      -8.313   5.572  14.427  1.00  0.00     0.000 C 
BRANCH  14  15
ATOM     15  C   UNL     1      -7.716   6.905  14.915  1.00  0.00     0.000 C 
BRANCH  15  16
ATOM     16  C   UNL     1      -7.236   6.851  16.372  1.00  0.00     0.000 C 
BRANCH  16  17
ATOM     17  C   UNL     1      -5.722   7.087  16.458  1.00  0.00     0.000 C 
BRANCH  17  18
ATOM     18  C   UNL     1      -4.973   5.931  17.148  1.00  0.00     0.000 C 
BRANCH  18  19
ATOM     19  C   UNL     1      -5.519   4.524  16.842  1.00  0.00     0.000 C 
BRANCH  19  20
ATOM     20  C   UNL     1      -4.485   3.517  16.300  1.00  0.00     0.006 C 
BRANCH  20  21
ATOM     21  C   UNL     1      -3.404   4.151  15.405  1.00  0.00     0.053 C 
BRANCH  21  22
ATOM     22  C   UNL     1      -2.014   3.796  15.841  1.00  0.00     0.041 C 
ATOM     23  O   UNL     1      -1.033   4.488  15.457  1.00  0.00    -0.550 OA
ATOM     24  O   UNL     1      -1.802   2.721  16.694  1.00  0.00    -0.550 OA
ENDBRANCH  21  22
ENDBRANCH  20  21
ENDBRANCH  19  20
ENDBRANCH  18  19
ENDBRANCH  17  18
ENDBRANCH  16  17
ENDBRANCH  15  16
ENDBRANCH  14  15
ENDBRANCH  13  14
ENDBRANCH   1  13
TORSDOF 20
ENDMDL
MODEL 8
REMARK VINA RESULT:    -4.364      3.271      6.637
REMARK INTER + INTRA:         -12.445
REMARK INTER:                  -8.485
REMARK INTRA:                  -3.961
REMARK UNBOUND:                -2.979
REMARK SMILES CCCCCCCCCCCCCCCCCCCCCC(=O)[O-]
REMARK SMILES IDX 12 1 11 2 10 3 9 4 8 5 7 6 6 7 5 8 4 9 3 10 2 11 1 12 13 13
REMARK SMILES IDX 14 14 15 15 16 16 17 17 18 18 19 19 20 20 21 21 22 22 23 23
REMARK SMILES IDX 24 24
REMARK H PARENT
REMARK Flexibility Score: inf
ROOT
ATOM      1  C   UNL     1      -6.705   4.970  13.596  1.00  0.00     0.000 C 
ENDROOT
BRANCH   1   2
ATOM      2  C   UNL     1      -8.241   5.001  13.657  1.00  0.00     0.000 C 
BRANCH   2   3
ATOM      3  C   UNL     1      -8.768   5.911  14.780  1.00  0.00     0.000 C 
BRANCH   3   4
ATOM      4  C   UNL     1      -7.818   7.090  15.084  1.00  0.00    -0.000 C 
BRANCH   4   5
ATOM      5  C   UNL     1      -7.210   7.049  16.499  1.00  0.00    -0.000 C 
BRANCH   5   6
ATOM      6  C   UNL     1      -5.700   7.344  16.567  1.00  0.00    -0.000 C 
BRANCH   6   7
ATOM      7  C   UNL     1      -4.800   6.110  16.786  1.00  0.00    -0.000 C 
BRANCH   7   8
ATOM      8  C   UNL     1      -5.553   4.785  17.000  1.00  0.00    -0.000 C 
BRANCH   8   9
ATOM      9  C   UNL     1      -4.820   3.578  16.391  1.00  0.00    -0.000 C 
BRANCH   9  10
ATOM     10  C   UNL     1      -3.593   3.989  15.562  1.00  0.00    -0.000 C 
BRANCH  10  11
ATOM     11  C   UNL     1      -2.278   3.463  16.155  1.00  0.00    -0.003 C 
ATOM     12  C   UNL     1      -1.102   4.354  15.763  1.00  0.00     0.004 C 
ENDBRANCH  10  11
ENDBRANCH   9  10
ENDBRANCH   8   9
ENDBRANCH   7   8
ENDBRANCH   6   7
ENDBRANCH   5   6
ENDBRANCH   4   5
ENDBRANCH   3   4
ENDBRANCH   2   3
ENDBRANCH   1   2
BRANCH   1  13
ATOM     13  C   UNL     1      -6.174   4.733  12.171  1.00  0.00     0.000 C 
BRANCH  13  14
ATOM     14  C   UNL     1      -7.229   5.013  11.085  1.00  0.00     0.000 C 
BRANCH  14  15
ATOM     15  C   UNL     1      -7.035   6.335  10.319  1.00  0.00     0.000 C 
BRANCH  15  16
ATOM     16  C   UNL     1      -8.088   7.395  10.674  1.00  0.00     0.000 C 
BRANCH  16  17
ATOM     17  C   UNL     1      -7.574   8.325  11.781  1.00  0.00     0.000 C 
BRANCH  17  18
ATOM     18  C   UNL     1      -6.079   8.663  11.635  1.00  0.00     0.000 C 
BRANCH  18  19
ATOM     19  C   UNL     1      -5.247   8.518  12.924  1.00  0.00     0.000 C 
BRANCH  19  20
ATOM     20  C   UNL     1      -4.105   7.485  12.860  1.00  0.00     0.006 C 
BRANCH  20  21
ATOM     21  C   UNL     1      -2.897   7.831  13.752  1.00  0.00     0.053 C 
BRANCH  21  22
ATOM     22  C   UNL     1      -2.105   8.990  13.225  1.00  0.00     0.041 C 
ATOM     23  O   UNL     1      -1.567   9.804  14.023  1.00  0.00    -0.550 OA
ATOM     24  O   UNL     1      -1.935   9.156  11.857  1.00  0.00    -0.550 OA
ENDBRANCH  21  22
ENDBRANCH  20  21
ENDBRANCH  19  20
ENDBRANCH  18  19
ENDBRANCH  17  18
ENDBRANCH  16  17
ENDBRANCH  15  16
ENDBRANCH  14  15
ENDBRANCH  13  14
ENDBRANCH   1  13
TORSDOF 20
ENDMDL
MODEL 9
REMARK VINA RESULT:    -4.333      3.605      6.145
REMARK INTER + INTRA:         -12.378
REMARK INTER:                  -8.220
REMARK INTRA:                  -4.158
REMARK UNBOUND:                -2.979
REMARK SMILES CCCCCCCCCCCCCCCCCCCCCC(=O)[O-]
REMARK SMILES IDX 12 1 11 2 10 3 9 4 8 5 7 6 6 7 5 8 4 9 3 10 2 11 1 12 13 13
REMARK SMILES IDX 14 14 15 15 16 16 17 17 18 18 19 19 20 20 21 21 22 22 23 23
REMARK SMILES IDX 24 24
REMARK H PARENT
REMARK Flexibility Score: inf
ROOT
ATOM      1  C   UNL     1      -8.532   5.706  14.495  1.00  0.00     0.000 C 
ENDROOT
BRANCH   1   2
ATOM      2  C   UNL     1      -9.293   6.857  13.817  1.00  0.00     0.000 C 
BRANCH   2   3
ATOM      3  C   UNL     1      -8.647   8.229  14.082  1.00  0.00     0.000 C 
BRANCH   3   4
ATOM      4  C   UNL     1      -7.692   8.663  12.949  1.00  0.00    -0.000 C 
BRANCH   4   5
ATOM      5  C   UNL     1      -6.225   8.808  13.395  1.00  0.00    -0.000 C 
BRANCH   5   6
ATOM      6  C   UNL     1      -6.011   8.883  14.917  1.00  0.00    -0.000 C 
BRANCH   6   7
ATOM      7  C   UNL     1      -5.307   7.660  15.542  1.00  0.00    -0.000 C 
BRANCH   7   8
ATOM      8  C   UNL     1      -6.085   6.972  16.678  1.00  0.00    -0.000 C 
BRANCH   8   9
ATOM      9  C   UNL     1      -5.411   5.676  17.161  1.00  0.00    -0.000 C 
BRANCH   9  10
ATOM     10  C   UNL     1      -4.071   5.409  16.457  1.00  0.00    -0.000 C 
BRANCH  10  11
ATOM     11  C   UNL     1      -3.926   3.950  16.001  1.00  0.00    -0.003 C 
ATOM     12  C   UNL     1      -4.958   3.055  16.682  1.00  0.00     0.004 C 
ENDBRANCH  10  11
ENDBRANCH   9  10
ENDBRANCH   8   9
ENDBRANCH   7   8
ENDBRANCH   6   7
ENDBRANCH   5   6
ENDBRANCH   4   5
ENDBRANCH   3   4
ENDBRANCH   2   3
ENDBRANCH   1   2
BRANCH   1  13
ATOM     13  C   UNL     1      -7.895   4.739  13.481  1.00  0.00     0.000 C 
BRANCH  13  14
ATOM     14  C   UNL     1      -6.357   4.736  13.542  1.00  0.00     0.000 C 
BRANCH  14  15
ATOM     15  C   UNL     1      -5.659   5.384  12.333  1.00  0.00     0.000 C 
BRANCH  15  16
ATOM     16  C   UNL     1      -6.629   5.731  11.194  1.00  0.00     0.000 C 
BRANCH  16  17
ATOM     17  C   UNL     1      -5.982   6.709  10.204  1.00  0.00     0.000 C 
BRANCH  17  18
ATOM     18  C   UNL     1      -4.508   7.009  10.534  1.00  0.00     0.000 C 
BRANCH  18  19
ATOM     19  C   UNL     1      -4.052   8.450  10.237  1.00  0.00     0.000 C 
BRANCH  19  20
ATOM     20  C   UNL     1      -2.787   8.911  10.989  1.00  0.00     0.006 C 
BRANCH  20  21
ATOM     21  C   UNL     1      -3.063   9.931  12.110  1.00  0.00     0.053 C 
BRANCH  21  22
ATOM     22  C   UNL     1      -2.571   9.464  13.447  1.00  0.00     0.041 C 
ATOM     23  O   UNL     1      -2.438  10.284  14.395  1.00  0.00    -0.550 OA
ATOM     24  O   UNL     1      -2.289   8.121  13.658  1.00  0.00    -0.550 OA
ENDBRANCH  21  22
ENDBRANCH  20  21
ENDBRANCH  19  20
ENDBRANCH  18  19
ENDBRANCH  17  18
ENDBRANCH  16  17
ENDBRANCH  15  16
ENDBRANCH  14  15
ENDBRANCH  13  14
ENDBRANCH   1  13
TORSDOF 20
ENDMDL
