MODEL 1
REMARK VINA RESULT:    -4.013      0.000      0.000
REMARK INTER + INTRA:          -7.823
REMARK INTER:                  -6.359
REMARK INTRA:                  -1.464
REMARK UNBOUND:                -1.464
REMARK SMILES CCCCCCCCCCCC(=O)[O-]
REMARK SMILES IDX 7 1 8 2 9 3 10 4 11 5 12 6 13 7 14 8 6 9 5 10 4 11 3 12 2 13
REMARK SMILES IDX 1 14
REMARK H PARENT
REMARK Flexibility Score: inf
ROOT
ATOM      1  C   UNL     1      14.893 -33.159  21.761  1.00  0.00     0.000 C 
ENDROOT
BRANCH   1   2
ATOM      2  C   UNL     1      13.876 -32.488  20.826  1.00  0.00     0.000 C 
BRANCH   2   3
ATOM      3  C   UNL     1      13.532 -31.048  21.246  1.00  0.00     0.000 C 
BRANCH   3   4
ATOM      4  C   UNL     1      12.567 -30.929  22.444  1.00  0.00     0.006 C 
BRANCH   4   5
ATOM      5  C   UNL     1      13.122 -30.129  23.634  1.00  0.00     0.053 C 
BRANCH   5   6
ATOM      6  C   UNL     1      12.485 -28.778  23.745  1.00  0.00     0.041 C 
ATOM      7  O   UNL     1      13.107 -27.827  24.289  1.00  0.00    -0.550 OA
ATOM      8  O   UNL     1      11.219 -28.561  23.218  1.00  0.00    -0.550 OA
ENDBRANCH   5   6
ENDBRANCH   4   5
ENDBRANCH   3   4
ENDBRANCH   2   3
ENDBRANCH   1   2
BRANCH   1   9
ATOM      9  C   UNL     1      16.301 -33.136  21.148  1.00  0.00     0.000 C 
BRANCH   9  10
ATOM     10  C   UNL     1      17.239 -32.143  21.853  1.00  0.00    -0.000 C 
BRANCH  10  11
ATOM     11  C   UNL     1      16.800 -31.832  23.295  1.00  0.00    -0.000 C 
BRANCH  11  12
ATOM     12  C   UNL     1      16.628 -30.317  23.537  1.00  0.00    -0.000 C 
BRANCH  12  13
ATOM     13  C   UNL     1      17.017 -29.453  22.325  1.00  0.00    -0.003 C 
ATOM     14  C   UNL     1      15.981 -28.379  21.999  1.00  0.00     0.004 C 
ENDBRANCH  12  13
ENDBRANCH  11  12
ENDBRANCH  10  11
ENDBRANCH   9  10
ENDBRANCH   1   9
TORSDOF 10
ENDMDL
MODEL 2
REMARK VINA RESULT:    -3.995      4.045      5.504
REMARK INTER + INTRA:          -7.794
REMARK INTER:                  -6.599
REMARK INTRA:                  -1.196
REMARK UNBOUND:                -1.464
REMARK SMILES CCCCCCCCCCCC(=O)[O-]
REMARK SMILES IDX 7 1 8 2 9 3 10 4 11 5 12 6 13 7 14 8 6 9 5 10 4 11 3 12 2 13
REMARK SMILES IDX 1 14
REMARK H PARENT
REMARK Flexibility Score: inf
ROOT
ATOM      1  C   UNL     1      12.895 -31.033  21.611  1.00  0.00     0.000 C 
ENDROOT
BRANCH   1   2
ATOM      2  C   UNL     1      13.760 -31.994  20.783  1.00  0.00     0.000 C 
BRANCH   2   3
ATOM      3  C   UNL     1      14.532 -33.007  21.649  1.00  0.00     0.000 C 
BRANCH   3   4
ATOM      4  C   UNL     1      15.794 -33.601  20.991  1.00  0.00     0.006 C 
BRANCH   4   5
ATOM      5  C   UNL     1      15.513 -34.615  19.871  1.00  0.00     0.053 C 
BRANCH   5   6
ATOM      6  C   UNL     1      16.744 -35.373  19.481  1.00  0.00     0.041 C 
ATOM      7  O   UNL     1      17.759 -34.760  19.057  1.00  0.00    -0.550 OA
ATOM      8  O   UNL     1      16.783 -36.755  19.618  1.00  0.00    -0.550 OA
ENDBRANCH   5   6
ENDBRANCH   4   5
ENDBRANCH   3   4
ENDBRANCH   2   3
ENDBRANCH   1   2
BRANCH   1   9
ATOM      9  C   UNL     1      13.077 -31.288  23.114  1.00  0.00     0.000 C 
BRANCH   9  10
ATOM     10  C   UNL     1      13.744 -30.108  23.839  1.00  0.00    -0.000 C 
BRANCH  10  11
ATOM     11  C   UNL     1      14.207 -29.002  22.874  1.00  0.00    -0.000 C 
BRANCH  11  12
ATOM     12  C   UNL     1      15.724 -28.735  22.978  1.00  0.00    -0.000 C 
BRANCH  12  13
ATOM     13  C   UNL     1      16.576 -30.015  22.949  1.00  0.00    -0.003 C 
ATOM     14  C   UNL     1      17.266 -30.244  21.606  1.00  0.00     0.004 C 
ENDBRANCH  12  13
ENDBRANCH  11  12
ENDBRANCH  10  11
ENDBRANCH   9  10
ENDBRANCH   1   9
TORSDOF 10
ENDMDL
MODEL 3
REMARK VINA RESULT:    -3.993      1.777      3.599
REMARK INTER + INTRA:          -7.792
REMARK INTER:                  -6.526
REMARK INTRA:                  -1.266
REMARK UNBOUND:                -1.464
REMARK SMILES CCCCCCCCCCCC(=O)[O-]
REMARK SMILES IDX 7 1 8 2 9 3 10 4 11 5 12 6 13 7 14 8 6 9 5 10 4 11 3 12 2 13
REMARK SMILES IDX 1 14
REMARK H PARENT
REMARK Flexibility Score: inf
ROOT
ATOM      1  C   UNL     1      14.952 -33.133  22.214  1.00  0.00     0.000 C 
ENDROOT
BRANCH   1   2
ATOM      2  C   UNL     1      15.881 -31.957  22.552  1.00  0.00     0.000 C 
BRANCH   2   3
ATOM      3  C   UNL     1      15.676 -30.744  21.626  1.00  0.00     0.000 C 
BRANCH   3   4
ATOM      4  C   UNL     1      14.993 -29.528  22.284  1.00  0.00     0.006 C 
BRANCH   4   5
ATOM      5  C   UNL     1      14.063 -29.875  23.458  1.00  0.00     0.053 C 
BRANCH   5   6
ATOM      6  C   UNL     1      12.619 -29.723  23.090  1.00  0.00     0.041 C 
ATOM      7  O   UNL     1      12.059 -30.575  22.350  1.00  0.00    -0.550 OA
ATOM      8  O   UNL     1      11.882 -28.659  23.593  1.00  0.00    -0.550 OA
ENDBRANCH   5   6
ENDBRANCH   4   5
ENDBRANCH   3   4
ENDBRANCH   2   3
ENDBRANCH   1   2
BRANCH   1   9
ATOM      9  C   UNL     1      14.251 -32.909  20.867  1.00  0.00     0.000 C 
BRANCH   9  10
ATOM     10  C   UNL     1      14.738 -33.875  19.776  1.00  0.00    -0.000 C 
BRANCH  10  11
ATOM     11  C   UNL     1      15.440 -35.118  20.352  1.00  0.00    -0.000 C 
BRANCH  11  12
ATOM     12  C   UNL     1      16.816 -35.366  19.698  1.00  0.00    -0.000 C 
BRANCH  12  13
ATOM     13  C   UNL     1      17.477 -34.089  19.155  1.00  0.00    -0.003 C 
ATOM     14  C   UNL     1      18.399 -33.414  20.170  1.00  0.00     0.004 C 
ENDBRANCH  12  13
ENDBRANCH  11  12
ENDBRANCH  10  11
ENDBRANCH   9  10
ENDBRANCH   1   9
TORSDOF 10
ENDMDL
MODEL 4
REMARK VINA RESULT:    -3.990      1.162      2.991
REMARK INTER + INTRA:          -7.786
REMARK INTER:                  -6.232
REMARK INTRA:                  -1.554
REMARK UNBOUND:                -1.464
REMARK SMILES CCCCCCCCCCCC(=O)[O-]
REMARK SMILES IDX 7 1 8 2 9 3 10 4 11 5 12 6 13 7 14 8 6 9 5 10 4 11 3 12 2 13
REMARK SMILES IDX 1 14
REMARK H PARENT
REMARK Flexibility Score: inf
ROOT
ATOM      1  C   UNL     1      16.882 -30.553  21.724  1.00  0.00     0.000 C 
ENDROOT
BRANCH   1   2
ATOM      2  C   UNL     1      15.538 -29.811  21.697  1.00  0.00     0.000 C 
BRANCH   2   3
ATOM      3  C   UNL     1      14.345 -30.736  21.397  1.00  0.00     0.000 C 
BRANCH   3   4
ATOM      4  C   UNL     1      13.102 -30.509  22.282  1.00  0.00     0.006 C 
BRANCH   4   5
ATOM      5  C   UNL     1      13.409 -29.969  23.688  1.00  0.00     0.053 C 
BRANCH   5   6
ATOM      6  C   UNL     1      12.725 -28.662  23.947  1.00  0.00     0.041 C 
ATOM      7  O   UNL     1      11.467 -28.590  23.925  1.00  0.00    -0.550 OA
ATOM      8  O   UNL     1      13.474 -27.532  24.247  1.00  0.00    -0.550 OA
ENDBRANCH   5   6
ENDBRANCH   4   5
ENDBRANCH   3   4
ENDBRANCH   2   3
ENDBRANCH   1   2
BRANCH   1   9
ATOM      9  C   UNL     1      17.343 -30.801  23.168  1.00  0.00     0.000 C 
BRANCH   9  10
ATOM     10  C   UNL     1      17.297 -32.287  23.558  1.00  0.00    -0.000 C 
BRANCH  10  11
ATOM     11  C   UNL     1      15.966 -32.689  24.218  1.00  0.00    -0.000 C 
BRANCH  11  12
ATOM     12  C   UNL     1      15.172 -33.698  23.361  1.00  0.00    -0.000 C 
BRANCH  12  13
ATOM     13  C   UNL     1      15.998 -34.323  22.225  1.00  0.00    -0.003 C 
ATOM     14  C   UNL     1      15.252 -34.360  20.892  1.00  0.00     0.004 C 
ENDBRANCH  12  13
ENDBRANCH  11  12
ENDBRANCH  10  11
ENDBRANCH   9  10
ENDBRANCH   1   9
TORSDOF 10
ENDMDL
MODEL 5
REMARK VINA RESULT:    -3.968      3.782      5.341
REMARK INTER + INTRA:          -7.752
REMARK INTER:                  -6.290
REMARK INTRA:                  -1.462
REMARK UNBOUND:                -1.464
REMARK SMILES CCCCCCCCCCCC(=O)[O-]
REMARK SMILES IDX 7 1 8 2 9 3 10 4 11 5 12 6 13 7 14 8 6 9 5 10 4 11 3 12 2 13
REMARK SMILES IDX 1 14
REMARK H PARENT
REMARK Flexibility Score: inf
ROOT
ATOM      1  C   UNL     1      16.983 -32.132  23.733  1.00  0.00     0.000 C 
ENDROOT
BRANCH   1   2
ATOM      2  C   UNL     1      15.680 -32.758  24.252  1.00  0.00     0.000 C 
BRANCH   2   3
ATOM      3  C   UNL     1      14.906 -33.525  23.164  1.00  0.00     0.000 C 
BRANCH   3   4
ATOM      4  C   UNL     1      15.786 -34.226  22.109  1.00  0.00     0.006 C 
BRANCH   4   5
ATOM      5  C   UNL     1      15.290 -34.074  20.662  1.00  0.00     0.053 C 
BRANCH   5   6
ATOM      6  C   UNL     1      16.154 -34.821  19.693  1.00  0.00     0.041 C 
ATOM      7  O   UNL     1      16.853 -34.195  18.852  1.00  0.00    -0.550 OA
ATOM      8  O   UNL     1      16.214 -36.208  19.741  1.00  0.00    -0.550 OA
ENDBRANCH   5   6
ENDBRANCH   4   5
ENDBRANCH   3   4
ENDBRANCH   2   3
ENDBRANCH   1   2
BRANCH   1   9
ATOM      9  C   UNL     1      16.798 -30.635  23.447  1.00  0.00     0.000 C 
BRANCH   9  10
ATOM     10  C   UNL     1      16.538 -30.343  21.960  1.00  0.00    -0.000 C 
BRANCH  10  11
ATOM     11  C   UNL     1      15.072 -29.972  21.674  1.00  0.00    -0.000 C 
BRANCH  11  12
ATOM     12  C   UNL     1      14.357 -29.415  22.924  1.00  0.00    -0.000 C 
BRANCH  12  13
ATOM     13  C   UNL     1      13.084 -30.191  23.299  1.00  0.00    -0.003 C 
ATOM     14  C   UNL     1      12.435 -30.891  22.106  1.00  0.00     0.004 C 
ENDBRANCH  12  13
ENDBRANCH  11  12
ENDBRANCH  10  11
ENDBRANCH   9  10
ENDBRANCH   1   9
TORSDOF 10
ENDMDL
MODEL 6
REMARK VINA RESULT:    -3.966      3.860      5.259
REMARK INTER + INTRA:          -7.749
REMARK INTER:                  -6.439
REMARK INTRA:                  -1.310
REMARK UNBOUND:                -1.464
REMARK SMILES CCCCCCCCCCCC(=O)[O-]
REMARK SMILES IDX 7 1 8 2 9 3 10 4 11 5 12 6 13 7 14 8 6 9 5 10 4 11 3 12 2 13
REMARK SMILES IDX 1 14
REMARK H PARENT
REMARK Flexibility Score: inf
ROOT
ATOM      1  C   UNL     1      14.511 -32.804  24.166  1.00  0.00     0.000 C 
ENDROOT
BRANCH   1   2
ATOM      2  C   UNL     1      16.027 -32.984  23.999  1.00  0.00     0.000 C 
BRANCH   2   3
ATOM      3  C   UNL     1      16.417 -33.552  22.622  1.00  0.00     0.000 C 
BRANCH   3   4
ATOM      4  C   UNL     1      15.289 -34.295  21.878  1.00  0.00     0.006 C 
BRANCH   4   5
ATOM      5  C   UNL     1      15.224 -34.010  20.369  1.00  0.00     0.053 C 
BRANCH   5   6
ATOM      6  C   UNL     1      16.295 -34.735  19.616  1.00  0.00     0.041 C 
ATOM      7  O   UNL     1      17.184 -34.091  18.998  1.00  0.00    -0.550 OA
ATOM      8  O   UNL     1      16.332 -36.124  19.624  1.00  0.00    -0.550 OA
ENDBRANCH   5   6
ENDBRANCH   4   5
ENDBRANCH   3   4
ENDBRANCH   2   3
ENDBRANCH   1   2
BRANCH   1   9
ATOM      9  C   UNL     1      14.085 -31.373  23.808  1.00  0.00     0.000 C 
BRANCH   9  10
ATOM     10  C   UNL     1      13.318 -31.297  22.479  1.00  0.00    -0.000 C 
BRANCH  10  11
ATOM     11  C   UNL     1      14.119 -30.594  21.369  1.00  0.00    -0.000 C 
BRANCH  11  12
ATOM     12  C   UNL     1      15.461 -30.032  21.885  1.00  0.00    -0.000 C 
BRANCH  12  13
ATOM     13  C   UNL     1      15.546 -28.498  21.829  1.00  0.00    -0.003 C 
ATOM     14  C   UNL     1      15.697 -27.856  23.207  1.00  0.00     0.004 C 
ENDBRANCH  12  13
ENDBRANCH  11  12
ENDBRANCH  10  11
ENDBRANCH   9  10
ENDBRANCH   1   9
TORSDOF 10
ENDMDL
MODEL 7
REMARK VINA RESULT:    -3.931      1.961      3.198
REMARK INTER + INTRA:          -7.693
REMARK INTER:                  -6.446
REMARK INTRA:                  -1.247
REMARK UNBOUND:                -1.464
REMARK SMILES CCCCCCCCCCCC(=O)[O-]
REMARK SMILES IDX 7 1 8 2 9 3 10 4 11 5 12 6 13 7 14 8 6 9 5 10 4 11 3 12 2 13
REMARK SMILES IDX 1 14
REMARK H PARENT
REMARK Flexibility Score: inf
ROOT
ATOM      1  C   UNL     1      14.813 -33.673  19.961  1.00  0.00     0.000 C 
ENDROOT
BRANCH   1   2
ATOM      2  C   UNL     1      14.280 -32.940  21.202  1.00  0.00     0.000 C 
BRANCH   2   3
ATOM      3  C   UNL     1      14.999 -33.353  22.499  1.00  0.00     0.000 C 
BRANCH   3   4
ATOM      4  C   UNL     1      14.672 -32.486  23.732  1.00  0.00     0.006 C 
BRANCH   4   5
ATOM      5  C   UNL     1      15.321 -31.092  23.723  1.00  0.00     0.053 C 
BRANCH   5   6
ATOM      6  C   UNL     1      14.323 -30.012  23.443  1.00  0.00     0.041 C 
ATOM      7  O   UNL     1      14.454 -29.274  22.430  1.00  0.00    -0.550 OA
ATOM      8  O   UNL     1      13.228 -29.841  24.281  1.00  0.00    -0.550 OA
ENDBRANCH   5   6
ENDBRANCH   4   5
ENDBRANCH   3   4
ENDBRANCH   2   3
ENDBRANCH   1   2
BRANCH   1   9
ATOM      9  C   UNL     1      15.508 -34.984  20.355  1.00  0.00     0.000 C 
BRANCH   9  10
ATOM     10  C   UNL     1      16.663 -35.350  19.409  1.00  0.00    -0.000 C 
BRANCH  10  11
ATOM     11  C   UNL     1      17.723 -34.239  19.306  1.00  0.00    -0.000 C 
BRANCH  11  12
ATOM     12  C   UNL     1      18.360 -33.914  20.674  1.00  0.00    -0.000 C 
BRANCH  12  13
ATOM     13  C   UNL     1      18.886 -32.472  20.780  1.00  0.00    -0.003 C 
ATOM     14  C   UNL     1      17.771 -31.438  20.927  1.00  0.00     0.004 C 
ENDBRANCH  12  13
ENDBRANCH  11  12
ENDBRANCH  10  11
ENDBRANCH   9  10
ENDBRANCH   1   9
TORSDOF 10
ENDMDL
MODEL 8
REMARK VINA RESULT:    -3.921      3.518      4.930
REMARK INTER + INTRA:          -7.677
REMARK INTER:                  -6.204
REMARK INTRA:                  -1.473
REMARK UNBOUND:                -1.464
REMARK SMILES CCCCCCCCCCCC(=O)[O-]
REMARK SMILES IDX 7 1 8 2 9 3 10 4 11 5 12 6 13 7 14 8 6 9 5 10 4 11 3 12 2 13
REMARK SMILES IDX 1 14
REMARK H PARENT
REMARK Flexibility Score: inf
ROOT
ATOM      1  C   UNL     1      14.000 -30.274  23.873  1.00  0.00     0.000 C 
ENDROOT
BRANCH   1   2
ATOM      2  C   UNL     1      13.443 -31.670  23.560  1.00  0.00     0.000 C 
BRANCH   2   3
ATOM      3  C   UNL     1      14.307 -32.806  24.136  1.00  0.00     0.000 C 
BRANCH   3   4
ATOM      4  C   UNL     1      15.403 -33.338  23.190  1.00  0.00     0.006 C 
BRANCH   4   5
ATOM      5  C   UNL     1      14.942 -33.559  21.740  1.00  0.00     0.053 C 
BRANCH   5   6
ATOM      6  C   UNL     1      15.651 -34.711  21.097  1.00  0.00     0.041 C 
ATOM      7  O   UNL     1      15.249 -35.168  19.994  1.00  0.00    -0.550 OA
ATOM      8  O   UNL     1      16.778 -35.257  21.698  1.00  0.00    -0.550 OA
ENDBRANCH   5   6
ENDBRANCH   4   5
ENDBRANCH   3   4
ENDBRANCH   2   3
ENDBRANCH   1   2
BRANCH   1   9
ATOM      9  C   UNL     1      14.228 -29.471  22.584  1.00  0.00     0.000 C 
BRANCH   9  10
ATOM     10  C   UNL     1      15.582 -29.779  21.926  1.00  0.00    -0.000 C 
BRANCH  10  11
ATOM     11  C   UNL     1      16.726 -29.902  22.948  1.00  0.00    -0.000 C 
BRANCH  11  12
ATOM     12  C   UNL     1      17.964 -30.610  22.355  1.00  0.00    -0.000 C 
BRANCH  12  13
ATOM     13  C   UNL     1      17.698 -31.272  20.992  1.00  0.00    -0.003 C 
ATOM     14  C   UNL     1      18.630 -32.447  20.706  1.00  0.00     0.004 C 
ENDBRANCH  12  13
ENDBRANCH  11  12
ENDBRANCH  10  11
ENDBRANCH   9  10
ENDBRANCH   1   9
TORSDOF 10
ENDMDL
MODEL 9
REMARK VINA RESULT:    -3.843      4.292      5.912
REMARK INTER + INTRA:          -7.554
REMARK INTER:                  -6.229
REMARK INTRA:                  -1.326
REMARK UNBOUND:                -1.464
REMARK SMILES CCCCCCCCCCCC(=O)[O-]
REMARK SMILES IDX 7 1 8 2 9 3 10 4 11 5 12 6 13 7 14 8 6 9 5 10 4 11 3 12 2 13
REMARK SMILES IDX 1 14
REMARK H PARENT
REMARK Flexibility Score: inf
ROOT
ATOM      1  C   UNL     1      14.989 -33.374  22.178  1.00  0.00     0.000 C 
ENDROOT
BRANCH   1   2
ATOM      2  C   UNL     1      16.481 -33.011  22.193  1.00  0.00     0.000 C 
BRANCH   2   3
ATOM      3  C   UNL     1      17.013 -32.597  20.809  1.00  0.00     0.000 C 
BRANCH   3   4
ATOM      4  C   UNL     1      17.899 -33.646  20.108  1.00  0.00     0.006 C 
BRANCH   4   5
ATOM      5  C   UNL     1      17.123 -34.732  19.347  1.00  0.00     0.053 C 
BRANCH   5   6
ATOM      6  C   UNL     1      17.314 -36.087  19.955  1.00  0.00     0.041 C 
ATOM      7  O   UNL     1      17.226 -36.241  21.202  1.00  0.00    -0.550 OA
ATOM      8  O   UNL     1      17.555 -37.187  19.141  1.00  0.00    -0.550 OA
ENDBRANCH   5   6
ENDBRANCH   4   5
ENDBRANCH   3   4
ENDBRANCH   2   3
ENDBRANCH   1   2
BRANCH   1   9
ATOM      9  C   UNL     1      14.315 -32.875  20.892  1.00  0.00     0.000 C 
BRANCH   9  10
ATOM     10  C   UNL     1      13.443 -31.631  21.124  1.00  0.00    -0.000 C 
BRANCH  10  11
ATOM     11  C   UNL     1      13.216 -31.333  22.617  1.00  0.00    -0.000 C 
BRANCH  11  12
ATOM     12  C   UNL     1      13.638 -29.898  22.996  1.00  0.00    -0.000 C 
BRANCH  12  13
ATOM     13  C   UNL     1      14.883 -29.404  22.240  1.00  0.00    -0.003 C 
ATOM     14  C   UNL     1      16.140 -29.381  23.106  1.00  0.00     0.004 C 
ENDBRANCH  12  13
ENDBRANCH  11  12
ENDBRANCH  10  11
ENDBRANCH   9  10
ENDBRANCH   1   9
TORSDOF 10
ENDMDL
