MODEL 1
REMARK VINA RESULT:    -4.181      0.000      0.000
REMARK INTER + INTRA:          -5.178
REMARK INTER:                  -4.915
REMARK INTRA:                  -0.264
REMARK UNBOUND:                -0.264
REMARK SMILES O=c1cc(-c2ccc(O)c(O)c2)oc2cc(O)cc(O)c12
REMARK SMILES IDX 4 1 3 2 2 3 1 4 21 5 19 6 18 7 16 8 15 9 14 10 13 11 5 12
REMARK SMILES IDX 6 13 7 14 8 15 12 16 10 17 9 18 11 20 20 22 17 24
REMARK H PARENT 9 19 11 21 20 23 17 25
REMARK Flexibility Score: inf
ROOT
ATOM      1  C   UNL     1       0.139   3.856   9.975  1.00  0.00     0.138 A 
ATOM      2  C   UNL     1       1.181   4.790  10.068  1.00  0.00     0.100 A 
ATOM      3  C   UNL     1       0.989   6.089   9.597  1.00  0.00     0.197 A 
ATOM      4  O   UNL     1       1.923   6.918   9.745  1.00  0.00    -0.289 OA
ATOM      5  C   UNL     1      -0.243   6.445   8.997  1.00  0.00     0.107 A 
ATOM      6  C   UNL     1      -0.542   7.729   8.451  1.00  0.00     0.134 A 
ATOM      7  C   UNL     1      -1.832   7.992   7.972  1.00  0.00     0.093 A 
ATOM      8  C   UNL     1      -2.816   7.001   7.966  1.00  0.00     0.123 A 
ATOM      9  C   UNL     1      -2.518   5.729   8.451  1.00  0.00     0.094 A 
ATOM     10  C   UNL     1      -1.253   5.445   8.967  1.00  0.00     0.146 A 
ATOM     11  O   UNL     1      -1.018   4.224   9.436  1.00  0.00    -0.456 OA
ENDROOT
BRANCH   1  12
ATOM     12  C   UNL     1       0.290   2.460  10.457  1.00  0.00     0.021 A 
ATOM     13  C   UNL     1      -0.334   2.072  11.654  1.00  0.00     0.016 A 
ATOM     14  C   UNL     1      -0.202   0.766  12.133  1.00  0.00     0.051 A 
ATOM     15  C   UNL     1       0.562  -0.171  11.432  1.00  0.00     0.157 A 
ATOM     16  C   UNL     1       1.071   1.516   9.760  1.00  0.00     0.062 A 
ATOM     17  C   UNL     1       1.204   0.205  10.242  1.00  0.00     0.158 A 
BRANCH  15  18
ATOM     18  O   UNL     1       0.674  -1.467  11.934  1.00  0.00    -0.504 OA
ATOM     19  H   UNL     1       1.566  -1.940  12.009  1.00  0.00     0.293 HD
ENDBRANCH  15  18
BRANCH  17  20
ATOM     20  O   UNL     1       1.978  -0.722   9.543  1.00  0.00    -0.504 OA
ATOM     21  H   UNL     1       1.986  -0.751   8.531  1.00  0.00     0.293 HD
ENDBRANCH  17  20
ENDBRANCH   1  12
BRANCH   6  22
ATOM     22  O   UNL     1       0.388   8.767   8.334  1.00  0.00    -0.507 OA
ATOM     23  H   UNL     1       1.199   8.754   7.735  1.00  0.00     0.293 HD
ENDBRANCH   6  22
BRANCH   8  24
ATOM     24  O   UNL     1      -4.091   7.268   7.473  1.00  0.00    -0.508 OA
ATOM     25  H   UNL     1      -4.276   8.079   6.895  1.00  0.00     0.293 HD
ENDBRANCH   8  24
TORSDOF 5
ENDMDL
MODEL 2
REMARK VINA RESULT:    -3.997      1.156      2.692
REMARK INTER + INTRA:          -4.961
REMARK INTER:                  -4.689
REMARK INTRA:                  -0.272
REMARK UNBOUND:                -0.264
REMARK SMILES O=c1cc(-c2ccc(O)c(O)c2)oc2cc(O)cc(O)c12
REMARK SMILES IDX 4 1 3 2 2 3 1 4 21 5 19 6 18 7 16 8 15 9 14 10 13 11 5 12
REMARK SMILES IDX 6 13 7 14 8 15 12 16 10 17 9 18 11 20 20 22 17 24
REMARK H PARENT 9 19 11 21 20 23 17 25
REMARK Flexibility Score: inf
ROOT
ATOM      1  C   UNL     1      -0.402   4.128   9.762  1.00  0.00     0.138 A 
ATOM      2  C   UNL     1      -1.672   4.373   9.219  1.00  0.00     0.100 A 
ATOM      3  C   UNL     1      -1.953   5.618   8.655  1.00  0.00     0.197 A 
ATOM      4  O   UNL     1      -3.082   5.788   8.128  1.00  0.00    -0.289 OA
ATOM      5  C   UNL     1      -0.968   6.634   8.664  1.00  0.00     0.107 A 
ATOM      6  C   UNL     1      -1.152   7.952   8.148  1.00  0.00     0.134 A 
ATOM      7  C   UNL     1      -0.070   8.841   8.124  1.00  0.00     0.093 A 
ATOM      8  C   UNL     1       1.172   8.481   8.651  1.00  0.00     0.123 A 
ATOM      9  C   UNL     1       1.347   7.214   9.203  1.00  0.00     0.094 A 
ATOM     10  C   UNL     1       0.299   6.293   9.210  1.00  0.00     0.146 A 
ATOM     11  O   UNL     1       0.515   5.089   9.730  1.00  0.00    -0.456 OA
ENDROOT
BRANCH   1  12
ATOM     12  C   UNL     1      -0.050   2.824  10.378  1.00  0.00     0.021 A 
ATOM     13  C   UNL     1      -0.533   2.515  11.661  1.00  0.00     0.016 A 
ATOM     14  C   UNL     1      -0.211   1.298  12.267  1.00  0.00     0.051 A 
ATOM     15  C   UNL     1       0.606   0.374  11.609  1.00  0.00     0.157 A 
ATOM     16  C   UNL     1       0.785   1.897   9.724  1.00  0.00     0.062 A 
ATOM     17  C   UNL     1       1.110   0.675  10.334  1.00  0.00     0.158 A 
BRANCH  15  18
ATOM     18  O   UNL     1       0.910  -0.832  12.238  1.00  0.00    -0.504 OA
ATOM     19  H   UNL     1       0.519  -1.714  11.929  1.00  0.00     0.293 HD
ENDBRANCH  15  18
BRANCH  17  20
ATOM     20  O   UNL     1       1.936  -0.236   9.677  1.00  0.00    -0.504 OA
ATOM     21  H   UNL     1       1.875  -1.232   9.852  1.00  0.00     0.293 HD
ENDBRANCH  17  20
ENDBRANCH   1  12
BRANCH   6  22
ATOM     22  O   UNL     1      -2.371   8.444   7.670  1.00  0.00    -0.507 OA
ATOM     23  H   UNL     1      -3.094   8.852   8.241  1.00  0.00     0.293 HD
ENDBRANCH   6  22
BRANCH   8  24
ATOM     24  O   UNL     1       2.238   9.378   8.637  1.00  0.00    -0.508 OA
ATOM     25  H   UNL     1       2.417   9.975   7.838  1.00  0.00     0.293 HD
ENDBRANCH   8  24
TORSDOF 5
ENDMDL
MODEL 3
REMARK VINA RESULT:    -3.906      1.372      7.227
REMARK INTER + INTRA:          -4.854
REMARK INTER:                  -4.591
REMARK INTRA:                  -0.264
REMARK UNBOUND:                -0.264
REMARK SMILES O=c1cc(-c2ccc(O)c(O)c2)oc2cc(O)cc(O)c12
REMARK SMILES IDX 4 1 3 2 2 3 1 4 21 5 19 6 18 7 16 8 15 9 14 10 13 11 5 12
REMARK SMILES IDX 6 13 7 14 8 15 12 16 10 17 9 18 11 20 20 22 17 24
REMARK H PARENT 9 19 11 21 20 23 17 25
REMARK Flexibility Score: inf
ROOT
ATOM      1  C   UNL     1      -0.815   4.322  10.077  1.00  0.00     0.138 A 
ATOM      2  C   UNL     1      -1.452   4.060  11.299  1.00  0.00     0.100 A 
ATOM      3  C   UNL     1      -1.150   2.892  11.999  1.00  0.00     0.197 A 
ATOM      4  O   UNL     1      -1.696   2.713  13.117  1.00  0.00    -0.289 OA
ATOM      5  C   UNL     1      -0.230   1.963  11.455  1.00  0.00     0.107 A 
ATOM      6  C   UNL     1       0.130   0.723  12.063  1.00  0.00     0.134 A 
ATOM      7  C   UNL     1       1.126  -0.069  11.478  1.00  0.00     0.093 A 
ATOM      8  C   UNL     1       1.734   0.306  10.276  1.00  0.00     0.123 A 
ATOM      9  C   UNL     1       1.353   1.491   9.650  1.00  0.00     0.094 A 
ATOM     10  C   UNL     1       0.388   2.319  10.226  1.00  0.00     0.146 A 
ATOM     11  O   UNL     1       0.067   3.448   9.603  1.00  0.00    -0.456 OA
ENDROOT
BRANCH   1  12
ATOM     12  C   UNL     1      -1.101   5.546   9.289  1.00  0.00     0.021 A 
ATOM     13  C   UNL     1      -0.142   6.573   9.235  1.00  0.00     0.016 A 
ATOM     14  C   UNL     1      -0.389   7.739   8.506  1.00  0.00     0.051 A 
ATOM     15  C   UNL     1      -1.599   7.905   7.826  1.00  0.00     0.157 A 
ATOM     16  C   UNL     1      -2.325   5.724   8.613  1.00  0.00     0.062 A 
ATOM     17  C   UNL     1      -2.573   6.896   7.881  1.00  0.00     0.158 A 
BRANCH  15  18
ATOM     18  O   UNL     1      -1.816   9.079   7.106  1.00  0.00    -0.504 OA
ATOM     19  H   UNL     1      -1.210   9.364   6.345  1.00  0.00     0.293 HD
ENDBRANCH  15  18
BRANCH  17  20
ATOM     20  O   UNL     1      -3.787   7.060   7.216  1.00  0.00    -0.504 OA
ATOM     21  H   UNL     1      -4.674   6.927   7.687  1.00  0.00     0.293 HD
ENDBRANCH  17  20
ENDBRANCH   1  12
BRANCH   6  22
ATOM     22  O   UNL     1      -0.469   0.212  13.218  1.00  0.00    -0.507 OA
ATOM     23  H   UNL     1      -0.031  -0.424  13.866  1.00  0.00     0.293 HD
ENDBRANCH   6  22
BRANCH   8  24
ATOM     24  O   UNL     1       2.713  -0.495   9.695  1.00  0.00    -0.508 OA
ATOM     25  H   UNL     1       3.319  -1.083  10.255  1.00  0.00     0.293 HD
ENDBRANCH   8  24
TORSDOF 5
ENDMDL
MODEL 4
REMARK VINA RESULT:    -3.759      1.695      3.011
REMARK INTER + INTRA:          -4.682
REMARK INTER:                  -4.412
REMARK INTRA:                  -0.271
REMARK UNBOUND:                -0.264
REMARK SMILES O=c1cc(-c2ccc(O)c(O)c2)oc2cc(O)cc(O)c12
REMARK SMILES IDX 4 1 3 2 2 3 1 4 21 5 19 6 18 7 16 8 15 9 14 10 13 11 5 12
REMARK SMILES IDX 6 13 7 14 8 15 12 16 10 17 9 18 11 20 20 22 17 24
REMARK H PARENT 9 19 11 21 20 23 17 25
REMARK Flexibility Score: inf
ROOT
ATOM      1  C   UNL     1      -0.031   4.535   9.690  1.00  0.00     0.138 A 
ATOM      2  C   UNL     1      -1.353   4.126   9.467  1.00  0.00     0.100 A 
ATOM      3  C   UNL     1      -2.265   5.013   8.894  1.00  0.00     0.197 A 
ATOM      4  O   UNL     1      -3.427   4.598   8.656  1.00  0.00    -0.289 OA
ATOM      5  C   UNL     1      -1.858   6.331   8.575  1.00  0.00     0.107 A 
ATOM      6  C   UNL     1      -2.708   7.334   8.018  1.00  0.00     0.134 A 
ATOM      7  C   UNL     1      -2.166   8.572   7.652  1.00  0.00     0.093 A 
ATOM      8  C   UNL     1      -0.818   8.866   7.877  1.00  0.00     0.123 A 
ATOM      9  C   UNL     1       0.007   7.911   8.466  1.00  0.00     0.094 A 
ATOM     10  C   UNL     1      -0.494   6.655   8.810  1.00  0.00     0.146 A 
ATOM     11  O   UNL     1       0.333   5.768   9.353  1.00  0.00    -0.456 OA
ENDROOT
BRANCH   1  12
ATOM     12  C   UNL     1       0.978   3.634  10.300  1.00  0.00     0.021 A 
ATOM     13  C   UNL     1       1.673   4.052  11.448  1.00  0.00     0.016 A 
ATOM     14  C   UNL     1       2.633   3.226  12.038  1.00  0.00     0.051 A 
ATOM     15  C   UNL     1       2.923   1.974  11.488  1.00  0.00     0.157 A 
ATOM     16  C   UNL     1       1.284   2.377   9.741  1.00  0.00     0.062 A 
ATOM     17  C   UNL     1       2.249   1.548  10.333  1.00  0.00     0.158 A 
BRANCH  15  18
ATOM     18  O   UNL     1       3.885   1.172  12.100  1.00  0.00    -0.504 OA
ATOM     19  H   UNL     1       4.254   1.379  13.020  1.00  0.00     0.293 HD
ENDBRANCH  15  18
BRANCH  17  20
ATOM     20  O   UNL     1       2.543   0.306   9.772  1.00  0.00    -0.504 OA
ATOM     21  H   UNL     1       2.753   0.204   8.786  1.00  0.00     0.293 HD
ENDBRANCH  17  20
ENDBRANCH   1  12
BRANCH   6  22
ATOM     22  O   UNL     1      -4.083   7.176   7.825  1.00  0.00    -0.507 OA
ATOM     23  H   UNL     1      -4.676   7.820   7.324  1.00  0.00     0.293 HD
ENDBRANCH   6  22
BRANCH   8  24
ATOM     24  O   UNL     1      -0.293  10.106   7.524  1.00  0.00    -0.508 OA
ATOM     25  H   UNL     1      -0.870  10.939   7.500  1.00  0.00     0.293 HD
ENDBRANCH   8  24
TORSDOF 5
ENDMDL
MODEL 5
REMARK VINA RESULT:    -3.676      1.952      6.665
REMARK INTER + INTRA:          -4.584
REMARK INTER:                  -4.274
REMARK INTRA:                  -0.310
REMARK UNBOUND:                -0.264
REMARK SMILES O=c1cc(-c2ccc(O)c(O)c2)oc2cc(O)cc(O)c12
REMARK SMILES IDX 4 1 3 2 2 3 1 4 21 5 19 6 18 7 16 8 15 9 14 10 13 11 5 12
REMARK SMILES IDX 6 13 7 14 8 15 12 16 10 17 9 18 11 20 20 22 17 24
REMARK H PARENT 9 19 11 21 20 23 17 25
REMARK Flexibility Score: inf
ROOT
ATOM      1  C   UNL     1       0.413   4.190   9.724  1.00  0.00     0.138 A 
ATOM      2  C   UNL     1       1.637   4.841   9.929  1.00  0.00     0.100 A 
ATOM      3  C   UNL     1       2.780   4.091  10.208  1.00  0.00     0.197 A 
ATOM      4  O   UNL     1       3.873   4.700  10.332  1.00  0.00    -0.289 OA
ATOM      5  C   UNL     1       2.689   2.682  10.315  1.00  0.00     0.107 A 
ATOM      6  C   UNL     1       3.780   1.817  10.628  1.00  0.00     0.134 A 
ATOM      7  C   UNL     1       3.587   0.430  10.610  1.00  0.00     0.093 A 
ATOM      8  C   UNL     1       2.331  -0.121  10.348  1.00  0.00     0.123 A 
ATOM      9  C   UNL     1       1.249   0.717  10.091  1.00  0.00     0.094 A 
ATOM     10  C   UNL     1       1.415   2.103  10.067  1.00  0.00     0.146 A 
ATOM     11  O   UNL     1       0.360   2.865   9.800  1.00  0.00    -0.456 OA
ENDROOT
BRANCH   1  12
ATOM     12  C   UNL     1      -0.835   4.939   9.429  1.00  0.00     0.021 A 
ATOM     13  C   UNL     1      -0.752   6.227   8.873  1.00  0.00     0.016 A 
ATOM     14  C   UNL     1      -1.911   6.956   8.592  1.00  0.00     0.051 A 
ATOM     15  C   UNL     1      -3.170   6.416   8.869  1.00  0.00     0.157 A 
ATOM     16  C   UNL     1      -2.106   4.404   9.719  1.00  0.00     0.062 A 
ATOM     17  C   UNL     1      -3.270   5.137   9.438  1.00  0.00     0.158 A 
BRANCH  15  18
ATOM     18  O   UNL     1      -4.308   7.166   8.576  1.00  0.00    -0.504 OA
ATOM     19  H   UNL     1      -5.212   6.953   8.980  1.00  0.00     0.293 HD
ENDBRANCH  15  18
BRANCH  17  20
ATOM     20  O   UNL     1      -4.523   4.597   9.728  1.00  0.00    -0.504 OA
ATOM     21  H   UNL     1      -4.813   3.699   9.361  1.00  0.00     0.293 HD
ENDBRANCH  17  20
ENDBRANCH   1  12
BRANCH   6  22
ATOM     22  O   UNL     1       5.057   2.262  10.984  1.00  0.00    -0.507 OA
ATOM     23  H   UNL     1       5.374   3.217  10.927  1.00  0.00     0.293 HD
ENDBRANCH   6  22
BRANCH   8  24
ATOM     24  O   UNL     1       2.146  -1.502  10.347  1.00  0.00    -0.508 OA
ATOM     25  H   UNL     1       2.541  -2.090  11.073  1.00  0.00     0.293 HD
ENDBRANCH   8  24
TORSDOF 5
ENDMDL
MODEL 6
REMARK VINA RESULT:    -3.638      2.909      4.511
REMARK INTER + INTRA:          -4.539
REMARK INTER:                  -4.260
REMARK INTRA:                  -0.279
REMARK UNBOUND:                -0.264
REMARK SMILES O=c1cc(-c2ccc(O)c(O)c2)oc2cc(O)cc(O)c12
REMARK SMILES IDX 4 1 3 2 2 3 1 4 21 5 19 6 18 7 16 8 15 9 14 10 13 11 5 12
REMARK SMILES IDX 6 13 7 14 8 15 12 16 10 17 9 18 11 20 20 22 17 24
REMARK H PARENT 9 19 11 21 20 23 17 25
REMARK Flexibility Score: inf
ROOT
ATOM      1  C   UNL     1      -0.997   3.892  10.058  1.00  0.00     0.138 A 
ATOM      2  C   UNL     1      -1.603   4.725   9.106  1.00  0.00     0.100 A 
ATOM      3  C   UNL     1      -2.925   5.132   9.285  1.00  0.00     0.197 A 
ATOM      4  O   UNL     1      -3.421   5.923   8.442  1.00  0.00    -0.289 OA
ATOM      5  C   UNL     1      -3.657   4.674  10.407  1.00  0.00     0.107 A 
ATOM      6  C   UNL     1      -5.021   4.996  10.676  1.00  0.00     0.134 A 
ATOM      7  C   UNL     1      -5.609   4.563  11.872  1.00  0.00     0.093 A 
ATOM      8  C   UNL     1      -4.901   3.771  12.779  1.00  0.00     0.123 A 
ATOM      9  C   UNL     1      -3.585   3.410  12.501  1.00  0.00     0.094 A 
ATOM     10  C   UNL     1      -2.959   3.855  11.335  1.00  0.00     0.146 A 
ATOM     11  O   UNL     1      -1.696   3.501  11.118  1.00  0.00    -0.456 OA
ENDROOT
BRANCH   1  12
ATOM     12  C   UNL     1       0.405   3.425   9.915  1.00  0.00     0.021 A 
ATOM     13  C   UNL     1       1.439   4.370   9.811  1.00  0.00     0.016 A 
ATOM     14  C   UNL     1       2.767   3.958   9.669  1.00  0.00     0.051 A 
ATOM     15  C   UNL     1       3.083   2.597   9.620  1.00  0.00     0.157 A 
ATOM     16  C   UNL     1       0.727   2.055   9.851  1.00  0.00     0.062 A 
ATOM     17  C   UNL     1       2.060   1.641   9.707  1.00  0.00     0.158 A 
BRANCH  15  18
ATOM     18  O   UNL     1       4.417   2.216   9.479  1.00  0.00    -0.504 OA
ATOM     19  H   UNL     1       4.727   1.268   9.652  1.00  0.00     0.293 HD
ENDBRANCH  15  18
BRANCH  17  20
ATOM     20  O   UNL     1       2.367   0.282   9.646  1.00  0.00    -0.504 OA
ATOM     21  H   UNL     1       3.325  -0.048   9.658  1.00  0.00     0.293 HD
ENDBRANCH  17  20
ENDBRANCH   1  12
BRANCH   6  22
ATOM     22  O   UNL     1      -5.845   5.712   9.803  1.00  0.00    -0.507 OA
ATOM     23  H   UNL     1      -5.680   6.657   9.494  1.00  0.00     0.293 HD
ENDBRANCH   6  22
BRANCH   8  24
ATOM     24  O   UNL     1      -5.500   3.333  13.958  1.00  0.00    -0.508 OA
ATOM     25  H   UNL     1      -6.035   3.961  14.546  1.00  0.00     0.293 HD
ENDBRANCH   8  24
TORSDOF 5
ENDMDL
MODEL 7
REMARK VINA RESULT:    -3.571      2.034      6.958
REMARK INTER + INTRA:          -4.461
REMARK INTER:                  -4.170
REMARK INTRA:                  -0.291
REMARK UNBOUND:                -0.264
REMARK SMILES O=c1cc(-c2ccc(O)c(O)c2)oc2cc(O)cc(O)c12
REMARK SMILES IDX 4 1 3 2 2 3 1 4 21 5 19 6 18 7 16 8 15 9 14 10 13 11 5 12
REMARK SMILES IDX 6 13 7 14 8 15 12 16 10 17 9 18 11 20 20 22 17 24
REMARK H PARENT 9 19 11 21 20 23 17 25
REMARK Flexibility Score: inf
ROOT
ATOM      1  C   UNL     1      -1.068   4.952   9.739  1.00  0.00     0.138 A 
ATOM      2  C   UNL     1       0.206   4.369   9.698  1.00  0.00     0.100 A 
ATOM      3  C   UNL     1       0.498   3.287  10.529  1.00  0.00     0.197 A 
ATOM      4  O   UNL     1       1.632   2.751  10.429  1.00  0.00    -0.289 OA
ATOM      5  C   UNL     1      -0.481   2.808  11.432  1.00  0.00     0.107 A 
ATOM      6  C   UNL     1      -0.286   1.733  12.351  1.00  0.00     0.134 A 
ATOM      7  C   UNL     1      -1.363   1.285  13.126  1.00  0.00     0.093 A 
ATOM      8  C   UNL     1      -2.611   1.909  13.059  1.00  0.00     0.123 A 
ATOM      9  C   UNL     1      -2.797   2.991  12.202  1.00  0.00     0.094 A 
ATOM     10  C   UNL     1      -1.753   3.440  11.391  1.00  0.00     0.146 A 
ATOM     11  O   UNL     1      -1.980   4.464  10.574  1.00  0.00    -0.456 OA
ENDROOT
BRANCH   1  12
ATOM     12  C   UNL     1      -1.432   6.107   8.881  1.00  0.00     0.021 A 
ATOM     13  C   UNL     1      -0.557   7.203   8.792  1.00  0.00     0.016 A 
ATOM     14  C   UNL     1      -0.879   8.306   7.996  1.00  0.00     0.051 A 
ATOM     15  C   UNL     1      -2.081   8.338   7.284  1.00  0.00     0.157 A 
ATOM     16  C   UNL     1      -2.649   6.149   8.173  1.00  0.00     0.062 A 
ATOM     17  C   UNL     1      -2.973   7.258   7.375  1.00  0.00     0.158 A 
BRANCH  15  18
ATOM     18  O   UNL     1      -2.374   9.451   6.498  1.00  0.00    -0.504 OA
ATOM     19  H   UNL     1      -2.146   9.489   5.512  1.00  0.00     0.293 HD
ENDBRANCH  15  18
BRANCH  17  20
ATOM     20  O   UNL     1      -4.180   7.288   6.677  1.00  0.00    -0.504 OA
ATOM     21  H   UNL     1      -4.560   6.460   6.235  1.00  0.00     0.293 HD
ENDBRANCH  17  20
ENDBRANCH   1  12
BRANCH   6  22
ATOM     22  O   UNL     1       0.938   1.091  12.558  1.00  0.00    -0.507 OA
ATOM     23  H   UNL     1       1.349   0.902  13.458  1.00  0.00     0.293 HD
ENDBRANCH   6  22
BRANCH   8  24
ATOM     24  O   UNL     1      -3.671   1.465  13.846  1.00  0.00    -0.508 OA
ATOM     25  H   UNL     1      -3.916   1.926  14.715  1.00  0.00     0.293 HD
ENDBRANCH   8  24
TORSDOF 5
ENDMDL
MODEL 8
REMARK VINA RESULT:    -3.533      9.718     12.207
REMARK INTER + INTRA:          -4.416
REMARK INTER:                  -4.134
REMARK INTRA:                  -0.282
REMARK UNBOUND:                -0.264
REMARK SMILES O=c1cc(-c2ccc(O)c(O)c2)oc2cc(O)cc(O)c12
REMARK SMILES IDX 4 1 3 2 2 3 1 4 21 5 19 6 18 7 16 8 15 9 14 10 13 11 5 12
REMARK SMILES IDX 6 13 7 14 8 15 12 16 10 17 9 18 11 20 20 22 17 24
REMARK H PARENT 9 19 11 21 20 23 17 25
REMARK Flexibility Score: inf
ROOT
ATOM      1  C   UNL     1       3.912   3.646   0.676  1.00  0.00     0.138 A 
ATOM      2  C   UNL     1       4.988   3.260   1.488  1.00  0.00     0.100 A 
ATOM      3  C   UNL     1       5.450   1.944   1.443  1.00  0.00     0.197 A 
ATOM      4  O   UNL     1       6.452   1.643   2.142  1.00  0.00    -0.289 OA
ATOM      5  C   UNL     1       4.808   1.001   0.606  1.00  0.00     0.107 A 
ATOM      6  C   UNL     1       5.169  -0.376   0.502  1.00  0.00     0.134 A 
ATOM      7  C   UNL     1       4.523  -1.191  -0.435  1.00  0.00     0.093 A 
ATOM      8  C   UNL     1       3.488  -0.694  -1.232  1.00  0.00     0.123 A 
ATOM      9  C   UNL     1       3.094   0.635  -1.102  1.00  0.00     0.094 A 
ATOM     10  C   UNL     1       3.742   1.483  -0.202  1.00  0.00     0.146 A 
ATOM     11  O   UNL     1       3.346   2.749  -0.124  1.00  0.00    -0.456 OA
ENDROOT
BRANCH   1  12
ATOM     12  C   UNL     1       3.378   5.031   0.686  1.00  0.00     0.021 A 
ATOM     13  C   UNL     1       2.938   5.592   1.897  1.00  0.00     0.016 A 
ATOM     14  C   UNL     1       2.424   6.891   1.934  1.00  0.00     0.051 A 
ATOM     15  C   UNL     1       2.332   7.648   0.762  1.00  0.00     0.157 A 
ATOM     16  C   UNL     1       3.270   5.793  -0.494  1.00  0.00     0.062 A 
ATOM     17  C   UNL     1       2.753   7.097  -0.458  1.00  0.00     0.158 A 
BRANCH  15  18
ATOM     18  O   UNL     1       1.816   8.941   0.830  1.00  0.00    -0.504 OA
ATOM     19  H   UNL     1       1.327   9.284   1.648  1.00  0.00     0.293 HD
ENDBRANCH  15  18
BRANCH  17  20
ATOM     20  O   UNL     1       2.652   7.842  -1.633  1.00  0.00    -0.504 OA
ATOM     21  H   UNL     1       2.680   8.854  -1.624  1.00  0.00     0.293 HD
ENDBRANCH  17  20
ENDBRANCH   1  12
BRANCH   6  22
ATOM     22  O   UNL     1       6.132  -0.996   1.305  1.00  0.00    -0.507 OA
ATOM     23  H   UNL     1       6.488  -1.929   1.167  1.00  0.00     0.293 HD
ENDBRANCH   6  22
BRANCH   8  24
ATOM     24  O   UNL     1       2.841  -1.517  -2.150  1.00  0.00    -0.508 OA
ATOM     25  H   UNL     1       2.472  -1.153  -3.021  1.00  0.00     0.293 HD
ENDBRANCH   8  24
TORSDOF 5
ENDMDL
MODEL 9
REMARK VINA RESULT:    -3.523      1.700      7.378
REMARK INTER + INTRA:          -4.404
REMARK INTER:                  -4.131
REMARK INTRA:                  -0.273
REMARK UNBOUND:                -0.264
REMARK SMILES O=c1cc(-c2ccc(O)c(O)c2)oc2cc(O)cc(O)c12
REMARK SMILES IDX 4 1 3 2 2 3 1 4 21 5 19 6 18 7 16 8 15 9 14 10 13 11 5 12
REMARK SMILES IDX 6 13 7 14 8 15 12 16 10 17 9 18 11 20 20 22 17 24
REMARK H PARENT 9 19 11 21 20 23 17 25
REMARK Flexibility Score: inf
ROOT
ATOM      1  C   UNL     1       0.352   3.327  10.093  1.00  0.00     0.138 A 
ATOM      2  C   UNL     1      -0.298   2.592  11.095  1.00  0.00     0.100 A 
ATOM      3  C   UNL     1       0.260   1.396  11.546  1.00  0.00     0.197 A 
ATOM      4  O   UNL     1      -0.318   0.789  12.484  1.00  0.00    -0.289 OA
ATOM      5  C   UNL     1       1.458   0.914  10.965  1.00  0.00     0.107 A 
ATOM      6  C   UNL     1       2.101  -0.309  11.321  1.00  0.00     0.134 A 
ATOM      7  C   UNL     1       3.336  -0.632  10.745  1.00  0.00     0.093 A 
ATOM      8  C   UNL     1       3.922   0.195   9.783  1.00  0.00     0.123 A 
ATOM      9  C   UNL     1       3.278   1.366   9.393  1.00  0.00     0.094 A 
ATOM     10  C   UNL     1       2.063   1.734   9.974  1.00  0.00     0.146 A 
ATOM     11  O   UNL     1       1.491   2.869   9.586  1.00  0.00    -0.456 OA
ENDROOT
BRANCH   1  12
ATOM     12  C   UNL     1      -0.199   4.604   9.573  1.00  0.00     0.021 A 
ATOM     13  C   UNL     1       0.622   5.744   9.535  1.00  0.00     0.016 A 
ATOM     14  C   UNL     1       0.127   6.960   9.057  1.00  0.00     0.051 A 
ATOM     15  C   UNL     1      -1.197   7.062   8.618  1.00  0.00     0.157 A 
ATOM     16  C   UNL     1      -1.536   4.714   9.143  1.00  0.00     0.062 A 
ATOM     17  C   UNL     1      -2.034   5.936   8.664  1.00  0.00     0.158 A 
BRANCH  15  18
ATOM     18  O   UNL     1      -1.662   8.288   8.145  1.00  0.00    -0.504 OA
ATOM     19  H   UNL     1      -1.034   9.042   7.896  1.00  0.00     0.293 HD
ENDBRANCH  15  18
BRANCH  17  20
ATOM     20  O   UNL     1      -3.358   6.033   8.240  1.00  0.00    -0.504 OA
ATOM     21  H   UNL     1      -3.729   5.433   7.512  1.00  0.00     0.293 HD
ENDBRANCH  17  20
ENDBRANCH   1  12
BRANCH   6  22
ATOM     22  O   UNL     1       1.565  -1.247  12.209  1.00  0.00    -0.507 OA
ATOM     23  H   UNL     1       1.796  -2.228  12.224  1.00  0.00     0.293 HD
ENDBRANCH   6  22
BRANCH   8  24
ATOM     24  O   UNL     1       5.144  -0.143   9.205  1.00  0.00    -0.508 OA
ATOM     25  H   UNL     1       5.534   0.393   8.439  1.00  0.00     0.293 HD
ENDBRANCH   8  24
TORSDOF 5
ENDMDL
