MODEL 1
REMARK VINA RESULT:    -8.016      0.000      0.000
REMARK INTER + INTRA:          -9.639
REMARK INTER:                  -9.422
REMARK INTRA:                  -0.217
REMARK UNBOUND:                -0.217
REMARK SMILES O=c1c(O)c(-c2ccc(O)cc2)oc2cc(O)cc(O)c12
REMARK SMILES IDX 5 1 3 2 2 3 1 4 21 5 19 6 18 7 16 8 15 9 14 10 13 11 6 12
REMARK SMILES IDX 7 13 8 14 9 15 12 16 11 17 10 18 4 20 20 22 17 24
REMARK H PARENT 10 19 4 21 20 23 17 25
REMARK Flexibility Score: inf
ROOT
ATOM      1  C   UNL     1     -10.914   6.166  35.033  1.00  0.00     0.180 A 
ATOM      2  C   UNL     1     -11.066   4.831  35.446  1.00  0.00     0.208 A 
ATOM      3  C   UNL     1     -12.285   4.178  35.208  1.00  0.00     0.238 A 
ATOM      4  O   UNL     1     -12.433   3.001  35.629  1.00  0.00    -0.285 OA
ATOM      5  C   UNL     1     -13.334   4.863  34.547  1.00  0.00     0.111 A 
ATOM      6  C   UNL     1     -14.598   4.286  34.219  1.00  0.00     0.134 A 
ATOM      7  C   UNL     1     -15.607   5.095  33.682  1.00  0.00     0.093 A 
ATOM      8  C   UNL     1     -15.378   6.442  33.402  1.00  0.00     0.123 A 
ATOM      9  C   UNL     1     -14.127   7.000  33.663  1.00  0.00     0.094 A 
ATOM     10  C   UNL     1     -13.111   6.229  34.232  1.00  0.00     0.146 A 
ATOM     11  O   UNL     1     -11.939   6.802  34.476  1.00  0.00    -0.452 OA
ENDROOT
BRANCH   1  12
ATOM     12  C   UNL     1      -9.650   6.912  35.227  1.00  0.00     0.021 A 
ATOM     13  C   UNL     1      -9.612   7.985  36.133  1.00  0.00     0.016 A 
ATOM     14  C   UNL     1      -8.435   8.718  36.314  1.00  0.00     0.047 A 
ATOM     15  C   UNL     1      -7.289   8.400  35.582  1.00  0.00     0.115 A 
ATOM     16  C   UNL     1      -8.499   6.610  34.477  1.00  0.00     0.016 A 
ATOM     17  C   UNL     1      -7.323   7.345  34.660  1.00  0.00     0.047 A 
BRANCH  15  18
ATOM     18  O   UNL     1      -6.123   9.138  35.772  1.00  0.00    -0.508 OA
ATOM     19  H   UNL     1      -6.146  10.072  36.164  1.00  0.00     0.293 HD
ENDBRANCH  15  18
ENDBRANCH   1  12
BRANCH   2  20
ATOM     20  O   UNL     1     -10.026   4.180  36.116  1.00  0.00    -0.502 OA
ATOM     21  H   UNL     1      -9.177   3.886  35.649  1.00  0.00     0.293 HD
ENDBRANCH   2  20
BRANCH   6  22
ATOM     22  O   UNL     1     -14.901   2.930  34.374  1.00  0.00    -0.507 OA
ATOM     23  H   UNL     1     -15.149   2.493  35.248  1.00  0.00     0.293 HD
ENDBRANCH   6  22
BRANCH   8  24
ATOM     24  O   UNL     1     -16.400   7.213  32.853  1.00  0.00    -0.508 OA
ATOM     25  H   UNL     1     -17.294   7.317  33.318  1.00  0.00     0.293 HD
ENDBRANCH   8  24
TORSDOF 5
ENDMDL
MODEL 2
REMARK VINA RESULT:    -7.938      1.738      6.613
REMARK INTER + INTRA:          -9.547
REMARK INTER:                  -9.288
REMARK INTRA:                  -0.259
REMARK UNBOUND:                -0.217
REMARK SMILES O=c1c(O)c(-c2ccc(O)cc2)oc2cc(O)cc(O)c12
REMARK SMILES IDX 5 1 3 2 2 3 1 4 21 5 19 6 18 7 16 8 15 9 14 10 13 11 6 12
REMARK SMILES IDX 7 13 8 14 9 15 12 16 11 17 10 18 4 20 20 22 17 24
REMARK H PARENT 10 19 4 21 20 23 17 25
REMARK Flexibility Score: inf
ROOT
ATOM      1  C   UNL     1     -11.061   5.872  34.947  1.00  0.00     0.180 A 
ATOM      2  C   UNL     1      -9.823   5.530  34.376  1.00  0.00     0.208 A 
ATOM      3  C   UNL     1      -8.716   6.362  34.602  1.00  0.00     0.238 A 
ATOM      4  O   UNL     1      -7.623   6.080  34.044  1.00  0.00    -0.285 OA
ATOM      5  C   UNL     1      -8.855   7.517  35.409  1.00  0.00     0.111 A 
ATOM      6  C   UNL     1      -7.791   8.410  35.737  1.00  0.00     0.134 A 
ATOM      7  C   UNL     1      -8.071   9.592  36.435  1.00  0.00     0.093 A 
ATOM      8  C   UNL     1      -9.363   9.881  36.871  1.00  0.00     0.123 A 
ATOM      9  C   UNL     1     -10.400   8.986  36.607  1.00  0.00     0.094 A 
ATOM     10  C   UNL     1     -10.159   7.817  35.883  1.00  0.00     0.146 A 
ATOM     11  O   UNL     1     -11.176   6.997  35.644  1.00  0.00    -0.452 OA
ENDROOT
BRANCH   1  12
ATOM     12  C   UNL     1     -12.268   5.031  34.774  1.00  0.00     0.021 A 
ATOM     13  C   UNL     1     -13.289   5.456  33.907  1.00  0.00     0.016 A 
ATOM     14  C   UNL     1     -14.447   4.689  33.746  1.00  0.00     0.047 A 
ATOM     15  C   UNL     1     -14.606   3.499  34.460  1.00  0.00     0.115 A 
ATOM     16  C   UNL     1     -12.443   3.842  35.505  1.00  0.00     0.016 A 
ATOM     17  C   UNL     1     -13.603   3.078  35.343  1.00  0.00     0.047 A 
BRANCH  15  18
ATOM     18  O   UNL     1     -15.765   2.744  34.290  1.00  0.00    -0.508 OA
ATOM     19  H   UNL     1     -16.591   2.908  34.854  1.00  0.00     0.293 HD
ENDBRANCH  15  18
ENDBRANCH   1  12
BRANCH   2  20
ATOM     20  O   UNL     1      -9.712   4.397  33.565  1.00  0.00    -0.502 OA
ATOM     21  H   UNL     1     -10.257   3.559  33.723  1.00  0.00     0.293 HD
ENDBRANCH   2  20
BRANCH   6  22
ATOM     22  O   UNL     1      -6.449   8.171  35.428  1.00  0.00    -0.507 OA
ATOM     23  H   UNL     1      -5.696   8.821  35.595  1.00  0.00     0.293 HD
ENDBRANCH   6  22
BRANCH   8  24
ATOM     24  O   UNL     1      -9.603  11.058  37.576  1.00  0.00    -0.508 OA
ATOM     25  H   UNL     1     -10.296  11.729  37.267  1.00  0.00     0.293 HD
ENDBRANCH   8  24
TORSDOF 5
ENDMDL
MODEL 3
REMARK VINA RESULT:    -7.241      1.416      3.415
REMARK INTER + INTRA:          -8.727
REMARK INTER:                  -8.524
REMARK INTRA:                  -0.204
REMARK UNBOUND:                -0.217
REMARK SMILES O=c1c(O)c(-c2ccc(O)cc2)oc2cc(O)cc(O)c12
REMARK SMILES IDX 5 1 3 2 2 3 1 4 21 5 19 6 18 7 16 8 15 9 14 10 13 11 6 12
REMARK SMILES IDX 7 13 8 14 9 15 12 16 11 17 10 18 4 20 20 22 17 24
REMARK H PARENT 10 19 4 21 20 23 17 25
REMARK Flexibility Score: inf
ROOT
ATOM      1  C   UNL     1     -10.698   6.419  35.336  1.00  0.00     0.180 A 
ATOM      2  C   UNL     1     -11.883   6.866  34.725  1.00  0.00     0.208 A 
ATOM      3  C   UNL     1     -12.954   5.971  34.579  1.00  0.00     0.238 A 
ATOM      4  O   UNL     1     -13.991   6.362  33.982  1.00  0.00    -0.285 OA
ATOM      5  C   UNL     1     -12.834   4.644  35.058  1.00  0.00     0.111 A 
ATOM      6  C   UNL     1     -13.870   3.664  34.998  1.00  0.00     0.134 A 
ATOM      7  C   UNL     1     -13.597   2.346  35.384  1.00  0.00     0.093 A 
ATOM      8  C   UNL     1     -12.347   1.987  35.887  1.00  0.00     0.123 A 
ATOM      9  C   UNL     1     -11.346   2.951  36.006  1.00  0.00     0.094 A 
ATOM     10  C   UNL     1     -11.576   4.266  35.596  1.00  0.00     0.146 A 
ATOM     11  O   UNL     1     -10.593   5.150  35.715  1.00  0.00    -0.452 OA
ENDROOT
BRANCH   1  12
ATOM     12  C   UNL     1      -9.535   7.310  35.548  1.00  0.00     0.021 A 
ATOM     13  C   UNL     1      -8.339   7.064  34.854  1.00  0.00     0.016 A 
ATOM     14  C   UNL     1      -7.222   7.880  35.057  1.00  0.00     0.047 A 
ATOM     15  C   UNL     1      -7.280   8.939  35.966  1.00  0.00     0.115 A 
ATOM     16  C   UNL     1      -9.582   8.366  36.477  1.00  0.00     0.016 A 
ATOM     17  C   UNL     1      -8.462   9.180  36.678  1.00  0.00     0.047 A 
BRANCH  15  18
ATOM     18  O   UNL     1      -6.159   9.744  36.158  1.00  0.00    -0.508 OA
ATOM     19  H   UNL     1      -6.224  10.639  36.629  1.00  0.00     0.293 HD
ENDBRANCH  15  18
ENDBRANCH   1  12
BRANCH   2  20
ATOM     20  O   UNL     1     -11.972   8.173  34.239  1.00  0.00    -0.502 OA
ATOM     21  H   UNL     1     -12.836   8.565  33.885  1.00  0.00     0.293 HD
ENDBRANCH   2  20
BRANCH   6  22
ATOM     22  O   UNL     1     -15.181   3.938  34.597  1.00  0.00    -0.507 OA
ATOM     23  H   UNL     1     -15.566   4.864  34.485  1.00  0.00     0.293 HD
ENDBRANCH   6  22
BRANCH   8  24
ATOM     24  O   UNL     1     -12.115   0.670  36.277  1.00  0.00    -0.508 OA
ATOM     25  H   UNL     1     -12.548  -0.109  35.795  1.00  0.00     0.293 HD
ENDBRANCH   8  24
TORSDOF 5
ENDMDL
MODEL 4
REMARK VINA RESULT:    -7.229      1.803      7.006
REMARK INTER + INTRA:          -8.713
REMARK INTER:                  -8.489
REMARK INTRA:                  -0.224
REMARK UNBOUND:                -0.217
REMARK SMILES O=c1c(O)c(-c2ccc(O)cc2)oc2cc(O)cc(O)c12
REMARK SMILES IDX 5 1 3 2 2 3 1 4 21 5 19 6 18 7 16 8 15 9 14 10 13 11 6 12
REMARK SMILES IDX 7 13 8 14 9 15 12 16 11 17 10 18 4 20 20 22 17 24
REMARK H PARENT 10 19 4 21 20 23 17 25
REMARK Flexibility Score: inf
ROOT
ATOM      1  C   UNL     1     -11.445   5.732  34.643  1.00  0.00     0.180 A 
ATOM      2  C   UNL     1     -11.295   6.939  35.348  1.00  0.00     0.208 A 
ATOM      3  C   UNL     1     -10.019   7.515  35.448  1.00  0.00     0.238 A 
ATOM      4  O   UNL     1      -9.882   8.567  36.126  1.00  0.00    -0.285 OA
ATOM      5  C   UNL     1      -8.912   6.887  34.828  1.00  0.00     0.111 A 
ATOM      6  C   UNL     1      -7.581   7.404  34.831  1.00  0.00     0.134 A 
ATOM      7  C   UNL     1      -6.540   6.633  34.299  1.00  0.00     0.093 A 
ATOM      8  C   UNL     1      -6.790   5.395  33.706  1.00  0.00     0.123 A 
ATOM      9  C   UNL     1      -8.096   4.908  33.645  1.00  0.00     0.094 A 
ATOM     10  C   UNL     1      -9.151   5.637  34.199  1.00  0.00     0.146 A 
ATOM     11  O   UNL     1     -10.377   5.133  34.129  1.00  0.00    -0.452 OA
ENDROOT
BRANCH   1  12
ATOM     12  C   UNL     1     -12.763   5.077  34.474  1.00  0.00     0.021 A 
ATOM     13  C   UNL     1     -13.021   3.862  35.131  1.00  0.00     0.016 A 
ATOM     14  C   UNL     1     -14.249   3.215  34.967  1.00  0.00     0.047 A 
ATOM     15  C   UNL     1     -15.227   3.763  34.134  1.00  0.00     0.115 A 
ATOM     16  C   UNL     1     -13.744   5.613  33.620  1.00  0.00     0.016 A 
ATOM     17  C   UNL     1     -14.971   4.963  33.457  1.00  0.00     0.047 A 
BRANCH  15  18
ATOM     18  O   UNL     1     -16.447   3.107  33.979  1.00  0.00    -0.508 OA
ATOM     19  H   UNL     1     -17.287   3.439  34.437  1.00  0.00     0.293 HD
ENDBRANCH  15  18
ENDBRANCH   1  12
BRANCH   2  20
ATOM     20  O   UNL     1     -12.397   7.531  35.971  1.00  0.00    -0.502 OA
ATOM     21  H   UNL     1     -12.338   7.967  36.883  1.00  0.00     0.293 HD
ENDBRANCH   2  20
BRANCH   6  22
ATOM     22  O   UNL     1      -7.236   8.669  35.316  1.00  0.00    -0.507 OA
ATOM     23  H   UNL     1      -6.867   9.418  34.752  1.00  0.00     0.293 HD
ENDBRANCH   6  22
BRANCH   8  24
ATOM     24  O   UNL     1      -5.733   4.662  33.172  1.00  0.00    -0.508 OA
ATOM     25  H   UNL     1      -5.101   4.136  33.764  1.00  0.00     0.293 HD
ENDBRANCH   8  24
TORSDOF 5
ENDMDL
MODEL 5
REMARK VINA RESULT:    -7.037      2.586      5.598
REMARK INTER + INTRA:          -8.488
REMARK INTER:                  -8.252
REMARK INTRA:                  -0.236
REMARK UNBOUND:                -0.217
REMARK SMILES O=c1c(O)c(-c2ccc(O)cc2)oc2cc(O)cc(O)c12
REMARK SMILES IDX 5 1 3 2 2 3 1 4 21 5 19 6 18 7 16 8 15 9 14 10 13 11 6 12
REMARK SMILES IDX 7 13 8 14 9 15 12 16 11 17 10 18 4 20 20 22 17 24
REMARK H PARENT 10 19 4 21 20 23 17 25
REMARK Flexibility Score: inf
ROOT
ATOM      1  C   UNL     1     -10.330   5.605  34.999  1.00  0.00     0.180 A 
ATOM      2  C   UNL     1     -11.612   5.928  34.523  1.00  0.00     0.208 A 
ATOM      3  C   UNL     1     -12.101   7.230  34.711  1.00  0.00     0.238 A 
ATOM      4  O   UNL     1     -13.271   7.498  34.330  1.00  0.00    -0.285 OA
ATOM      5  C   UNL     1     -11.296   8.198  35.358  1.00  0.00     0.111 A 
ATOM      6  C   UNL     1     -11.674   9.559  35.566  1.00  0.00     0.134 A 
ATOM      7  C   UNL     1     -10.853  10.394  36.334  1.00  0.00     0.093 A 
ATOM      8  C   UNL     1      -9.639   9.938  36.846  1.00  0.00     0.123 A 
ATOM      9  C   UNL     1      -9.231   8.627  36.597  1.00  0.00     0.094 A 
ATOM     10  C   UNL     1     -10.045   7.759  35.866  1.00  0.00     0.146 A 
ATOM     11  O   UNL     1      -9.625   6.516  35.661  1.00  0.00    -0.452 OA
ENDROOT
BRANCH   1  12
ATOM     12  C   UNL     1      -9.736   4.261  34.817  1.00  0.00     0.021 A 
ATOM     13  C   UNL     1     -10.147   3.205  35.648  1.00  0.00     0.016 A 
ATOM     14  C   UNL     1      -9.583   1.933  35.509  1.00  0.00     0.047 A 
ATOM     15  C   UNL     1      -8.593   1.704  34.550  1.00  0.00     0.115 A 
ATOM     16  C   UNL     1      -8.724   4.029  33.868  1.00  0.00     0.016 A 
ATOM     17  C   UNL     1      -8.162   2.756  33.731  1.00  0.00     0.047 A 
BRANCH  15  18
ATOM     18  O   UNL     1      -8.039   0.432  34.422  1.00  0.00    -0.508 OA
ATOM     19  H   UNL     1      -8.591  -0.403  34.576  1.00  0.00     0.293 HD
ENDBRANCH  15  18
ENDBRANCH   1  12
BRANCH   2  20
ATOM     20  O   UNL     1     -12.399   4.951  33.906  1.00  0.00    -0.502 OA
ATOM     21  H   UNL     1     -12.031   4.048  33.633  1.00  0.00     0.293 HD
ENDBRANCH   2  20
BRANCH   6  22
ATOM     22  O   UNL     1     -12.823  10.141  35.022  1.00  0.00    -0.507 OA
ATOM     23  H   UNL     1     -12.843  11.023  34.534  1.00  0.00     0.293 HD
ENDBRANCH   6  22
BRANCH   8  24
ATOM     24  O   UNL     1      -8.839  10.801  37.592  1.00  0.00    -0.508 OA
ATOM     25  H   UNL     1      -9.172  11.220  38.452  1.00  0.00     0.293 HD
ENDBRANCH   8  24
TORSDOF 5
ENDMDL
MODEL 6
REMARK VINA RESULT:    -6.932      2.410      4.166
REMARK INTER + INTRA:          -8.365
REMARK INTER:                  -8.141
REMARK INTRA:                  -0.223
REMARK UNBOUND:                -0.217
REMARK SMILES O=c1c(O)c(-c2ccc(O)cc2)oc2cc(O)cc(O)c12
REMARK SMILES IDX 5 1 3 2 2 3 1 4 21 5 19 6 18 7 16 8 15 9 14 10 13 11 6 12
REMARK SMILES IDX 7 13 8 14 9 15 12 16 11 17 10 18 4 20 20 22 17 24
REMARK H PARENT 10 19 4 21 20 23 17 25
REMARK Flexibility Score: inf
ROOT
ATOM      1  C   UNL     1     -10.702   5.114  34.845  1.00  0.00     0.180 A 
ATOM      2  C   UNL     1     -10.410   6.388  35.360  1.00  0.00     0.208 A 
ATOM      3  C   UNL     1     -11.406   7.377  35.339  1.00  0.00     0.238 A 
ATOM      4  O   UNL     1     -11.120   8.532  35.752  1.00  0.00    -0.285 OA
ATOM      5  C   UNL     1     -12.687   7.076  34.817  1.00  0.00     0.111 A 
ATOM      6  C   UNL     1     -13.783   7.989  34.783  1.00  0.00     0.134 A 
ATOM      7  C   UNL     1     -14.965   7.625  34.125  1.00  0.00     0.093 A 
ATOM      8  C   UNL     1     -15.113   6.360  33.558  1.00  0.00     0.123 A 
ATOM      9  C   UNL     1     -14.069   5.438  33.639  1.00  0.00     0.094 A 
ATOM     10  C   UNL     1     -12.865   5.784  34.256  1.00  0.00     0.146 A 
ATOM     11  O   UNL     1     -11.892   4.881  34.302  1.00  0.00    -0.452 OA
ENDROOT
BRANCH   1  12
ATOM     12  C   UNL     1      -9.712   4.013  34.855  1.00  0.00     0.021 A 
ATOM     13  C   UNL     1      -8.666   4.014  33.918  1.00  0.00     0.016 A 
ATOM     14  C   UNL     1      -7.734   2.972  33.895  1.00  0.00     0.047 A 
ATOM     15  C   UNL     1      -7.844   1.910  34.796  1.00  0.00     0.115 A 
ATOM     16  C   UNL     1      -9.830   2.930  35.746  1.00  0.00     0.016 A 
ATOM     17  C   UNL     1      -8.897   1.889  35.720  1.00  0.00     0.047 A 
BRANCH  15  18
ATOM     18  O   UNL     1      -6.908   0.878  34.762  1.00  0.00    -0.508 OA
ATOM     19  H   UNL     1      -7.168  -0.079  34.966  1.00  0.00     0.293 HD
ENDBRANCH  15  18
ENDBRANCH   1  12
BRANCH   2  20
ATOM     20  O   UNL     1      -9.132   6.671  35.850  1.00  0.00    -0.502 OA
ATOM     21  H   UNL     1      -8.728   6.178  36.637  1.00  0.00     0.293 HD
ENDBRANCH   2  20
BRANCH   6  22
ATOM     22  O   UNL     1     -13.772   9.245  35.397  1.00  0.00    -0.507 OA
ATOM     23  H   UNL     1     -13.313   9.453  36.271  1.00  0.00     0.293 HD
ENDBRANCH   6  22
BRANCH   8  24
ATOM     24  O   UNL     1     -16.308   6.026  32.925  1.00  0.00    -0.508 OA
ATOM     25  H   UNL     1     -17.174   5.933  33.443  1.00  0.00     0.293 HD
ENDBRANCH   8  24
TORSDOF 5
ENDMDL
MODEL 7
REMARK VINA RESULT:    -6.924      2.661      6.315
REMARK INTER + INTRA:          -8.355
REMARK INTER:                  -8.322
REMARK INTRA:                  -0.033
REMARK UNBOUND:                -0.217
REMARK SMILES O=c1c(O)c(-c2ccc(O)cc2)oc2cc(O)cc(O)c12
REMARK SMILES IDX 5 1 3 2 2 3 1 4 21 5 19 6 18 7 16 8 15 9 14 10 13 11 6 12
REMARK SMILES IDX 7 13 8 14 9 15 12 16 11 17 10 18 4 20 20 22 17 24
REMARK H PARENT 10 19 4 21 20 23 17 25
REMARK Flexibility Score: inf
ROOT
ATOM      1  C   UNL     1     -11.704   4.659  34.757  1.00  0.00     0.180 A 
ATOM      2  C   UNL     1     -10.417   4.901  34.247  1.00  0.00     0.208 A 
ATOM      3  C   UNL     1      -9.383   4.004  34.554  1.00  0.00     0.238 A 
ATOM      4  O   UNL     1      -8.221   4.256  34.139  1.00  0.00    -0.285 OA
ATOM      5  C   UNL     1      -9.651   2.866  35.353  1.00  0.00     0.111 A 
ATOM      6  C   UNL     1      -8.687   1.870  35.692  1.00  0.00     0.134 A 
ATOM      7  C   UNL     1      -9.030   0.857  36.597  1.00  0.00     0.093 A 
ATOM      8  C   UNL     1     -10.319   0.768  37.123  1.00  0.00     0.123 A 
ATOM      9  C   UNL     1     -11.285   1.702  36.751  1.00  0.00     0.094 A 
ATOM     10  C   UNL     1     -10.963   2.745  35.879  1.00  0.00     0.146 A 
ATOM     11  O   UNL     1     -11.909   3.620  35.559  1.00  0.00    -0.452 OA
ENDROOT
BRANCH   1  12
ATOM     12  C   UNL     1     -12.851   5.547  34.458  1.00  0.00     0.021 A 
ATOM     13  C   UNL     1     -13.983   5.022  33.813  1.00  0.00     0.016 A 
ATOM     14  C   UNL     1     -15.067   5.847  33.500  1.00  0.00     0.047 A 
ATOM     15  C   UNL     1     -15.028   7.208  33.812  1.00  0.00     0.115 A 
ATOM     16  C   UNL     1     -12.809   6.923  34.752  1.00  0.00     0.016 A 
ATOM     17  C   UNL     1     -13.895   7.746  34.437  1.00  0.00     0.047 A 
BRANCH  15  18
ATOM     18  O   UNL     1     -16.115   8.019  33.495  1.00  0.00    -0.508 OA
ATOM     19  H   UNL     1     -16.034   9.029  33.472  1.00  0.00     0.293 HD
ENDBRANCH  15  18
ENDBRANCH   1  12
BRANCH   2  20
ATOM     20  O   UNL     1     -10.169   6.042  33.479  1.00  0.00    -0.502 OA
ATOM     21  H   UNL     1      -9.762   5.997  32.553  1.00  0.00     0.293 HD
ENDBRANCH   2  20
BRANCH   6  22
ATOM     22  O   UNL     1      -7.399   1.813  35.153  1.00  0.00    -0.507 OA
ATOM     23  H   UNL     1      -7.186   1.856  34.168  1.00  0.00     0.293 HD
ENDBRANCH   6  22
BRANCH   8  24
ATOM     24  O   UNL     1     -10.631  -0.262  38.008  1.00  0.00    -0.508 OA
ATOM     25  H   UNL     1      -9.923  -0.903  38.346  1.00  0.00     0.293 HD
ENDBRANCH   8  24
TORSDOF 5
ENDMDL
MODEL 8
REMARK VINA RESULT:    -6.892      3.044      5.698
REMARK INTER + INTRA:          -8.318
REMARK INTER:                  -8.105
REMARK INTRA:                  -0.212
REMARK UNBOUND:                -0.217
REMARK SMILES O=c1c(O)c(-c2ccc(O)cc2)oc2cc(O)cc(O)c12
REMARK SMILES IDX 5 1 3 2 2 3 1 4 21 5 19 6 18 7 16 8 15 9 14 10 13 11 6 12
REMARK SMILES IDX 7 13 8 14 9 15 12 16 11 17 10 18 4 20 20 22 17 24
REMARK H PARENT 10 19 4 21 20 23 17 25
REMARK Flexibility Score: inf
ROOT
ATOM      1  C   UNL     1     -10.642   4.853  35.084  1.00  0.00     0.180 A 
ATOM      2  C   UNL     1     -11.131   3.767  35.830  1.00  0.00     0.208 A 
ATOM      3  C   UNL     1     -10.419   2.557  35.818  1.00  0.00     0.238 A 
ATOM      4  O   UNL     1     -10.891   1.572  36.444  1.00  0.00    -0.285 OA
ATOM      5  C   UNL     1      -9.220   2.452  35.073  1.00  0.00     0.111 A 
ATOM      6  C   UNL     1      -8.397   1.287  35.022  1.00  0.00     0.134 A 
ATOM      7  C   UNL     1      -7.302   1.252  34.149  1.00  0.00     0.093 A 
ATOM      8  C   UNL     1      -6.963   2.362  33.376  1.00  0.00     0.123 A 
ATOM      9  C   UNL     1      -7.725   3.526  33.463  1.00  0.00     0.094 A 
ATOM     10  C   UNL     1      -8.845   3.580  34.297  1.00  0.00     0.146 A 
ATOM     11  O   UNL     1      -9.550   4.703  34.343  1.00  0.00    -0.452 OA
ENDROOT
BRANCH   1  12
ATOM     12  C   UNL     1     -11.323   6.168  35.066  1.00  0.00     0.021 A 
ATOM     13  C   UNL     1     -10.792   7.232  35.814  1.00  0.00     0.016 A 
ATOM     14  C   UNL     1     -11.432   8.475  35.830  1.00  0.00     0.047 A 
ATOM     15  C   UNL     1     -12.616   8.666  35.114  1.00  0.00     0.115 A 
ATOM     16  C   UNL     1     -12.527   6.360  34.364  1.00  0.00     0.016 A 
ATOM     17  C   UNL     1     -13.165   7.604  34.383  1.00  0.00     0.047 A 
BRANCH  15  18
ATOM     18  O   UNL     1     -13.243   9.910  35.139  1.00  0.00    -0.508 OA
ATOM     19  H   UNL     1     -12.765  10.750  34.835  1.00  0.00     0.293 HD
ENDBRANCH  15  18
ENDBRANCH   1  12
BRANCH   2  20
ATOM     20  O   UNL     1     -12.329   3.885  36.540  1.00  0.00    -0.502 OA
ATOM     21  H   UNL     1     -12.360   3.925  37.551  1.00  0.00     0.293 HD
ENDBRANCH   2  20
BRANCH   6  22
ATOM     22  O   UNL     1      -8.594   0.157  35.821  1.00  0.00    -0.507 OA
ATOM     23  H   UNL     1      -8.158  -0.739  35.666  1.00  0.00     0.293 HD
ENDBRANCH   6  22
BRANCH   8  24
ATOM     24  O   UNL     1      -5.858   2.298  32.530  1.00  0.00    -0.508 OA
ATOM     25  H   UNL     1      -5.577   1.430  32.090  1.00  0.00     0.293 HD
ENDBRANCH   8  24
TORSDOF 5
ENDMDL
MODEL 9
REMARK VINA RESULT:    -6.868      3.158      5.949
REMARK INTER + INTRA:          -8.290
REMARK INTER:                  -8.069
REMARK INTRA:                  -0.221
REMARK UNBOUND:                -0.217
REMARK SMILES O=c1c(O)c(-c2ccc(O)cc2)oc2cc(O)cc(O)c12
REMARK SMILES IDX 5 1 3 2 2 3 1 4 21 5 19 6 18 7 16 8 15 9 14 10 13 11 6 12
REMARK SMILES IDX 7 13 8 14 9 15 12 16 11 17 10 18 4 20 20 22 17 24
REMARK H PARENT 10 19 4 21 20 23 17 25
REMARK Flexibility Score: inf
ROOT
ATOM      1  C   UNL     1     -10.209   5.098  34.691  1.00  0.00     0.180 A 
ATOM      2  C   UNL     1      -9.065   5.159  33.875  1.00  0.00     0.208 A 
ATOM      3  C   UNL     1      -8.242   4.027  33.771  1.00  0.00     0.238 A 
ATOM      4  O   UNL     1      -7.191   4.106  33.083  1.00  0.00    -0.285 OA
ATOM      5  C   UNL     1      -8.579   2.844  34.471  1.00  0.00     0.111 A 
ATOM      6  C   UNL     1      -7.838   1.625  34.406  1.00  0.00     0.134 A 
ATOM      7  C   UNL     1      -8.190   0.558  35.242  1.00  0.00     0.093 A 
ATOM      8  C   UNL     1      -9.293   0.642  36.091  1.00  0.00     0.123 A 
ATOM      9  C   UNL     1     -10.060   1.807  36.118  1.00  0.00     0.094 A 
ATOM     10  C   UNL     1      -9.713   2.901  35.323  1.00  0.00     0.146 A 
ATOM     11  O   UNL     1     -10.462   3.995  35.386  1.00  0.00    -0.452 OA
ENDROOT
BRANCH   1  12
ATOM     12  C   UNL     1     -11.139   6.242  34.832  1.00  0.00     0.021 A 
ATOM     13  C   UNL     1     -10.772   7.337  35.631  1.00  0.00     0.016 A 
ATOM     14  C   UNL     1     -11.645   8.417  35.796  1.00  0.00     0.047 A 
ATOM     15  C   UNL     1     -12.898   8.410  35.179  1.00  0.00     0.115 A 
ATOM     16  C   UNL     1     -12.410   6.231  34.229  1.00  0.00     0.016 A 
ATOM     17  C   UNL     1     -13.281   7.312  34.397  1.00  0.00     0.047 A 
BRANCH  15  18
ATOM     18  O   UNL     1     -13.757   9.492  35.352  1.00  0.00    -0.508 OA
ATOM     19  H   UNL     1     -14.434   9.749  34.644  1.00  0.00     0.293 HD
ENDBRANCH  15  18
ENDBRANCH   1  12
BRANCH   2  20
ATOM     20  O   UNL     1      -8.739   6.345  33.211  1.00  0.00    -0.502 OA
ATOM     21  H   UNL     1      -9.365   6.789  32.551  1.00  0.00     0.293 HD
ENDBRANCH   2  20
BRANCH   6  22
ATOM     22  O   UNL     1      -6.775   1.404  33.526  1.00  0.00    -0.507 OA
ATOM     23  H   UNL     1      -5.907   1.918  33.533  1.00  0.00     0.293 HD
ENDBRANCH   6  22
BRANCH   8  24
ATOM     24  O   UNL     1      -9.624  -0.445  36.897  1.00  0.00    -0.508 OA
ATOM     25  H   UNL     1      -9.044  -0.719  37.681  1.00  0.00     0.293 HD
ENDBRANCH   8  24
TORSDOF 5
ENDMDL
