MODEL 1
REMARK VINA RESULT:    -6.736      0.000      0.000
REMARK INTER + INTRA:         -12.751
REMARK INTER:                 -11.068
REMARK INTRA:                  -1.683
REMARK UNBOUND:                -1.683
REMARK SMILES C[C@@H]1O[C@@H](OC[C@@H]2O[C@H](Oc3c(-c4ccc(O)c(O)c4)oc4cc(O)cc(O)c4c3=O)[C@H](O)[C@@H](O)[C@H]2O)[C@@H](O)[C@H](O)[C@H]1O
REMARK SMILES IDX 7 1 36 2 34 3 32 4 9 5 8 6 6 7 5 8 4 9 1 10 2 11 42 12 3 13
REMARK SMILES IDX 40 14 38 15 43 16 41 18 39 20 37 22 35 24 10 26 11 27 12 28
REMARK SMILES IDX 30 29 21 30 29 31 31 32 22 33 27 34 23 35 26 36 24 37 13 38
REMARK SMILES IDX 20 39 14 40 18 41 15 42 16 43 19 44 17 46 28 48 25 50 33 52
REMARK H PARENT 43 17 41 19 39 21 37 23 35 25 19 45 17 47 28 49 25 51 33 53
REMARK Flexibility Score: inf
ROOT
ATOM      1  C   UNL     1     164.057 182.063  33.081  1.00  0.00     0.180 C 
ATOM      2  C   UNL     1     164.192 182.068  31.540  1.00  0.00     0.177 C 
ATOM      3  C   UNL     1     164.299 183.511  31.013  1.00  0.00     0.180 C 
ATOM      4  C   UNL     1     165.072 184.392  32.024  1.00  0.00     0.214 C 
ATOM      5  C   UNL     1     165.980 183.519  32.951  1.00  0.00     0.339 C 
ATOM      6  O   UNL     1     165.309 182.431  33.615  1.00  0.00    -0.332 OA
ENDROOT
BRANCH   1   7
ATOM      7  C   UNL     1     162.884 182.839  33.750  1.00  0.00     0.198 C 
BRANCH   7   8
ATOM      8  O   UNL     1     161.694 182.037  33.898  1.00  0.00    -0.347 OA
BRANCH   8   9
ATOM      9  C   UNL     1     160.756 182.117  32.781  1.00  0.00     0.281 C 
ATOM     10  C   UNL     1     157.943 183.747  31.723  1.00  0.00     0.041 C 
ATOM     11  C   UNL     1     158.321 182.447  32.440  1.00  0.00     0.150 C 
ATOM     12  C   UNL     1     158.312 181.175  31.426  1.00  0.00     0.174 C 
ATOM     13  O   UNL     1     159.455 182.563  33.235  1.00  0.00    -0.344 OA
ATOM     14  C   UNL     1     159.693 180.865  30.812  1.00  0.00     0.179 C 
ATOM     15  C   UNL     1     160.784 180.825  31.904  1.00  0.00     0.202 C 
BRANCH  12  16
ATOM     16  O   UNL     1     157.822 180.004  32.095  1.00  0.00    -0.388 OA
ATOM     17  H   UNL     1     157.464 180.256  33.014  1.00  0.00     0.211 HD
ENDBRANCH  12  16
BRANCH  14  18
ATOM     18  O   UNL     1     160.051 181.811  29.846  1.00  0.00    -0.387 OA
ATOM     19  H   UNL     1     160.803 181.449  29.247  1.00  0.00     0.211 HD
ENDBRANCH  14  18
BRANCH  15  20
ATOM     20  O   UNL     1     160.671 179.708  32.690  1.00  0.00    -0.385 OA
ATOM     21  H   UNL     1     159.926 179.839  33.349  1.00  0.00     0.211 HD
ENDBRANCH  15  20
ENDBRANCH   8   9
ENDBRANCH   7   8
ENDBRANCH   1   7
BRANCH   2  22
ATOM     22  O   UNL     1     165.229 181.310  31.038  1.00  0.00    -0.387 OA
ATOM     23  H   UNL     1     164.925 181.001  30.164  1.00  0.00     0.211 HD
ENDBRANCH   2  22
BRANCH   3  24
ATOM     24  O   UNL     1     164.999 183.520  29.790  1.00  0.00    -0.387 OA
ATOM     25  H   UNL     1     165.598 184.299  29.780  1.00  0.00     0.211 HD
ENDBRANCH   3  24
BRANCH   5  26
ATOM     26  O   UNL     1     166.534 184.321  33.962  1.00  0.00    -0.454 OA
BRANCH  26  27
ATOM     27  C   UNL     1     167.824 184.903  34.057  1.00  0.00     0.214 A 
ATOM     28  C   UNL     1     168.892 184.320  33.316  1.00  0.00     0.180 A 
ATOM     29  C   UNL     1     167.726 186.265  33.801  1.00  0.00     0.239 A 
ATOM     30  O   UNL     1     168.919 184.663  32.020  1.00  0.00    -0.452 OA
ATOM     31  C   UNL     1     167.787 186.712  32.417  1.00  0.00     0.111 A 
ATOM     32  O   UNL     1     167.635 187.168  34.724  1.00  0.00    -0.285 OA
ATOM     33  C   UNL     1     168.325 185.763  31.517  1.00  0.00     0.146 A 
ATOM     34  C   UNL     1     167.282 187.933  31.971  1.00  0.00     0.134 A 
ATOM     35  C   UNL     1     168.250 186.032  30.133  1.00  0.00     0.094 A 
ATOM     36  C   UNL     1     167.329 188.264  30.585  1.00  0.00     0.093 A 
ATOM     37  C   UNL     1     167.843 187.300  29.657  1.00  0.00     0.123 A 
BRANCH  28  38
ATOM     38  C   UNL     1     170.182 183.603  33.765  1.00  0.00     0.025 A 
ATOM     39  C   UNL     1     170.465 182.219  33.620  1.00  0.00     0.062 A 
ATOM     40  C   UNL     1     171.259 184.436  34.072  1.00  0.00     0.016 A 
ATOM     41  C   UNL     1     171.773 181.743  33.762  1.00  0.00     0.158 A 
ATOM     42  C   UNL     1     172.544 183.901  34.259  1.00  0.00     0.051 A 
ATOM     43  C   UNL     1     172.799 182.528  34.212  1.00  0.00     0.157 A 
BRANCH  41  44
ATOM     44  O   UNL     1     172.092 180.475  33.300  1.00  0.00    -0.504 OA
ATOM     45  H   UNL     1     171.556 179.680  33.627  1.00  0.00     0.293 HD
ENDBRANCH  41  44
BRANCH  43  46
ATOM     46  O   UNL     1     174.124 182.097  34.220  1.00  0.00    -0.504 OA
ATOM     47  H   UNL     1     174.376 181.085  34.298  1.00  0.00     0.293 HD
ENDBRANCH  43  46
ENDBRANCH  28  38
BRANCH  34  48
ATOM     48  O   UNL     1     166.555 188.874  32.809  1.00  0.00    -0.507 OA
ATOM     49  H   UNL     1     166.231 189.746  32.465  1.00  0.00     0.293 HD
ENDBRANCH  34  48
BRANCH  37  50
ATOM     50  O   UNL     1     167.968 187.660  28.350  1.00  0.00    -0.508 OA
ATOM     51  H   UNL     1     167.429 188.400  27.891  1.00  0.00     0.293 HD
ENDBRANCH  37  50
ENDBRANCH  26  27
ENDBRANCH   5  26
BRANCH   4  52
ATOM     52  O   UNL     1     164.200 185.233  32.735  1.00  0.00    -0.384 OA
ATOM     53  H   UNL     1     164.596 186.171  32.766  1.00  0.00     0.211 HD
ENDBRANCH   4  52
TORSDOF 16
ENDMDL
MODEL 2
REMARK VINA RESULT:    -6.715      1.837      2.882
REMARK INTER + INTRA:         -12.716
REMARK INTER:                 -11.205
REMARK INTRA:                  -1.510
REMARK UNBOUND:                -1.683
REMARK SMILES C[C@@H]1O[C@@H](OC[C@@H]2O[C@H](Oc3c(-c4ccc(O)c(O)c4)oc4cc(O)cc(O)c4c3=O)[C@H](O)[C@@H](O)[C@H]2O)[C@@H](O)[C@H](O)[C@H]1O
REMARK SMILES IDX 7 1 36 2 34 3 32 4 9 5 8 6 6 7 5 8 4 9 1 10 2 11 42 12 3 13
REMARK SMILES IDX 40 14 38 15 43 16 41 18 39 20 37 22 35 24 10 26 11 27 12 28
REMARK SMILES IDX 30 29 21 30 29 31 31 32 22 33 27 34 23 35 26 36 24 37 13 38
REMARK SMILES IDX 20 39 14 40 18 41 15 42 16 43 19 44 17 46 28 48 25 50 33 52
REMARK H PARENT 43 17 41 19 39 21 37 23 35 25 19 45 17 47 28 49 25 51 33 53
REMARK Flexibility Score: inf
ROOT
ATOM      1  C   UNL     1     164.716 182.244  32.016  1.00  0.00     0.180 C 
ATOM      2  C   UNL     1     163.730 183.432  32.116  1.00  0.00     0.177 C 
ATOM      3  C   UNL     1     163.703 183.991  33.551  1.00  0.00     0.180 C 
ATOM      4  C   UNL     1     165.108 183.883  34.192  1.00  0.00     0.214 C 
ATOM      5  C   UNL     1     166.220 183.795  33.096  1.00  0.00     0.339 C 
ATOM      6  O   UNL     1     166.020 182.770  32.103  1.00  0.00    -0.332 OA
ENDROOT
BRANCH   1   7
ATOM      7  C   UNL     1     164.520 181.007  32.942  1.00  0.00     0.198 C 
BRANCH   7   8
ATOM      8  O   UNL     1     163.169 180.879  33.428  1.00  0.00    -0.347 OA
BRANCH   8   9
ATOM      9  C   UNL     1     162.468 179.675  32.988  1.00  0.00     0.281 C 
ATOM     10  C   UNL     1     162.949 176.355  32.326  1.00  0.00     0.041 C 
ATOM     11  C   UNL     1     162.928 177.689  31.574  1.00  0.00     0.150 C 
ATOM     12  C   UNL     1     161.510 177.929  30.812  1.00  0.00     0.174 C 
ATOM     13  O   UNL     1     163.381 178.760  32.333  1.00  0.00    -0.344 OA
ATOM     14  C   UNL     1     160.495 178.744  31.640  1.00  0.00     0.179 C 
ATOM     15  C   UNL     1     161.152 180.017  32.218  1.00  0.00     0.202 C 
BRANCH  12  16
ATOM     16  O   UNL     1     161.722 178.583  29.552  1.00  0.00    -0.388 OA
ATOM     17  H   UNL     1     162.496 179.239  29.631  1.00  0.00     0.211 HD
ENDBRANCH  12  16
BRANCH  14  18
ATOM     18  O   UNL     1     159.963 177.990  32.691  1.00  0.00    -0.387 OA
ATOM     19  H   UNL     1     160.090 178.478  33.586  1.00  0.00     0.211 HD
ENDBRANCH  14  18
BRANCH  15  20
ATOM     20  O   UNL     1     161.393 180.948  31.243  1.00  0.00    -0.385 OA
ATOM     21  H   UNL     1     162.281 180.759  30.815  1.00  0.00     0.211 HD
ENDBRANCH  15  20
ENDBRANCH   8   9
ENDBRANCH   7   8
ENDBRANCH   1   7
BRANCH   2  22
ATOM     22  O   UNL     1     163.951 184.458  31.221  1.00  0.00    -0.387 OA
ATOM     23  H   UNL     1     163.065 184.768  30.957  1.00  0.00     0.211 HD
ENDBRANCH   2  22
BRANCH   3  24
ATOM     24  O   UNL     1     163.331 185.351  33.526  1.00  0.00    -0.387 OA
ATOM     25  H   UNL     1     162.899 185.571  34.380  1.00  0.00     0.211 HD
ENDBRANCH   3  24
BRANCH   5  26
ATOM     26  O   UNL     1     167.460 183.526  33.699  1.00  0.00    -0.454 OA
BRANCH  26  27
ATOM     27  C   UNL     1     168.618 184.339  33.798  1.00  0.00     0.214 A 
ATOM     28  C   UNL     1     169.728 184.050  32.953  1.00  0.00     0.180 A 
ATOM     29  C   UNL     1     168.246 185.673  33.692  1.00  0.00     0.239 A 
ATOM     30  O   UNL     1     169.607 184.513  31.701  1.00  0.00    -0.452 OA
ATOM     31  C   UNL     1     168.133 186.253  32.362  1.00  0.00     0.111 A 
ATOM     32  O   UNL     1     168.044 186.449  34.709  1.00  0.00    -0.285 OA
ATOM     33  C   UNL     1     168.783 185.518  31.344  1.00  0.00     0.146 A 
ATOM     34  C   UNL     1     167.376 187.388  32.070  1.00  0.00     0.134 A 
ATOM     35  C   UNL     1     168.571 185.897  30.001  1.00  0.00     0.094 A 
ATOM     36  C   UNL     1     167.271 187.852  30.726  1.00  0.00     0.093 A 
ATOM     37  C   UNL     1     167.899 187.100  29.679  1.00  0.00     0.123 A 
BRANCH  28  38
ATOM     38  C   UNL     1     171.157 183.560  33.266  1.00  0.00     0.025 A 
ATOM     39  C   UNL     1     172.159 183.234  32.315  1.00  0.00     0.062 A 
ATOM     40  C   UNL     1     171.577 183.731  34.586  1.00  0.00     0.016 A 
ATOM     41  C   UNL     1     173.497 183.116  32.704  1.00  0.00     0.158 A 
ATOM     42  C   UNL     1     172.925 183.548  34.936  1.00  0.00     0.051 A 
ATOM     43  C   UNL     1     173.889 183.131  34.015  1.00  0.00     0.157 A 
BRANCH  41  44
ATOM     44  O   UNL     1     174.493 183.129  31.738  1.00  0.00    -0.504 OA
ATOM     45  H   UNL     1     174.242 183.302  30.771  1.00  0.00     0.293 HD
ENDBRANCH  41  44
BRANCH  43  46
ATOM     46  O   UNL     1     175.229 183.156  34.396  1.00  0.00    -0.504 OA
ATOM     47  H   UNL     1     175.801 184.030  34.350  1.00  0.00     0.293 HD
ENDBRANCH  43  46
ENDBRANCH  28  38
BRANCH  34  48
ATOM     48  O   UNL     1     166.538 188.084  33.034  1.00  0.00    -0.507 OA
ATOM     49  H   UNL     1     165.868 188.760  32.758  1.00  0.00     0.293 HD
ENDBRANCH  34  48
BRANCH  37  50
ATOM     50  O   UNL     1     167.870 187.600  28.413  1.00  0.00    -0.508 OA
ATOM     51  H   UNL     1     168.462 188.362  28.069  1.00  0.00     0.293 HD
ENDBRANCH  37  50
ENDBRANCH  26  27
ENDBRANCH   5  26
BRANCH   4  52
ATOM     52  O   UNL     1     165.162 182.831  35.122  1.00  0.00    -0.384 OA
ATOM     53  H   UNL     1     165.990 182.267  34.936  1.00  0.00     0.211 HD
ENDBRANCH   4  52
TORSDOF 16
ENDMDL
MODEL 3
REMARK VINA RESULT:    -5.969      3.623      9.827
REMARK INTER + INTRA:         -11.491
REMARK INTER:                  -8.688
REMARK INTRA:                  -2.803
REMARK UNBOUND:                -1.683
REMARK SMILES C[C@@H]1O[C@@H](OC[C@@H]2O[C@H](Oc3c(-c4ccc(O)c(O)c4)oc4cc(O)cc(O)c4c3=O)[C@H](O)[C@@H](O)[C@H]2O)[C@@H](O)[C@H](O)[C@H]1O
REMARK SMILES IDX 7 1 36 2 34 3 32 4 9 5 8 6 6 7 5 8 4 9 1 10 2 11 42 12 3 13
REMARK SMILES IDX 40 14 38 15 43 16 41 18 39 20 37 22 35 24 10 26 11 27 12 28
REMARK SMILES IDX 30 29 21 30 29 31 31 32 22 33 27 34 23 35 26 36 24 37 13 38
REMARK SMILES IDX 20 39 14 40 18 41 15 42 16 43 19 44 17 46 28 48 25 50 33 52
REMARK H PARENT 43 17 41 19 39 21 37 23 35 25 19 45 17 47 28 49 25 51 33 53
REMARK Flexibility Score: inf
ROOT
ATOM      1  C   UNL     1     162.294 179.440  31.038  1.00  0.00     0.180 C 
ATOM      2  C   UNL     1     161.689 178.110  30.529  1.00  0.00     0.177 C 
ATOM      3  C   UNL     1     161.075 177.316  31.697  1.00  0.00     0.180 C 
ATOM      4  C   UNL     1     160.466 178.284  32.739  1.00  0.00     0.214 C 
ATOM      5  C   UNL     1     160.134 179.669  32.093  1.00  0.00     0.339 C 
ATOM      6  O   UNL     1     161.222 180.288  31.379  1.00  0.00    -0.332 OA
ENDROOT
BRANCH   1   7
ATOM      7  C   UNL     1     163.392 179.408  32.143  1.00  0.00     0.198 C 
BRANCH   7   8
ATOM      8  O   UNL     1     163.282 180.505  33.072  1.00  0.00    -0.347 OA
BRANCH   8   9
ATOM      9  C   UNL     1     164.192 181.619  32.820  1.00  0.00     0.281 C 
ATOM     10  C   UNL     1     166.856 183.293  34.158  1.00  0.00     0.041 C 
ATOM     11  C   UNL     1     165.328 183.402  34.119  1.00  0.00     0.150 C 
ATOM     12  C   UNL     1     164.829 184.492  33.019  1.00  0.00     0.174 C 
ATOM     13  O   UNL     1     164.687 182.170  34.065  1.00  0.00    -0.344 OA
ATOM     14  C   UNL     1     164.504 183.877  31.643  1.00  0.00     0.179 C 
ATOM     15  C   UNL     1     163.595 182.637  31.796  1.00  0.00     0.202 C 
BRANCH  12  16
ATOM     16  O   UNL     1     163.678 185.200  33.502  1.00  0.00    -0.388 OA
ATOM     17  H   UNL     1     163.055 184.556  33.985  1.00  0.00     0.211 HD
ENDBRANCH  12  16
BRANCH  14  18
ATOM     18  O   UNL     1     165.665 183.507  30.956  1.00  0.00    -0.387 OA
ATOM     19  H   UNL     1     166.417 183.276  31.617  1.00  0.00     0.211 HD
ENDBRANCH  14  18
BRANCH  15  20
ATOM     20  O   UNL     1     162.319 182.988  32.153  1.00  0.00    -0.385 OA
ATOM     21  H   UNL     1     162.291 183.179  33.138  1.00  0.00     0.211 HD
ENDBRANCH  15  20
ENDBRANCH   8   9
ENDBRANCH   7   8
ENDBRANCH   1   7
BRANCH   2  22
ATOM     22  O   UNL     1     160.764 178.236  29.513  1.00  0.00    -0.387 OA
ATOM     23  H   UNL     1     159.964 178.601  29.935  1.00  0.00     0.211 HD
ENDBRANCH   2  22
BRANCH   3  24
ATOM     24  O   UNL     1     160.048 176.479  31.215  1.00  0.00    -0.387 OA
ATOM     25  H   UNL     1     159.560 176.110  31.984  1.00  0.00     0.211 HD
ENDBRANCH   3  24
BRANCH   5  26
ATOM     26  O   UNL     1     159.745 180.577  33.091  1.00  0.00    -0.454 OA
BRANCH  26  27
ATOM     27  C   UNL     1     158.682 181.515  33.103  1.00  0.00     0.214 A 
ATOM     28  C   UNL     1     158.906 182.807  32.545  1.00  0.00     0.180 A 
ATOM     29  C   UNL     1     157.551 180.926  32.554  1.00  0.00     0.239 A 
ATOM     30  O   UNL     1     158.827 182.854  31.208  1.00  0.00    -0.452 OA
ATOM     31  C   UNL     1     157.381 180.974  31.109  1.00  0.00     0.111 A 
ATOM     32  O   UNL     1     156.609 180.379  33.255  1.00  0.00    -0.285 OA
ATOM     33  C   UNL     1     158.177 181.943  30.457  1.00  0.00     0.146 A 
ATOM     34  C   UNL     1     156.576 180.090  30.390  1.00  0.00     0.134 A 
ATOM     35  C   UNL     1     158.222 181.937  29.046  1.00  0.00     0.094 A 
ATOM     36  C   UNL     1     156.517 180.171  28.968  1.00  0.00     0.093 A 
ATOM     37  C   UNL     1     157.341 181.128  28.291  1.00  0.00     0.123 A 
BRANCH  28  38
ATOM     38  C   UNL     1     158.940 184.210  33.185  1.00  0.00     0.025 A 
ATOM     39  C   UNL     1     159.938 184.706  34.066  1.00  0.00     0.062 A 
ATOM     40  C   UNL     1     158.076 185.151  32.623  1.00  0.00     0.016 A 
ATOM     41  C   UNL     1     160.041 186.077  34.322  1.00  0.00     0.158 A 
ATOM     42  C   UNL     1     158.186 186.511  32.955  1.00  0.00     0.051 A 
ATOM     43  C   UNL     1     159.105 186.980  33.897  1.00  0.00     0.157 A 
BRANCH  41  44
ATOM     44  O   UNL     1     161.197 186.578  34.903  1.00  0.00    -0.504 OA
ATOM     45  H   UNL     1     161.992 185.963  35.032  1.00  0.00     0.293 HD
ENDBRANCH  41  44
BRANCH  43  46
ATOM     46  O   UNL     1     159.277 188.357  34.029  1.00  0.00    -0.504 OA
ATOM     47  H   UNL     1     158.609 189.041  33.606  1.00  0.00     0.293 HD
ENDBRANCH  43  46
ENDBRANCH  28  38
BRANCH  34  48
ATOM     48  O   UNL     1     155.875 178.958  30.977  1.00  0.00    -0.507 OA
ATOM     49  H   UNL     1     154.909 178.993  31.197  1.00  0.00     0.293 HD
ENDBRANCH  34  48
BRANCH  37  50
ATOM     50  O   UNL     1     157.209 181.260  26.942  1.00  0.00    -0.508 OA
ATOM     51  H   UNL     1     156.326 181.183  26.429  1.00  0.00     0.293 HD
ENDBRANCH  37  50
ENDBRANCH  26  27
ENDBRANCH   5  26
BRANCH   4  52
ATOM     52  O   UNL     1     161.284 178.386  33.876  1.00  0.00    -0.384 OA
ATOM     53  H   UNL     1     161.270 179.349  34.209  1.00  0.00     0.211 HD
ENDBRANCH   4  52
TORSDOF 16
ENDMDL
MODEL 4
REMARK VINA RESULT:    -5.958      5.261      9.941
REMARK INTER + INTRA:         -11.472
REMARK INTER:                  -7.519
REMARK INTRA:                  -3.952
REMARK UNBOUND:                -1.683
REMARK SMILES C[C@@H]1O[C@@H](OC[C@@H]2O[C@H](Oc3c(-c4ccc(O)c(O)c4)oc4cc(O)cc(O)c4c3=O)[C@H](O)[C@@H](O)[C@H]2O)[C@@H](O)[C@H](O)[C@H]1O
REMARK SMILES IDX 7 1 36 2 34 3 32 4 9 5 8 6 6 7 5 8 4 9 1 10 2 11 42 12 3 13
REMARK SMILES IDX 40 14 38 15 43 16 41 18 39 20 37 22 35 24 10 26 11 27 12 28
REMARK SMILES IDX 30 29 21 30 29 31 31 32 22 33 27 34 23 35 26 36 24 37 13 38
REMARK SMILES IDX 20 39 14 40 18 41 15 42 16 43 19 44 17 46 28 48 25 50 33 52
REMARK H PARENT 43 17 41 19 39 21 37 23 35 25 19 45 17 47 28 49 25 51 33 53
REMARK Flexibility Score: inf
ROOT
ATOM      1  C   UNL     1     163.499 181.330  32.858  1.00  0.00     0.180 C 
ATOM      2  C   UNL     1     163.807 182.111  31.559  1.00  0.00     0.177 C 
ATOM      3  C   UNL     1     162.892 181.636  30.416  1.00  0.00     0.180 C 
ATOM      4  C   UNL     1     161.498 181.254  30.971  1.00  0.00     0.214 C 
ATOM      5  C   UNL     1     161.226 181.960  32.339  1.00  0.00     0.339 C 
ATOM      6  O   UNL     1     162.251 181.780  33.335  1.00  0.00    -0.332 OA
ENDROOT
BRANCH   1   7
ATOM      7  C   UNL     1     163.601 179.776  32.861  1.00  0.00     0.198 C 
BRANCH   7   8
ATOM      8  O   UNL     1     162.723 179.159  33.824  1.00  0.00    -0.347 OA
BRANCH   8   9
ATOM      9  C   UNL     1     162.206 177.849  33.433  1.00  0.00     0.281 C 
ATOM     10  C   UNL     1     162.841 175.194  31.374  1.00  0.00     0.041 C 
ATOM     11  C   UNL     1     162.014 176.484  31.370  1.00  0.00     0.150 C 
ATOM     12  C   UNL     1     160.453 176.200  31.729  1.00  0.00     0.174 C 
ATOM     13  O   UNL     1     162.605 177.523  32.079  1.00  0.00    -0.344 OA
ATOM     14  C   UNL     1     160.122 176.368  33.226  1.00  0.00     0.179 C 
ATOM     15  C   UNL     1     160.687 177.700  33.767  1.00  0.00     0.202 C 
BRANCH  12  16
ATOM     16  O   UNL     1     159.598 177.058  30.959  1.00  0.00    -0.388 OA
ATOM     17  H   UNL     1     159.209 176.542  30.173  1.00  0.00     0.211 HD
ENDBRANCH  12  16
BRANCH  14  18
ATOM     18  O   UNL     1     160.635 175.314  33.989  1.00  0.00    -0.387 OA
ATOM     19  H   UNL     1     160.528 175.509  34.992  1.00  0.00     0.211 HD
ENDBRANCH  14  18
BRANCH  15  20
ATOM     20  O   UNL     1     159.982 178.776  33.296  1.00  0.00    -0.385 OA
ATOM     21  H   UNL     1     159.390 178.480  32.541  1.00  0.00     0.211 HD
ENDBRANCH  15  20
ENDBRANCH   8   9
ENDBRANCH   7   8
ENDBRANCH   1   7
BRANCH   2  22
ATOM     22  O   UNL     1     163.742 183.485  31.669  1.00  0.00    -0.387 OA
ATOM     23  H   UNL     1     163.615 183.663  32.619  1.00  0.00     0.211 HD
ENDBRANCH   2  22
BRANCH   3  24
ATOM     24  O   UNL     1     162.725 182.674  29.476  1.00  0.00    -0.387 OA
ATOM     25  H   UNL     1     162.929 182.322  28.583  1.00  0.00     0.211 HD
ENDBRANCH   3  24
BRANCH   5  26
ATOM     26  O   UNL     1     160.037 181.465  32.899  1.00  0.00    -0.454 OA
BRANCH  26  27
ATOM     27  C   UNL     1     158.724 182.003  32.869  1.00  0.00     0.214 A 
ATOM     28  C   UNL     1     158.464 183.120  32.023  1.00  0.00     0.180 A 
ATOM     29  C   UNL     1     157.820 180.976  32.629  1.00  0.00     0.239 A 
ATOM     30  O   UNL     1     158.281 182.807  30.733  1.00  0.00    -0.452 OA
ATOM     31  C   UNL     1     157.544 180.610  31.248  1.00  0.00     0.111 A 
ATOM     32  O   UNL     1     157.166 180.358  33.561  1.00  0.00    -0.285 OA
ATOM     33  C   UNL     1     157.922 181.584  30.296  1.00  0.00     0.146 A 
ATOM     34  C   UNL     1     157.032 179.372  30.859  1.00  0.00     0.134 A 
ATOM     35  C   UNL     1     157.868 181.242  28.927  1.00  0.00     0.094 A 
ATOM     36  C   UNL     1     156.849 179.076  29.477  1.00  0.00     0.093 A 
ATOM     37  C   UNL     1     157.257 180.040  28.498  1.00  0.00     0.123 A 
BRANCH  28  38
ATOM     38  C   UNL     1     158.073 184.578  32.340  1.00  0.00     0.025 A 
ATOM     39  C   UNL     1     158.711 185.434  33.276  1.00  0.00     0.062 A 
ATOM     40  C   UNL     1     157.208 185.182  31.425  1.00  0.00     0.016 A 
ATOM     41  C   UNL     1     158.484 186.813  33.247  1.00  0.00     0.158 A 
ATOM     42  C   UNL     1     156.972 186.566  31.473  1.00  0.00     0.051 A 
ATOM     43  C   UNL     1     157.526 187.388  32.456  1.00  0.00     0.157 A 
BRANCH  41  44
ATOM     44  O   UNL     1     159.346 187.662  33.927  1.00  0.00    -0.504 OA
ATOM     45  H   UNL     1     159.256 187.756  34.932  1.00  0.00     0.293 HD
ENDBRANCH  41  44
BRANCH  43  46
ATOM     46  O   UNL     1     157.394 188.768  32.322  1.00  0.00    -0.504 OA
ATOM     47  H   UNL     1     157.730 189.275  31.471  1.00  0.00     0.293 HD
ENDBRANCH  43  46
ENDBRANCH  28  38
BRANCH  34  48
ATOM     48  O   UNL     1     156.792 178.262  31.769  1.00  0.00    -0.507 OA
ATOM     49  H   UNL     1     155.885 177.894  31.923  1.00  0.00     0.293 HD
ENDBRANCH  34  48
BRANCH  37  50
ATOM     50  O   UNL     1     156.995 179.786  27.187  1.00  0.00    -0.508 OA
ATOM     51  H   UNL     1     157.309 178.955  26.676  1.00  0.00     0.293 HD
ENDBRANCH  37  50
ENDBRANCH  26  27
ENDBRANCH   5  26
BRANCH   4  52
ATOM     52  O   UNL     1     161.339 179.859  31.026  1.00  0.00    -0.384 OA
ATOM     53  H   UNL     1     160.756 179.624  31.828  1.00  0.00     0.211 HD
ENDBRANCH   4  52
TORSDOF 16
ENDMDL
MODEL 5
REMARK VINA RESULT:    -5.935      6.029     10.781
REMARK INTER + INTRA:         -11.434
REMARK INTER:                 -10.094
REMARK INTRA:                  -1.340
REMARK UNBOUND:                -1.683
REMARK SMILES C[C@@H]1O[C@@H](OC[C@@H]2O[C@H](Oc3c(-c4ccc(O)c(O)c4)oc4cc(O)cc(O)c4c3=O)[C@H](O)[C@@H](O)[C@H]2O)[C@@H](O)[C@H](O)[C@H]1O
REMARK SMILES IDX 7 1 36 2 34 3 32 4 9 5 8 6 6 7 5 8 4 9 1 10 2 11 42 12 3 13
REMARK SMILES IDX 40 14 38 15 43 16 41 18 39 20 37 22 35 24 10 26 11 27 12 28
REMARK SMILES IDX 30 29 21 30 29 31 31 32 22 33 27 34 23 35 26 36 24 37 13 38
REMARK SMILES IDX 20 39 14 40 18 41 15 42 16 43 19 44 17 46 28 48 25 50 33 52
REMARK H PARENT 43 17 41 19 39 21 37 23 35 25 19 45 17 47 28 49 25 51 33 53
REMARK Flexibility Score: inf
ROOT
ATOM      1  C   UNL     1     164.315 175.101  31.318  1.00  0.00     0.180 C 
ATOM      2  C   UNL     1     163.134 174.104  31.384  1.00  0.00     0.177 C 
ATOM      3  C   UNL     1     162.586 174.012  32.820  1.00  0.00     0.180 C 
ATOM      4  C   UNL     1     162.689 175.389  33.520  1.00  0.00     0.214 C 
ATOM      5  C   UNL     1     162.762 176.547  32.472  1.00  0.00     0.339 C 
ATOM      6  O   UNL     1     163.780 176.397  31.464  1.00  0.00    -0.332 OA
ENDROOT
BRANCH   1   7
ATOM      7  C   UNL     1     165.560 174.875  32.225  1.00  0.00     0.198 C 
BRANCH   7   8
ATOM      8  O   UNL     1     166.774 174.680  31.471  1.00  0.00    -0.347 OA
BRANCH   8   9
ATOM      9  C   UNL     1     167.473 173.428  31.745  1.00  0.00     0.281 C 
ATOM     10  C   UNL     1     170.334 172.174  33.136  1.00  0.00     0.041 C 
ATOM     11  C   UNL     1     169.807 172.584  31.758  1.00  0.00     0.150 C 
ATOM     12  C   UNL     1     169.324 171.296  30.889  1.00  0.00     0.174 C 
ATOM     13  O   UNL     1     168.905 173.641  31.802  1.00  0.00    -0.344 OA
ATOM     14  C   UNL     1     167.818 170.991  31.023  1.00  0.00     0.179 C 
ATOM     15  C   UNL     1     166.977 172.271  30.820  1.00  0.00     0.202 C 
BRANCH  12  16
ATOM     16  O   UNL     1     169.646 171.477  29.503  1.00  0.00    -0.388 OA
ATOM     17  H   UNL     1     170.295 170.753  29.202  1.00  0.00     0.211 HD
ENDBRANCH  12  16
BRANCH  14  18
ATOM     18  O   UNL     1     167.512 170.440  32.272  1.00  0.00    -0.387 OA
ATOM     19  H   UNL     1     166.588 169.991  32.252  1.00  0.00     0.211 HD
ENDBRANCH  14  18
BRANCH  15  20
ATOM     20  O   UNL     1     166.974 172.670  29.509  1.00  0.00    -0.385 OA
ATOM     21  H   UNL     1     166.104 172.407  29.084  1.00  0.00     0.211 HD
ENDBRANCH  15  20
ENDBRANCH   8   9
ENDBRANCH   7   8
ENDBRANCH   1   7
BRANCH   2  22
ATOM     22  O   UNL     1     162.100 174.357  30.506  1.00  0.00    -0.387 OA
ATOM     23  H   UNL     1     161.359 173.802  30.813  1.00  0.00     0.211 HD
ENDBRANCH   2  22
BRANCH   3  24
ATOM     24  O   UNL     1     161.229 173.631  32.789  1.00  0.00    -0.387 OA
ATOM     25  H   UNL     1     160.846 173.914  31.930  1.00  0.00     0.211 HD
ENDBRANCH   3  24
BRANCH   5  26
ATOM     26  O   UNL     1     163.027 177.762  33.127  1.00  0.00    -0.454 OA
BRANCH  26  27
ATOM     27  C   UNL     1     162.391 179.023  32.995  1.00  0.00     0.214 A 
ATOM     28  C   UNL     1     162.600 179.771  31.801  1.00  0.00     0.180 A 
ATOM     29  C   UNL     1     161.035 178.876  33.260  1.00  0.00     0.239 A 
ATOM     30  O   UNL     1     161.853 179.375  30.761  1.00  0.00    -0.452 OA
ATOM     31  C   UNL     1     160.158 178.485  32.167  1.00  0.00     0.111 A 
ATOM     32  O   UNL     1     160.495 179.117  34.412  1.00  0.00    -0.285 OA
ATOM     33  C   UNL     1     160.708 178.673  30.878  1.00  0.00     0.146 A 
ATOM     34  C   UNL     1     158.910 177.889  32.346  1.00  0.00     0.134 A 
ATOM     35  C   UNL     1     160.011 178.150  29.767  1.00  0.00     0.094 A 
ATOM     36  C   UNL     1     158.143 177.481  31.215  1.00  0.00     0.093 A 
ATOM     37  C   UNL     1     158.700 177.637  29.903  1.00  0.00     0.123 A 
BRANCH  28  38
ATOM     38  C   UNL     1     163.302 181.120  31.545  1.00  0.00     0.025 A 
ATOM     39  C   UNL     1     164.297 181.717  32.363  1.00  0.00     0.062 A 
ATOM     40  C   UNL     1     163.148 181.646  30.261  1.00  0.00     0.016 A 
ATOM     41  C   UNL     1     165.086 182.763  31.875  1.00  0.00     0.158 A 
ATOM     42  C   UNL     1     163.928 182.734  29.836  1.00  0.00     0.051 A 
ATOM     43  C   UNL     1     164.836 183.380  30.679  1.00  0.00     0.157 A 
BRANCH  41  44
ATOM     44  O   UNL     1     166.252 183.109  32.541  1.00  0.00    -0.504 OA
ATOM     45  H   UNL     1     166.398 184.074  32.816  1.00  0.00     0.293 HD
ENDBRANCH  41  44
BRANCH  43  46
ATOM     46  O   UNL     1     165.700 184.324  30.127  1.00  0.00    -0.504 OA
ATOM     47  H   UNL     1     165.697 185.323  30.436  1.00  0.00     0.293 HD
ENDBRANCH  43  46
ENDBRANCH  28  38
BRANCH  34  48
ATOM     48  O   UNL     1     158.365 177.502  33.638  1.00  0.00    -0.507 OA
ATOM     49  H   UNL     1     158.472 176.586  34.002  1.00  0.00     0.293 HD
ENDBRANCH  34  48
BRANCH  37  50
ATOM     50  O   UNL     1     157.924 177.330  28.828  1.00  0.00    -0.508 OA
ATOM     51  H   UNL     1     158.223 177.397  27.850  1.00  0.00     0.293 HD
ENDBRANCH  37  50
ENDBRANCH  26  27
ENDBRANCH   5  26
BRANCH   4  52
ATOM     52  O   UNL     1     163.748 175.410  34.444  1.00  0.00    -0.384 OA
ATOM     53  H   UNL     1     164.624 175.544  33.941  1.00  0.00     0.211 HD
ENDBRANCH   4  52
TORSDOF 16
ENDMDL
MODEL 6
REMARK VINA RESULT:    -5.840      8.848     13.757
REMARK INTER + INTRA:         -11.279
REMARK INTER:                  -7.753
REMARK INTRA:                  -3.526
REMARK UNBOUND:                -1.683
REMARK SMILES C[C@@H]1O[C@@H](OC[C@@H]2O[C@H](Oc3c(-c4ccc(O)c(O)c4)oc4cc(O)cc(O)c4c3=O)[C@H](O)[C@@H](O)[C@H]2O)[C@@H](O)[C@H](O)[C@H]1O
REMARK SMILES IDX 7 1 36 2 34 3 32 4 9 5 8 6 6 7 5 8 4 9 1 10 2 11 42 12 3 13
REMARK SMILES IDX 40 14 38 15 43 16 41 18 39 20 37 22 35 24 10 26 11 27 12 28
REMARK SMILES IDX 30 29 21 30 29 31 31 32 22 33 27 34 23 35 26 36 24 37 13 38
REMARK SMILES IDX 20 39 14 40 18 41 15 42 16 43 19 44 17 46 28 48 25 50 33 52
REMARK H PARENT 43 17 41 19 39 21 37 23 35 25 19 45 17 47 28 49 25 51 33 53
REMARK Flexibility Score: inf
ROOT
ATOM      1  C   UNL     1     157.371 172.496  32.209  1.00  0.00     0.180 C 
ATOM      2  C   UNL     1     156.940 171.632  33.418  1.00  0.00     0.177 C 
ATOM      3  C   UNL     1     157.663 170.273  33.393  1.00  0.00     0.180 C 
ATOM      4  C   UNL     1     159.092 170.439  32.823  1.00  0.00     0.214 C 
ATOM      5  C   UNL     1     159.588 171.914  32.969  1.00  0.00     0.339 C 
ATOM      6  O   UNL     1     158.696 172.915  32.441  1.00  0.00    -0.332 OA
ENDROOT
BRANCH   1   7
ATOM      7  C   UNL     1     157.174 171.946  30.766  1.00  0.00     0.198 C 
BRANCH   7   8
ATOM      8  O   UNL     1     158.117 172.496  29.823  1.00  0.00    -0.347 OA
BRANCH   8   9
ATOM      9  C   UNL     1     158.086 171.887  28.496  1.00  0.00     0.281 C 
ATOM     10  C   UNL     1     157.773 168.875  26.908  1.00  0.00     0.041 C 
ATOM     11  C   UNL     1     158.883 169.806  27.404  1.00  0.00     0.150 C 
ATOM     12  C   UNL     1     159.503 170.703  26.196  1.00  0.00     0.174 C 
ATOM     13  O   UNL     1     158.543 170.513  28.551  1.00  0.00    -0.344 OA
ATOM     14  C   UNL     1     158.841 172.089  26.053  1.00  0.00     0.179 C 
ATOM     15  C   UNL     1     158.756 172.801  27.421  1.00  0.00     0.202 C 
BRANCH  12  16
ATOM     16  O   UNL     1     160.917 170.873  26.372  1.00  0.00    -0.388 OA
ATOM     17  H   UNL     1     161.380 169.968  26.342  1.00  0.00     0.211 HD
ENDBRANCH  12  16
BRANCH  14  18
ATOM     18  O   UNL     1     157.555 171.993  25.511  1.00  0.00    -0.387 OA
ATOM     19  H   UNL     1     157.602 171.797  24.503  1.00  0.00     0.211 HD
ENDBRANCH  14  18
BRANCH  15  20
ATOM     20  O   UNL     1     159.988 173.223  27.848  1.00  0.00    -0.385 OA
ATOM     21  H   UNL     1     159.921 173.535  28.799  1.00  0.00     0.211 HD
ENDBRANCH  15  20
ENDBRANCH   8   9
ENDBRANCH   7   8
ENDBRANCH   1   7
BRANCH   2  22
ATOM     22  O   UNL     1     157.104 172.225  34.653  1.00  0.00    -0.387 OA
ATOM     23  H   UNL     1     156.243 172.129  35.102  1.00  0.00     0.211 HD
ENDBRANCH   2  22
BRANCH   3  24
ATOM     24  O   UNL     1     157.766 169.764  34.705  1.00  0.00    -0.387 OA
ATOM     25  H   UNL     1     158.681 169.917  35.027  1.00  0.00     0.211 HD
ENDBRANCH   3  24
BRANCH   5  26
ATOM     26  O   UNL     1     160.809 172.073  32.293  1.00  0.00    -0.454 OA
BRANCH  26  27
ATOM     27  C   UNL     1     161.117 172.841  31.141  1.00  0.00     0.214 A 
ATOM     28  C   UNL     1     161.591 174.173  31.316  1.00  0.00     0.180 A 
ATOM     29  C   UNL     1     161.973 172.111  30.326  1.00  0.00     0.239 A 
ATOM     30  O   UNL     1     162.892 174.262  31.626  1.00  0.00    -0.452 OA
ATOM     31  C   UNL     1     163.403 172.192  30.582  1.00  0.00     0.111 A 
ATOM     32  O   UNL     1     161.579 171.401  29.317  1.00  0.00    -0.285 OA
ATOM     33  C   UNL     1     163.797 173.295  31.373  1.00  0.00     0.146 A 
ATOM     34  C   UNL     1     164.323 171.227  30.170  1.00  0.00     0.134 A 
ATOM     35  C   UNL     1     165.131 173.353  31.830  1.00  0.00     0.094 A 
ATOM     36  C   UNL     1     165.700 171.356  30.518  1.00  0.00     0.093 A 
ATOM     37  C   UNL     1     166.108 172.453  31.346  1.00  0.00     0.123 A 
BRANCH  28  38
ATOM     38  C   UNL     1     160.977 175.538  30.943  1.00  0.00     0.025 A 
ATOM     39  C   UNL     1     161.675 176.771  30.839  1.00  0.00     0.062 A 
ATOM     40  C   UNL     1     159.698 175.493  30.387  1.00  0.00     0.016 A 
ATOM     41  C   UNL     1     161.094 177.864  30.189  1.00  0.00     0.158 A 
ATOM     42  C   UNL     1     159.137 176.635  29.793  1.00  0.00     0.051 A 
ATOM     43  C   UNL     1     159.787 177.871  29.781  1.00  0.00     0.157 A 
BRANCH  41  44
ATOM     44  O   UNL     1     161.890 178.933  29.804  1.00  0.00    -0.504 OA
ATOM     45  H   UNL     1     162.047 179.692  30.458  1.00  0.00     0.293 HD
ENDBRANCH  41  44
BRANCH  43  46
ATOM     46  O   UNL     1     159.248 178.899  29.010  1.00  0.00    -0.504 OA
ATOM     47  H   UNL     1     159.853 179.570  28.483  1.00  0.00     0.293 HD
ENDBRANCH  43  46
ENDBRANCH  28  38
BRANCH  34  48
ATOM     48  O   UNL     1     163.963 169.980  29.512  1.00  0.00    -0.507 OA
ATOM     49  H   UNL     1     163.319 169.948  28.759  1.00  0.00     0.293 HD
ENDBRANCH  34  48
BRANCH  37  50
ATOM     50  O   UNL     1     167.436 172.617  31.597  1.00  0.00    -0.508 OA
ATOM     51  H   UNL     1     167.977 172.074  32.276  1.00  0.00     0.293 HD
ENDBRANCH  37  50
ENDBRANCH  26  27
ENDBRANCH   5  26
BRANCH   4  52
ATOM     52  O   UNL     1     159.171 169.956  31.505  1.00  0.00    -0.384 OA
ATOM     53  H   UNL     1     159.796 169.152  31.484  1.00  0.00     0.211 HD
ENDBRANCH   4  52
TORSDOF 16
ENDMDL
MODEL 7
REMARK VINA RESULT:    -5.782      4.241      9.280
REMARK INTER + INTRA:         -11.183
REMARK INTER:                  -9.496
REMARK INTRA:                  -1.687
REMARK UNBOUND:                -1.683
REMARK SMILES C[C@@H]1O[C@@H](OC[C@@H]2O[C@H](Oc3c(-c4ccc(O)c(O)c4)oc4cc(O)cc(O)c4c3=O)[C@H](O)[C@@H](O)[C@H]2O)[C@@H](O)[C@H](O)[C@H]1O
REMARK SMILES IDX 7 1 36 2 34 3 32 4 9 5 8 6 6 7 5 8 4 9 1 10 2 11 42 12 3 13
REMARK SMILES IDX 40 14 38 15 43 16 41 18 39 20 37 22 35 24 10 26 11 27 12 28
REMARK SMILES IDX 30 29 21 30 29 31 31 32 22 33 27 34 23 35 26 36 24 37 13 38
REMARK SMILES IDX 20 39 14 40 18 41 15 42 16 43 19 44 17 46 28 48 25 50 33 52
REMARK H PARENT 43 17 41 19 39 21 37 23 35 25 19 45 17 47 28 49 25 51 33 53
REMARK Flexibility Score: inf
ROOT
ATOM      1  C   UNL     1     160.744 176.592  30.611  1.00  0.00     0.180 C 
ATOM      2  C   UNL     1     159.372 176.580  29.897  1.00  0.00     0.177 C 
ATOM      3  C   UNL     1     158.235 176.804  30.912  1.00  0.00     0.180 C 
ATOM      4  C   UNL     1     158.700 177.767  32.031  1.00  0.00     0.214 C 
ATOM      5  C   UNL     1     159.898 178.649  31.551  1.00  0.00     0.339 C 
ATOM      6  O   UNL     1     161.010 177.922  30.993  1.00  0.00    -0.332 OA
ENDROOT
BRANCH   1   7
ATOM      7  C   UNL     1     161.014 175.585  31.768  1.00  0.00     0.198 C 
BRANCH   7   8
ATOM      8  O   UNL     1     162.229 175.873  32.490  1.00  0.00    -0.347 OA
BRANCH   8   9
ATOM      9  C   UNL     1     163.299 174.897  32.306  1.00  0.00     0.281 C 
ATOM     10  C   UNL     1     164.741 172.158  33.759  1.00  0.00     0.041 C 
ATOM     11  C   UNL     1     164.940 173.675  33.710  1.00  0.00     0.150 C 
ATOM     12  C   UNL     1     166.115 174.096  32.667  1.00  0.00     0.174 C 
ATOM     13  O   UNL     1     163.753 174.386  33.584  1.00  0.00    -0.344 OA
ATOM     14  C   UNL     1     165.594 174.440  31.256  1.00  0.00     0.179 C 
ATOM     15  C   UNL     1     164.403 175.421  31.333  1.00  0.00     0.202 C 
BRANCH  12  16
ATOM     16  O   UNL     1     166.863 175.211  33.175  1.00  0.00    -0.388 OA
ATOM     17  H   UNL     1     167.182 175.793  32.404  1.00  0.00     0.211 HD
ENDBRANCH  12  16
BRANCH  14  18
ATOM     18  O   UNL     1     165.194 173.293  30.561  1.00  0.00    -0.387 OA
ATOM     19  H   UNL     1     164.889 173.535  29.610  1.00  0.00     0.211 HD
ENDBRANCH  14  18
BRANCH  15  20
ATOM     20  O   UNL     1     164.809 176.678  31.696  1.00  0.00    -0.385 OA
ATOM     21  H   UNL     1     165.806 176.744  31.608  1.00  0.00     0.211 HD
ENDBRANCH  15  20
ENDBRANCH   8   9
ENDBRANCH   7   8
ENDBRANCH   1   7
BRANCH   2  22
ATOM     22  O   UNL     1     159.245 177.471  28.851  1.00  0.00    -0.387 OA
ATOM     23  H   UNL     1     159.784 177.099  28.128  1.00  0.00     0.211 HD
ENDBRANCH   2  22
BRANCH   3  24
ATOM     24  O   UNL     1     157.125 177.383  30.263  1.00  0.00    -0.387 OA
ATOM     25  H   UNL     1     156.662 177.969  30.901  1.00  0.00     0.211 HD
ENDBRANCH   3  24
BRANCH   5  26
ATOM     26  O   UNL     1     160.408 179.386  32.633  1.00  0.00    -0.454 OA
BRANCH  26  27
ATOM     27  C   UNL     1     160.779 180.753  32.709  1.00  0.00     0.214 A 
ATOM     28  C   UNL     1     161.373 181.363  31.567  1.00  0.00     0.180 A 
ATOM     29  C   UNL     1     159.692 181.492  33.159  1.00  0.00     0.239 A 
ATOM     30  O   UNL     1     160.501 181.734  30.619  1.00  0.00    -0.452 OA
ATOM     31  C   UNL     1     158.725 181.962  32.178  1.00  0.00     0.111 A 
ATOM     32  O   UNL     1     159.515 181.835  34.395  1.00  0.00    -0.285 OA
ATOM     33  C   UNL     1     159.190 181.951  30.843  1.00  0.00     0.146 A 
ATOM     34  C   UNL     1     157.411 182.314  32.488  1.00  0.00     0.134 A 
ATOM     35  C   UNL     1     158.266 182.207  29.807  1.00  0.00     0.094 A 
ATOM     36  C   UNL     1     156.512 182.705  31.453  1.00  0.00     0.093 A 
ATOM     37  C   UNL     1     156.959 182.669  30.092  1.00  0.00     0.123 A 
BRANCH  28  38
ATOM     38  C   UNL     1     162.786 181.936  31.327  1.00  0.00     0.025 A 
ATOM     39  C   UNL     1     163.384 182.191  30.065  1.00  0.00     0.062 A 
ATOM     40  C   UNL     1     163.400 182.510  32.441  1.00  0.00     0.016 A 
ATOM     41  C   UNL     1     164.520 183.001  29.968  1.00  0.00     0.158 A 
ATOM     42  C   UNL     1     164.572 183.271  32.297  1.00  0.00     0.051 A 
ATOM     43  C   UNL     1     165.211 183.438  31.066  1.00  0.00     0.157 A 
BRANCH  41  44
ATOM     44  O   UNL     1     164.893 183.509  28.733  1.00  0.00    -0.504 OA
ATOM     45  H   UNL     1     164.735 184.491  28.534  1.00  0.00     0.293 HD
ENDBRANCH  41  44
BRANCH  43  46
ATOM     46  O   UNL     1     166.255 184.356  30.977  1.00  0.00    -0.504 OA
ATOM     47  H   UNL     1     166.120 185.370  31.193  1.00  0.00     0.293 HD
ENDBRANCH  43  46
ENDBRANCH  28  38
BRANCH  34  48
ATOM     48  O   UNL     1     156.816 182.175  33.809  1.00  0.00    -0.507 OA
ATOM     49  H   UNL     1     156.302 181.369  34.073  1.00  0.00     0.293 HD
ENDBRANCH  34  48
BRANCH  37  50
ATOM     50  O   UNL     1     156.123 183.130  29.122  1.00  0.00    -0.508 OA
ATOM     51  H   UNL     1     156.410 183.711  28.328  1.00  0.00     0.293 HD
ENDBRANCH  37  50
ENDBRANCH  26  27
ENDBRANCH   5  26
BRANCH   4  52
ATOM     52  O   UNL     1     158.969 177.069  33.221  1.00  0.00    -0.384 OA
ATOM     53  H   UNL     1     159.291 177.729  33.926  1.00  0.00     0.211 HD
ENDBRANCH   4  52
TORSDOF 16
ENDMDL
MODEL 8
REMARK VINA RESULT:    -5.667      7.415     11.073
REMARK INTER + INTRA:         -10.994
REMARK INTER:                  -7.795
REMARK INTRA:                  -3.199
REMARK UNBOUND:                -1.683
REMARK SMILES C[C@@H]1O[C@@H](OC[C@@H]2O[C@H](Oc3c(-c4ccc(O)c(O)c4)oc4cc(O)cc(O)c4c3=O)[C@H](O)[C@@H](O)[C@H]2O)[C@@H](O)[C@H](O)[C@H]1O
REMARK SMILES IDX 7 1 36 2 34 3 32 4 9 5 8 6 6 7 5 8 4 9 1 10 2 11 42 12 3 13
REMARK SMILES IDX 40 14 38 15 43 16 41 18 39 20 37 22 35 24 10 26 11 27 12 28
REMARK SMILES IDX 30 29 21 30 29 31 31 32 22 33 27 34 23 35 26 36 24 37 13 38
REMARK SMILES IDX 20 39 14 40 18 41 15 42 16 43 19 44 17 46 28 48 25 50 33 52
REMARK H PARENT 43 17 41 19 39 21 37 23 35 25 19 45 17 47 28 49 25 51 33 53
REMARK Flexibility Score: inf
ROOT
ATOM      1  C   UNL     1     158.500 174.077  29.081  1.00  0.00     0.180 C 
ATOM      2  C   UNL     1     157.913 175.483  28.812  1.00  0.00     0.177 C 
ATOM      3  C   UNL     1     157.352 176.090  30.111  1.00  0.00     0.180 C 
ATOM      4  C   UNL     1     158.212 175.650  31.320  1.00  0.00     0.214 C 
ATOM      5  C   UNL     1     159.647 175.230  30.866  1.00  0.00     0.339 C 
ATOM      6  O   UNL     1     159.693 174.251  29.810  1.00  0.00    -0.332 OA
ENDROOT
BRANCH   1   7
ATOM      7  C   UNL     1     157.591 172.973  29.698  1.00  0.00     0.198 C 
BRANCH   7   8
ATOM      8  O   UNL     1     158.210 171.671  29.693  1.00  0.00    -0.347 OA
BRANCH   8   9
ATOM      9  C   UNL     1     158.347 171.050  31.008  1.00  0.00     0.281 C 
ATOM     10  C   UNL     1     156.739 170.671  34.002  1.00  0.00     0.041 C 
ATOM     11  C   UNL     1     157.791 171.585  33.366  1.00  0.00     0.150 C 
ATOM     12  C   UNL     1     159.300 171.159  33.797  1.00  0.00     0.174 C 
ATOM     13  O   UNL     1     157.598 171.788  32.005  1.00  0.00    -0.344 OA
ATOM     14  C   UNL     1     159.983 170.206  32.794  1.00  0.00     0.179 C 
ATOM     15  C   UNL     1     159.839 170.734  31.349  1.00  0.00     0.202 C 
BRANCH  12  16
ATOM     16  O   UNL     1     160.120 172.324  33.972  1.00  0.00    -0.388 OA
ATOM     17  H   UNL     1     160.076 172.905  33.138  1.00  0.00     0.211 HD
ENDBRANCH  12  16
BRANCH  14  18
ATOM     18  O   UNL     1     159.448 168.916  32.863  1.00  0.00    -0.387 OA
ATOM     19  H   UNL     1     160.132 168.262  33.263  1.00  0.00     0.211 HD
ENDBRANCH  14  18
BRANCH  15  20
ATOM     20  O   UNL     1     160.626 171.833  31.132  1.00  0.00    -0.385 OA
ATOM     21  H   UNL     1     160.742 172.334  31.995  1.00  0.00     0.211 HD
ENDBRANCH  15  20
ENDBRANCH   8   9
ENDBRANCH   7   8
ENDBRANCH   1   7
BRANCH   2  22
ATOM     22  O   UNL     1     158.778 176.377  28.215  1.00  0.00    -0.387 OA
ATOM     23  H   UNL     1     159.414 176.626  28.911  1.00  0.00     0.211 HD
ENDBRANCH   2  22
BRANCH   3  24
ATOM     24  O   UNL     1     157.386 177.498  30.032  1.00  0.00    -0.387 OA
ATOM     25  H   UNL     1     158.098 177.758  29.409  1.00  0.00     0.211 HD
ENDBRANCH   3  24
BRANCH   5  26
ATOM     26  O   UNL     1     160.345 174.676  31.952  1.00  0.00    -0.454 OA
BRANCH  26  27
ATOM     27  C   UNL     1     161.629 174.992  32.465  1.00  0.00     0.214 A 
ATOM     28  C   UNL     1     162.720 175.100  31.555  1.00  0.00     0.180 A 
ATOM     29  C   UNL     1     161.531 176.126  33.261  1.00  0.00     0.239 A 
ATOM     30  O   UNL     1     162.781 176.267  30.900  1.00  0.00    -0.452 OA
ATOM     31  C   UNL     1     161.629 177.429  32.620  1.00  0.00     0.111 A 
ATOM     32  O   UNL     1     161.410 176.095  34.550  1.00  0.00    -0.285 OA
ATOM     33  C   UNL     1     162.196 177.405  31.325  1.00  0.00     0.146 A 
ATOM     34  C   UNL     1     161.130 178.608  33.174  1.00  0.00     0.134 A 
ATOM     35  C   UNL     1     162.159 178.585  30.552  1.00  0.00     0.094 A 
ATOM     36  C   UNL     1     161.215 179.832  32.447  1.00  0.00     0.093 A 
ATOM     37  C   UNL     1     161.759 179.817  31.121  1.00  0.00     0.123 A 
BRANCH  28  38
ATOM     38  C   UNL     1     164.000 174.257  31.383  1.00  0.00     0.025 A 
ATOM     39  C   UNL     1     164.057 172.873  31.071  1.00  0.00     0.062 A 
ATOM     40  C   UNL     1     165.185 174.981  31.242  1.00  0.00     0.016 A 
ATOM     41  C   UNL     1     165.249 172.294  30.624  1.00  0.00     0.158 A 
ATOM     42  C   UNL     1     166.369 174.342  30.843  1.00  0.00     0.051 A 
ATOM     43  C   UNL     1     166.443 172.963  30.631  1.00  0.00     0.157 A 
BRANCH  41  44
ATOM     44  O   UNL     1     165.217 171.048  30.015  1.00  0.00    -0.504 OA
ATOM     45  H   UNL     1     165.999 170.761  29.437  1.00  0.00     0.293 HD
ENDBRANCH  41  44
BRANCH  43  46
ATOM     46  O   UNL     1     167.600 172.438  30.058  1.00  0.00    -0.504 OA
ATOM     47  H   UNL     1     168.412 172.127  30.639  1.00  0.00     0.293 HD
ENDBRANCH  43  46
ENDBRANCH  28  38
BRANCH  34  48
ATOM     48  O   UNL     1     160.375 178.675  34.416  1.00  0.00    -0.507 OA
ATOM     49  H   UNL     1     160.780 178.997  35.262  1.00  0.00     0.293 HD
ENDBRANCH  34  48
BRANCH  37  50
ATOM     50  O   UNL     1     161.919 181.003  30.471  1.00  0.00    -0.508 OA
ATOM     51  H   UNL     1     161.999 181.110  29.456  1.00  0.00     0.293 HD
ENDBRANCH  37  50
ENDBRANCH  26  27
ENDBRANCH   5  26
BRANCH   4  52
ATOM     52  O   UNL     1     157.558 174.660  32.074  1.00  0.00    -0.384 OA
ATOM     53  H   UNL     1     158.014 174.579  32.981  1.00  0.00     0.211 HD
ENDBRANCH   4  52
TORSDOF 16
ENDMDL
MODEL 9
REMARK VINA RESULT:    -5.604      5.022      8.897
REMARK INTER + INTRA:         -10.890
REMARK INTER:                  -7.614
REMARK INTRA:                  -3.276
REMARK UNBOUND:                -1.683
REMARK SMILES C[C@@H]1O[C@@H](OC[C@@H]2O[C@H](Oc3c(-c4ccc(O)c(O)c4)oc4cc(O)cc(O)c4c3=O)[C@H](O)[C@@H](O)[C@H]2O)[C@@H](O)[C@H](O)[C@H]1O
REMARK SMILES IDX 7 1 36 2 34 3 32 4 9 5 8 6 6 7 5 8 4 9 1 10 2 11 42 12 3 13
REMARK SMILES IDX 40 14 38 15 43 16 41 18 39 20 37 22 35 24 10 26 11 27 12 28
REMARK SMILES IDX 30 29 21 30 29 31 31 32 22 33 27 34 23 35 26 36 24 37 13 38
REMARK SMILES IDX 20 39 14 40 18 41 15 42 16 43 19 44 17 46 28 48 25 50 33 52
REMARK H PARENT 43 17 41 19 39 21 37 23 35 25 19 45 17 47 28 49 25 51 33 53
REMARK Flexibility Score: inf
ROOT
ATOM      1  C   UNL     1     162.678 181.538  30.876  1.00  0.00     0.180 C 
ATOM      2  C   UNL     1     163.772 182.372  31.583  1.00  0.00     0.177 C 
ATOM      3  C   UNL     1     163.619 182.275  33.112  1.00  0.00     0.180 C 
ATOM      4  C   UNL     1     163.110 180.869  33.510  1.00  0.00     0.214 C 
ATOM      5  C   UNL     1     163.431 179.820  32.396  1.00  0.00     0.339 C 
ATOM      6  O   UNL     1     162.991 180.178  31.072  1.00  0.00    -0.332 OA
ENDROOT
BRANCH   1   7
ATOM      7  C   UNL     1     161.178 181.842  31.165  1.00  0.00     0.198 C 
BRANCH   7   8
ATOM      8  O   UNL     1     160.352 180.659  31.137  1.00  0.00    -0.347 OA
BRANCH   8   9
ATOM      9  C   UNL     1     158.928 180.909  30.927  1.00  0.00     0.281 C 
ATOM     10  C   UNL     1     155.974 181.301  32.603  1.00  0.00     0.041 C 
ATOM     11  C   UNL     1     156.766 180.189  31.909  1.00  0.00     0.150 C 
ATOM     12  C   UNL     1     156.207 179.896  30.410  1.00  0.00     0.174 C 
ATOM     13  O   UNL     1     158.144 180.346  32.007  1.00  0.00    -0.344 OA
ATOM     14  C   UNL     1     156.952 180.678  29.308  1.00  0.00     0.179 C 
ATOM     15  C   UNL     1     158.481 180.541  29.475  1.00  0.00     0.202 C 
BRANCH  12  16
ATOM     16  O   UNL     1     156.272 178.493  30.115  1.00  0.00    -0.388 OA
ATOM     17  H   UNL     1     155.481 178.014  30.541  1.00  0.00     0.211 HD
ENDBRANCH  12  16
BRANCH  14  18
ATOM     18  O   UNL     1     156.613 182.035  29.321  1.00  0.00    -0.387 OA
ATOM     19  H   UNL     1     156.329 182.345  28.384  1.00  0.00     0.211 HD
ENDBRANCH  14  18
BRANCH  15  20
ATOM     20  O   UNL     1     158.915 179.285  29.142  1.00  0.00    -0.385 OA
ATOM     21  H   UNL     1     158.331 178.602  29.589  1.00  0.00     0.211 HD
ENDBRANCH  15  20
ENDBRANCH   8   9
ENDBRANCH   7   8
ENDBRANCH   1   7
BRANCH   2  22
ATOM     22  O   UNL     1     165.069 182.066  31.224  1.00  0.00    -0.387 OA
ATOM     23  H   UNL     1     165.266 182.635  30.456  1.00  0.00     0.211 HD
ENDBRANCH   2  22
BRANCH   3  24
ATOM     24  O   UNL     1     164.870 182.485  33.730  1.00  0.00    -0.387 OA
ATOM     25  H   UNL     1     164.732 183.031  34.535  1.00  0.00     0.211 HD
ENDBRANCH   3  24
BRANCH   5  26
ATOM     26  O   UNL     1     162.811 178.597  32.703  1.00  0.00    -0.454 OA
BRANCH  26  27
ATOM     27  C   UNL     1     162.804 177.375  31.984  1.00  0.00     0.214 A 
ATOM     28  C   UNL     1     163.326 176.209  32.615  1.00  0.00     0.180 A 
ATOM     29  C   UNL     1     161.525 177.145  31.494  1.00  0.00     0.239 A 
ATOM     30  O   UNL     1     162.483 175.618  33.473  1.00  0.00    -0.452 OA
ATOM     31  C   UNL     1     160.567 176.471  32.359  1.00  0.00     0.111 A 
ATOM     32  O   UNL     1     161.147 177.447  30.293  1.00  0.00    -0.285 OA
ATOM     33  C   UNL     1     161.145 175.781  33.449  1.00  0.00     0.146 A 
ATOM     34  C   UNL     1     159.184 176.557  32.202  1.00  0.00     0.134 A 
ATOM     35  C   UNL     1     160.289 175.259  34.443  1.00  0.00     0.094 A 
ATOM     36  C   UNL     1     158.317 175.914  33.134  1.00  0.00     0.093 A 
ATOM     37  C   UNL     1     158.887 175.236  34.261  1.00  0.00     0.123 A 
BRANCH  28  38
ATOM     38  C   UNL     1     164.557 175.334  32.299  1.00  0.00     0.025 A 
ATOM     39  C   UNL     1     164.993 174.935  31.008  1.00  0.00     0.062 A 
ATOM     40  C   UNL     1     165.465 175.169  33.347  1.00  0.00     0.016 A 
ATOM     41  C   UNL     1     166.281 174.425  30.819  1.00  0.00     0.158 A 
ATOM     42  C   UNL     1     166.728 174.601  33.114  1.00  0.00     0.051 A 
ATOM     43  C   UNL     1     167.114 174.120  31.861  1.00  0.00     0.157 A 
BRANCH  41  44
ATOM     44  O   UNL     1     166.806 174.353  29.537  1.00  0.00    -0.504 OA
ATOM     45  H   UNL     1     166.576 173.557  28.953  1.00  0.00     0.293 HD
ENDBRANCH  41  44
BRANCH  43  46
ATOM     46  O   UNL     1     168.443 173.746  31.673  1.00  0.00    -0.504 OA
ATOM     47  H   UNL     1     168.828 173.529  30.725  1.00  0.00     0.293 HD
ENDBRANCH  43  46
ENDBRANCH  28  38
BRANCH  34  48
ATOM     48  O   UNL     1     158.521 177.395  31.215  1.00  0.00    -0.507 OA
ATOM     49  H   UNL     1     158.652 177.266  30.241  1.00  0.00     0.293 HD
ENDBRANCH  34  48
BRANCH  37  50
ATOM     50  O   UNL     1     158.057 174.549  35.093  1.00  0.00    -0.508 OA
ATOM     51  H   UNL     1     158.354 173.816  35.745  1.00  0.00     0.293 HD
ENDBRANCH  37  50
ENDBRANCH  26  27
ENDBRANCH   5  26
BRANCH   4  52
ATOM     52  O   UNL     1     161.751 180.903  33.863  1.00  0.00    -0.384 OA
ATOM     53  H   UNL     1     161.388 179.951  33.874  1.00  0.00     0.211 HD
ENDBRANCH   4  52
TORSDOF 16
ENDMDL
