MODEL 1
REMARK VINA RESULT:    -4.114      0.000      0.000
REMARK INTER + INTRA:          -9.020
REMARK INTER:                  -7.721
REMARK INTRA:                  -1.299
REMARK UNBOUND:                -1.299
REMARK SMILES CCCCCCCCC=CCCCCCCCC(=O)[O-]
REMARK SMILES IDX 10 1 9 2 11 3 12 4 13 5 14 6 15 7 16 8 17 9 18 10 19 11
REMARK SMILES IDX 20 12 8 13 7 14 6 15 5 16 4 17 3 18 2 19 1 20
REMARK H PARENT
REMARK Flexibility Score: inf
ROOT
ATOM      1  C   UNL     1      59.338  26.312  28.749  1.00  0.00    -0.031 C 
ATOM      2  C   UNL     1      58.718  27.456  29.073  1.00  0.00    -0.031 C 
ENDROOT
BRANCH   1   3
ATOM      3  C   UNL     1      58.661  24.977  28.912  1.00  0.00     0.027 C 
BRANCH   3   4
ATOM      4  C   UNL     1      57.129  25.096  28.991  1.00  0.00     0.004 C 
BRANCH   4   5
ATOM      5  C   UNL     1      56.402  24.806  27.664  1.00  0.00     0.000 C 
BRANCH   5   6
ATOM      6  C   UNL     1      55.596  23.496  27.707  1.00  0.00     0.000 C 
BRANCH   6   7
ATOM      7  C   UNL     1      54.164  23.701  28.227  1.00  0.00     0.000 C 
BRANCH   7   8
ATOM      8  C   UNL     1      53.507  22.392  28.690  1.00  0.00     0.006 C 
BRANCH   8   9
ATOM      9  C   UNL     1      52.110  22.236  28.079  1.00  0.00     0.053 C 
BRANCH   9  10
ATOM     10  C   UNL     1      52.138  21.257  26.949  1.00  0.00     0.041 C 
ATOM     11  O   UNL     1      51.636  20.110  27.090  1.00  0.00    -0.550 OA
ATOM     12  O   UNL     1      52.685  21.623  25.725  1.00  0.00    -0.550 OA
ENDBRANCH   9  10
ENDBRANCH   8   9
ENDBRANCH   7   8
ENDBRANCH   6   7
ENDBRANCH   5   6
ENDBRANCH   4   5
ENDBRANCH   3   4
ENDBRANCH   1   3
BRANCH   2  13
ATOM     13  C   UNL     1      59.386  28.794  28.903  1.00  0.00     0.027 C 
BRANCH  13  14
ATOM     14  C   UNL     1      58.870  29.566  27.676  1.00  0.00     0.004 C 
BRANCH  14  15
ATOM     15  C   UNL     1      59.889  30.547  27.065  1.00  0.00     0.000 C 
BRANCH  15  16
ATOM     16  C   UNL     1      60.878  31.104  28.100  1.00  0.00     0.000 C 
BRANCH  16  17
ATOM     17  C   UNL     1      62.325  30.943  27.617  1.00  0.00    -0.000 C 
BRANCH  17  18
ATOM     18  C   UNL     1      62.674  29.489  27.251  1.00  0.00    -0.000 C 
BRANCH  18  19
ATOM     19  C   UNL     1      63.590  28.795  28.282  1.00  0.00    -0.003 C 
ATOM     20  C   UNL     1      62.910  27.605  28.957  1.00  0.00     0.004 C 
ENDBRANCH  18  19
ENDBRANCH  17  18
ENDBRANCH  16  17
ENDBRANCH  15  16
ENDBRANCH  14  15
ENDBRANCH  13  14
ENDBRANCH   2  13
TORSDOF 15
ENDMDL
MODEL 2
REMARK VINA RESULT:    -4.107      4.777     10.193
REMARK INTER + INTRA:          -9.009
REMARK INTER:                  -7.811
REMARK INTRA:                  -1.197
REMARK UNBOUND:                -1.299
REMARK SMILES CCCCCCCCC=CCCCCCCCC(=O)[O-]
REMARK SMILES IDX 10 1 9 2 11 3 12 4 13 5 14 6 15 7 16 8 17 9 18 10 19 11
REMARK SMILES IDX 20 12 8 13 7 14 6 15 5 16 4 17 3 18 2 19 1 20
REMARK H PARENT
REMARK Flexibility Score: inf
ROOT
ATOM      1  C   UNL     1      57.620  25.893  28.059  1.00  0.00    -0.031 C 
ATOM      2  C   UNL     1      56.895  25.241  28.981  1.00  0.00    -0.031 C 
ENDROOT
BRANCH   1   3
ATOM      3  C   UNL     1      58.380  27.147  28.400  1.00  0.00     0.027 C 
BRANCH   3   4
ATOM      4  C   UNL     1      57.525  28.417  28.251  1.00  0.00     0.004 C 
BRANCH   4   5
ATOM      5  C   UNL     1      57.631  29.093  26.870  1.00  0.00     0.000 C 
BRANCH   5   6
ATOM      6  C   UNL     1      58.877  29.987  26.745  1.00  0.00     0.000 C 
BRANCH   6   7
ATOM      7  C   UNL     1      59.125  30.834  28.003  1.00  0.00     0.000 C 
BRANCH   7   8
ATOM      8  C   UNL     1      60.589  30.795  28.468  1.00  0.00     0.006 C 
BRANCH   8   9
ATOM      9  C   UNL     1      61.418  29.856  27.585  1.00  0.00     0.053 C 
BRANCH   9  10
ATOM     10  C   UNL     1      62.851  30.285  27.565  1.00  0.00     0.041 C 
ATOM     11  O   UNL     1      63.160  31.450  27.197  1.00  0.00    -0.550 OA
ATOM     12  O   UNL     1      63.844  29.412  27.990  1.00  0.00    -0.550 OA
ENDBRANCH   9  10
ENDBRANCH   8   9
ENDBRANCH   7   8
ENDBRANCH   6   7
ENDBRANCH   5   6
ENDBRANCH   4   5
ENDBRANCH   3   4
ENDBRANCH   1   3
BRANCH   2  13
ATOM     13  C   UNL     1      56.141  23.982  28.650  1.00  0.00     0.027 C 
BRANCH  13  14
ATOM     14  C   UNL     1      55.746  23.896  27.165  1.00  0.00     0.004 C 
BRANCH  14  15
ATOM     15  C   UNL     1      54.228  23.861  26.910  1.00  0.00     0.000 C 
BRANCH  15  16
ATOM     16  C   UNL     1      53.411  23.633  28.190  1.00  0.00     0.000 C 
BRANCH  16  17
ATOM     17  C   UNL     1      53.121  22.141  28.396  1.00  0.00    -0.000 C 
BRANCH  17  18
ATOM     18  C   UNL     1      51.691  21.748  27.984  1.00  0.00    -0.000 C 
BRANCH  18  19
ATOM     19  C   UNL     1      51.638  20.586  26.969  1.00  0.00    -0.003 C 
ATOM     20  C   UNL     1      52.452  20.877  25.708  1.00  0.00     0.004 C 
ENDBRANCH  18  19
ENDBRANCH  17  18
ENDBRANCH  16  17
ENDBRANCH  15  16
ENDBRANCH  14  15
ENDBRANCH  13  14
ENDBRANCH   2  13
TORSDOF 15
ENDMDL
MODEL 3
REMARK VINA RESULT:    -4.097      1.141      1.711
REMARK INTER + INTRA:          -8.989
REMARK INTER:                  -7.970
REMARK INTRA:                  -1.019
REMARK UNBOUND:                -1.299
REMARK SMILES CCCCCCCCC=CCCCCCCCC(=O)[O-]
REMARK SMILES IDX 10 1 9 2 11 3 12 4 13 5 14 6 15 7 16 8 17 9 18 10 19 11
REMARK SMILES IDX 20 12 8 13 7 14 6 15 5 16 4 17 3 18 2 19 1 20
REMARK H PARENT
REMARK Flexibility Score: inf
ROOT
ATOM      1  C   UNL     1      58.732  27.829  28.330  1.00  0.00    -0.031 C 
ATOM      2  C   UNL     1      57.907  28.592  27.598  1.00  0.00    -0.031 C 
ENDROOT
BRANCH   1   3
ATOM      3  C   UNL     1      58.278  26.520  28.919  1.00  0.00     0.027 C 
BRANCH   3   4
ATOM      4  C   UNL     1      56.885  26.098  28.421  1.00  0.00     0.004 C 
BRANCH   4   5
ATOM      5  C   UNL     1      56.783  24.618  28.005  1.00  0.00     0.000 C 
BRANCH   5   6
ATOM      6  C   UNL     1      55.374  24.238  27.519  1.00  0.00     0.000 C 
BRANCH   6   7
ATOM      7  C   UNL     1      55.390  23.529  26.156  1.00  0.00     0.000 C 
BRANCH   7   8
ATOM      8  C   UNL     1      54.025  22.936  25.776  1.00  0.00     0.006 C 
BRANCH   8   9
ATOM      9  C   UNL     1      53.346  22.301  26.994  1.00  0.00     0.053 C 
BRANCH   9  10
ATOM     10  C   UNL     1      52.407  21.218  26.566  1.00  0.00     0.041 C 
ATOM     11  O   UNL     1      52.326  20.892  25.351  1.00  0.00    -0.550 OA
ATOM     12  O   UNL     1      51.649  20.541  27.513  1.00  0.00    -0.550 OA
ENDBRANCH   9  10
ENDBRANCH   8   9
ENDBRANCH   7   8
ENDBRANCH   6   7
ENDBRANCH   5   6
ENDBRANCH   4   5
ENDBRANCH   3   4
ENDBRANCH   1   3
BRANCH   2  13
ATOM     13  C   UNL     1      58.358  29.896  26.998  1.00  0.00     0.027 C 
BRANCH  13  14
ATOM     14  C   UNL     1      59.814  30.244  27.353  1.00  0.00     0.004 C 
BRANCH  14  15
ATOM     15  C   UNL     1      59.965  31.345  28.418  1.00  0.00     0.000 C 
BRANCH  15  16
ATOM     16  C   UNL     1      61.430  31.729  28.679  1.00  0.00     0.000 C 
BRANCH  16  17
ATOM     17  C   UNL     1      62.320  31.324  27.496  1.00  0.00    -0.000 C 
BRANCH  17  18
ATOM     18  C   UNL     1      63.778  31.057  27.911  1.00  0.00    -0.000 C 
BRANCH  18  19
ATOM     19  C   UNL     1      64.063  29.578  28.249  1.00  0.00    -0.003 C 
ATOM     20  C   UNL     1      63.189  28.617  27.443  1.00  0.00     0.004 C 
ENDBRANCH  18  19
ENDBRANCH  17  18
ENDBRANCH  16  17
ENDBRANCH  15  16
ENDBRANCH  14  15
ENDBRANCH  13  14
ENDBRANCH   2  13
TORSDOF 15
ENDMDL
MODEL 4
REMARK VINA RESULT:    -4.095      0.999      2.515
REMARK INTER + INTRA:          -8.985
REMARK INTER:                  -7.756
REMARK INTRA:                  -1.229
REMARK UNBOUND:                -1.299
REMARK SMILES CCCCCCCCC=CCCCCCCCC(=O)[O-]
REMARK SMILES IDX 10 1 9 2 11 3 12 4 13 5 14 6 15 7 16 8 17 9 18 10 19 11
REMARK SMILES IDX 20 12 8 13 7 14 6 15 5 16 4 17 3 18 2 19 1 20
REMARK H PARENT
REMARK Flexibility Score: inf
ROOT
ATOM      1  C   UNL     1      59.544  26.013  28.931  1.00  0.00    -0.031 C 
ATOM      2  C   UNL     1      60.772  25.484  28.826  1.00  0.00    -0.031 C 
ENDROOT
BRANCH   1   3
ATOM      3  C   UNL     1      58.310  25.200  28.643  1.00  0.00     0.027 C 
BRANCH   3   4
ATOM      4  C   UNL     1      57.027  26.048  28.648  1.00  0.00     0.004 C 
BRANCH   4   5
ATOM      5  C   UNL     1      55.729  25.232  28.801  1.00  0.00     0.000 C 
BRANCH   5   6
ATOM      6  C   UNL     1      55.932  23.739  28.493  1.00  0.00     0.000 C 
BRANCH   6   7
ATOM      7  C   UNL     1      54.749  22.874  28.958  1.00  0.00     0.000 C 
BRANCH   7   8
ATOM      8  C   UNL     1      53.757  22.565  27.827  1.00  0.00     0.006 C 
BRANCH   8   9
ATOM      9  C   UNL     1      52.400  22.134  28.393  1.00  0.00     0.053 C 
BRANCH   9  10
ATOM     10  C   UNL     1      51.850  20.980  27.616  1.00  0.00     0.041 C 
ATOM     11  O   UNL     1      51.945  20.958  26.359  1.00  0.00    -0.550 OA
ATOM     12  O   UNL     1      51.267  19.909  28.281  1.00  0.00    -0.550 OA
ENDBRANCH   9  10
ENDBRANCH   8   9
ENDBRANCH   7   8
ENDBRANCH   6   7
ENDBRANCH   5   6
ENDBRANCH   4   5
ENDBRANCH   3   4
ENDBRANCH   1   3
BRANCH   2  13
ATOM     13  C   UNL     1      62.009  26.289  29.123  1.00  0.00     0.027 C 
BRANCH  13  14
ATOM     14  C   UNL     1      61.816  27.794  28.866  1.00  0.00     0.004 C 
BRANCH  14  15
ATOM     15  C   UNL     1      62.832  28.409  27.885  1.00  0.00     0.000 C 
BRANCH  15  16
ATOM     16  C   UNL     1      62.587  29.903  27.630  1.00  0.00     0.000 C 
BRANCH  16  17
ATOM     17  C   UNL     1      61.685  30.504  28.717  1.00  0.00    -0.000 C 
BRANCH  17  18
ATOM     18  C   UNL     1      60.405  31.138  28.146  1.00  0.00    -0.000 C 
BRANCH  18  19
ATOM     19  C   UNL     1      59.671  30.239  27.128  1.00  0.00    -0.003 C 
ATOM     20  C   UNL     1      58.533  29.444  27.769  1.00  0.00     0.004 C 
ENDBRANCH  18  19
ENDBRANCH  17  18
ENDBRANCH  16  17
ENDBRANCH  15  16
ENDBRANCH  14  15
ENDBRANCH  13  14
ENDBRANCH   2  13
TORSDOF 15
ENDMDL
MODEL 5
REMARK VINA RESULT:    -4.038      2.097      3.730
REMARK INTER + INTRA:          -8.878
REMARK INTER:                  -7.547
REMARK INTRA:                  -1.331
REMARK UNBOUND:                -1.299
REMARK SMILES CCCCCCCCC=CCCCCCCCC(=O)[O-]
REMARK SMILES IDX 10 1 9 2 11 3 12 4 13 5 14 6 15 7 16 8 17 9 18 10 19 11
REMARK SMILES IDX 20 12 8 13 7 14 6 15 5 16 4 17 3 18 2 19 1 20
REMARK H PARENT
REMARK Flexibility Score: inf
ROOT
ATOM      1  C   UNL     1      56.927  25.320  27.826  1.00  0.00    -0.031 C 
ATOM      2  C   UNL     1      58.224  25.286  28.167  1.00  0.00    -0.031 C 
ENDROOT
BRANCH   1   3
ATOM      3  C   UNL     1      56.276  24.175  27.098  1.00  0.00     0.027 C 
BRANCH   3   4
ATOM      4  C   UNL     1      54.795  23.998  27.478  1.00  0.00     0.004 C 
BRANCH   4   5
ATOM      5  C   UNL     1      54.537  22.889  28.515  1.00  0.00     0.000 C 
BRANCH   5   6
ATOM      6  C   UNL     1      53.092  22.901  29.044  1.00  0.00     0.000 C 
BRANCH   6   7
ATOM      7  C   UNL     1      52.457  21.502  29.057  1.00  0.00     0.000 C 
BRANCH   7   8
ATOM      8  C   UNL     1      51.273  21.377  28.084  1.00  0.00     0.006 C 
BRANCH   8   9
ATOM      9  C   UNL     1      51.581  20.365  26.976  1.00  0.00     0.053 C 
BRANCH   9  10
ATOM     10  C   UNL     1      52.466  20.977  25.938  1.00  0.00     0.041 C 
ATOM     11  O   UNL     1      53.337  20.278  25.354  1.00  0.00    -0.550 OA
ATOM     12  O   UNL     1      52.305  22.312  25.586  1.00  0.00    -0.550 OA
ENDBRANCH   9  10
ENDBRANCH   8   9
ENDBRANCH   7   8
ENDBRANCH   6   7
ENDBRANCH   5   6
ENDBRANCH   4   5
ENDBRANCH   3   4
ENDBRANCH   1   3
BRANCH   2  13
ATOM     13  C   UNL     1      58.880  26.423  28.904  1.00  0.00     0.027 C 
BRANCH  13  14
ATOM     14  C   UNL     1      58.021  27.700  28.915  1.00  0.00     0.004 C 
BRANCH  14  15
ATOM     15  C   UNL     1      58.828  29.012  28.905  1.00  0.00     0.000 C 
BRANCH  15  16
ATOM     16  C   UNL     1      59.088  29.544  27.488  1.00  0.00     0.000 C 
BRANCH  16  17
ATOM     17  C   UNL     1      57.802  29.524  26.651  1.00  0.00    -0.000 C 
BRANCH  17  18
ATOM     18  C   UNL     1      57.321  30.934  26.265  1.00  0.00    -0.000 C 
BRANCH  18  19
ATOM     19  C   UNL     1      56.562  31.660  27.398  1.00  0.00    -0.003 C 
ATOM     20  C   UNL     1      55.572  30.742  28.116  1.00  0.00     0.004 C 
ENDBRANCH  18  19
ENDBRANCH  17  18
ENDBRANCH  16  17
ENDBRANCH  15  16
ENDBRANCH  14  15
ENDBRANCH  13  14
ENDBRANCH   2  13
TORSDOF 15
ENDMDL
MODEL 6
REMARK VINA RESULT:    -4.004      4.804     10.343
REMARK INTER + INTRA:          -8.815
REMARK INTER:                  -7.627
REMARK INTRA:                  -1.188
REMARK UNBOUND:                -1.299
REMARK SMILES CCCCCCCCC=CCCCCCCCC(=O)[O-]
REMARK SMILES IDX 10 1 9 2 11 3 12 4 13 5 14 6 15 7 16 8 17 9 18 10 19 11
REMARK SMILES IDX 20 12 8 13 7 14 6 15 5 16 4 17 3 18 2 19 1 20
REMARK H PARENT
REMARK Flexibility Score: inf
ROOT
ATOM      1  C   UNL     1      56.551  24.730  27.466  1.00  0.00    -0.031 C 
ATOM      2  C   UNL     1      55.582  23.851  27.169  1.00  0.00    -0.031 C 
ENDROOT
BRANCH   1   3
ATOM      3  C   UNL     1      56.873  25.092  28.891  1.00  0.00     0.027 C 
BRANCH   3   4
ATOM      4  C   UNL     1      57.887  26.246  28.994  1.00  0.00     0.004 C 
BRANCH   4   5
ATOM      5  C   UNL     1      57.707  27.342  27.927  1.00  0.00     0.000 C 
BRANCH   5   6
ATOM      6  C   UNL     1      57.717  28.758  28.529  1.00  0.00     0.000 C 
BRANCH   6   7
ATOM      7  C   UNL     1      58.775  29.667  27.883  1.00  0.00     0.000 C 
BRANCH   7   8
ATOM      8  C   UNL     1      60.173  29.479  28.493  1.00  0.00     0.006 C 
BRANCH   8   9
ATOM      9  C   UNL     1      61.263  29.898  27.502  1.00  0.00     0.053 C 
BRANCH   9  10
ATOM     10  C   UNL     1      61.801  31.248  27.855  1.00  0.00     0.041 C 
ATOM     11  O   UNL     1      61.220  31.958  28.719  1.00  0.00    -0.550 OA
ATOM     12  O   UNL     1      62.968  31.709  27.258  1.00  0.00    -0.550 OA
ENDBRANCH   9  10
ENDBRANCH   8   9
ENDBRANCH   7   8
ENDBRANCH   6   7
ENDBRANCH   5   6
ENDBRANCH   4   5
ENDBRANCH   3   4
ENDBRANCH   1   3
BRANCH   2  13
ATOM     13  C   UNL     1      55.262  23.476  25.746  1.00  0.00     0.027 C 
BRANCH  13  14
ATOM     14  C   UNL     1      53.792  23.066  25.555  1.00  0.00     0.004 C 
BRANCH  14  15
ATOM     15  C   UNL     1      53.506  21.576  25.817  1.00  0.00     0.000 C 
BRANCH  15  16
ATOM     16  C   UNL     1      52.006  21.265  25.929  1.00  0.00     0.000 C 
BRANCH  16  17
ATOM     17  C   UNL     1      51.646  20.805  27.348  1.00  0.00    -0.000 C 
BRANCH  17  18
ATOM     18  C   UNL     1      52.352  21.628  28.439  1.00  0.00    -0.000 C 
BRANCH  18  19
ATOM     19  C   UNL     1      51.539  22.852  28.914  1.00  0.00    -0.003 C 
ATOM     20  C   UNL     1      52.360  24.141  28.889  1.00  0.00     0.004 C 
ENDBRANCH  18  19
ENDBRANCH  17  18
ENDBRANCH  16  17
ENDBRANCH  15  16
ENDBRANCH  14  15
ENDBRANCH  13  14
ENDBRANCH   2  13
TORSDOF 15
ENDMDL
MODEL 7
REMARK VINA RESULT:    -3.987      3.489      9.202
REMARK INTER + INTRA:          -8.784
REMARK INTER:                  -7.933
REMARK INTRA:                  -0.850
REMARK UNBOUND:                -1.299
REMARK SMILES CCCCCCCCC=CCCCCCCCC(=O)[O-]
REMARK SMILES IDX 10 1 9 2 11 3 12 4 13 5 14 6 15 7 16 8 17 9 18 10 19 11
REMARK SMILES IDX 20 12 8 13 7 14 6 15 5 16 4 17 3 18 2 19 1 20
REMARK H PARENT
REMARK Flexibility Score: inf
ROOT
ATOM      1  C   UNL     1      60.531  25.099  29.089  1.00  0.00    -0.031 C 
ATOM      2  C   UNL     1      59.329  25.649  28.862  1.00  0.00    -0.031 C 
ENDROOT
BRANCH   1   3
ATOM      3  C   UNL     1      61.803  25.882  28.898  1.00  0.00     0.027 C 
BRANCH   3   4
ATOM      4  C   UNL     1      61.584  27.401  29.002  1.00  0.00     0.004 C 
BRANCH   4   5
ATOM      5  C   UNL     1      62.783  28.247  28.534  1.00  0.00     0.000 C 
BRANCH   5   6
ATOM      6  C   UNL     1      62.362  29.426  27.641  1.00  0.00     0.000 C 
BRANCH   6   7
ATOM      7  C   UNL     1      61.341  30.349  28.325  1.00  0.00     0.000 C 
BRANCH   7   8
ATOM      8  C   UNL     1      60.315  30.934  27.342  1.00  0.00     0.006 C 
BRANCH   8   9
ATOM      9  C   UNL     1      59.232  29.905  27.005  1.00  0.00     0.053 C 
BRANCH   9  10
ATOM     10  C   UNL     1      57.887  30.558  26.950  1.00  0.00     0.041 C 
ATOM     11  O   UNL     1      57.592  31.473  27.765  1.00  0.00    -0.550 OA
ATOM     12  O   UNL     1      56.972  30.184  25.974  1.00  0.00    -0.550 OA
ENDBRANCH   9  10
ENDBRANCH   8   9
ENDBRANCH   7   8
ENDBRANCH   6   7
ENDBRANCH   5   6
ENDBRANCH   4   5
ENDBRANCH   3   4
ENDBRANCH   1   3
BRANCH   2  13
ATOM     13  C   UNL     1      58.053  24.875  29.061  1.00  0.00     0.027 C 
BRANCH  13  14
ATOM     14  C   UNL     1      57.082  25.012  27.876  1.00  0.00     0.004 C 
BRANCH  14  15
ATOM     15  C   UNL     1      55.626  24.624  28.196  1.00  0.00     0.000 C 
BRANCH  15  16
ATOM     16  C   UNL     1      55.496  23.200  28.755  1.00  0.00     0.000 C 
BRANCH  16  17
ATOM     17  C   UNL     1      54.034  22.733  28.727  1.00  0.00    -0.000 C 
BRANCH  17  18
ATOM     18  C   UNL     1      53.535  22.422  27.305  1.00  0.00    -0.000 C 
BRANCH  18  19
ATOM     19  C   UNL     1      52.250  21.566  27.275  1.00  0.00    -0.003 C 
ATOM     20  C   UNL     1      52.036  20.886  25.923  1.00  0.00     0.004 C 
ENDBRANCH  18  19
ENDBRANCH  17  18
ENDBRANCH  16  17
ENDBRANCH  15  16
ENDBRANCH  14  15
ENDBRANCH  13  14
ENDBRANCH   2  13
TORSDOF 15
ENDMDL
MODEL 8
REMARK VINA RESULT:    -3.964      3.097      8.518
REMARK INTER + INTRA:          -8.739
REMARK INTER:                  -7.442
REMARK INTRA:                  -1.297
REMARK UNBOUND:                -1.299
REMARK SMILES CCCCCCCCC=CCCCCCCCC(=O)[O-]
REMARK SMILES IDX 10 1 9 2 11 3 12 4 13 5 14 6 15 7 16 8 17 9 18 10 19 11
REMARK SMILES IDX 20 12 8 13 7 14 6 15 5 16 4 17 3 18 2 19 1 20
REMARK H PARENT
REMARK Flexibility Score: inf
ROOT
ATOM      1  C   UNL     1      61.549  27.188  29.125  1.00  0.00    -0.031 C 
ATOM      2  C   UNL     1      61.657  25.863  28.947  1.00  0.00    -0.031 C 
ENDROOT
BRANCH   1   3
ATOM      3  C   UNL     1      62.758  28.085  29.101  1.00  0.00     0.027 C 
BRANCH   3   4
ATOM      4  C   UNL     1      63.238  28.394  27.672  1.00  0.00     0.004 C 
BRANCH   4   5
ATOM      5  C   UNL     1      62.863  29.801  27.169  1.00  0.00     0.000 C 
BRANCH   5   6
ATOM      6  C   UNL     1      62.428  30.739  28.308  1.00  0.00     0.000 C 
BRANCH   6   7
ATOM      7  C   UNL     1      61.038  31.350  28.072  1.00  0.00     0.000 C 
BRANCH   7   8
ATOM      8  C   UNL     1      60.118  30.435  27.249  1.00  0.00     0.006 C 
BRANCH   8   9
ATOM      9  C   UNL     1      58.873  30.047  28.053  1.00  0.00     0.053 C 
BRANCH   9  10
ATOM     10  C   UNL     1      57.793  29.555  27.141  1.00  0.00     0.041 C 
ATOM     11  O   UNL     1      57.581  28.319  27.018  1.00  0.00    -0.550 OA
ATOM     12  O   UNL     1      56.994  30.462  26.457  1.00  0.00    -0.550 OA
ENDBRANCH   9  10
ENDBRANCH   8   9
ENDBRANCH   7   8
ENDBRANCH   6   7
ENDBRANCH   5   6
ENDBRANCH   4   5
ENDBRANCH   3   4
ENDBRANCH   1   3
BRANCH   2  13
ATOM     13  C   UNL     1      60.451  24.962  28.960  1.00  0.00     0.027 C 
BRANCH  13  14
ATOM     14  C   UNL     1      59.148  25.705  28.620  1.00  0.00     0.004 C 
BRANCH  14  15
ATOM     15  C   UNL     1      57.863  24.917  28.936  1.00  0.00     0.000 C 
BRANCH  15  16
ATOM     16  C   UNL     1      56.809  25.021  27.824  1.00  0.00     0.000 C 
BRANCH  16  17
ATOM     17  C   UNL     1      55.937  23.759  27.777  1.00  0.00    -0.000 C 
BRANCH  17  18
ATOM     18  C   UNL     1      54.466  24.062  27.441  1.00  0.00    -0.000 C 
BRANCH  18  19
ATOM     19  C   UNL     1      53.533  22.842  27.596  1.00  0.00    -0.003 C 
ATOM     20  C   UNL     1      53.495  22.317  29.031  1.00  0.00     0.004 C 
ENDBRANCH  18  19
ENDBRANCH  17  18
ENDBRANCH  16  17
ENDBRANCH  15  16
ENDBRANCH  14  15
ENDBRANCH  13  14
ENDBRANCH   2  13
TORSDOF 15
ENDMDL
MODEL 9
REMARK VINA RESULT:    -3.961      4.700     10.249
REMARK INTER + INTRA:          -8.734
REMARK INTER:                  -7.706
REMARK INTRA:                  -1.028
REMARK UNBOUND:                -1.299
REMARK SMILES CCCCCCCCC=CCCCCCCCC(=O)[O-]
REMARK SMILES IDX 10 1 9 2 11 3 12 4 13 5 14 6 15 7 16 8 17 9 18 10 19 11
REMARK SMILES IDX 20 12 8 13 7 14 6 15 5 16 4 17 3 18 2 19 1 20
REMARK H PARENT
REMARK Flexibility Score: inf
ROOT
ATOM      1  C   UNL     1      58.009  26.387  28.938  1.00  0.00    -0.031 C 
ATOM      2  C   UNL     1      56.918  26.038  28.240  1.00  0.00    -0.031 C 
ENDROOT
BRANCH   1   3
ATOM      3  C   UNL     1      58.780  27.640  28.618  1.00  0.00     0.027 C 
BRANCH   3   4
ATOM      4  C   UNL     1      57.914  28.708  27.928  1.00  0.00     0.004 C 
BRANCH   4   5
ATOM      5  C   UNL     1      58.680  29.596  26.929  1.00  0.00     0.000 C 
BRANCH   5   6
ATOM      6  C   UNL     1      59.335  30.813  27.605  1.00  0.00     0.000 C 
BRANCH   6   7
ATOM      7  C   UNL     1      60.854  30.870  27.375  1.00  0.00     0.000 C 
BRANCH   7   8
ATOM      8  C   UNL     1      61.620  29.829  28.206  1.00  0.00     0.006 C 
BRANCH   8   9
ATOM      9  C   UNL     1      62.764  29.215  27.392  1.00  0.00     0.053 C 
BRANCH   9  10
ATOM     10  C   UNL     1      64.014  29.150  28.211  1.00  0.00     0.041 C 
ATOM     11  O   UNL     1      64.392  28.054  28.706  1.00  0.00    -0.550 OA
ATOM     12  O   UNL     1      64.784  30.291  28.397  1.00  0.00    -0.550 OA
ENDBRANCH   9  10
ENDBRANCH   8   9
ENDBRANCH   7   8
ENDBRANCH   6   7
ENDBRANCH   5   6
ENDBRANCH   4   5
ENDBRANCH   3   4
ENDBRANCH   1   3
BRANCH   2  13
ATOM     13  C   UNL     1      56.138  24.792  28.562  1.00  0.00     0.027 C 
BRANCH  13  14
ATOM     14  C   UNL     1      54.627  25.052  28.690  1.00  0.00     0.004 C 
BRANCH  14  15
ATOM     15  C   UNL     1      53.740  24.053  27.923  1.00  0.00     0.000 C 
BRANCH  15  16
ATOM     16  C   UNL     1      54.548  23.092  27.039  1.00  0.00     0.000 C 
BRANCH  16  17
ATOM     17  C   UNL     1      53.770  22.735  25.766  1.00  0.00    -0.000 C 
BRANCH  17  18
ATOM     18  C   UNL     1      53.394  21.244  25.695  1.00  0.00    -0.000 C 
BRANCH  18  19
ATOM     19  C   UNL     1      51.898  20.970  25.962  1.00  0.00    -0.003 C 
ATOM     20  C   UNL     1      51.583  20.868  27.454  1.00  0.00     0.004 C 
ENDBRANCH  18  19
ENDBRANCH  17  18
ENDBRANCH  16  17
ENDBRANCH  15  16
ENDBRANCH  14  15
ENDBRANCH  13  14
ENDBRANCH   2  13
TORSDOF 15
ENDMDL
