MODEL 1
REMARK VINA RESULT:    -3.532      0.000      0.000
REMARK INTER + INTRA:         -12.781
REMARK INTER:                  -8.902
REMARK INTRA:                  -3.879
REMARK UNBOUND:                -3.879
REMARK SMILES CCCCCCCCCCCCCCCCCCCCCCCCCCCC(=O)[O-]
REMARK SMILES IDX 15 1 16 2 17 3 18 4 19 5 20 6 21 7 22 8 23 9 24 10 25 11
REMARK SMILES IDX 26 12 27 13 28 14 29 15 30 16 14 17 13 18 12 19 11 20 10 21
REMARK SMILES IDX 9 22 8 23 7 24 6 25 5 26 4 27 3 28 2 29 1 30
REMARK H PARENT
REMARK Flexibility Score: inf
ROOT
ATOM      1  C   UNL     1      58.941  25.290  51.836  1.00  0.00     0.000 C 
ENDROOT
BRANCH   1   2
ATOM      2  C   UNL     1      59.167  23.823  52.227  1.00  0.00     0.000 C 
BRANCH   2   3
ATOM      3  C   UNL     1      60.213  23.655  53.342  1.00  0.00     0.000 C 
BRANCH   3   4
ATOM      4  C   UNL     1      61.571  23.089  52.882  1.00  0.00     0.000 C 
BRANCH   4   5
ATOM      5  C   UNL     1      62.388  24.014  51.954  1.00  0.00     0.000 C 
BRANCH   5   6
ATOM      6  C   UNL     1      62.408  23.597  50.471  1.00  0.00     0.000 C 
BRANCH   6   7
ATOM      7  C   UNL     1      62.072  22.117  50.207  1.00  0.00     0.000 C 
BRANCH   7   8
ATOM      8  C   UNL     1      60.756  21.906  49.427  1.00  0.00     0.000 C 
BRANCH   8   9
ATOM      9  C   UNL     1      60.107  20.539  49.716  1.00  0.00     0.000 C 
BRANCH   9  10
ATOM     10  C   UNL     1      60.488  19.985  51.099  1.00  0.00     0.000 C 
BRANCH  10  11
ATOM     11  C   UNL     1      59.372  20.163  52.140  1.00  0.00     0.000 C 
BRANCH  11  12
ATOM     12  C   UNL     1      58.547  18.875  52.284  1.00  0.00     0.006 C 
BRANCH  12  13
ATOM     13  C   UNL     1      57.049  19.115  52.049  1.00  0.00     0.053 C 
BRANCH  13  14
ATOM     14  C   UNL     1      56.624  18.693  50.676  1.00  0.00     0.041 C 
ATOM     15  O   UNL     1      55.481  18.999  50.245  1.00  0.00    -0.550 OA
ATOM     16  O   UNL     1      57.479  17.937  49.884  1.00  0.00    -0.550 OA
ENDBRANCH  13  14
ENDBRANCH  12  13
ENDBRANCH  11  12
ENDBRANCH  10  11
ENDBRANCH   9  10
ENDBRANCH   8   9
ENDBRANCH   7   8
ENDBRANCH   6   7
ENDBRANCH   5   6
ENDBRANCH   4   5
ENDBRANCH   3   4
ENDBRANCH   2   3
ENDBRANCH   1   2
BRANCH   1  17
ATOM     17  C   UNL     1      58.052  25.394  50.591  1.00  0.00     0.000 C 
BRANCH  17  18
ATOM     18  C   UNL     1      58.743  26.194  49.481  1.00  0.00     0.000 C 
BRANCH  18  19
ATOM     19  C   UNL     1      60.250  26.312  49.745  1.00  0.00     0.000 C 
BRANCH  19  20
ATOM     20  C   UNL     1      60.781  27.685  49.309  1.00  0.00     0.000 C 
BRANCH  20  21
ATOM     21  C   UNL     1      59.736  28.806  49.463  1.00  0.00     0.000 C 
BRANCH  21  22
ATOM     22  C   UNL     1      59.773  29.549  50.813  1.00  0.00    -0.000 C 
BRANCH  22  23
ATOM     23  C   UNL     1      58.962  28.888  51.947  1.00  0.00    -0.000 C 
BRANCH  23  24
ATOM     24  C   UNL     1      57.514  29.391  52.084  1.00  0.00    -0.000 C 
BRANCH  24  25
ATOM     25  C   UNL     1      56.789  29.488  50.732  1.00  0.00    -0.000 C 
BRANCH  25  26
ATOM     26  C   UNL     1      55.907  28.254  50.491  1.00  0.00    -0.000 C 
BRANCH  26  27
ATOM     27  C   UNL     1      54.415  28.604  50.338  1.00  0.00    -0.000 C 
BRANCH  27  28
ATOM     28  C   UNL     1      53.451  27.418  50.527  1.00  0.00    -0.000 C 
BRANCH  28  29
ATOM     29  C   UNL     1      53.255  26.600  49.243  1.00  0.00    -0.003 C 
ATOM     30  C   UNL     1      54.068  25.309  49.285  1.00  0.00     0.004 C 
ENDBRANCH  28  29
ENDBRANCH  27  28
ENDBRANCH  26  27
ENDBRANCH  25  26
ENDBRANCH  24  25
ENDBRANCH  23  24
ENDBRANCH  22  23
ENDBRANCH  21  22
ENDBRANCH  20  21
ENDBRANCH  19  20
ENDBRANCH  18  19
ENDBRANCH  17  18
ENDBRANCH   1  17
TORSDOF 26
ENDMDL
MODEL 2
REMARK VINA RESULT:    -3.507      9.759     13.787
REMARK INTER + INTRA:         -12.717
REMARK INTER:                  -6.749
REMARK INTRA:                  -5.968
REMARK UNBOUND:                -3.879
REMARK SMILES CCCCCCCCCCCCCCCCCCCCCCCCCCCC(=O)[O-]
REMARK SMILES IDX 15 1 16 2 17 3 18 4 19 5 20 6 21 7 22 8 23 9 24 10 25 11
REMARK SMILES IDX 26 12 27 13 28 14 29 15 30 16 14 17 13 18 12 19 11 20 10 21
REMARK SMILES IDX 9 22 8 23 7 24 6 25 5 26 4 27 3 28 2 29 1 30
REMARK H PARENT
REMARK Flexibility Score: inf
ROOT
ATOM      1  C   UNL     1      65.450  33.824  57.395  1.00  0.00     0.000 C 
ENDROOT
BRANCH   1   2
ATOM      2  C   UNL     1      66.049  35.105  57.992  1.00  0.00     0.000 C 
BRANCH   2   3
ATOM      3  C   UNL     1      65.021  35.932  58.783  1.00  0.00     0.000 C 
BRANCH   3   4
ATOM      4  C   UNL     1      65.222  35.931  60.312  1.00  0.00     0.000 C 
BRANCH   4   5
ATOM      5  C   UNL     1      64.595  34.732  61.055  1.00  0.00     0.000 C 
BRANCH   5   6
ATOM      6  C   UNL     1      63.064  34.614  60.928  1.00  0.00     0.000 C 
BRANCH   6   7
ATOM      7  C   UNL     1      62.294  35.939  61.085  1.00  0.00     0.000 C 
BRANCH   7   8
ATOM      8  C   UNL     1      60.899  35.932  60.424  1.00  0.00     0.000 C 
BRANCH   8   9
ATOM      9  C   UNL     1      60.886  35.192  59.073  1.00  0.00     0.000 C 
BRANCH   9  10
ATOM     10  C   UNL     1      59.571  35.394  58.302  1.00  0.00     0.000 C 
BRANCH  10  11
ATOM     11  C   UNL     1      59.364  34.349  57.195  1.00  0.00     0.000 C 
BRANCH  11  12
ATOM     12  C   UNL     1      58.414  33.236  57.663  1.00  0.00     0.006 C 
BRANCH  12  13
ATOM     13  C   UNL     1      57.773  32.485  56.488  1.00  0.00     0.053 C 
BRANCH  13  14
ATOM     14  C   UNL     1      58.296  31.086  56.368  1.00  0.00     0.041 C 
ATOM     15  O   UNL     1      57.888  30.189  57.152  1.00  0.00    -0.550 OA
ATOM     16  O   UNL     1      59.256  30.780  55.412  1.00  0.00    -0.550 OA
ENDBRANCH  13  14
ENDBRANCH  12  13
ENDBRANCH  11  12
ENDBRANCH  10  11
ENDBRANCH   9  10
ENDBRANCH   8   9
ENDBRANCH   7   8
ENDBRANCH   6   7
ENDBRANCH   5   6
ENDBRANCH   4   5
ENDBRANCH   3   4
ENDBRANCH   2   3
ENDBRANCH   1   2
BRANCH   1  17
ATOM     17  C   UNL     1      63.918  33.867  57.432  1.00  0.00     0.000 C 
BRANCH  17  18
ATOM     18  C   UNL     1      63.313  33.216  56.182  1.00  0.00     0.000 C 
BRANCH  18  19
ATOM     19  C   UNL     1      62.391  32.050  56.561  1.00  0.00     0.000 C 
BRANCH  19  20
ATOM     20  C   UNL     1      62.089  32.051  58.066  1.00  0.00     0.000 C 
BRANCH  20  21
ATOM     21  C   UNL     1      61.272  30.823  58.511  1.00  0.00     0.000 C 
BRANCH  21  22
ATOM     22  C   UNL     1      60.473  31.010  59.815  1.00  0.00    -0.000 C 
BRANCH  22  23
ATOM     23  C   UNL     1      61.321  31.320  61.066  1.00  0.00    -0.000 C 
BRANCH  23  24
ATOM     24  C   UNL     1      61.889  30.082  61.784  1.00  0.00    -0.000 C 
BRANCH  24  25
ATOM     25  C   UNL     1      63.349  29.791  61.402  1.00  0.00    -0.000 C 
BRANCH  25  26
ATOM     26  C   UNL     1      64.113  31.094  61.122  1.00  0.00    -0.000 C 
BRANCH  26  27
ATOM     27  C   UNL     1      64.967  31.023  59.842  1.00  0.00    -0.000 C 
BRANCH  27  28
ATOM     28  C   UNL     1      65.214  29.599  59.309  1.00  0.00    -0.000 C 
BRANCH  28  29
ATOM     29  C   UNL     1      64.718  29.407  57.869  1.00  0.00    -0.003 C 
ATOM     30  C   UNL     1      65.612  30.144  56.876  1.00  0.00     0.004 C 
ENDBRANCH  28  29
ENDBRANCH  27  28
ENDBRANCH  26  27
ENDBRANCH  25  26
ENDBRANCH  24  25
ENDBRANCH  23  24
ENDBRANCH  22  23
ENDBRANCH  21  22
ENDBRANCH  20  21
ENDBRANCH  19  20
ENDBRANCH  18  19
ENDBRANCH  17  18
ENDBRANCH   1  17
TORSDOF 26
ENDMDL
MODEL 3
REMARK VINA RESULT:    -3.476      9.428     13.221
REMARK INTER + INTRA:         -12.638
REMARK INTER:                  -6.456
REMARK INTRA:                  -6.182
REMARK UNBOUND:                -3.879
REMARK SMILES CCCCCCCCCCCCCCCCCCCCCCCCCCCC(=O)[O-]
REMARK SMILES IDX 15 1 16 2 17 3 18 4 19 5 20 6 21 7 22 8 23 9 24 10 25 11
REMARK SMILES IDX 26 12 27 13 28 14 29 15 30 16 14 17 13 18 12 19 11 20 10 21
REMARK SMILES IDX 9 22 8 23 7 24 6 25 5 26 4 27 3 28 2 29 1 30
REMARK H PARENT
REMARK Flexibility Score: inf
ROOT
ATOM      1  C   UNL     1      64.050  33.269  60.701  1.00  0.00     0.000 C 
ENDROOT
BRANCH   1   2
ATOM      2  C   UNL     1      64.261  34.727  61.131  1.00  0.00     0.000 C 
BRANCH   2   3
ATOM      3  C   UNL     1      62.988  35.581  60.995  1.00  0.00     0.000 C 
BRANCH   3   4
ATOM      4  C   UNL     1      61.719  34.800  60.600  1.00  0.00     0.000 C 
BRANCH   4   5
ATOM      5  C   UNL     1      61.189  35.085  59.179  1.00  0.00     0.000 C 
BRANCH   5   6
ATOM      6  C   UNL     1      62.036  36.071  58.352  1.00  0.00     0.000 C 
BRANCH   6   7
ATOM      7  C   UNL     1      62.861  35.428  57.219  1.00  0.00     0.000 C 
BRANCH   7   8
ATOM      8  C   UNL     1      62.468  33.968  56.913  1.00  0.00     0.000 C 
BRANCH   8   9
ATOM      9  C   UNL     1      61.695  33.826  55.588  1.00  0.00     0.000 C 
BRANCH   9  10
ATOM     10  C   UNL     1      61.025  32.450  55.440  1.00  0.00     0.000 C 
BRANCH  10  11
ATOM     11  C   UNL     1      59.492  32.538  55.389  1.00  0.00     0.000 C 
BRANCH  11  12
ATOM     12  C   UNL     1      58.972  33.606  56.364  1.00  0.00     0.006 C 
BRANCH  12  13
ATOM     13  C   UNL     1      58.305  32.989  57.601  1.00  0.00     0.053 C 
BRANCH  13  14
ATOM     14  C   UNL     1      56.842  32.747  57.385  1.00  0.00     0.041 C 
ATOM     15  O   UNL     1      56.245  31.853  58.041  1.00  0.00    -0.550 OA
ATOM     16  O   UNL     1      56.146  33.487  56.438  1.00  0.00    -0.550 OA
ENDBRANCH  13  14
ENDBRANCH  12  13
ENDBRANCH  11  12
ENDBRANCH  10  11
ENDBRANCH   9  10
ENDBRANCH   8   9
ENDBRANCH   7   8
ENDBRANCH   6   7
ENDBRANCH   5   6
ENDBRANCH   4   5
ENDBRANCH   3   4
ENDBRANCH   2   3
ENDBRANCH   1   2
BRANCH   1  17
ATOM     17  C   UNL     1      64.755  32.983  59.370  1.00  0.00     0.000 C 
BRANCH  17  18
ATOM     18  C   UNL     1      64.917  31.475  59.140  1.00  0.00     0.000 C 
BRANCH  18  19
ATOM     19  C   UNL     1      64.849  30.707  60.466  1.00  0.00     0.000 C 
BRANCH  19  20
ATOM     20  C   UNL     1      64.399  29.256  60.242  1.00  0.00     0.000 C 
BRANCH  20  21
ATOM     21  C   UNL     1      63.225  28.848  61.152  1.00  0.00     0.000 C 
BRANCH  21  22
ATOM     22  C   UNL     1      62.478  30.022  61.815  1.00  0.00    -0.000 C 
BRANCH  22  23
ATOM     23  C   UNL     1      61.012  30.202  61.369  1.00  0.00    -0.000 C 
BRANCH  23  24
ATOM     24  C   UNL     1      60.752  31.438  60.489  1.00  0.00    -0.000 C 
BRANCH  24  25
ATOM     25  C   UNL     1      61.272  31.265  59.053  1.00  0.00    -0.000 C 
BRANCH  25  26
ATOM     26  C   UNL     1      60.530  30.129  58.333  1.00  0.00    -0.000 C 
BRANCH  26  27
ATOM     27  C   UNL     1      61.476  29.021  57.831  1.00  0.00    -0.000 C 
BRANCH  27  28
ATOM     28  C   UNL     1      62.652  29.519  56.970  1.00  0.00    -0.000 C 
BRANCH  28  29
ATOM     29  C   UNL     1      63.634  28.398  56.600  1.00  0.00    -0.003 C 
ATOM     30  C   UNL     1      65.067  28.920  56.540  1.00  0.00     0.004 C 
ENDBRANCH  28  29
ENDBRANCH  27  28
ENDBRANCH  26  27
ENDBRANCH  25  26
ENDBRANCH  24  25
ENDBRANCH  23  24
ENDBRANCH  22  23
ENDBRANCH  21  22
ENDBRANCH  20  21
ENDBRANCH  19  20
ENDBRANCH  18  19
ENDBRANCH  17  18
ENDBRANCH   1  17
TORSDOF 26
ENDMDL
MODEL 4
REMARK VINA RESULT:    -3.431      9.692     11.923
REMARK INTER + INTRA:         -12.524
REMARK INTER:                  -7.385
REMARK INTRA:                  -5.139
REMARK UNBOUND:                -3.879
REMARK SMILES CCCCCCCCCCCCCCCCCCCCCCCCCCCC(=O)[O-]
REMARK SMILES IDX 15 1 16 2 17 3 18 4 19 5 20 6 21 7 22 8 23 9 24 10 25 11
REMARK SMILES IDX 26 12 27 13 28 14 29 15 30 16 14 17 13 18 12 19 11 20 10 21
REMARK SMILES IDX 9 22 8 23 7 24 6 25 5 26 4 27 3 28 2 29 1 30
REMARK H PARENT
REMARK Flexibility Score: inf
ROOT
ATOM      1  C   UNL     1      60.895  31.116  60.881  1.00  0.00     0.000 C 
ENDROOT
BRANCH   1   2
ATOM      2  C   UNL     1      61.584  30.318  61.996  1.00  0.00     0.000 C 
BRANCH   2   3
ATOM      3  C   UNL     1      62.017  28.912  61.546  1.00  0.00     0.000 C 
BRANCH   3   4
ATOM      4  C   UNL     1      63.510  28.772  61.191  1.00  0.00     0.000 C 
BRANCH   4   5
ATOM      5  C   UNL     1      63.801  28.161  59.803  1.00  0.00     0.000 C 
BRANCH   5   6
ATOM      6  C   UNL     1      63.325  29.006  58.606  1.00  0.00     0.000 C 
BRANCH   6   7
ATOM      7  C   UNL     1      62.253  28.338  57.724  1.00  0.00     0.000 C 
BRANCH   7   8
ATOM      8  C   UNL     1      60.822  28.854  57.982  1.00  0.00     0.000 C 
BRANCH   8   9
ATOM      9  C   UNL     1      59.930  27.810  58.680  1.00  0.00     0.000 C 
BRANCH   9  10
ATOM     10  C   UNL     1      58.835  28.453  59.546  1.00  0.00     0.000 C 
BRANCH  10  11
ATOM     11  C   UNL     1      58.571  27.676  60.845  1.00  0.00     0.000 C 
BRANCH  11  12
ATOM     12  C   UNL     1      59.238  26.292  60.801  1.00  0.00     0.006 C 
BRANCH  12  13
ATOM     13  C   UNL     1      59.820  25.884  62.161  1.00  0.00     0.053 C 
BRANCH  13  14
ATOM     14  C   UNL     1      61.039  25.025  62.011  1.00  0.00     0.041 C 
ATOM     15  O   UNL     1      61.211  24.033  62.768  1.00  0.00    -0.550 OA
ATOM     16  O   UNL     1      61.998  25.338  61.057  1.00  0.00    -0.550 OA
ENDBRANCH  13  14
ENDBRANCH  12  13
ENDBRANCH  11  12
ENDBRANCH  10  11
ENDBRANCH   9  10
ENDBRANCH   8   9
ENDBRANCH   7   8
ENDBRANCH   6   7
ENDBRANCH   5   6
ENDBRANCH   4   5
ENDBRANCH   3   4
ENDBRANCH   2   3
ENDBRANCH   1   2
BRANCH   1  17
ATOM     17  C   UNL     1      61.625  32.440  60.624  1.00  0.00     0.000 C 
BRANCH  17  18
ATOM     18  C   UNL     1      62.975  32.206  59.935  1.00  0.00     0.000 C 
BRANCH  18  19
ATOM     19  C   UNL     1      64.112  32.887  60.707  1.00  0.00     0.000 C 
BRANCH  19  20
ATOM     20  C   UNL     1      64.323  34.329  60.221  1.00  0.00     0.000 C 
BRANCH  20  21
ATOM     21  C   UNL     1      64.358  35.347  61.376  1.00  0.00     0.000 C 
BRANCH  21  22
ATOM     22  C   UNL     1      63.303  36.468  61.287  1.00  0.00    -0.000 C 
BRANCH  22  23
ATOM     23  C   UNL     1      61.864  35.994  60.997  1.00  0.00    -0.000 C 
BRANCH  23  24
ATOM     24  C   UNL     1      61.211  36.633  59.759  1.00  0.00    -0.000 C 
BRANCH  24  25
ATOM     25  C   UNL     1      60.638  35.591  58.785  1.00  0.00    -0.000 C 
BRANCH  25  26
ATOM     26  C   UNL     1      61.524  35.458  57.538  1.00  0.00    -0.000 C 
BRANCH  26  27
ATOM     27  C   UNL     1      61.756  33.993  57.121  1.00  0.00    -0.000 C 
BRANCH  27  28
ATOM     28  C   UNL     1      60.526  33.294  56.512  1.00  0.00    -0.000 C 
BRANCH  28  29
ATOM     29  C   UNL     1      59.905  32.253  57.454  1.00  0.00    -0.003 C 
ATOM     30  C   UNL     1      58.411  32.503  57.641  1.00  0.00     0.004 C 
ENDBRANCH  28  29
ENDBRANCH  27  28
ENDBRANCH  26  27
ENDBRANCH  25  26
ENDBRANCH  24  25
ENDBRANCH  23  24
ENDBRANCH  22  23
ENDBRANCH  21  22
ENDBRANCH  20  21
ENDBRANCH  19  20
ENDBRANCH  18  19
ENDBRANCH  17  18
ENDBRANCH   1  17
TORSDOF 26
ENDMDL
MODEL 5
REMARK VINA RESULT:    -3.429      9.870     12.607
REMARK INTER + INTRA:         -12.520
REMARK INTER:                  -7.307
REMARK INTRA:                  -5.213
REMARK UNBOUND:                -3.879
REMARK SMILES CCCCCCCCCCCCCCCCCCCCCCCCCCCC(=O)[O-]
REMARK SMILES IDX 15 1 16 2 17 3 18 4 19 5 20 6 21 7 22 8 23 9 24 10 25 11
REMARK SMILES IDX 26 12 27 13 28 14 29 15 30 16 14 17 13 18 12 19 11 20 10 21
REMARK SMILES IDX 9 22 8 23 7 24 6 25 5 26 4 27 3 28 2 29 1 30
REMARK H PARENT
REMARK Flexibility Score: inf
ROOT
ATOM      1  C   UNL     1      64.315  31.690  57.864  1.00  0.00     0.000 C 
ENDROOT
BRANCH   1   2
ATOM      2  C   UNL     1      63.325  30.772  58.594  1.00  0.00     0.000 C 
BRANCH   2   3
ATOM      3  C   UNL     1      62.228  30.219  57.668  1.00  0.00     0.000 C 
BRANCH   3   4
ATOM      4  C   UNL     1      60.789  30.371  58.199  1.00  0.00     0.000 C 
BRANCH   4   5
ATOM      5  C   UNL     1      60.636  31.294  59.426  1.00  0.00     0.000 C 
BRANCH   5   6
ATOM      6  C   UNL     1      60.377  30.569  60.760  1.00  0.00     0.000 C 
BRANCH   6   7
ATOM      7  C   UNL     1      61.504  30.704  61.803  1.00  0.00     0.000 C 
BRANCH   7   8
ATOM      8  C   UNL     1      62.485  29.513  61.819  1.00  0.00     0.000 C 
BRANCH   8   9
ATOM      9  C   UNL     1      61.855  28.216  61.276  1.00  0.00     0.000 C 
BRANCH   9  10
ATOM     10  C   UNL     1      62.749  27.514  60.241  1.00  0.00     0.000 C 
BRANCH  10  11
ATOM     11  C   UNL     1      64.015  26.905  60.865  1.00  0.00     0.000 C 
BRANCH  11  12
ATOM     12  C   UNL     1      65.275  27.392  60.133  1.00  0.00     0.006 C 
BRANCH  12  13
ATOM     13  C   UNL     1      66.037  28.459  60.931  1.00  0.00     0.053 C 
BRANCH  13  14
ATOM     14  C   UNL     1      67.482  28.103  61.101  1.00  0.00     0.041 C 
ATOM     15  O   UNL     1      67.957  27.092  60.520  1.00  0.00    -0.550 OA
ATOM     16  O   UNL     1      68.297  28.870  61.924  1.00  0.00    -0.550 OA
ENDBRANCH  13  14
ENDBRANCH  12  13
ENDBRANCH  11  12
ENDBRANCH  10  11
ENDBRANCH   9  10
ENDBRANCH   8   9
ENDBRANCH   7   8
ENDBRANCH   6   7
ENDBRANCH   5   6
ENDBRANCH   4   5
ENDBRANCH   3   4
ENDBRANCH   2   3
ENDBRANCH   1   2
BRANCH   1  17
ATOM     17  C   UNL     1      64.447  33.036  58.587  1.00  0.00     0.000 C 
BRANCH  17  18
ATOM     18  C   UNL     1      63.868  32.964  60.005  1.00  0.00     0.000 C 
BRANCH  18  19
ATOM     19  C   UNL     1      64.331  34.158  60.849  1.00  0.00     0.000 C 
BRANCH  19  20
ATOM     20  C   UNL     1      63.207  35.194  61.004  1.00  0.00     0.000 C 
BRANCH  20  21
ATOM     21  C   UNL     1      61.820  34.626  60.651  1.00  0.00     0.000 C 
BRANCH  21  22
ATOM     22  C   UNL     1      60.829  35.647  60.059  1.00  0.00    -0.000 C 
BRANCH  22  23
ATOM     23  C   UNL     1      60.199  35.244  58.710  1.00  0.00    -0.000 C 
BRANCH  23  24
ATOM     24  C   UNL     1      61.109  34.402  57.798  1.00  0.00    -0.000 C 
BRANCH  24  25
ATOM     25  C   UNL     1      61.993  35.263  56.881  1.00  0.00    -0.000 C 
BRANCH  25  26
ATOM     26  C   UNL     1      62.367  34.498  55.603  1.00  0.00    -0.000 C 
BRANCH  26  27
ATOM     27  C   UNL     1      61.752  33.087  55.548  1.00  0.00    -0.000 C 
BRANCH  27  28
ATOM     28  C   UNL     1      60.568  32.937  54.575  1.00  0.00    -0.000 C 
BRANCH  28  29
ATOM     29  C   UNL     1      59.403  32.135  55.172  1.00  0.00    -0.003 C 
ATOM     30  C   UNL     1      58.602  31.432  54.080  1.00  0.00     0.004 C 
ENDBRANCH  28  29
ENDBRANCH  27  28
ENDBRANCH  26  27
ENDBRANCH  25  26
ENDBRANCH  24  25
ENDBRANCH  23  24
ENDBRANCH  22  23
ENDBRANCH  21  22
ENDBRANCH  20  21
ENDBRANCH  19  20
ENDBRANCH  18  19
ENDBRANCH  17  18
ENDBRANCH   1  17
TORSDOF 26
ENDMDL
MODEL 6
REMARK VINA RESULT:    -3.415     10.389     12.799
REMARK INTER + INTRA:         -12.484
REMARK INTER:                  -8.210
REMARK INTRA:                  -4.273
REMARK UNBOUND:                -3.879
REMARK SMILES CCCCCCCCCCCCCCCCCCCCCCCCCCCC(=O)[O-]
REMARK SMILES IDX 15 1 16 2 17 3 18 4 19 5 20 6 21 7 22 8 23 9 24 10 25 11
REMARK SMILES IDX 26 12 27 13 28 14 29 15 30 16 14 17 13 18 12 19 11 20 10 21
REMARK SMILES IDX 9 22 8 23 7 24 6 25 5 26 4 27 3 28 2 29 1 30
REMARK H PARENT
REMARK Flexibility Score: inf
ROOT
ATOM      1  C   UNL     1      64.501  30.562  61.000  1.00  0.00     0.000 C 
ENDROOT
BRANCH   1   2
ATOM      2  C   UNL     1      63.969  29.126  61.106  1.00  0.00     0.000 C 
BRANCH   2   3
ATOM      3  C   UNL     1      62.473  29.068  61.461  1.00  0.00     0.000 C 
BRANCH   3   4
ATOM      4  C   UNL     1      61.856  30.409  61.905  1.00  0.00     0.000 C 
BRANCH   4   5
ATOM      5  C   UNL     1      60.857  31.034  60.909  1.00  0.00     0.000 C 
BRANCH   5   6
ATOM      6  C   UNL     1      60.853  30.401  59.505  1.00  0.00     0.000 C 
BRANCH   6   7
ATOM      7  C   UNL     1      59.459  30.048  58.954  1.00  0.00     0.000 C 
BRANCH   7   8
ATOM      8  C   UNL     1      59.189  28.531  58.864  1.00  0.00     0.000 C 
BRANCH   8   9
ATOM      9  C   UNL     1      59.542  27.787  60.166  1.00  0.00     0.000 C 
BRANCH   9  10
ATOM     10  C   UNL     1      58.397  27.815  61.191  1.00  0.00     0.000 C 
BRANCH  10  11
ATOM     11  C   UNL     1      58.026  26.415  61.706  1.00  0.00     0.000 C 
BRANCH  11  12
ATOM     12  C   UNL     1      59.243  25.478  61.674  1.00  0.00     0.006 C 
BRANCH  12  13
ATOM     13  C   UNL     1      60.069  25.553  62.966  1.00  0.00     0.053 C 
BRANCH  13  14
ATOM     14  C   UNL     1      60.765  24.259  63.258  1.00  0.00     0.041 C 
ATOM     15  O   UNL     1      60.936  23.887  64.450  1.00  0.00    -0.550 OA
ATOM     16  O   UNL     1      61.252  23.479  62.217  1.00  0.00    -0.550 OA
ENDBRANCH  13  14
ENDBRANCH  12  13
ENDBRANCH  11  12
ENDBRANCH  10  11
ENDBRANCH   9  10
ENDBRANCH   8   9
ENDBRANCH   7   8
ENDBRANCH   6   7
ENDBRANCH   5   6
ENDBRANCH   4   5
ENDBRANCH   3   4
ENDBRANCH   2   3
ENDBRANCH   1   2
BRANCH   1  17
ATOM     17  C   UNL     1      64.634  30.989  59.533  1.00  0.00     0.000 C 
BRANCH  17  18
ATOM     18  C   UNL     1      64.021  32.376  59.301  1.00  0.00     0.000 C 
BRANCH  18  19
ATOM     19  C   UNL     1      63.960  33.175  60.609  1.00  0.00     0.000 C 
BRANCH  19  20
ATOM     20  C   UNL     1      64.600  34.561  60.440  1.00  0.00     0.000 C 
BRANCH  20  21
ATOM     21  C   UNL     1      64.711  35.331  61.769  1.00  0.00     0.000 C 
BRANCH  21  22
ATOM     22  C   UNL     1      64.140  36.763  61.742  1.00  0.00    -0.000 C 
BRANCH  22  23
ATOM     23  C   UNL     1      63.135  37.047  60.607  1.00  0.00    -0.000 C 
BRANCH  23  24
ATOM     24  C   UNL     1      61.655  36.907  61.005  1.00  0.00    -0.000 C 
BRANCH  24  25
ATOM     25  C   UNL     1      61.066  35.537  60.634  1.00  0.00    -0.000 C 
BRANCH  25  26
ATOM     26  C   UNL     1      60.757  35.460  59.131  1.00  0.00    -0.000 C 
BRANCH  26  27
ATOM     27  C   UNL     1      60.909  34.037  58.561  1.00  0.00    -0.000 C 
BRANCH  27  28
ATOM     28  C   UNL     1      61.422  33.975  57.110  1.00  0.00    -0.000 C 
BRANCH  28  29
ATOM     29  C   UNL     1      62.401  35.110  56.776  1.00  0.00    -0.003 C 
ATOM     30  C   UNL     1      63.791  34.562  56.462  1.00  0.00     0.004 C 
ENDBRANCH  28  29
ENDBRANCH  27  28
ENDBRANCH  26  27
ENDBRANCH  25  26
ENDBRANCH  24  25
ENDBRANCH  23  24
ENDBRANCH  22  23
ENDBRANCH  21  22
ENDBRANCH  20  21
ENDBRANCH  19  20
ENDBRANCH  18  19
ENDBRANCH  17  18
ENDBRANCH   1  17
TORSDOF 26
ENDMDL
MODEL 7
REMARK VINA RESULT:    -3.392      2.291      6.073
REMARK INTER + INTRA:         -12.428
REMARK INTER:                  -6.964
REMARK INTRA:                  -5.464
REMARK UNBOUND:                -3.879
REMARK SMILES CCCCCCCCCCCCCCCCCCCCCCCCCCCC(=O)[O-]
REMARK SMILES IDX 15 1 16 2 17 3 18 4 19 5 20 6 21 7 22 8 23 9 24 10 25 11
REMARK SMILES IDX 26 12 27 13 28 14 29 15 30 16 14 17 13 18 12 19 11 20 10 21
REMARK SMILES IDX 9 22 8 23 7 24 6 25 5 26 4 27 3 28 2 29 1 30
REMARK H PARENT
REMARK Flexibility Score: inf
ROOT
ATOM      1  C   UNL     1      57.961  28.730  50.842  1.00  0.00     0.000 C 
ENDROOT
BRANCH   1   2
ATOM      2  C   UNL     1      56.494  29.178  50.889  1.00  0.00     0.000 C 
BRANCH   2   3
ATOM      3  C   UNL     1      55.528  28.128  50.312  1.00  0.00     0.000 C 
BRANCH   3   4
ATOM      4  C   UNL     1      55.872  26.666  50.660  1.00  0.00     0.000 C 
BRANCH   4   5
ATOM      5  C   UNL     1      55.649  26.272  52.136  1.00  0.00     0.000 C 
BRANCH   5   6
ATOM      6  C   UNL     1      56.417  25.020  52.600  1.00  0.00     0.000 C 
BRANCH   6   7
ATOM      7  C   UNL     1      57.935  25.054  52.342  1.00  0.00     0.000 C 
BRANCH   7   8
ATOM      8  C   UNL     1      58.697  26.059  53.231  1.00  0.00     0.000 C 
BRANCH   8   9
ATOM      9  C   UNL     1      60.185  25.699  53.394  1.00  0.00     0.000 C 
BRANCH   9  10
ATOM     10  C   UNL     1      60.420  24.183  53.486  1.00  0.00     0.000 C 
BRANCH  10  11
ATOM     11  C   UNL     1      61.609  23.712  52.634  1.00  0.00     0.000 C 
BRANCH  11  12
ATOM     12  C   UNL     1      61.174  22.626  51.638  1.00  0.00     0.006 C 
BRANCH  12  13
ATOM     13  C   UNL     1      59.885  21.917  52.077  1.00  0.00     0.053 C 
BRANCH  13  14
ATOM     14  C   UNL     1      59.725  20.586  51.407  1.00  0.00     0.041 C 
ATOM     15  O   UNL     1      59.004  19.697  51.932  1.00  0.00    -0.550 OA
ATOM     16  O   UNL     1      60.395  20.318  50.221  1.00  0.00    -0.550 OA
ENDBRANCH  13  14
ENDBRANCH  12  13
ENDBRANCH  11  12
ENDBRANCH  10  11
ENDBRANCH   9  10
ENDBRANCH   8   9
ENDBRANCH   7   8
ENDBRANCH   6   7
ENDBRANCH   5   6
ENDBRANCH   4   5
ENDBRANCH   3   4
ENDBRANCH   2   3
ENDBRANCH   1   2
BRANCH   1  17
ATOM     17  C   UNL     1      58.614  29.133  49.514  1.00  0.00     0.000 C 
BRANCH  17  18
ATOM     18  C   UNL     1      59.732  28.158  49.126  1.00  0.00     0.000 C 
BRANCH  18  19
ATOM     19  C   UNL     1      59.297  26.705  49.353  1.00  0.00     0.000 C 
BRANCH  19  20
ATOM     20  C   UNL     1      60.492  25.826  49.750  1.00  0.00     0.000 C 
BRANCH  20  21
ATOM     21  C   UNL     1      61.747  26.647  50.097  1.00  0.00     0.000 C 
BRANCH  21  22
ATOM     22  C   UNL     1      63.081  25.884  49.972  1.00  0.00    -0.000 C 
BRANCH  22  23
ATOM     23  C   UNL     1      64.264  26.716  49.437  1.00  0.00    -0.000 C 
BRANCH  23  24
ATOM     24  C   UNL     1      63.888  27.767  48.377  1.00  0.00    -0.000 C 
BRANCH  24  25
ATOM     25  C   UNL     1      64.219  29.202  48.819  1.00  0.00    -0.000 C 
BRANCH  25  26
ATOM     26  C   UNL     1      64.687  29.231  50.282  1.00  0.00    -0.000 C 
BRANCH  26  27
ATOM     27  C   UNL     1      63.739  30.028  51.198  1.00  0.00    -0.000 C 
BRANCH  27  28
ATOM     28  C   UNL     1      62.352  30.319  50.594  1.00  0.00    -0.000 C 
BRANCH  28  29
ATOM     29  C   UNL     1      61.255  30.457  51.660  1.00  0.00    -0.003 C 
ATOM     30  C   UNL     1      61.224  29.237  52.577  1.00  0.00     0.004 C 
ENDBRANCH  28  29
ENDBRANCH  27  28
ENDBRANCH  26  27
ENDBRANCH  25  26
ENDBRANCH  24  25
ENDBRANCH  23  24
ENDBRANCH  22  23
ENDBRANCH  21  22
ENDBRANCH  20  21
ENDBRANCH  19  20
ENDBRANCH  18  19
ENDBRANCH  17  18
ENDBRANCH   1  17
TORSDOF 26
ENDMDL
MODEL 8
REMARK VINA RESULT:    -3.386      3.326      6.488
REMARK INTER + INTRA:         -12.410
REMARK INTER:                  -6.960
REMARK INTRA:                  -5.451
REMARK UNBOUND:                -3.879
REMARK SMILES CCCCCCCCCCCCCCCCCCCCCCCCCCCC(=O)[O-]
REMARK SMILES IDX 15 1 16 2 17 3 18 4 19 5 20 6 21 7 22 8 23 9 24 10 25 11
REMARK SMILES IDX 26 12 27 13 28 14 29 15 30 16 14 17 13 18 12 19 11 20 10 21
REMARK SMILES IDX 9 22 8 23 7 24 6 25 5 26 4 27 3 28 2 29 1 30
REMARK H PARENT
REMARK Flexibility Score: inf
ROOT
ATOM      1  C   UNL     1      55.925  25.884  50.802  1.00  0.00     0.000 C 
ENDROOT
BRANCH   1   2
ATOM      2  C   UNL     1      57.266  26.135  50.098  1.00  0.00     0.000 C 
BRANCH   2   3
ATOM      3  C   UNL     1      58.042  27.321  50.695  1.00  0.00     0.000 C 
BRANCH   3   4
ATOM      4  C   UNL     1      57.740  28.689  50.051  1.00  0.00     0.000 C 
BRANCH   4   5
ATOM      5  C   UNL     1      58.868  29.262  49.167  1.00  0.00     0.000 C 
BRANCH   5   6
ATOM      6  C   UNL     1      60.284  28.762  49.510  1.00  0.00     0.000 C 
BRANCH   6   7
ATOM      7  C   UNL     1      61.174  29.783  50.245  1.00  0.00     0.000 C 
BRANCH   7   8
ATOM      8  C   UNL     1      60.988  29.784  51.777  1.00  0.00     0.000 C 
BRANCH   8   9
ATOM      9  C   UNL     1      61.712  28.610  52.464  1.00  0.00     0.000 C 
BRANCH   9  10
ATOM     10  C   UNL     1      60.743  27.511  52.929  1.00  0.00     0.000 C 
BRANCH  10  11
ATOM     11  C   UNL     1      61.236  26.098  52.580  1.00  0.00     0.000 C 
BRANCH  11  12
ATOM     12  C   UNL     1      62.073  26.112  51.292  1.00  0.00     0.006 C 
BRANCH  12  13
ATOM     13  C   UNL     1      61.314  25.521  50.096  1.00  0.00     0.053 C 
BRANCH  13  14
ATOM     14  C   UNL     1      61.034  24.060  50.280  1.00  0.00     0.041 C 
ATOM     15  O   UNL     1      61.953  23.215  50.120  1.00  0.00    -0.550 OA
ATOM     16  O   UNL     1      59.751  23.632  50.598  1.00  0.00    -0.550 OA
ENDBRANCH  13  14
ENDBRANCH  12  13
ENDBRANCH  11  12
ENDBRANCH  10  11
ENDBRANCH   9  10
ENDBRANCH   8   9
ENDBRANCH   7   8
ENDBRANCH   6   7
ENDBRANCH   5   6
ENDBRANCH   4   5
ENDBRANCH   3   4
ENDBRANCH   2   3
ENDBRANCH   1   2
BRANCH   1  17
ATOM     17  C   UNL     1      54.764  25.934  49.801  1.00  0.00     0.000 C 
BRANCH  17  18
ATOM     18  C   UNL     1      53.545  26.647  50.400  1.00  0.00     0.000 C 
BRANCH  18  19
ATOM     19  C   UNL     1      53.237  27.943  49.639  1.00  0.00     0.000 C 
BRANCH  19  20
ATOM     20  C   UNL     1      54.039  29.122  50.208  1.00  0.00     0.000 C 
BRANCH  20  21
ATOM     21  C   UNL     1      53.911  29.247  51.738  1.00  0.00     0.000 C 
BRANCH  21  22
ATOM     22  C   UNL     1      55.230  29.539  52.481  1.00  0.00    -0.000 C 
BRANCH  22  23
ATOM     23  C   UNL     1      55.664  28.461  53.495  1.00  0.00    -0.000 C 
BRANCH  23  24
ATOM     24  C   UNL     1      57.082  28.645  54.066  1.00  0.00    -0.000 C 
BRANCH  24  25
ATOM     25  C   UNL     1      57.811  29.857  53.465  1.00  0.00    -0.000 C 
BRANCH  25  26
ATOM     26  C   UNL     1      58.555  30.645  54.553  1.00  0.00    -0.000 C 
BRANCH  26  27
ATOM     27  C   UNL     1      57.705  31.778  55.159  1.00  0.00    -0.000 C 
BRANCH  27  28
ATOM     28  C   UNL     1      56.715  32.436  54.179  1.00  0.00    -0.000 C 
BRANCH  28  29
ATOM     29  C   UNL     1      55.342  32.706  54.811  1.00  0.00    -0.003 C 
ATOM     30  C   UNL     1      54.851  31.493  55.597  1.00  0.00     0.004 C 
ENDBRANCH  28  29
ENDBRANCH  27  28
ENDBRANCH  26  27
ENDBRANCH  25  26
ENDBRANCH  24  25
ENDBRANCH  23  24
ENDBRANCH  22  23
ENDBRANCH  21  22
ENDBRANCH  20  21
ENDBRANCH  19  20
ENDBRANCH  18  19
ENDBRANCH  17  18
ENDBRANCH   1  17
TORSDOF 26
ENDMDL
