MODEL 1
REMARK VINA RESULT:    19.525      0.000      0.000
REMARK INTER + INTRA:          23.260
REMARK INTER:                  23.519
REMARK INTRA:                  -0.260
REMARK UNBOUND:                -0.260
REMARK SMILES O=c1c(O)c(-c2ccc(O)c(O)c2)oc2cc(O)cc(O)c12
REMARK SMILES IDX 5 1 3 2 2 3 1 4 22 5 20 6 19 7 17 8 16 9 15 10 14 11 6 12
REMARK SMILES IDX 7 13 8 14 9 15 13 16 11 17 10 18 12 20 4 22 21 24 18 26
REMARK H PARENT 10 19 12 21 4 23 21 25 18 27
REMARK Flexibility Score: inf
ROOT
ATOM      1  C   UNL     1       8.572   8.219  13.666  1.00  0.00     0.180 A 
ATOM      2  C   UNL     1       8.227   9.106  12.628  1.00  0.00     0.208 A 
ATOM      3  C   UNL     1       6.964   8.989  12.027  1.00  0.00     0.238 A 
ATOM      4  O   UNL     1       6.640   9.785  11.103  1.00  0.00    -0.285 OA
ATOM      5  C   UNL     1       6.078   7.981  12.459  1.00  0.00     0.111 A 
ATOM      6  C   UNL     1       4.789   7.794  11.902  1.00  0.00     0.134 A 
ATOM      7  C   UNL     1       3.969   6.760  12.380  1.00  0.00     0.093 A 
ATOM      8  C   UNL     1       4.413   5.911  13.400  1.00  0.00     0.123 A 
ATOM      9  C   UNL     1       5.684   6.093  13.952  1.00  0.00     0.094 A 
ATOM     10  C   UNL     1       6.515   7.118  13.491  1.00  0.00     0.146 A 
ATOM     11  O   UNL     1       7.716   7.271  14.036  1.00  0.00    -0.452 OA
ENDROOT
BRANCH   1  12
ATOM     12  C   UNL     1       9.877   8.291  14.362  1.00  0.00     0.025 A 
ATOM     13  C   UNL     1       9.947   8.869  15.638  1.00  0.00     0.016 A 
ATOM     14  C   UNL     1      11.170   8.965  16.304  1.00  0.00     0.051 A 
ATOM     15  C   UNL     1      12.346   8.502  15.706  1.00  0.00     0.157 A 
ATOM     16  C   UNL     1      11.060   7.846  13.749  1.00  0.00     0.062 A 
ATOM     17  C   UNL     1      12.292   7.942  14.408  1.00  0.00     0.158 A 
BRANCH  15  18
ATOM     18  O   UNL     1      13.536   8.621  16.428  1.00  0.00    -0.504 OA
ATOM     19  H   UNL     1      13.673   9.270  17.189  1.00  0.00     0.293 HD
ENDBRANCH  15  18
BRANCH  17  20
ATOM     20  O   UNL     1      13.427   7.478  13.739  1.00  0.00    -0.504 OA
ATOM     21  H   UNL     1      13.770   6.529  13.798  1.00  0.00     0.293 HD
ENDBRANCH  17  20
ENDBRANCH   1  12
BRANCH   2  22
ATOM     22  O   UNL     1       9.142  10.065  12.186  1.00  0.00    -0.502 OA
ATOM     23  H   UNL     1       8.852  10.926  11.738  1.00  0.00     0.293 HD
ENDBRANCH   2  22
BRANCH   6  24
ATOM     24  O   UNL     1       4.319   8.623  10.884  1.00  0.00    -0.507 OA
ATOM     25  H   UNL     1       3.390   8.513  10.493  1.00  0.00     0.293 HD
ENDBRANCH   6  24
BRANCH   8  26
ATOM     26  O   UNL     1       3.600   4.885  13.874  1.00  0.00    -0.508 OA
ATOM     27  H   UNL     1       3.268   4.871  14.832  1.00  0.00     0.293 HD
ENDBRANCH   8  26
TORSDOF 6
ENDMDL
MODEL 2
REMARK VINA RESULT:    20.229      1.769      2.415
REMARK INTER + INTRA:          24.108
REMARK INTER:                  23.852
REMARK INTRA:                   0.256
REMARK UNBOUND:                -0.260
REMARK SMILES O=c1c(O)c(-c2ccc(O)c(O)c2)oc2cc(O)cc(O)c12
REMARK SMILES IDX 5 1 3 2 2 3 1 4 22 5 20 6 19 7 17 8 16 9 15 10 14 11 6 12
REMARK SMILES IDX 7 13 8 14 9 15 13 16 11 17 10 18 12 20 4 22 21 24 18 26
REMARK H PARENT 10 19 12 21 4 23 21 25 18 27
REMARK Flexibility Score: inf
ROOT
ATOM      1  C   UNL     1       7.924   7.363  13.738  1.00  0.00     0.180 A 
ATOM      2  C   UNL     1       7.752   6.226  12.925  1.00  0.00     0.208 A 
ATOM      3  C   UNL     1       6.458   5.886  12.500  1.00  0.00     0.238 A 
ATOM      4  O   UNL     1       6.293   4.875  11.762  1.00  0.00    -0.285 OA
ATOM      5  C   UNL     1       5.361   6.673  12.908  1.00  0.00     0.111 A 
ATOM      6  C   UNL     1       4.026   6.395  12.527  1.00  0.00     0.134 A 
ATOM      7  C   UNL     1       2.988   7.221  12.982  1.00  0.00     0.093 A 
ATOM      8  C   UNL     1       3.258   8.315  13.812  1.00  0.00     0.123 A 
ATOM      9  C   UNL     1       4.574   8.593  14.190  1.00  0.00     0.094 A 
ATOM     10  C   UNL     1       5.623   7.783  13.744  1.00  0.00     0.146 A 
ATOM     11  O   UNL     1       6.865   8.072  14.115  1.00  0.00    -0.452 OA
ENDROOT
BRANCH   1  12
ATOM     12  C   UNL     1       9.260   7.797  14.211  1.00  0.00     0.025 A 
ATOM     13  C   UNL     1       9.364   8.536  15.397  1.00  0.00     0.016 A 
ATOM     14  C   UNL     1      10.610   8.971  15.851  1.00  0.00     0.051 A 
ATOM     15  C   UNL     1      11.771   8.693  15.125  1.00  0.00     0.157 A 
ATOM     16  C   UNL     1      10.422   7.534  13.466  1.00  0.00     0.062 A 
ATOM     17  C   UNL     1      11.676   7.970  13.911  1.00  0.00     0.158 A 
BRANCH  15  18
ATOM     18  O   UNL     1      12.988   9.151  15.636  1.00  0.00    -0.504 OA
ATOM     19  H   UNL     1      13.411  10.032  15.383  1.00  0.00     0.293 HD
ENDBRANCH  15  18
BRANCH  17  20
ATOM     20  O   UNL     1      12.788   7.673  13.122  1.00  0.00    -0.504 OA
ATOM     21  H   UNL     1      13.224   6.762  13.080  1.00  0.00     0.293 HD
ENDBRANCH  17  20
ENDBRANCH   1  12
BRANCH   2  22
ATOM     22  O   UNL     1       8.850   5.435  12.575  1.00  0.00    -0.502 OA
ATOM     23  H   UNL     1       9.777   5.599  12.948  1.00  0.00     0.293 HD
ENDBRANCH   2  22
BRANCH   6  24
ATOM     24  O   UNL     1       3.725   5.311  11.701  1.00  0.00    -0.507 OA
ATOM     25  H   UNL     1       4.303   5.073  10.903  1.00  0.00     0.293 HD
ENDBRANCH   6  24
BRANCH   8  26
ATOM     26  O   UNL     1       2.227   9.135  14.265  1.00  0.00    -0.508 OA
ATOM     27  H   UNL     1       2.087  10.066  13.890  1.00  0.00     0.293 HD
ENDBRANCH   8  26
TORSDOF 6
ENDMDL
MODEL 3
REMARK VINA RESULT:    20.568      1.606      1.645
REMARK INTER + INTRA:          24.516
REMARK INTER:                  24.052
REMARK INTRA:                   0.464
REMARK UNBOUND:                -0.260
REMARK SMILES O=c1c(O)c(-c2ccc(O)c(O)c2)oc2cc(O)cc(O)c12
REMARK SMILES IDX 5 1 3 2 2 3 1 4 22 5 20 6 19 7 17 8 16 9 15 10 14 11 6 12
REMARK SMILES IDX 7 13 8 14 9 15 13 16 11 17 10 18 12 20 4 22 21 24 18 26
REMARK H PARENT 10 19 12 21 4 23 21 25 18 27
REMARK Flexibility Score: inf
ROOT
ATOM      1  C   UNL     1       8.794   7.945  13.912  1.00  0.00     0.180 A 
ATOM      2  C   UNL     1       8.643   7.502  12.584  1.00  0.00     0.208 A 
ATOM      3  C   UNL     1       7.349   7.335  12.067  1.00  0.00     0.238 A 
ATOM      4  O   UNL     1       7.201   6.949  10.875  1.00  0.00    -0.285 OA
ATOM      5  C   UNL     1       6.232   7.593  12.889  1.00  0.00     0.111 A 
ATOM      6  C   UNL     1       4.895   7.445  12.447  1.00  0.00     0.134 A 
ATOM      7  C   UNL     1       3.837   7.712  13.328  1.00  0.00     0.093 A 
ATOM      8  C   UNL     1       4.091   8.123  14.642  1.00  0.00     0.123 A 
ATOM      9  C   UNL     1       5.408   8.270  15.083  1.00  0.00     0.094 A 
ATOM     10  C   UNL     1       6.475   8.011  14.218  1.00  0.00     0.146 A 
ATOM     11  O   UNL     1       7.718   8.164  14.662  1.00  0.00    -0.452 OA
ENDROOT
BRANCH   1  12
ATOM     12  C   UNL     1      10.126   8.164  14.522  1.00  0.00     0.025 A 
ATOM     13  C   UNL     1      10.216   8.765  15.785  1.00  0.00     0.016 A 
ATOM     14  C   UNL     1      11.461   8.998  16.370  1.00  0.00     0.051 A 
ATOM     15  C   UNL     1      12.639   8.651  15.702  1.00  0.00     0.157 A 
ATOM     16  C   UNL     1      11.308   7.834  13.837  1.00  0.00     0.062 A 
ATOM     17  C   UNL     1      12.563   8.068  14.415  1.00  0.00     0.158 A 
BRANCH  15  18
ATOM     18  O   UNL     1      13.854   8.904  16.344  1.00  0.00    -0.504 OA
ATOM     19  H   UNL     1      14.388   9.753  16.228  1.00  0.00     0.293 HD
ENDBRANCH  15  18
BRANCH  17  20
ATOM     20  O   UNL     1      13.695   7.714  13.678  1.00  0.00    -0.504 OA
ATOM     21  H   UNL     1      14.643   7.884  13.983  1.00  0.00     0.293 HD
ENDBRANCH  17  20
ENDBRANCH   1  12
BRANCH   2  22
ATOM     22  O   UNL     1       9.766   7.207  11.806  1.00  0.00    -0.502 OA
ATOM     23  H   UNL     1      10.623   6.844  12.206  1.00  0.00     0.293 HD
ENDBRANCH   2  22
BRANCH   6  24
ATOM     24  O   UNL     1       4.611   7.037  11.143  1.00  0.00    -0.507 OA
ATOM     25  H   UNL     1       4.939   6.148  10.779  1.00  0.00     0.293 HD
ENDBRANCH   6  24
BRANCH   8  26
ATOM     26  O   UNL     1       3.041   8.388  15.518  1.00  0.00    -0.508 OA
ATOM     27  H   UNL     1       3.045   9.203  16.120  1.00  0.00     0.293 HD
ENDBRANCH   8  26
TORSDOF 6
ENDMDL
MODEL 4
REMARK VINA RESULT:    21.079      1.269      2.762
REMARK INTER + INTRA:          25.132
REMARK INTER:                  25.420
REMARK INTRA:                  -0.288
REMARK UNBOUND:                -0.260
REMARK SMILES O=c1c(O)c(-c2ccc(O)c(O)c2)oc2cc(O)cc(O)c12
REMARK SMILES IDX 5 1 3 2 2 3 1 4 22 5 20 6 19 7 17 8 16 9 15 10 14 11 6 12
REMARK SMILES IDX 7 13 8 14 9 15 13 16 11 17 10 18 12 20 4 22 21 24 18 26
REMARK H PARENT 10 19 12 21 4 23 21 25 18 27
REMARK Flexibility Score: inf
ROOT
ATOM      1  C   UNL     1       8.412   7.582  13.725  1.00  0.00     0.180 A 
ATOM      2  C   UNL     1       7.870   6.283  13.793  1.00  0.00     0.208 A 
ATOM      3  C   UNL     1       6.611   6.042  13.224  1.00  0.00     0.238 A 
ATOM      4  O   UNL     1       6.121   4.880  13.270  1.00  0.00    -0.285 OA
ATOM      5  C   UNL     1       5.908   7.102  12.614  1.00  0.00     0.111 A 
ATOM      6  C   UNL     1       4.631   6.943  12.021  1.00  0.00     0.134 A 
ATOM      7  C   UNL     1       3.991   8.049  11.443  1.00  0.00     0.093 A 
ATOM      8  C   UNL     1       4.601   9.309  11.448  1.00  0.00     0.123 A 
ATOM      9  C   UNL     1       5.860   9.470  12.032  1.00  0.00     0.094 A 
ATOM     10  C   UNL     1       6.515   8.379  12.611  1.00  0.00     0.146 A 
ATOM     11  O   UNL     1       7.713   8.559  13.156  1.00  0.00    -0.452 OA
ENDROOT
BRANCH   1  12
ATOM     12  C   UNL     1       9.743   7.910  14.285  1.00  0.00     0.025 A 
ATOM     13  C   UNL     1       9.828   8.654  15.470  1.00  0.00     0.016 A 
ATOM     14  C   UNL     1      11.071   8.991  16.006  1.00  0.00     0.051 A 
ATOM     15  C   UNL     1      12.253   8.608  15.363  1.00  0.00     0.157 A 
ATOM     16  C   UNL     1      10.927   7.542  13.624  1.00  0.00     0.062 A 
ATOM     17  C   UNL     1      12.180   7.879  14.152  1.00  0.00     0.158 A 
BRANCH  15  18
ATOM     18  O   UNL     1      13.465   8.970  15.954  1.00  0.00    -0.504 OA
ATOM     19  H   UNL     1      14.371   8.735  15.575  1.00  0.00     0.293 HD
ENDBRANCH  15  18
BRANCH  17  20
ATOM     20  O   UNL     1      13.315   7.480  13.443  1.00  0.00    -0.504 OA
ATOM     21  H   UNL     1      14.225   7.905  13.547  1.00  0.00     0.293 HD
ENDBRANCH  17  20
ENDBRANCH   1  12
BRANCH   2  22
ATOM     22  O   UNL     1       8.567   5.262  14.445  1.00  0.00    -0.502 OA
ATOM     23  H   UNL     1       9.055   5.411  15.321  1.00  0.00     0.293 HD
ENDBRANCH   2  22
BRANCH   6  24
ATOM     24  O   UNL     1       3.998   5.700  12.001  1.00  0.00    -0.507 OA
ATOM     25  H   UNL     1       3.418   5.409  11.221  1.00  0.00     0.293 HD
ENDBRANCH   6  24
BRANCH   8  26
ATOM     26  O   UNL     1       3.966  10.408  10.875  1.00  0.00    -0.508 OA
ATOM     27  H   UNL     1       3.878  10.504   9.870  1.00  0.00     0.293 HD
ENDBRANCH   8  26
TORSDOF 6
ENDMDL
