MODEL 1
REMARK VINA RESULT:    -4.013      0.000      0.000
REMARK INTER + INTRA:         -10.455
REMARK INTER:                  -7.766
REMARK INTRA:                  -2.689
REMARK UNBOUND:                -2.689
REMARK SMILES CCCCCCCCCCCCCCCCCC(=O)[O-]
REMARK SMILES IDX 10 1 11 2 12 3 13 4 14 5 15 6 16 7 17 8 18 9 19 10 20 11
REMARK SMILES IDX 9 12 8 13 7 14 6 15 5 16 4 17 3 18 2 19 1 20
REMARK H PARENT
REMARK Flexibility Score: inf
ROOT
ATOM      1  C   UNL     1     -41.512   9.010   7.739  1.00  0.00     0.000 C 
ENDROOT
BRANCH   1   2
ATOM      2  C   UNL     1     -41.692   9.251   9.248  1.00  0.00     0.000 C 
BRANCH   2   3
ATOM      3  C   UNL     1     -41.595   7.988  10.124  1.00  0.00     0.000 C 
BRANCH   3   4
ATOM      4  C   UNL     1     -41.195   6.737   9.329  1.00  0.00     0.000 C 
BRANCH   4   5
ATOM      5  C   UNL     1     -42.077   5.539   9.712  1.00  0.00     0.000 C 
BRANCH   5   6
ATOM      6  C   UNL     1     -42.762   4.893   8.496  1.00  0.00     0.000 C 
BRANCH   6   7
ATOM      7  C   UNL     1     -43.206   5.928   7.447  1.00  0.00     0.006 C 
BRANCH   7   8
ATOM      8  C   UNL     1     -44.071   5.301   6.346  1.00  0.00     0.053 C 
BRANCH   8   9
ATOM      9  C   UNL     1     -43.717   5.829   4.990  1.00  0.00     0.041 C 
ATOM     10  O   UNL     1     -43.352   5.041   4.078  1.00  0.00    -0.550 OA
ATOM     11  O   UNL     1     -43.820   7.189   4.723  1.00  0.00    -0.550 OA
ENDBRANCH   8   9
ENDBRANCH   7   8
ENDBRANCH   6   7
ENDBRANCH   5   6
ENDBRANCH   4   5
ENDBRANCH   3   4
ENDBRANCH   2   3
ENDBRANCH   1   2
BRANCH   1  12
ATOM     12  C   UNL     1     -42.619   9.656   6.892  1.00  0.00     0.000 C 
BRANCH  12  13
ATOM     13  C   UNL     1     -43.820  10.048   7.766  1.00  0.00    -0.000 C 
BRANCH  13  14
ATOM     14  C   UNL     1     -44.937   8.988   7.761  1.00  0.00    -0.000 C 
BRANCH  14  15
ATOM     15  C   UNL     1     -45.672   8.812   9.104  1.00  0.00    -0.000 C 
BRANCH  15  16
ATOM     16  C   UNL     1     -44.933   7.947  10.142  1.00  0.00    -0.000 C 
BRANCH  16  17
ATOM     17  C   UNL     1     -45.850   6.954  10.889  1.00  0.00    -0.000 C 
BRANCH  17  18
ATOM     18  C   UNL     1     -45.694   5.513  10.380  1.00  0.00    -0.000 C 
BRANCH  18  19
ATOM     19  C   UNL     1     -46.431   5.317   9.050  1.00  0.00    -0.003 C 
ATOM     20  C   UNL     1     -47.761   4.598   9.257  1.00  0.00     0.004 C 
ENDBRANCH  18  19
ENDBRANCH  17  18
ENDBRANCH  16  17
ENDBRANCH  15  16
ENDBRANCH  14  15
ENDBRANCH  13  14
ENDBRANCH  12  13
ENDBRANCH   1  12
TORSDOF 16
ENDMDL
MODEL 2
REMARK VINA RESULT:    -3.977      1.254      3.416
REMARK INTER + INTRA:         -10.385
REMARK INTER:                  -7.891
REMARK INTRA:                  -2.494
REMARK UNBOUND:                -2.689
REMARK SMILES CCCCCCCCCCCCCCCCCC(=O)[O-]
REMARK SMILES IDX 10 1 11 2 12 3 13 4 14 5 15 6 16 7 17 8 18 9 19 10 20 11
REMARK SMILES IDX 9 12 8 13 7 14 6 15 5 16 4 17 3 18 2 19 1 20
REMARK H PARENT
REMARK Flexibility Score: inf
ROOT
ATOM      1  C   UNL     1     -43.183   8.316  10.639  1.00  0.00     0.000 C 
ENDROOT
BRANCH   1   2
ATOM      2  C   UNL     1     -43.777   9.698  10.315  1.00  0.00     0.000 C 
BRANCH   2   3
ATOM      3  C   UNL     1     -45.253   9.685   9.874  1.00  0.00     0.000 C 
BRANCH   3   4
ATOM      4  C   UNL     1     -45.439   9.230   8.419  1.00  0.00     0.000 C 
BRANCH   4   5
ATOM      5  C   UNL     1     -44.388   9.877   7.505  1.00  0.00     0.000 C 
BRANCH   5   6
ATOM      6  C   UNL     1     -43.420   8.852   6.893  1.00  0.00     0.000 C 
BRANCH   6   7
ATOM      7  C   UNL     1     -44.103   7.511   6.572  1.00  0.00     0.006 C 
BRANCH   7   8
ATOM      8  C   UNL     1     -43.754   7.006   5.166  1.00  0.00     0.053 C 
BRANCH   8   9
ATOM      9  C   UNL     1     -43.804   5.511   5.081  1.00  0.00     0.041 C 
ATOM     10  O   UNL     1     -44.476   4.851   5.916  1.00  0.00    -0.550 OA
ATOM     11  O   UNL     1     -43.133   4.849   4.060  1.00  0.00    -0.550 OA
ENDBRANCH   8   9
ENDBRANCH   7   8
ENDBRANCH   6   7
ENDBRANCH   5   6
ENDBRANCH   4   5
ENDBRANCH   3   4
ENDBRANCH   2   3
ENDBRANCH   1   2
BRANCH   1  12
ATOM     12  C   UNL     1     -41.691   8.374  10.999  1.00  0.00     0.000 C 
BRANCH  12  13
ATOM     13  C   UNL     1     -40.967   7.098  10.544  1.00  0.00    -0.000 C 
BRANCH  13  14
ATOM     14  C   UNL     1     -41.546   6.512   9.243  1.00  0.00    -0.000 C 
BRANCH  14  15
ATOM     15  C   UNL     1     -42.141   5.097   9.376  1.00  0.00    -0.000 C 
BRANCH  15  16
ATOM     16  C   UNL     1     -43.673   5.018   9.237  1.00  0.00    -0.000 C 
BRANCH  16  17
ATOM     17  C   UNL     1     -44.421   5.050  10.587  1.00  0.00    -0.000 C 
BRANCH  17  18
ATOM     18  C   UNL     1     -45.757   5.803  10.501  1.00  0.00    -0.000 C 
BRANCH  18  19
ATOM     19  C   UNL     1     -46.369   5.679   9.101  1.00  0.00    -0.003 C 
ATOM     20  C   UNL     1     -47.417   4.572   9.053  1.00  0.00     0.004 C 
ENDBRANCH  18  19
ENDBRANCH  17  18
ENDBRANCH  16  17
ENDBRANCH  15  16
ENDBRANCH  14  15
ENDBRANCH  13  14
ENDBRANCH  12  13
ENDBRANCH   1  12
TORSDOF 16
ENDMDL
MODEL 3
REMARK VINA RESULT:    -3.944      1.252      3.211
REMARK INTER + INTRA:         -10.321
REMARK INTER:                  -7.659
REMARK INTRA:                  -2.662
REMARK UNBOUND:                -2.689
REMARK SMILES CCCCCCCCCCCCCCCCCC(=O)[O-]
REMARK SMILES IDX 10 1 11 2 12 3 13 4 14 5 15 6 16 7 17 8 18 9 19 10 20 11
REMARK SMILES IDX 9 12 8 13 7 14 6 15 5 16 4 17 3 18 2 19 1 20
REMARK H PARENT
REMARK Flexibility Score: inf
ROOT
ATOM      1  C   UNL     1     -41.499   7.601   8.824  1.00  0.00     0.000 C 
ENDROOT
BRANCH   1   2
ATOM      2  C   UNL     1     -41.647   8.296  10.189  1.00  0.00     0.000 C 
BRANCH   2   3
ATOM      3  C   UNL     1     -43.027   8.930  10.450  1.00  0.00     0.000 C 
BRANCH   3   4
ATOM      4  C   UNL     1     -43.637   9.573   9.197  1.00  0.00     0.000 C 
BRANCH   4   5
ATOM      5  C   UNL     1     -45.156   9.350   9.152  1.00  0.00     0.000 C 
BRANCH   5   6
ATOM      6  C   UNL     1     -45.610   8.610   7.883  1.00  0.00     0.000 C 
BRANCH   6   7
ATOM      7  C   UNL     1     -44.429   8.100   7.040  1.00  0.00     0.006 C 
BRANCH   7   8
ATOM      8  C   UNL     1     -44.712   6.726   6.418  1.00  0.00     0.053 C 
BRANCH   8   9
ATOM      9  C   UNL     1     -43.969   6.531   5.132  1.00  0.00     0.041 C 
ATOM     10  O   UNL     1     -43.627   7.526   4.440  1.00  0.00    -0.550 OA
ATOM     11  O   UNL     1     -43.626   5.251   4.713  1.00  0.00    -0.550 OA
ENDBRANCH   8   9
ENDBRANCH   7   8
ENDBRANCH   6   7
ENDBRANCH   5   6
ENDBRANCH   4   5
ENDBRANCH   3   4
ENDBRANCH   2   3
ENDBRANCH   1   2
BRANCH   1  12
ATOM     12  C   UNL     1     -41.615   6.072   8.913  1.00  0.00     0.000 C 
BRANCH  12  13
ATOM     13  C   UNL     1     -41.443   5.592  10.362  1.00  0.00    -0.000 C 
BRANCH  13  14
ATOM     14  C   UNL     1     -42.552   4.619  10.807  1.00  0.00    -0.000 C 
BRANCH  14  15
ATOM     15  C   UNL     1     -43.939   4.891  10.194  1.00  0.00    -0.000 C 
BRANCH  15  16
ATOM     16  C   UNL     1     -44.858   5.796  11.036  1.00  0.00    -0.000 C 
BRANCH  16  17
ATOM     17  C   UNL     1     -46.236   6.056  10.391  1.00  0.00    -0.000 C 
BRANCH  17  18
ATOM     18  C   UNL     1     -46.464   5.207   9.131  1.00  0.00    -0.000 C 
BRANCH  18  19
ATOM     19  C   UNL     1     -47.783   4.431   9.223  1.00  0.00    -0.003 C 
ATOM     20  C   UNL     1     -48.119   3.754   7.897  1.00  0.00     0.004 C 
ENDBRANCH  18  19
ENDBRANCH  17  18
ENDBRANCH  16  17
ENDBRANCH  15  16
ENDBRANCH  14  15
ENDBRANCH  13  14
ENDBRANCH  12  13
ENDBRANCH   1  12
TORSDOF 16
ENDMDL
MODEL 4
REMARK VINA RESULT:    -3.865      2.088      4.208
REMARK INTER + INTRA:         -10.169
REMARK INTER:                  -7.804
REMARK INTRA:                  -2.365
REMARK UNBOUND:                -2.689
REMARK SMILES CCCCCCCCCCCCCCCCCC(=O)[O-]
REMARK SMILES IDX 10 1 11 2 12 3 13 4 14 5 15 6 16 7 17 8 18 9 19 10 20 11
REMARK SMILES IDX 9 12 8 13 7 14 6 15 5 16 4 17 3 18 2 19 1 20
REMARK H PARENT
REMARK Flexibility Score: inf
ROOT
ATOM      1  C   UNL     1     -43.333   8.185   6.012  1.00  0.00     0.000 C 
ENDROOT
BRANCH   1   2
ATOM      2  C   UNL     1     -42.299   9.292   5.745  1.00  0.00     0.000 C 
BRANCH   2   3
ATOM      3  C   UNL     1     -41.425   9.671   6.956  1.00  0.00     0.000 C 
BRANCH   3   4
ATOM      4  C   UNL     1     -41.730   8.827   8.202  1.00  0.00     0.000 C 
BRANCH   4   5
ATOM      5  C   UNL     1     -41.596   9.669   9.479  1.00  0.00     0.000 C 
BRANCH   5   6
ATOM      6  C   UNL     1     -41.616   8.816  10.758  1.00  0.00     0.000 C 
BRANCH   6   7
ATOM      7  C   UNL     1     -41.032   7.409  10.541  1.00  0.00     0.006 C 
BRANCH   7   8
ATOM      8  C   UNL     1     -42.019   6.305  10.941  1.00  0.00     0.053 C 
BRANCH   8   9
ATOM      9  C   UNL     1     -42.152   5.262   9.874  1.00  0.00     0.041 C 
ATOM     10  O   UNL     1     -43.103   4.438   9.909  1.00  0.00    -0.550 OA
ATOM     11  O   UNL     1     -41.242   5.219   8.825  1.00  0.00    -0.550 OA
ENDBRANCH   8   9
ENDBRANCH   7   8
ENDBRANCH   6   7
ENDBRANCH   5   6
ENDBRANCH   4   5
ENDBRANCH   3   4
ENDBRANCH   2   3
ENDBRANCH   1   2
BRANCH   1  12
ATOM     12  C   UNL     1     -43.670   7.363   4.757  1.00  0.00     0.000 C 
BRANCH  12  13
ATOM     13  C   UNL     1     -43.790   5.870   5.095  1.00  0.00    -0.000 C 
BRANCH  13  14
ATOM     14  C   UNL     1     -43.991   5.610   6.600  1.00  0.00    -0.000 C 
BRANCH  14  15
ATOM     15  C   UNL     1     -45.460   5.508   7.052  1.00  0.00    -0.000 C 
BRANCH  15  16
ATOM     16  C   UNL     1     -45.726   5.931   8.509  1.00  0.00    -0.000 C 
BRANCH  16  17
ATOM     17  C   UNL     1     -45.151   7.319   8.867  1.00  0.00    -0.000 C 
BRANCH  17  18
ATOM     18  C   UNL     1     -45.778   8.448   8.036  1.00  0.00    -0.000 C 
BRANCH  18  19
ATOM     19  C   UNL     1     -45.463   9.819   8.644  1.00  0.00    -0.003 C 
ATOM     20  C   UNL     1     -45.193   9.709  10.142  1.00  0.00     0.004 C 
ENDBRANCH  18  19
ENDBRANCH  17  18
ENDBRANCH  16  17
ENDBRANCH  15  16
ENDBRANCH  14  15
ENDBRANCH  13  14
ENDBRANCH  12  13
ENDBRANCH   1  12
TORSDOF 16
ENDMDL
MODEL 5
REMARK VINA RESULT:    -3.828      2.385      4.735
REMARK INTER + INTRA:         -10.097
REMARK INTER:                  -7.564
REMARK INTRA:                  -2.533
REMARK UNBOUND:                -2.689
REMARK SMILES CCCCCCCCCCCCCCCCCC(=O)[O-]
REMARK SMILES IDX 10 1 11 2 12 3 13 4 14 5 15 6 16 7 17 8 18 9 19 10 20 11
REMARK SMILES IDX 9 12 8 13 7 14 6 15 5 16 4 17 3 18 2 19 1 20
REMARK H PARENT
REMARK Flexibility Score: inf
ROOT
ATOM      1  C   UNL     1     -43.823   5.662   6.752  1.00  0.00     0.000 C 
ENDROOT
BRANCH   1   2
ATOM      2  C   UNL     1     -44.437   7.000   6.302  1.00  0.00     0.000 C 
BRANCH   2   3
ATOM      3  C   UNL     1     -43.499   8.216   6.413  1.00  0.00     0.000 C 
BRANCH   3   4
ATOM      4  C   UNL     1     -44.150   9.411   7.125  1.00  0.00     0.000 C 
BRANCH   4   5
ATOM      5  C   UNL     1     -45.386   8.968   7.920  1.00  0.00     0.000 C 
BRANCH   5   6
ATOM      6  C   UNL     1     -45.107   8.831   9.426  1.00  0.00     0.000 C 
BRANCH   6   7
ATOM      7  C   UNL     1     -43.996   9.777   9.911  1.00  0.00     0.006 C 
BRANCH   7   8
ATOM      8  C   UNL     1     -43.011   9.077  10.856  1.00  0.00     0.053 C 
BRANCH   8   9
ATOM      9  C   UNL     1     -41.813   8.552  10.124  1.00  0.00     0.041 C 
ATOM     10  O   UNL     1     -41.398   9.133   9.088  1.00  0.00    -0.550 OA
ATOM     11  O   UNL     1     -41.138   7.436  10.604  1.00  0.00    -0.550 OA
ENDBRANCH   8   9
ENDBRANCH   7   8
ENDBRANCH   6   7
ENDBRANCH   5   6
ENDBRANCH   4   5
ENDBRANCH   3   4
ENDBRANCH   2   3
ENDBRANCH   1   2
BRANCH   1  12
ATOM     12  C   UNL     1     -43.029   5.776   8.062  1.00  0.00     0.000 C 
BRANCH  12  13
ATOM     13  C   UNL     1     -43.554   4.782   9.109  1.00  0.00    -0.000 C 
BRANCH  13  14
ATOM     14  C   UNL     1     -44.118   5.475  10.364  1.00  0.00    -0.000 C 
BRANCH  14  15
ATOM     15  C   UNL     1     -45.642   5.341  10.550  1.00  0.00    -0.000 C 
BRANCH  15  16
ATOM     16  C   UNL     1     -46.473   5.515   9.264  1.00  0.00    -0.000 C 
BRANCH  16  17
ATOM     17  C   UNL     1     -47.572   4.445   9.085  1.00  0.00    -0.000 C 
BRANCH  17  18
ATOM     18  C   UNL     1     -47.551   3.810   7.687  1.00  0.00    -0.000 C 
BRANCH  18  19
ATOM     19  C   UNL     1     -48.874   3.095   7.389  1.00  0.00    -0.003 C 
ATOM     20  C   UNL     1     -48.765   1.597   7.655  1.00  0.00     0.004 C 
ENDBRANCH  18  19
ENDBRANCH  17  18
ENDBRANCH  16  17
ENDBRANCH  15  16
ENDBRANCH  14  15
ENDBRANCH  13  14
ENDBRANCH  12  13
ENDBRANCH   1  12
TORSDOF 16
ENDMDL
MODEL 6
REMARK VINA RESULT:    -3.802      1.251      2.455
REMARK INTER + INTRA:         -10.046
REMARK INTER:                  -8.002
REMARK INTRA:                  -2.044
REMARK UNBOUND:                -2.689
REMARK SMILES CCCCCCCCCCCCCCCCCC(=O)[O-]
REMARK SMILES IDX 10 1 11 2 12 3 13 4 14 5 15 6 16 7 17 8 18 9 19 10 20 11
REMARK SMILES IDX 9 12 8 13 7 14 6 15 5 16 4 17 3 18 2 19 1 20
REMARK H PARENT
REMARK Flexibility Score: inf
ROOT
ATOM      1  C   UNL     1     -43.659   9.205   7.649  1.00  0.00     0.000 C 
ENDROOT
BRANCH   1   2
ATOM      2  C   UNL     1     -42.214   8.736   7.896  1.00  0.00     0.000 C 
BRANCH   2   3
ATOM      3  C   UNL     1     -41.934   8.212   9.317  1.00  0.00     0.000 C 
BRANCH   3   4
ATOM      4  C   UNL     1     -41.405   6.771   9.331  1.00  0.00     0.000 C 
BRANCH   4   5
ATOM      5  C   UNL     1     -42.460   5.806   9.891  1.00  0.00     0.000 C 
BRANCH   5   6
ATOM      6  C   UNL     1     -43.075   4.903   8.808  1.00  0.00     0.000 C 
BRANCH   6   7
ATOM      7  C   UNL     1     -42.786   5.407   7.383  1.00  0.00     0.006 C 
BRANCH   7   8
ATOM      8  C   UNL     1     -44.065   5.538   6.546  1.00  0.00     0.053 C 
BRANCH   8   9
ATOM      9  C   UNL     1     -43.767   5.913   5.127  1.00  0.00     0.041 C 
ATOM     10  O   UNL     1     -43.840   7.115   4.760  1.00  0.00    -0.550 OA
ATOM     11  O   UNL     1     -43.379   4.938   4.215  1.00  0.00    -0.550 OA
ENDBRANCH   8   9
ENDBRANCH   7   8
ENDBRANCH   6   7
ENDBRANCH   5   6
ENDBRANCH   4   5
ENDBRANCH   3   4
ENDBRANCH   2   3
ENDBRANCH   1   2
BRANCH   1  12
ATOM     12  C   UNL     1     -44.498   9.267   8.935  1.00  0.00     0.000 C 
BRANCH  12  13
ATOM     13  C   UNL     1     -45.468   8.079   9.015  1.00  0.00    -0.000 C 
BRANCH  13  14
ATOM     14  C   UNL     1     -45.483   7.410  10.402  1.00  0.00    -0.000 C 
BRANCH  14  15
ATOM     15  C   UNL     1     -46.218   6.057  10.463  1.00  0.00    -0.000 C 
BRANCH  15  16
ATOM     16  C   UNL     1     -46.289   5.293   9.127  1.00  0.00    -0.000 C 
BRANCH  16  17
ATOM     17  C   UNL     1     -47.578   4.461   8.954  1.00  0.00    -0.000 C 
BRANCH  17  18
ATOM     18  C   UNL     1     -47.668   3.798   7.571  1.00  0.00    -0.000 C 
BRANCH  18  19
ATOM     19  C   UNL     1     -49.023   3.106   7.381  1.00  0.00    -0.003 C 
ATOM     20  C   UNL     1     -48.877   1.587   7.423  1.00  0.00     0.004 C 
ENDBRANCH  18  19
ENDBRANCH  17  18
ENDBRANCH  16  17
ENDBRANCH  15  16
ENDBRANCH  14  15
ENDBRANCH  13  14
ENDBRANCH  12  13
ENDBRANCH   1  12
TORSDOF 16
ENDMDL
MODEL 7
REMARK VINA RESULT:    -3.797      1.324      3.680
REMARK INTER + INTRA:         -10.038
REMARK INTER:                  -7.685
REMARK INTRA:                  -2.353
REMARK UNBOUND:                -2.689
REMARK SMILES CCCCCCCCCCCCCCCCCC(=O)[O-]
REMARK SMILES IDX 10 1 11 2 12 3 13 4 14 5 15 6 16 7 17 8 18 9 19 10 20 11
REMARK SMILES IDX 9 12 8 13 7 14 6 15 5 16 4 17 3 18 2 19 1 20
REMARK H PARENT
REMARK Flexibility Score: inf
ROOT
ATOM      1  C   UNL     1     -41.979   7.668   8.735  1.00  0.00     0.000 C 
ENDROOT
BRANCH   1   2
ATOM      2  C   UNL     1     -41.973   9.162   9.103  1.00  0.00     0.000 C 
BRANCH   2   3
ATOM      3  C   UNL     1     -41.068  10.045   8.224  1.00  0.00     0.000 C 
BRANCH   3   4
ATOM      4  C   UNL     1     -41.227   9.762   6.724  1.00  0.00     0.000 C 
BRANCH   4   5
ATOM      5  C   UNL     1     -42.642  10.122   6.246  1.00  0.00     0.000 C 
BRANCH   5   6
ATOM      6  C   UNL     1     -43.122   9.232   5.088  1.00  0.00     0.000 C 
BRANCH   6   7
ATOM      7  C   UNL     1     -43.586   7.843   5.562  1.00  0.00     0.006 C 
BRANCH   7   8
ATOM      8  C   UNL     1     -43.687   6.841   4.404  1.00  0.00     0.053 C 
BRANCH   8   9
ATOM      9  C   UNL     1     -43.652   5.424   4.888  1.00  0.00     0.041 C 
ATOM     10  O   UNL     1     -44.396   5.059   5.835  1.00  0.00    -0.550 OA
ATOM     11  O   UNL     1     -42.817   4.499   4.273  1.00  0.00    -0.550 OA
ENDBRANCH   8   9
ENDBRANCH   7   8
ENDBRANCH   6   7
ENDBRANCH   5   6
ENDBRANCH   4   5
ENDBRANCH   3   4
ENDBRANCH   2   3
ENDBRANCH   1   2
BRANCH   1  12
ATOM     12  C   UNL     1     -41.245   6.794   9.764  1.00  0.00     0.000 C 
BRANCH  12  13
ATOM     13  C   UNL     1     -41.459   5.302   9.468  1.00  0.00    -0.000 C 
BRANCH  13  14
ATOM     14  C   UNL     1     -42.899   4.979   9.027  1.00  0.00    -0.000 C 
BRANCH  14  15
ATOM     15  C   UNL     1     -43.921   4.867  10.175  1.00  0.00    -0.000 C 
BRANCH  15  16
ATOM     16  C   UNL     1     -44.989   5.976  10.207  1.00  0.00    -0.000 C 
BRANCH  16  17
ATOM     17  C   UNL     1     -45.803   6.094   8.901  1.00  0.00    -0.000 C 
BRANCH  17  18
ATOM     18  C   UNL     1     -45.586   7.439   8.192  1.00  0.00    -0.000 C 
BRANCH  18  19
ATOM     19  C   UNL     1     -45.487   8.585   9.206  1.00  0.00    -0.003 C 
ATOM     20  C   UNL     1     -45.604   9.942   8.518  1.00  0.00     0.004 C 
ENDBRANCH  18  19
ENDBRANCH  17  18
ENDBRANCH  16  17
ENDBRANCH  15  16
ENDBRANCH  14  15
ENDBRANCH  13  14
ENDBRANCH  12  13
ENDBRANCH   1  12
TORSDOF 16
ENDMDL
MODEL 8
REMARK VINA RESULT:    -3.672      2.316      4.104
REMARK INTER + INTRA:          -9.795
REMARK INTER:                  -7.484
REMARK INTRA:                  -2.311
REMARK UNBOUND:                -2.689
REMARK SMILES CCCCCCCCCCCCCCCCCC(=O)[O-]
REMARK SMILES IDX 10 1 11 2 12 3 13 4 14 5 15 6 16 7 17 8 18 9 19 10 20 11
REMARK SMILES IDX 9 12 8 13 7 14 6 15 5 16 4 17 3 18 2 19 1 20
REMARK H PARENT
REMARK Flexibility Score: inf
ROOT
ATOM      1  C   UNL     1     -44.085   9.774  10.420  1.00  0.00     0.000 C 
ENDROOT
BRANCH   1   2
ATOM      2  C   UNL     1     -42.958   8.832  10.878  1.00  0.00     0.000 C 
BRANCH   2   3
ATOM      3  C   UNL     1     -41.739   8.771   9.938  1.00  0.00     0.000 C 
BRANCH   3   4
ATOM      4  C   UNL     1     -41.525   7.381   9.323  1.00  0.00     0.000 C 
BRANCH   4   5
ATOM      5  C   UNL     1     -41.389   6.312  10.417  1.00  0.00     0.000 C 
BRANCH   5   6
ATOM      6  C   UNL     1     -42.227   5.056  10.129  1.00  0.00     0.000 C 
BRANCH   6   7
ATOM      7  C   UNL     1     -43.696   5.212  10.559  1.00  0.00     0.006 C 
BRANCH   7   8
ATOM      8  C   UNL     1     -44.638   5.358   9.356  1.00  0.00     0.053 C 
BRANCH   8   9
ATOM      9  C   UNL     1     -46.072   5.448   9.779  1.00  0.00     0.041 C 
ATOM     10  O   UNL     1     -46.383   6.040  10.845  1.00  0.00    -0.550 OA
ATOM     11  O   UNL     1     -47.069   4.903   8.979  1.00  0.00    -0.550 OA
ENDBRANCH   8   9
ENDBRANCH   7   8
ENDBRANCH   6   7
ENDBRANCH   5   6
ENDBRANCH   4   5
ENDBRANCH   3   4
ENDBRANCH   2   3
ENDBRANCH   1   2
BRANCH   1  12
ATOM     12  C   UNL     1     -45.267   9.029   9.781  1.00  0.00     0.000 C 
BRANCH  12  13
ATOM     13  C   UNL     1     -45.035   8.818   8.277  1.00  0.00    -0.000 C 
BRANCH  13  14
ATOM     14  C   UNL     1     -44.603  10.106   7.551  1.00  0.00    -0.000 C 
BRANCH  14  15
ATOM     15  C   UNL     1     -43.483   9.919   6.509  1.00  0.00    -0.000 C 
BRANCH  15  16
ATOM     16  C   UNL     1     -42.972   8.474   6.354  1.00  0.00    -0.000 C 
BRANCH  16  17
ATOM     17  C   UNL     1     -43.681   7.681   5.235  1.00  0.00    -0.000 C 
BRANCH  17  18
ATOM     18  C   UNL     1     -44.608   6.588   5.787  1.00  0.00    -0.000 C 
BRANCH  18  19
ATOM     19  C   UNL     1     -43.941   5.210   5.710  1.00  0.00    -0.003 C 
ATOM     20  C   UNL     1     -43.263   5.000   4.359  1.00  0.00     0.004 C 
ENDBRANCH  18  19
ENDBRANCH  17  18
ENDBRANCH  16  17
ENDBRANCH  15  16
ENDBRANCH  14  15
ENDBRANCH  13  14
ENDBRANCH  12  13
ENDBRANCH   1  12
TORSDOF 16
ENDMDL
