MODEL 1
REMARK VINA RESULT:    -3.769      0.000      0.000
REMARK INTER + INTRA:          -4.144
REMARK INTER:                  -4.100
REMARK INTRA:                  -0.044
REMARK UNBOUND:                -0.044
REMARK SMILES COc1cc2ccc(=O)oc2cc1O
REMARK SMILES IDX 3 1 13 2 12 3 11 4 5 5 4 6 6 7 7 8 8 9 9 10 10 11 2 12 1 13
REMARK SMILES IDX 14 14
REMARK H PARENT 14 15
REMARK Flexibility Score: inf
ROOT
ATOM      1  C   UNL     1       3.273   9.539  12.136  1.00  0.00     0.161 A 
ATOM      2  C   UNL     1       4.358  10.109  11.440  1.00  0.00     0.161 A 
ATOM      3  C   UNL     1       5.557   9.403  11.305  1.00  0.00     0.098 A 
ATOM      4  C   UNL     1       5.694   8.128  11.857  1.00  0.00     0.142 A 
ATOM      5  C   UNL     1       4.615   7.547  12.554  1.00  0.00     0.022 A 
ATOM      6  C   UNL     1       3.411   8.250  12.693  1.00  0.00     0.062 A 
ATOM      7  C   UNL     1       4.783   6.268  13.095  1.00  0.00     0.019 A 
ATOM      8  C   UNL     1       6.000   5.609  12.931  1.00  0.00     0.094 A 
ATOM      9  C   UNL     1       7.026   6.247  12.226  1.00  0.00     0.336 A 
ATOM     10  O   UNL     1       8.132   5.668  12.067  1.00  0.00    -0.246 OA
ATOM     11  O   UNL     1       6.840   7.464  11.721  1.00  0.00    -0.423 OA
ENDROOT
BRANCH   1  12
ATOM     12  O   UNL     1       2.083  10.274  12.254  1.00  0.00    -0.493 OA
ATOM     13  C   UNL     1       1.806  11.202  13.298  1.00  0.00     0.278 C 
ENDBRANCH   1  12
BRANCH   2  14
ATOM     14  O   UNL     1       4.260  11.381  10.876  1.00  0.00    -0.504 OA
ATOM     15  H   UNL     1       3.827  11.541   9.974  1.00  0.00     0.293 HD
ENDBRANCH   2  14
TORSDOF 2
ENDMDL
MODEL 2
REMARK VINA RESULT:    -3.660      1.238      4.860
REMARK INTER + INTRA:          -4.025
REMARK INTER:                  -4.021
REMARK INTRA:                  -0.004
REMARK UNBOUND:                -0.044
REMARK SMILES COc1cc2ccc(=O)oc2cc1O
REMARK SMILES IDX 3 1 13 2 12 3 11 4 5 5 4 6 6 7 7 8 8 9 9 10 10 11 2 12 1 13
REMARK SMILES IDX 14 14
REMARK H PARENT 14 15
REMARK Flexibility Score: inf
ROOT
ATOM      1  C   UNL     1       5.615   6.465  12.602  1.00  0.00     0.161 A 
ATOM      2  C   UNL     1       6.616   7.141  11.877  1.00  0.00     0.161 A 
ATOM      3  C   UNL     1       6.385   8.432  11.392  1.00  0.00     0.098 A 
ATOM      4  C   UNL     1       5.161   9.065  11.619  1.00  0.00     0.142 A 
ATOM      5  C   UNL     1       4.152   8.398  12.344  1.00  0.00     0.022 A 
ATOM      6  C   UNL     1       4.379   7.104  12.833  1.00  0.00     0.062 A 
ATOM      7  C   UNL     1       2.937   9.059  12.557  1.00  0.00     0.019 A 
ATOM      8  C   UNL     1       2.759  10.345  12.050  1.00  0.00     0.094 A 
ATOM      9  C   UNL     1       3.805  10.944  11.340  1.00  0.00     0.336 A 
ATOM     10  O   UNL     1       3.664  12.106  10.876  1.00  0.00    -0.246 OA
ATOM     11  O   UNL     1       4.951  10.295  11.154  1.00  0.00    -0.423 OA
ENDROOT
BRANCH   1  12
ATOM     12  O   UNL     1       5.880   5.170  13.075  1.00  0.00    -0.493 OA
ATOM     13  C   UNL     1       6.618   4.876  14.257  1.00  0.00     0.278 C 
ENDBRANCH   1  12
BRANCH   2  14
ATOM     14  O   UNL     1       7.851   6.542  11.628  1.00  0.00    -0.504 OA
ATOM     15  H   UNL     1       8.561   6.447  12.346  1.00  0.00     0.293 HD
ENDBRANCH   2  14
TORSDOF 2
ENDMDL
MODEL 3
REMARK VINA RESULT:    -3.620      1.277      2.327
REMARK INTER + INTRA:          -3.981
REMARK INTER:                  -3.917
REMARK INTRA:                  -0.065
REMARK UNBOUND:                -0.044
REMARK SMILES COc1cc2ccc(=O)oc2cc1O
REMARK SMILES IDX 3 1 13 2 12 3 11 4 5 5 4 6 6 7 7 8 8 9 9 10 10 11 2 12 1 13
REMARK SMILES IDX 14 14
REMARK H PARENT 14 15
REMARK Flexibility Score: inf
ROOT
ATOM      1  C   UNL     1       4.016  10.007  11.522  1.00  0.00     0.161 A 
ATOM      2  C   UNL     1       3.184   9.431  12.503  1.00  0.00     0.161 A 
ATOM      3  C   UNL     1       3.579   8.265  13.166  1.00  0.00     0.098 A 
ATOM      4  C   UNL     1       4.801   7.660  12.866  1.00  0.00     0.142 A 
ATOM      5  C   UNL     1       5.642   8.227  11.887  1.00  0.00     0.022 A 
ATOM      6  C   UNL     1       5.250   9.395  11.219  1.00  0.00     0.062 A 
ATOM      7  C   UNL     1       6.860   7.597  11.608  1.00  0.00     0.019 A 
ATOM      8  C   UNL     1       7.204   6.437  12.299  1.00  0.00     0.094 A 
ATOM      9  C   UNL     1       6.319   5.931  13.257  1.00  0.00     0.336 A 
ATOM     10  O   UNL     1       6.613   4.885  13.893  1.00  0.00    -0.246 OA
ATOM     11  O   UNL     1       5.168   6.550  13.504  1.00  0.00    -0.423 OA
ENDROOT
BRANCH   1  12
ATOM     12  O   UNL     1       3.589  11.178  10.875  1.00  0.00    -0.493 OA
ATOM     13  C   UNL     1       3.980  12.496  11.247  1.00  0.00     0.278 C 
ENDBRANCH   1  12
BRANCH   2  14
ATOM     14  O   UNL     1       1.956  10.007  12.830  1.00  0.00    -0.504 OA
ATOM     15  H   UNL     1       1.551   9.927  13.756  1.00  0.00     0.293 HD
ENDBRANCH   2  14
TORSDOF 2
ENDMDL
MODEL 4
REMARK VINA RESULT:    -3.553      1.272      5.407
REMARK INTER + INTRA:          -3.909
REMARK INTER:                  -4.212
REMARK INTRA:                   0.303
REMARK UNBOUND:                -0.044
REMARK SMILES COc1cc2ccc(=O)oc2cc1O
REMARK SMILES IDX 3 1 13 2 12 3 11 4 5 5 4 6 6 7 7 8 8 9 9 10 10 11 2 12 1 13
REMARK SMILES IDX 14 14
REMARK H PARENT 14 15
REMARK Flexibility Score: inf
ROOT
ATOM      1  C   UNL     1       6.747   6.965  12.343  1.00  0.00     0.161 A 
ATOM      2  C   UNL     1       5.680   6.476  13.122  1.00  0.00     0.161 A 
ATOM      3  C   UNL     1       4.458   7.155  13.149  1.00  0.00     0.098 A 
ATOM      4  C   UNL     1       4.281   8.324  12.405  1.00  0.00     0.142 A 
ATOM      5  C   UNL     1       5.343   8.822  11.622  1.00  0.00     0.022 A 
ATOM      6  C   UNL     1       6.569   8.145  11.592  1.00  0.00     0.062 A 
ATOM      7  C   UNL     1       5.135   9.995  10.887  1.00  0.00     0.019 A 
ATOM      8  C   UNL     1       3.897  10.632  10.951  1.00  0.00     0.094 A 
ATOM      9  C   UNL     1       2.890  10.080  11.750  1.00  0.00     0.336 A 
ATOM     10  O   UNL     1       1.765  10.640  11.819  1.00  0.00    -0.246 OA
ATOM     11  O   UNL     1       3.114   8.963  12.437  1.00  0.00    -0.423 OA
ENDROOT
BRANCH   1  12
ATOM     12  O   UNL     1       7.961   6.259  12.339  1.00  0.00    -0.493 OA
ATOM     13  C   UNL     1       8.090   4.875  12.029  1.00  0.00     0.278 C 
ENDBRANCH   1  12
BRANCH   2  14
ATOM     14  O   UNL     1       5.818   5.312  13.879  1.00  0.00    -0.504 OA
ATOM     15  H   UNL     1       6.642   4.725  13.822  1.00  0.00     0.293 HD
ENDBRANCH   2  14
TORSDOF 2
ENDMDL
MODEL 5
REMARK VINA RESULT:    -2.829      3.715      7.235
REMARK INTER + INTRA:          -3.121
REMARK INTER:                  -3.077
REMARK INTRA:                  -0.044
REMARK UNBOUND:                -0.044
REMARK SMILES COc1cc2ccc(=O)oc2cc1O
REMARK SMILES IDX 3 1 13 2 12 3 11 4 5 5 4 6 6 7 7 8 8 9 9 10 10 11 2 12 1 13
REMARK SMILES IDX 14 14
REMARK H PARENT 14 15
REMARK Flexibility Score: inf
ROOT
ATOM      1  C   UNL     1       2.843  11.054  10.936  1.00  0.00     0.161 A 
ATOM      2  C   UNL     1       1.486  11.434  10.938  1.00  0.00     0.161 A 
ATOM      3  C   UNL     1       1.135  12.788  10.926  1.00  0.00     0.098 A 
ATOM      4  C   UNL     1       2.122  13.776  10.912  1.00  0.00     0.142 A 
ATOM      5  C   UNL     1       3.482  13.406  10.909  1.00  0.00     0.022 A 
ATOM      6  C   UNL     1       3.840  12.051  10.922  1.00  0.00     0.062 A 
ATOM      7  C   UNL     1       4.448  14.418  10.895  1.00  0.00     0.019 A 
ATOM      8  C   UNL     1       4.042  15.752  10.883  1.00  0.00     0.094 A 
ATOM      9  C   UNL     1       2.674  16.043  10.886  1.00  0.00     0.336 A 
ATOM     10  O   UNL     1       2.287  17.241  10.875  1.00  0.00    -0.246 OA
ATOM     11  O   UNL     1       1.776  15.061  10.899  1.00  0.00    -0.423 OA
ENDROOT
BRANCH   1  12
ATOM     12  O   UNL     1       3.162   9.686  10.949  1.00  0.00    -0.493 OA
ATOM     13  C   UNL     1       4.427   9.154  11.326  1.00  0.00     0.278 C 
ENDBRANCH   1  12
BRANCH   2  14
ATOM     14  O   UNL     1       0.471  10.477  10.953  1.00  0.00    -0.504 OA
ATOM     15  H   UNL     1      -0.177  10.388  11.727  1.00  0.00     0.293 HD
ENDBRANCH   2  14
TORSDOF 2
ENDMDL
MODEL 6
REMARK VINA RESULT:    -2.618      4.771      6.759
REMARK INTER + INTRA:          -2.892
REMARK INTER:                  -3.040
REMARK INTRA:                   0.148
REMARK UNBOUND:                -0.044
REMARK SMILES COc1cc2ccc(=O)oc2cc1O
REMARK SMILES IDX 3 1 13 2 12 3 11 4 5 5 4 6 6 7 7 8 8 9 9 10 10 11 2 12 1 13
REMARK SMILES IDX 14 14
REMARK H PARENT 14 15
REMARK Flexibility Score: inf
ROOT
ATOM      1  C   UNL     1       3.978  15.472  11.746  1.00  0.00     0.161 A 
ATOM      2  C   UNL     1       2.738  15.818  11.173  1.00  0.00     0.161 A 
ATOM      3  C   UNL     1       1.791  14.827  10.892  1.00  0.00     0.098 A 
ATOM      4  C   UNL     1       2.063  13.487  11.175  1.00  0.00     0.142 A 
ATOM      5  C   UNL     1       3.301  13.130  11.749  1.00  0.00     0.022 A 
ATOM      6  C   UNL     1       4.253  14.119  12.032  1.00  0.00     0.062 A 
ATOM      7  C   UNL     1       3.544  11.779  12.021  1.00  0.00     0.019 A 
ATOM      8  C   UNL     1       2.565  10.833  11.721  1.00  0.00     0.094 A 
ATOM      9  C   UNL     1       1.361  11.262  11.153  1.00  0.00     0.336 A 
ATOM     10  O   UNL     1       0.464  10.423  10.875  1.00  0.00    -0.246 OA
ATOM     11  O   UNL     1       1.155  12.552  10.905  1.00  0.00    -0.423 OA
ENDROOT
BRANCH   1  12
ATOM     12  O   UNL     1       4.906  16.490  12.015  1.00  0.00    -0.493 OA
ATOM     13  C   UNL     1       5.541  17.289  11.022  1.00  0.00     0.278 C 
ENDBRANCH   1  12
BRANCH   2  14
ATOM     14  O   UNL     1       2.430  17.145  10.875  1.00  0.00    -0.504 OA
ATOM     15  H   UNL     1       3.013  17.917  11.178  1.00  0.00     0.293 HD
ENDBRANCH   2  14
TORSDOF 2
ENDMDL
MODEL 7
REMARK VINA RESULT:    -2.584      4.776      7.512
REMARK INTER + INTRA:          -2.855
REMARK INTER:                  -2.815
REMARK INTRA:                  -0.040
REMARK UNBOUND:                -0.044
REMARK SMILES COc1cc2ccc(=O)oc2cc1O
REMARK SMILES IDX 3 1 13 2 12 3 11 4 5 5 4 6 6 7 7 8 8 9 9 10 10 11 2 12 1 13
REMARK SMILES IDX 14 14
REMARK H PARENT 14 15
REMARK Flexibility Score: inf
ROOT
ATOM      1  C   UNL     1       1.951  12.573  10.918  1.00  0.00     0.161 A 
ATOM      2  C   UNL     1       3.318  12.232  10.911  1.00  0.00     0.161 A 
ATOM      3  C   UNL     1       4.293  13.235  10.902  1.00  0.00     0.098 A 
ATOM      4  C   UNL     1       3.924  14.581  10.899  1.00  0.00     0.142 A 
ATOM      5  C   UNL     1       2.558  14.933  10.907  1.00  0.00     0.022 A 
ATOM      6  C   UNL     1       1.577  13.933  10.916  1.00  0.00     0.062 A 
ATOM      7  C   UNL     1       2.220  16.291  10.904  1.00  0.00     0.019 A 
ATOM      8  C   UNL     1       3.233  17.249  10.894  1.00  0.00     0.094 A 
ATOM      9  C   UNL     1       4.566  16.826  10.887  1.00  0.00     0.336 A 
ATOM     10  O   UNL     1       5.494  17.675  10.879  1.00  0.00    -0.246 OA
ATOM     11  O   UNL     1       4.860  15.528  10.891  1.00  0.00    -0.423 OA
ENDROOT
BRANCH   1  12
ATOM     12  O   UNL     1       0.997  11.542  10.927  1.00  0.00    -0.493 OA
ATOM     13  C   UNL     1       0.499  10.911  12.103  1.00  0.00     0.278 C 
ENDBRANCH   1  12
BRANCH   2  14
ATOM     14  O   UNL     1       3.726  10.898  10.913  1.00  0.00    -0.504 OA
ATOM     15  H   UNL     1       3.145  10.155  11.283  1.00  0.00     0.293 HD
ENDBRANCH   2  14
TORSDOF 2
ENDMDL
MODEL 8
REMARK VINA RESULT:    -2.556      1.503      2.245
REMARK INTER + INTRA:          -2.824
REMARK INTER:                  -2.776
REMARK INTRA:                  -0.049
REMARK UNBOUND:                -0.044
REMARK SMILES COc1cc2ccc(=O)oc2cc1O
REMARK SMILES IDX 3 1 13 2 12 3 11 4 5 5 4 6 6 7 7 8 8 9 9 10 10 11 2 12 1 13
REMARK SMILES IDX 14 14
REMARK H PARENT 14 15
REMARK Flexibility Score: inf
ROOT
ATOM      1  C   UNL     1       1.847  11.179  12.185  1.00  0.00     0.161 A 
ATOM      2  C   UNL     1       2.806  11.849  11.399  1.00  0.00     0.161 A 
ATOM      3  C   UNL     1       4.041  11.249  11.132  1.00  0.00     0.098 A 
ATOM      4  C   UNL     1       4.338   9.983  11.640  1.00  0.00     0.142 A 
ATOM      5  C   UNL     1       3.385   9.303  12.427  1.00  0.00     0.022 A 
ATOM      6  C   UNL     1       2.146   9.900  12.698  1.00  0.00     0.062 A 
ATOM      7  C   UNL     1       3.712   8.036  12.921  1.00  0.00     0.019 A 
ATOM      8  C   UNL     1       4.958   7.485  12.625  1.00  0.00     0.094 A 
ATOM      9  C   UNL     1       5.852   8.217  11.837  1.00  0.00     0.336 A 
ATOM     10  O   UNL     1       6.981   7.737  11.557  1.00  0.00    -0.246 OA
ATOM     11  O   UNL     1       5.516   9.421  11.379  1.00  0.00    -0.423 OA
ENDROOT
BRANCH   1  12
ATOM     12  O   UNL     1       0.618  11.809  12.435  1.00  0.00    -0.493 OA
ATOM     13  C   UNL     1      -0.045  11.818  13.695  1.00  0.00     0.278 C 
ENDBRANCH   1  12
BRANCH   2  14
ATOM     14  O   UNL     1       2.547  13.115  10.875  1.00  0.00    -0.504 OA
ATOM     15  H   UNL     1       1.968  13.792  11.358  1.00  0.00     0.293 HD
ENDBRANCH   2  14
TORSDOF 2
ENDMDL
