MODEL 1
REMARK VINA RESULT:    -4.274      0.000      0.000
REMARK INTER + INTRA:          -4.274
REMARK INTER:                  -4.274
REMARK INTRA:                   0.000
REMARK UNBOUND:                 0.000
REMARK SMILES C=C1CC[C@@H]2C[C@H]1C2(C)C
REMARK SMILES IDX 9 1 8 2 5 3 4 4 3 5 2 6 1 7 7 8 6 9 10 10
REMARK H PARENT
REMARK Flexibility Score: inf
ROOT
ATOM      1  C   UNL     1      55.524  45.380  42.225  1.00  0.00     0.012 C 
ATOM      2  C   UNL     1      55.993  43.954  42.623  1.00  0.00    -0.026 C 
ATOM      3  C   UNL     1      56.828  43.779  43.918  1.00  0.00    -0.004 C 
ATOM      4  C   UNL     1      57.801  44.985  44.125  1.00  0.00     0.008 C 
ATOM      5  C   UNL     1      58.672  45.285  42.846  1.00  0.00     0.031 C 
ATOM      6  C   UNL     1      58.247  44.437  41.638  1.00  0.00    -0.074 C 
ATOM      7  C   UNL     1      58.770  44.644  40.424  1.00  0.00     0.008 C 
ATOM      8  C   UNL     1      57.208  43.347  41.884  1.00  0.00     0.021 C 
ATOM      9  C   UNL     1      57.635  42.683  43.203  1.00  0.00     0.012 C 
ATOM     10  C   UNL     1      54.766  43.009  42.594  1.00  0.00     0.012 C 
ENDROOT
TORSDOF 0
ENDMDL
MODEL 2
REMARK VINA RESULT:    -4.246     21.708     22.769
REMARK INTER + INTRA:          -4.246
REMARK INTER:                  -4.246
REMARK INTRA:                   0.000
REMARK UNBOUND:                 0.000
REMARK SMILES C=C1CC[C@@H]2C[C@H]1C2(C)C
REMARK SMILES IDX 9 1 8 2 5 3 4 4 3 5 2 6 1 7 7 8 6 9 10 10
REMARK H PARENT
REMARK Flexibility Score: inf
ROOT
ATOM      1  C   UNL     1      54.120  27.875  25.492  1.00  0.00     0.012 C 
ATOM      2  C   UNL     1      54.970  28.334  26.707  1.00  0.00    -0.026 C 
ATOM      3  C   UNL     1      55.517  29.785  26.727  1.00  0.00    -0.004 C 
ATOM      4  C   UNL     1      55.930  30.249  25.292  1.00  0.00     0.008 C 
ATOM      5  C   UNL     1      56.888  29.221  24.577  1.00  0.00     0.031 C 
ATOM      6  C   UNL     1      57.059  27.925  25.383  1.00  0.00    -0.074 C 
ATOM      7  C   UNL     1      57.720  26.875  24.880  1.00  0.00     0.008 C 
ATOM      8  C   UNL     1      56.449  27.889  26.781  1.00  0.00     0.021 C 
ATOM      9  C   UNL     1      56.794  29.253  27.399  1.00  0.00     0.012 C 
ATOM     10  C   UNL     1      54.196  27.991  28.004  1.00  0.00     0.012 C 
ENDROOT
TORSDOF 0
ENDMDL
MODEL 3
REMARK VINA RESULT:    -4.217      1.163      3.367
REMARK INTER + INTRA:          -4.217
REMARK INTER:                  -4.217
REMARK INTRA:                   0.000
REMARK UNBOUND:                 0.000
REMARK SMILES C=C1CC[C@@H]2C[C@H]1C2(C)C
REMARK SMILES IDX 9 1 8 2 5 3 4 4 3 5 2 6 1 7 7 8 6 9 10 10
REMARK H PARENT
REMARK Flexibility Score: inf
ROOT
ATOM      1  C   UNL     1      59.150  42.536  41.156  1.00  0.00     0.012 C 
ATOM      2  C   UNL     1      58.880  44.056  41.319  1.00  0.00    -0.026 C 
ATOM      3  C   UNL     1      59.272  44.743  42.652  1.00  0.00    -0.004 C 
ATOM      4  C   UNL     1      59.021  43.793  43.868  1.00  0.00     0.008 C 
ATOM      5  C   UNL     1      57.566  43.187  43.872  1.00  0.00     0.031 C 
ATOM      6  C   UNL     1      56.786  43.533  42.594  1.00  0.00    -0.074 C 
ATOM      7  C   UNL     1      55.586  42.997  42.344  1.00  0.00     0.008 C 
ATOM      8  C   UNL     1      57.437  44.518  41.627  1.00  0.00     0.021 C 
ATOM      9  C   UNL     1      58.018  45.625  42.521  1.00  0.00     0.012 C 
ATOM     10  C   UNL     1      59.475  44.793  40.093  1.00  0.00     0.012 C 
ENDROOT
TORSDOF 0
ENDMDL
MODEL 4
REMARK VINA RESULT:    -4.054     22.466     23.610
REMARK INTER + INTRA:          -4.054
REMARK INTER:                  -4.054
REMARK INTRA:                   0.000
REMARK UNBOUND:                 0.000
REMARK SMILES C=C1CC[C@@H]2C[C@H]1C2(C)C
REMARK SMILES IDX 9 1 8 2 5 3 4 4 3 5 2 6 1 7 7 8 6 9 10 10
REMARK H PARENT
REMARK Flexibility Score: inf
ROOT
ATOM      1  C   UNL     1      56.682  29.997  25.037  1.00  0.00     0.012 C 
ATOM      2  C   UNL     1      56.543  28.949  26.176  1.00  0.00    -0.026 C 
ATOM      3  C   UNL     1      57.394  27.655  26.104  1.00  0.00    -0.004 C 
ATOM      4  C   UNL     1      57.540  27.160  24.629  1.00  0.00     0.008 C 
ATOM      5  C   UNL     1      56.152  27.045  23.890  1.00  0.00     0.031 C 
ATOM      6  C   UNL     1      54.995  27.607  24.731  1.00  0.00    -0.074 C 
ATOM      7  C   UNL     1      53.763  27.729  24.224  1.00  0.00     0.008 C 
ATOM      8  C   UNL     1      55.311  28.013  26.167  1.00  0.00     0.021 C 
ATOM      9  C   UNL     1      56.206  26.887  26.709  1.00  0.00     0.012 C 
ATOM     10  C   UNL     1      56.709  29.676  27.533  1.00  0.00     0.012 C 
ENDROOT
TORSDOF 0
ENDMDL
MODEL 5
REMARK VINA RESULT:    -4.020     21.681     22.800
REMARK INTER + INTRA:          -4.020
REMARK INTER:                  -4.020
REMARK INTRA:                   0.000
REMARK UNBOUND:                 0.000
REMARK SMILES C=C1CC[C@@H]2C[C@H]1C2(C)C
REMARK SMILES IDX 9 1 8 2 5 3 4 4 3 5 2 6 1 7 7 8 6 9 10 10
REMARK H PARENT
REMARK Flexibility Score: inf
ROOT
ATOM      1  C   UNL     1      55.470  27.058  24.933  1.00  0.00     0.012 C 
ATOM      2  C   UNL     1      56.431  27.775  25.920  1.00  0.00    -0.026 C 
ATOM      3  C   UNL     1      55.862  28.301  27.263  1.00  0.00    -0.004 C 
ATOM      4  C   UNL     1      54.412  28.854  27.079  1.00  0.00     0.008 C 
ATOM      5  C   UNL     1      54.304  29.891  25.897  1.00  0.00     0.031 C 
ATOM      6  C   UNL     1      55.608  29.993  25.090  1.00  0.00    -0.074 C 
ATOM      7  C   UNL     1      55.675  30.712  23.964  1.00  0.00     0.008 C 
ATOM      8  C   UNL     1      56.821  29.243  25.631  1.00  0.00     0.021 C 
ATOM      9  C   UNL     1      56.808  29.508  27.145  1.00  0.00     0.012 C 
ATOM     10  C   UNL     1      57.674  26.875  26.132  1.00  0.00     0.012 C 
ENDROOT
TORSDOF 0
ENDMDL
MODEL 6
REMARK VINA RESULT:    -4.006      1.111      3.193
REMARK INTER + INTRA:          -4.006
REMARK INTER:                  -4.006
REMARK INTRA:                   0.000
REMARK UNBOUND:                 0.000
REMARK SMILES C=C1CC[C@@H]2C[C@H]1C2(C)C
REMARK SMILES IDX 9 1 8 2 5 3 4 4 3 5 2 6 1 7 7 8 6 9 10 10
REMARK H PARENT
REMARK Flexibility Score: inf
ROOT
ATOM      1  C   UNL     1      58.222  42.704  44.094  1.00  0.00     0.012 C 
ATOM      2  C   UNL     1      58.322  43.596  42.827  1.00  0.00    -0.026 C 
ATOM      3  C   UNL     1      58.162  45.131  42.982  1.00  0.00    -0.004 C 
ATOM      4  C   UNL     1      57.096  45.476  44.072  1.00  0.00     0.008 C 
ATOM      5  C   UNL     1      55.733  44.717  43.846  1.00  0.00     0.031 C 
ATOM      6  C   UNL     1      55.819  43.686  42.710  1.00  0.00    -0.074 C 
ATOM      7  C   UNL     1      54.812  42.843  42.457  1.00  0.00     0.008 C 
ATOM      8  C   UNL     1      57.100  43.670  41.882  1.00  0.00     0.021 C 
ATOM      9  C   UNL     1      57.428  45.151  41.631  1.00  0.00     0.012 C 
ATOM     10  C   UNL     1      59.621  43.224  42.068  1.00  0.00     0.012 C 
ENDROOT
TORSDOF 0
ENDMDL
MODEL 7
REMARK VINA RESULT:    -3.891     22.018     23.208
REMARK INTER + INTRA:          -3.891
REMARK INTER:                  -3.891
REMARK INTRA:                   0.000
REMARK UNBOUND:                 0.000
REMARK SMILES C=C1CC[C@@H]2C[C@H]1C2(C)C
REMARK SMILES IDX 9 1 8 2 5 3 4 4 3 5 2 6 1 7 7 8 6 9 10 10
REMARK H PARENT
REMARK Flexibility Score: inf
ROOT
ATOM      1  C   UNL     1      56.858  29.068  27.275  1.00  0.00     0.012 C 
ATOM      2  C   UNL     1      56.732  28.169  26.015  1.00  0.00    -0.026 C 
ATOM      3  C   UNL     1      57.018  28.794  24.625  1.00  0.00    -0.004 C 
ATOM      4  C   UNL     1      56.513  30.271  24.559  1.00  0.00     0.008 C 
ATOM      5  C   UNL     1      55.014  30.420  25.022  1.00  0.00     0.031 C 
ATOM      6  C   UNL     1      54.447  29.111  25.592  1.00  0.00    -0.074 C 
ATOM      7  C   UNL     1      53.239  29.067  26.167  1.00  0.00     0.008 C 
ATOM      8  C   UNL     1      55.317  27.864  25.469  1.00  0.00     0.021 C 
ATOM      9  C   UNL     1      55.892  27.921  24.045  1.00  0.00     0.012 C 
ATOM     10  C   UNL     1      57.555  26.878  26.249  1.00  0.00     0.012 C 
ENDROOT
TORSDOF 0
ENDMDL
MODEL 8
REMARK VINA RESULT:    -3.849     21.763     22.973
REMARK INTER + INTRA:          -3.849
REMARK INTER:                  -3.849
REMARK INTRA:                   0.000
REMARK UNBOUND:                 0.000
REMARK SMILES C=C1CC[C@@H]2C[C@H]1C2(C)C
REMARK SMILES IDX 9 1 8 2 5 3 4 4 3 5 2 6 1 7 7 8 6 9 10 10
REMARK H PARENT
REMARK Flexibility Score: inf
ROOT
ATOM      1  C   UNL     1      55.464  28.135  24.119  1.00  0.00     0.012 C 
ATOM      2  C   UNL     1      56.226  29.000  25.160  1.00  0.00    -0.026 C 
ATOM      3  C   UNL     1      57.256  28.309  26.090  1.00  0.00    -0.004 C 
ATOM      4  C   UNL     1      56.774  26.879  26.498  1.00  0.00     0.008 C 
ATOM      5  C   UNL     1      55.305  26.877  27.069  1.00  0.00     0.031 C 
ATOM      6  C   UNL     1      54.625  28.248  26.936  1.00  0.00    -0.074 C 
ATOM      7  C   UNL     1      53.331  28.414  27.234  1.00  0.00     0.008 C 
ATOM      8  C   UNL     1      55.489  29.410  26.456  1.00  0.00     0.021 C 
ATOM      9  C   UNL     1      56.816  29.258  27.217  1.00  0.00     0.012 C 
ATOM     10  C   UNL     1      56.835  30.221  24.428  1.00  0.00     0.012 C 
ENDROOT
TORSDOF 0
ENDMDL
