MODEL 1
REMARK VINA RESULT:    -8.170      0.000      0.000
REMARK INTER + INTRA:          -9.913
REMARK INTER:                  -9.603
REMARK INTRA:                  -0.311
REMARK UNBOUND:                -0.311
REMARK SMILES O=c1cc(-c2ccc(O)c(O)c2)oc2cc(O)cc(O)c12
REMARK SMILES IDX 4 1 3 2 2 3 1 4 21 5 19 6 18 7 16 8 15 9 14 10 13 11 5 12
REMARK SMILES IDX 6 13 7 14 8 15 12 16 10 17 9 18 11 20 20 22 17 24
REMARK H PARENT 9 19 11 21 20 23 17 25
REMARK Flexibility Score: inf
ROOT
ATOM      1  C   UNL     1      17.955  -3.513  68.765  1.00  0.00     0.138 A 
ATOM      2  C   UNL     1      18.983  -4.094  68.010  1.00  0.00     0.100 A 
ATOM      3  C   UNL     1      18.673  -5.052  67.044  1.00  0.00     0.197 A 
ATOM      4  O   UNL     1      19.612  -5.515  66.346  1.00  0.00    -0.289 OA
ATOM      5  C   UNL     1      17.328  -5.454  66.857  1.00  0.00     0.107 A 
ATOM      6  C   UNL     1      16.897  -6.445  65.923  1.00  0.00     0.134 A 
ATOM      7  C   UNL     1      15.528  -6.688  65.759  1.00  0.00     0.093 A 
ATOM      8  C   UNL     1      14.578  -6.017  66.533  1.00  0.00     0.123 A 
ATOM      9  C   UNL     1      14.992  -5.084  67.480  1.00  0.00     0.094 A 
ATOM     10  C   UNL     1      16.348  -4.794  67.645  1.00  0.00     0.146 A 
ATOM     11  O   UNL     1      16.698  -3.884  68.548  1.00  0.00    -0.456 OA
ENDROOT
BRANCH   1  12
ATOM     12  C   UNL     1      18.227  -2.492  69.808  1.00  0.00     0.021 A 
ATOM     13  C   UNL     1      19.496  -2.444  70.412  1.00  0.00     0.016 A 
ATOM     14  C   UNL     1      19.776  -1.498  71.402  1.00  0.00     0.051 A 
ATOM     15  C   UNL     1      18.792  -0.590  71.811  1.00  0.00     0.157 A 
ATOM     16  C   UNL     1      17.238  -1.584  70.234  1.00  0.00     0.062 A 
ATOM     17  C   UNL     1      17.517  -0.637  71.226  1.00  0.00     0.158 A 
BRANCH  15  18
ATOM     18  O   UNL     1      19.076   0.354  72.797  1.00  0.00    -0.504 OA
ATOM     19  H   UNL     1      18.412   0.571  73.531  1.00  0.00     0.293 HD
ENDBRANCH  15  18
BRANCH  17  20
ATOM     20  O   UNL     1      16.511   0.246  71.620  1.00  0.00    -0.504 OA
ATOM     21  H   UNL     1      16.162   0.973  71.007  1.00  0.00     0.293 HD
ENDBRANCH  17  20
ENDBRANCH   1  12
BRANCH   6  22
ATOM     22  O   UNL     1      17.764  -7.230  65.157  1.00  0.00    -0.507 OA
ATOM     23  H   UNL     1      18.335  -7.980  65.515  1.00  0.00     0.293 HD
ENDBRANCH   6  22
BRANCH   8  24
ATOM     24  O   UNL     1      13.219  -6.276  66.372  1.00  0.00    -0.508 OA
ATOM     25  H   UNL     1      12.608  -6.416  67.169  1.00  0.00     0.293 HD
ENDBRANCH   8  24
TORSDOF 5
ENDMDL
MODEL 2
REMARK VINA RESULT:    -7.730      1.296      2.762
REMARK INTER + INTRA:          -9.396
REMARK INTER:                  -9.116
REMARK INTRA:                  -0.280
REMARK UNBOUND:                -0.311
REMARK SMILES O=c1cc(-c2ccc(O)c(O)c2)oc2cc(O)cc(O)c12
REMARK SMILES IDX 4 1 3 2 2 3 1 4 21 5 19 6 18 7 16 8 15 9 14 10 13 11 5 12
REMARK SMILES IDX 6 13 7 14 8 15 12 16 10 17 9 18 11 20 20 22 17 24
REMARK H PARENT 9 19 11 21 20 23 17 25
REMARK Flexibility Score: inf
ROOT
ATOM      1  C   UNL     1      17.758  -3.257  69.375  1.00  0.00     0.138 A 
ATOM      2  C   UNL     1      16.456  -3.774  69.336  1.00  0.00     0.100 A 
ATOM      3  C   UNL     1      16.113  -4.708  68.357  1.00  0.00     0.197 A 
ATOM      4  O   UNL     1      14.953  -5.194  68.383  1.00  0.00    -0.289 OA
ATOM      5  C   UNL     1      17.072  -5.100  67.392  1.00  0.00     0.107 A 
ATOM      6  C   UNL     1      16.826  -6.021  66.329  1.00  0.00     0.134 A 
ATOM      7  C   UNL     1      17.882  -6.407  65.493  1.00  0.00     0.093 A 
ATOM      8  C   UNL     1      19.160  -5.863  65.647  1.00  0.00     0.123 A 
ATOM      9  C   UNL     1      19.397  -4.927  66.652  1.00  0.00     0.094 A 
ATOM     10  C   UNL     1      18.374  -4.547  67.522  1.00  0.00     0.146 A 
ATOM     11  O   UNL     1      18.648  -3.665  68.478  1.00  0.00    -0.456 OA
ENDROOT
BRANCH   1  12
ATOM     12  C   UNL     1      18.176  -2.258  70.392  1.00  0.00     0.021 A 
ATOM     13  C   UNL     1      19.430  -2.389  71.013  1.00  0.00     0.016 A 
ATOM     14  C   UNL     1      19.844  -1.467  71.978  1.00  0.00     0.051 A 
ATOM     15  C   UNL     1      19.010  -0.404  72.345  1.00  0.00     0.157 A 
ATOM     16  C   UNL     1      17.336  -1.194  70.775  1.00  0.00     0.062 A 
ATOM     17  C   UNL     1      17.749  -0.271  71.743  1.00  0.00     0.158 A 
BRANCH  15  18
ATOM     18  O   UNL     1      19.428   0.514  73.306  1.00  0.00    -0.504 OA
ATOM     19  H   UNL     1      19.895   1.377  73.049  1.00  0.00     0.293 HD
ENDBRANCH  15  18
BRANCH  17  20
ATOM     20  O   UNL     1      16.890   0.771  72.095  1.00  0.00    -0.504 OA
ATOM     21  H   UNL     1      15.891   0.720  71.939  1.00  0.00     0.293 HD
ENDBRANCH  17  20
ENDBRANCH   1  12
BRANCH   6  22
ATOM     22  O   UNL     1      15.572  -6.563  66.034  1.00  0.00    -0.507 OA
ATOM     23  H   UNL     1      15.415  -7.463  65.609  1.00  0.00     0.293 HD
ENDBRANCH   6  22
BRANCH   8  24
ATOM     24  O   UNL     1      20.201  -6.242  64.803  1.00  0.00    -0.508 OA
ATOM     25  H   UNL     1      20.969  -6.816  65.132  1.00  0.00     0.293 HD
ENDBRANCH   8  24
TORSDOF 5
ENDMDL
MODEL 3
REMARK VINA RESULT:    -7.632      0.742      1.532
REMARK INTER + INTRA:          -9.281
REMARK INTER:                  -8.996
REMARK INTRA:                  -0.285
REMARK UNBOUND:                -0.311
REMARK SMILES O=c1cc(-c2ccc(O)c(O)c2)oc2cc(O)cc(O)c12
REMARK SMILES IDX 4 1 3 2 2 3 1 4 21 5 19 6 18 7 16 8 15 9 14 10 13 11 5 12
REMARK SMILES IDX 6 13 7 14 8 15 12 16 10 17 9 18 11 20 20 22 17 24
REMARK H PARENT 9 19 11 21 20 23 17 25
REMARK Flexibility Score: inf
ROOT
ATOM      1  C   UNL     1      17.918  -3.338  69.103  1.00  0.00     0.138 A 
ATOM      2  C   UNL     1      18.936  -3.847  68.284  1.00  0.00     0.100 A 
ATOM      3  C   UNL     1      18.622  -4.775  67.289  1.00  0.00     0.197 A 
ATOM      4  O   UNL     1      19.548  -5.171  66.536  1.00  0.00    -0.289 OA
ATOM      5  C   UNL     1      17.286  -5.220  67.138  1.00  0.00     0.107 A 
ATOM      6  C   UNL     1      16.854  -6.187  66.180  1.00  0.00     0.134 A 
ATOM      7  C   UNL     1      15.489  -6.475  66.059  1.00  0.00     0.093 A 
ATOM      8  C   UNL     1      14.547  -5.875  66.899  1.00  0.00     0.123 A 
ATOM      9  C   UNL     1      14.965  -4.967  67.869  1.00  0.00     0.094 A 
ATOM     10  C   UNL     1      16.315  -4.632  67.993  1.00  0.00     0.146 A 
ATOM     11  O   UNL     1      16.668  -3.749  68.920  1.00  0.00    -0.456 OA
ENDROOT
BRANCH   1  12
ATOM     12  C   UNL     1      18.196  -2.353  70.178  1.00  0.00     0.021 A 
ATOM     13  C   UNL     1      17.248  -1.354  70.460  1.00  0.00     0.016 A 
ATOM     14  C   UNL     1      17.487  -0.409  71.462  1.00  0.00     0.051 A 
ATOM     15  C   UNL     1      18.681  -0.441  72.194  1.00  0.00     0.157 A 
ATOM     16  C   UNL     1      19.400  -2.371  70.909  1.00  0.00     0.062 A 
ATOM     17  C   UNL     1      19.642  -1.426  71.912  1.00  0.00     0.158 A 
BRANCH  15  18
ATOM     18  O   UNL     1      18.915   0.500  73.194  1.00  0.00    -0.504 OA
ATOM     19  H   UNL     1      19.354   1.391  72.992  1.00  0.00     0.293 HD
ENDBRANCH  15  18
BRANCH  17  20
ATOM     20  O   UNL     1      20.846  -1.477  72.615  1.00  0.00    -0.504 OA
ATOM     21  H   UNL     1      20.886  -1.723  73.597  1.00  0.00     0.293 HD
ENDBRANCH  17  20
ENDBRANCH   1  12
BRANCH   6  22
ATOM     22  O   UNL     1      17.717  -6.905  65.347  1.00  0.00    -0.507 OA
ATOM     23  H   UNL     1      17.431  -7.451  64.549  1.00  0.00     0.293 HD
ENDBRANCH   6  22
BRANCH   8  24
ATOM     24  O   UNL     1      13.193  -6.179  66.781  1.00  0.00    -0.508 OA
ATOM     25  H   UNL     1      12.475  -5.509  67.032  1.00  0.00     0.293 HD
ENDBRANCH   8  24
TORSDOF 5
ENDMDL
MODEL 4
REMARK VINA RESULT:    -7.571      1.850      3.641
REMARK INTER + INTRA:          -9.210
REMARK INTER:                  -8.917
REMARK INTRA:                  -0.293
REMARK UNBOUND:                -0.311
REMARK SMILES O=c1cc(-c2ccc(O)c(O)c2)oc2cc(O)cc(O)c12
REMARK SMILES IDX 4 1 3 2 2 3 1 4 21 5 19 6 18 7 16 8 15 9 14 10 13 11 5 12
REMARK SMILES IDX 6 13 7 14 8 15 12 16 10 17 9 18 11 20 20 22 17 24
REMARK H PARENT 9 19 11 21 20 23 17 25
REMARK Flexibility Score: inf
ROOT
ATOM      1  C   UNL     1      16.217  -5.062  67.837  1.00  0.00     0.138 A 
ATOM      2  C   UNL     1      15.051  -5.367  68.553  1.00  0.00     0.100 A 
ATOM      3  C   UNL     1      14.130  -6.269  68.018  1.00  0.00     0.197 A 
ATOM      4  O   UNL     1      13.121  -6.564  68.709  1.00  0.00    -0.289 OA
ATOM      5  C   UNL     1      14.363  -6.841  66.744  1.00  0.00     0.107 A 
ATOM      6  C   UNL     1      13.478  -7.748  66.085  1.00  0.00     0.134 A 
ATOM      7  C   UNL     1      13.863  -8.325  64.869  1.00  0.00     0.093 A 
ATOM      8  C   UNL     1      15.074  -7.985  64.259  1.00  0.00     0.123 A 
ATOM      9  C   UNL     1      15.921  -7.064  64.871  1.00  0.00     0.094 A 
ATOM     10  C   UNL     1      15.582  -6.497  66.101  1.00  0.00     0.146 A 
ATOM     11  O   UNL     1      16.427  -5.636  66.658  1.00  0.00    -0.456 OA
ENDROOT
BRANCH   1  12
ATOM     12  C   UNL     1      17.229  -4.107  68.356  1.00  0.00     0.021 A 
ATOM     13  C   UNL     1      18.535  -4.135  67.837  1.00  0.00     0.016 A 
ATOM     14  C   UNL     1      19.508  -3.253  68.313  1.00  0.00     0.051 A 
ATOM     15  C   UNL     1      19.197  -2.332  69.321  1.00  0.00     0.157 A 
ATOM     16  C   UNL     1      16.925  -3.188  69.379  1.00  0.00     0.062 A 
ATOM     17  C   UNL     1      17.900  -2.303  69.858  1.00  0.00     0.158 A 
BRANCH  15  18
ATOM     18  O   UNL     1      20.169  -1.452  69.791  1.00  0.00    -0.504 OA
ATOM     19  H   UNL     1      20.946  -1.773  70.358  1.00  0.00     0.293 HD
ENDBRANCH  15  18
BRANCH  17  20
ATOM     20  O   UNL     1      17.561  -1.407  70.872  1.00  0.00    -0.504 OA
ATOM     21  H   UNL     1      16.779  -0.769  70.786  1.00  0.00     0.293 HD
ENDBRANCH  17  20
ENDBRANCH   1  12
BRANCH   6  22
ATOM     22  O   UNL     1      12.212  -8.095  66.564  1.00  0.00    -0.507 OA
ATOM     23  H   UNL     1      11.345  -7.673  66.269  1.00  0.00     0.293 HD
ENDBRANCH   6  22
BRANCH   8  24
ATOM     24  O   UNL     1      15.441  -8.553  63.042  1.00  0.00    -0.508 OA
ATOM     25  H   UNL     1      14.803  -8.576  62.254  1.00  0.00     0.293 HD
ENDBRANCH   8  24
TORSDOF 5
ENDMDL
MODEL 5
REMARK VINA RESULT:    -7.529      1.604      6.700
REMARK INTER + INTRA:          -9.160
REMARK INTER:                  -8.851
REMARK INTRA:                  -0.309
REMARK UNBOUND:                -0.311
REMARK SMILES O=c1cc(-c2ccc(O)c(O)c2)oc2cc(O)cc(O)c12
REMARK SMILES IDX 4 1 3 2 2 3 1 4 21 5 19 6 18 7 16 8 15 9 14 10 13 11 5 12
REMARK SMILES IDX 6 13 7 14 8 15 12 16 10 17 9 18 11 20 20 22 17 24
REMARK H PARENT 9 19 11 21 20 23 17 25
REMARK Flexibility Score: inf
ROOT
ATOM      1  C   UNL     1      17.136  -3.937  68.615  1.00  0.00     0.138 A 
ATOM      2  C   UNL     1      18.487  -4.068  68.265  1.00  0.00     0.100 A 
ATOM      3  C   UNL     1      19.449  -3.303  68.926  1.00  0.00     0.197 A 
ATOM      4  O   UNL     1      20.657  -3.483  68.627  1.00  0.00    -0.289 OA
ATOM      5  C   UNL     1      19.049  -2.377  69.920  1.00  0.00     0.107 A 
ATOM      6  C   UNL     1      19.939  -1.520  70.638  1.00  0.00     0.134 A 
ATOM      7  C   UNL     1      19.438  -0.714  71.668  1.00  0.00     0.093 A 
ATOM      8  C   UNL     1      18.073  -0.692  71.969  1.00  0.00     0.123 A 
ATOM      9  C   UNL     1      17.192  -1.489  71.241  1.00  0.00     0.094 A 
ATOM     10  C   UNL     1      17.664  -2.328  70.231  1.00  0.00     0.146 A 
ATOM     11  O   UNL     1      16.791  -3.084  69.573  1.00  0.00    -0.456 OA
ENDROOT
BRANCH   1  12
ATOM     12  C   UNL     1      16.071  -4.723  67.942  1.00  0.00     0.021 A 
ATOM     13  C   UNL     1      16.275  -5.180  66.629  1.00  0.00     0.016 A 
ATOM     14  C   UNL     1      15.286  -5.915  65.971  1.00  0.00     0.051 A 
ATOM     15  C   UNL     1      14.073  -6.200  66.609  1.00  0.00     0.157 A 
ATOM     16  C   UNL     1      14.844  -5.002  68.575  1.00  0.00     0.062 A 
ATOM     17  C   UNL     1      13.851  -5.738  67.916  1.00  0.00     0.158 A 
BRANCH  15  18
ATOM     18  O   UNL     1      13.090  -6.936  65.950  1.00  0.00    -0.504 OA
ATOM     19  H   UNL     1      13.311  -7.523  65.154  1.00  0.00     0.293 HD
ENDBRANCH  15  18
BRANCH  17  20
ATOM     20  O   UNL     1      12.649  -5.994  68.576  1.00  0.00    -0.504 OA
ATOM     21  H   UNL     1      11.769  -6.071  68.080  1.00  0.00     0.293 HD
ENDBRANCH  17  20
ENDBRANCH   1  12
BRANCH   6  22
ATOM     22  O   UNL     1      21.305  -1.403  70.367  1.00  0.00    -0.507 OA
ATOM     23  H   UNL     1      21.727  -0.665  69.824  1.00  0.00     0.293 HD
ENDBRANCH   6  22
BRANCH   8  24
ATOM     24  O   UNL     1      17.583   0.123  72.986  1.00  0.00    -0.508 OA
ATOM     25  H   UNL     1      17.967   1.045  73.158  1.00  0.00     0.293 HD
ENDBRANCH   8  24
TORSDOF 5
ENDMDL
MODEL 6
REMARK VINA RESULT:    -7.320      2.294      2.942
REMARK INTER + INTRA:          -8.914
REMARK INTER:                  -8.646
REMARK INTRA:                  -0.268
REMARK UNBOUND:                -0.311
REMARK SMILES O=c1cc(-c2ccc(O)c(O)c2)oc2cc(O)cc(O)c12
REMARK SMILES IDX 4 1 3 2 2 3 1 4 21 5 19 6 18 7 16 8 15 9 14 10 13 11 5 12
REMARK SMILES IDX 6 13 7 14 8 15 12 16 10 17 9 18 11 20 20 22 17 24
REMARK H PARENT 9 19 11 21 20 23 17 25
REMARK Flexibility Score: inf
ROOT
ATOM      1  C   UNL     1      18.849  -4.207  67.871  1.00  0.00     0.138 A 
ATOM      2  C   UNL     1      19.182  -4.990  66.757  1.00  0.00     0.100 A 
ATOM      3  C   UNL     1      18.194  -5.753  66.130  1.00  0.00     0.197 A 
ATOM      4  O   UNL     1      18.513  -6.402  65.101  1.00  0.00    -0.289 OA
ATOM      5  C   UNL     1      16.875  -5.755  66.644  1.00  0.00     0.107 A 
ATOM      6  C   UNL     1      15.794  -6.519  66.106  1.00  0.00     0.134 A 
ATOM      7  C   UNL     1      14.509  -6.364  66.640  1.00  0.00     0.093 A 
ATOM      8  C   UNL     1      14.276  -5.517  67.727  1.00  0.00     0.123 A 
ATOM      9  C   UNL     1      15.333  -4.806  68.288  1.00  0.00     0.094 A 
ATOM     10  C   UNL     1      16.620  -4.912  67.758  1.00  0.00     0.146 A 
ATOM     11  O   UNL     1      17.597  -4.202  68.314  1.00  0.00    -0.456 OA
ENDROOT
BRANCH   1  12
ATOM     12  C   UNL     1      19.859  -3.380  68.578  1.00  0.00     0.021 A 
ATOM     13  C   UNL     1      19.673  -1.989  68.667  1.00  0.00     0.016 A 
ATOM     14  C   UNL     1      20.612  -1.187  69.321  1.00  0.00     0.051 A 
ATOM     15  C   UNL     1      21.757  -1.758  69.890  1.00  0.00     0.157 A 
ATOM     16  C   UNL     1      21.019  -3.947  69.141  1.00  0.00     0.062 A 
ATOM     17  C   UNL     1      21.961  -3.145  69.796  1.00  0.00     0.158 A 
BRANCH  15  18
ATOM     18  O   UNL     1      22.690  -0.956  70.544  1.00  0.00    -0.504 OA
ATOM     19  H   UNL     1      23.132  -0.170  70.080  1.00  0.00     0.293 HD
ENDBRANCH  15  18
BRANCH  17  20
ATOM     20  O   UNL     1      23.097  -3.743  70.342  1.00  0.00    -0.504 OA
ATOM     21  H   UNL     1      23.967  -3.815  69.829  1.00  0.00     0.293 HD
ENDBRANCH  17  20
ENDBRANCH   1  12
BRANCH   6  22
ATOM     22  O   UNL     1      15.930  -7.453  65.075  1.00  0.00    -0.507 OA
ATOM     23  H   UNL     1      15.671  -7.297  64.114  1.00  0.00     0.293 HD
ENDBRANCH   6  22
BRANCH   8  24
ATOM     24  O   UNL     1      12.996  -5.381  68.260  1.00  0.00    -0.508 OA
ATOM     25  H   UNL     1      12.748  -4.593  68.847  1.00  0.00     0.293 HD
ENDBRANCH   8  24
TORSDOF 5
ENDMDL
MODEL 7
REMARK VINA RESULT:    -7.255      4.186      6.854
REMARK INTER + INTRA:          -8.838
REMARK INTER:                  -8.565
REMARK INTRA:                  -0.273
REMARK UNBOUND:                -0.311
REMARK SMILES O=c1cc(-c2ccc(O)c(O)c2)oc2cc(O)cc(O)c12
REMARK SMILES IDX 4 1 3 2 2 3 1 4 21 5 19 6 18 7 16 8 15 9 14 10 13 11 5 12
REMARK SMILES IDX 6 13 7 14 8 15 12 16 10 17 9 18 11 20 20 22 17 24
REMARK H PARENT 9 19 11 21 20 23 17 25
REMARK Flexibility Score: inf
ROOT
ATOM      1  C   UNL     1      22.217  -2.656  70.143  1.00  0.00     0.138 A 
ATOM      2  C   UNL     1      21.938  -1.970  71.332  1.00  0.00     0.100 A 
ATOM      3  C   UNL     1      20.613  -1.690  71.672  1.00  0.00     0.197 A 
ATOM      4  O   UNL     1      20.392  -1.121  72.772  1.00  0.00    -0.289 OA
ATOM      5  C   UNL     1      19.567  -2.071  70.798  1.00  0.00     0.107 A 
ATOM      6  C   UNL     1      18.181  -1.809  71.026  1.00  0.00     0.134 A 
ATOM      7  C   UNL     1      17.228  -2.322  70.137  1.00  0.00     0.093 A 
ATOM      8  C   UNL     1      17.612  -3.036  69.000  1.00  0.00     0.123 A 
ATOM      9  C   UNL     1      18.964  -3.254  68.744  1.00  0.00     0.094 A 
ATOM     10  C   UNL     1      19.937  -2.786  69.628  1.00  0.00     0.146 A 
ATOM     11  O   UNL     1      21.215  -3.030  69.355  1.00  0.00    -0.456 OA
ENDROOT
BRANCH   1  12
ATOM     12  C   UNL     1      23.607  -2.977  69.729  1.00  0.00     0.021 A 
ATOM     13  C   UNL     1      24.380  -3.843  70.521  1.00  0.00     0.016 A 
ATOM     14  C   UNL     1      25.693  -4.156  70.159  1.00  0.00     0.051 A 
ATOM     15  C   UNL     1      26.259  -3.602  69.004  1.00  0.00     0.157 A 
ATOM     16  C   UNL     1      24.186  -2.414  68.576  1.00  0.00     0.062 A 
ATOM     17  C   UNL     1      25.501  -2.725  68.211  1.00  0.00     0.158 A 
BRANCH  15  18
ATOM     18  O   UNL     1      27.567  -3.918  68.644  1.00  0.00    -0.504 OA
ATOM     19  H   UNL     1      27.985  -4.809  68.890  1.00  0.00     0.293 HD
ENDBRANCH  15  18
BRANCH  17  20
ATOM     20  O   UNL     1      26.040  -2.148  67.061  1.00  0.00    -0.504 OA
ATOM     21  H   UNL     1      26.952  -1.706  67.057  1.00  0.00     0.293 HD
ENDBRANCH  17  20
ENDBRANCH   1  12
BRANCH   6  22
ATOM     22  O   UNL     1      17.692  -1.039  72.085  1.00  0.00    -0.507 OA
ATOM     23  H   UNL     1      18.218  -0.780  72.905  1.00  0.00     0.293 HD
ENDBRANCH   6  22
BRANCH   8  24
ATOM     24  O   UNL     1      16.657  -3.529  68.114  1.00  0.00    -0.508 OA
ATOM     25  H   UNL     1      16.893  -3.763  67.156  1.00  0.00     0.293 HD
ENDBRANCH   8  24
TORSDOF 5
ENDMDL
MODEL 8
REMARK VINA RESULT:    -7.222      3.041      8.750
REMARK INTER + INTRA:          -8.800
REMARK INTER:                  -8.485
REMARK INTRA:                  -0.314
REMARK UNBOUND:                -0.311
REMARK SMILES O=c1cc(-c2ccc(O)c(O)c2)oc2cc(O)cc(O)c12
REMARK SMILES IDX 4 1 3 2 2 3 1 4 21 5 19 6 18 7 16 8 15 9 14 10 13 11 5 12
REMARK SMILES IDX 6 13 7 14 8 15 12 16 10 17 9 18 11 20 20 22 17 24
REMARK H PARENT 9 19 11 21 20 23 17 25
REMARK Flexibility Score: inf
ROOT
ATOM      1  C   UNL     1      14.812  -7.419  65.754  1.00  0.00     0.138 A 
ATOM      2  C   UNL     1      13.911  -7.263  66.816  1.00  0.00     0.100 A 
ATOM      3  C   UNL     1      14.245  -6.434  67.889  1.00  0.00     0.197 A 
ATOM      4  O   UNL     1      13.392  -6.273  68.799  1.00  0.00    -0.289 OA
ATOM      5  C   UNL     1      15.503  -5.785  67.911  1.00  0.00     0.107 A 
ATOM      6  C   UNL     1      15.964  -4.942  68.968  1.00  0.00     0.134 A 
ATOM      7  C   UNL     1      17.188  -4.275  68.833  1.00  0.00     0.093 A 
ATOM      8  C   UNL     1      17.993  -4.465  67.707  1.00  0.00     0.123 A 
ATOM      9  C   UNL     1      17.573  -5.323  66.694  1.00  0.00     0.094 A 
ATOM     10  C   UNL     1      16.343  -5.976  66.782  1.00  0.00     0.146 A 
ATOM     11  O   UNL     1      15.973  -6.773  65.785  1.00  0.00    -0.456 OA
ENDROOT
BRANCH   1  12
ATOM     12  C   UNL     1      14.511  -8.290  64.590  1.00  0.00     0.021 A 
ATOM     13  C   UNL     1      13.190  -8.715  64.370  1.00  0.00     0.016 A 
ATOM     14  C   UNL     1      12.881  -9.542  63.286  1.00  0.00     0.051 A 
ATOM     15  C   UNL     1      13.887  -9.965  62.409  1.00  0.00     0.157 A 
ATOM     16  C   UNL     1      15.521  -8.730  63.713  1.00  0.00     0.062 A 
ATOM     17  C   UNL     1      15.214  -9.559  62.627  1.00  0.00     0.158 A 
BRANCH  15  18
ATOM     18  O   UNL     1      13.575 -10.787  61.329  1.00  0.00    -0.504 OA
ATOM     19  H   UNL     1      12.841 -10.546  60.673  1.00  0.00     0.293 HD
ENDBRANCH  15  18
BRANCH  17  20
ATOM     20  O   UNL     1      16.241  -9.973  61.779  1.00  0.00    -0.504 OA
ATOM     21  H   UNL     1      16.134 -10.757  61.147  1.00  0.00     0.293 HD
ENDBRANCH  17  20
ENDBRANCH   1  12
BRANCH   6  22
ATOM     22  O   UNL     1      15.278  -4.745  70.170  1.00  0.00    -0.507 OA
ATOM     23  H   UNL     1      15.620  -5.008  71.082  1.00  0.00     0.293 HD
ENDBRANCH   6  22
BRANCH   8  24
ATOM     24  O   UNL     1      19.216  -3.808  67.589  1.00  0.00    -0.508 OA
ATOM     25  H   UNL     1      19.911  -4.100  66.911  1.00  0.00     0.293 HD
ENDBRANCH   8  24
TORSDOF 5
ENDMDL
MODEL 9
REMARK VINA RESULT:    -7.186      1.865      6.982
REMARK INTER + INTRA:          -8.757
REMARK INTER:                  -8.463
REMARK INTRA:                  -0.294
REMARK UNBOUND:                -0.311
REMARK SMILES O=c1cc(-c2ccc(O)c(O)c2)oc2cc(O)cc(O)c12
REMARK SMILES IDX 4 1 3 2 2 3 1 4 21 5 19 6 18 7 16 8 15 9 14 10 13 11 5 12
REMARK SMILES IDX 6 13 7 14 8 15 12 16 10 17 9 18 11 20 20 22 17 24
REMARK H PARENT 9 19 11 21 20 23 17 25
REMARK Flexibility Score: inf
ROOT
ATOM      1  C   UNL     1      17.839  -3.117  68.904  1.00  0.00     0.138 A 
ATOM      2  C   UNL     1      19.137  -2.800  68.481  1.00  0.00     0.100 A 
ATOM      3  C   UNL     1      19.775  -1.671  68.998  1.00  0.00     0.197 A 
ATOM      4  O   UNL     1      20.960  -1.445  68.641  1.00  0.00    -0.289 OA
ATOM      5  C   UNL     1      19.094  -0.837  69.918  1.00  0.00     0.107 A 
ATOM      6  C   UNL     1      19.633   0.357  70.486  1.00  0.00     0.134 A 
ATOM      7  C   UNL     1      18.902   1.047  71.461  1.00  0.00     0.093 A 
ATOM      8  C   UNL     1      17.628   0.619  71.846  1.00  0.00     0.123 A 
ATOM      9  C   UNL     1      17.075  -0.517  71.261  1.00  0.00     0.094 A 
ATOM     10  C   UNL     1      17.792  -1.247  70.311  1.00  0.00     0.146 A 
ATOM     11  O   UNL     1      17.234  -2.335  69.791  1.00  0.00    -0.456 OA
ENDROOT
BRANCH   1  12
ATOM     12  C   UNL     1      17.112  -4.302  68.385  1.00  0.00     0.021 A 
ATOM     13  C   UNL     1      15.974  -4.767  69.066  1.00  0.00     0.016 A 
ATOM     14  C   UNL     1      15.275  -5.885  68.603  1.00  0.00     0.051 A 
ATOM     15  C   UNL     1      15.706  -6.564  67.456  1.00  0.00     0.157 A 
ATOM     16  C   UNL     1      17.548  -4.997  67.239  1.00  0.00     0.062 A 
ATOM     17  C   UNL     1      16.850  -6.118  66.774  1.00  0.00     0.158 A 
BRANCH  15  18
ATOM     18  O   UNL     1      15.006  -7.677  66.995  1.00  0.00    -0.504 OA
ATOM     19  H   UNL     1      15.396  -8.297  66.295  1.00  0.00     0.293 HD
ENDBRANCH  15  18
BRANCH  17  20
ATOM     20  O   UNL     1      17.312  -6.779  65.636  1.00  0.00    -0.504 OA
ATOM     21  H   UNL     1      17.223  -7.782  65.522  1.00  0.00     0.293 HD
ENDBRANCH  17  20
ENDBRANCH   1  12
BRANCH   6  22
ATOM     22  O   UNL     1      20.859   0.918  70.116  1.00  0.00    -0.507 OA
ATOM     23  H   UNL     1      21.193   1.006  69.169  1.00  0.00     0.293 HD
ENDBRANCH   6  22
BRANCH   8  24
ATOM     24  O   UNL     1      16.903   1.321  72.805  1.00  0.00    -0.508 OA
ATOM     25  H   UNL     1      17.242   1.425  73.755  1.00  0.00     0.293 HD
ENDBRANCH   8  24
TORSDOF 5
ENDMDL
