MODEL 1
REMARK VINA RESULT:    -4.563      0.000      0.000
REMARK INTER + INTRA:          -8.276
REMARK INTER:                  -7.230
REMARK INTRA:                  -1.045
REMARK UNBOUND:                -1.045
REMARK SMILES CCCCCCCCCCCC(=O)[O-]
REMARK SMILES IDX 7 1 8 2 9 3 10 4 11 5 12 6 13 7 14 8 6 9 5 10 4 11 3 12 2 13
REMARK SMILES IDX 1 14
REMARK H PARENT
REMARK Flexibility Score: inf
ROOT
ATOM      1  C   UNL     1     -19.552  -0.111  29.674  1.00  0.00     0.000 C 
ENDROOT
BRANCH   1   2
ATOM      2  C   UNL     1     -20.087  -1.545  29.766  1.00  0.00     0.000 C 
BRANCH   2   3
ATOM      3  C   UNL     1     -18.956  -2.567  29.596  1.00  0.00     0.000 C 
BRANCH   3   4
ATOM      4  C   UNL     1     -18.285  -2.875  30.942  1.00  0.00     0.006 C 
BRANCH   4   5
ATOM      5  C   UNL     1     -16.787  -2.548  30.933  1.00  0.00     0.053 C 
BRANCH   5   6
ATOM      6  C   UNL     1     -16.491  -1.281  31.675  1.00  0.00     0.041 C 
ATOM      7  O   UNL     1     -17.326  -0.816  32.495  1.00  0.00    -0.550 OA
ATOM      8  O   UNL     1     -15.279  -0.630  31.484  1.00  0.00    -0.550 OA
ENDBRANCH   5   6
ENDBRANCH   4   5
ENDBRANCH   3   4
ENDBRANCH   2   3
ENDBRANCH   1   2
BRANCH   1   9
ATOM      9  C   UNL     1     -18.395  -0.016  28.672  1.00  0.00     0.000 C 
BRANCH   9  10
ATOM     10  C   UNL     1     -18.776   0.863  27.474  1.00  0.00    -0.000 C 
BRANCH  10  11
ATOM     11  C   UNL     1     -19.610   0.114  26.419  1.00  0.00    -0.000 C 
BRANCH  11  12
ATOM     12  C   UNL     1     -21.009   0.701  26.160  1.00  0.00    -0.000 C 
BRANCH  12  13
ATOM     13  C   UNL     1     -22.141  -0.205  26.668  1.00  0.00    -0.003 C 
ATOM     14  C   UNL     1     -23.445   0.078  25.927  1.00  0.00     0.004 C 
ENDBRANCH  12  13
ENDBRANCH  11  12
ENDBRANCH  10  11
ENDBRANCH   9  10
ENDBRANCH   1   9
TORSDOF 10
ENDMDL
MODEL 2
REMARK VINA RESULT:    -4.550      3.363      6.506
REMARK INTER + INTRA:          -8.255
REMARK INTER:                  -7.365
REMARK INTRA:                  -0.890
REMARK UNBOUND:                -1.045
REMARK SMILES CCCCCCCCCCCC(=O)[O-]
REMARK SMILES IDX 7 1 8 2 9 3 10 4 11 5 12 6 13 7 14 8 6 9 5 10 4 11 3 12 2 13
REMARK SMILES IDX 1 14
REMARK H PARENT
REMARK Flexibility Score: inf
ROOT
ATOM      1  C   UNL     1     -19.750  -0.221  29.309  1.00  0.00     0.000 C 
ENDROOT
BRANCH   1   2
ATOM      2  C   UNL     1     -18.517   0.263  28.536  1.00  0.00     0.000 C 
BRANCH   2   3
ATOM      3  C   UNL     1     -18.920   1.181  27.375  1.00  0.00     0.000 C 
BRANCH   3   4
ATOM      4  C   UNL     1     -20.445   1.201  27.193  1.00  0.00     0.006 C 
BRANCH   4   5
ATOM      5  C   UNL     1     -20.894   0.394  25.969  1.00  0.00     0.053 C 
BRANCH   5   6
ATOM      6  C   UNL     1     -22.336  -0.003  26.065  1.00  0.00     0.041 C 
ATOM      7  O   UNL     1     -23.177   0.460  25.249  1.00  0.00    -0.550 OA
ATOM      8  O   UNL     1     -22.744  -0.909  27.034  1.00  0.00    -0.550 OA
ENDBRANCH   5   6
ENDBRANCH   4   5
ENDBRANCH   3   4
ENDBRANCH   2   3
ENDBRANCH   1   2
BRANCH   1   9
ATOM      9  C   UNL     1     -19.595  -1.687  29.732  1.00  0.00     0.000 C 
BRANCH   9  10
ATOM     10  C   UNL     1     -18.230  -2.242  29.301  1.00  0.00    -0.000 C 
BRANCH  10  11
ATOM     11  C   UNL     1     -17.326  -2.607  30.492  1.00  0.00    -0.000 C 
BRANCH  11  12
ATOM     12  C   UNL     1     -16.664  -1.409  31.196  1.00  0.00    -0.000 C 
BRANCH  12  13
ATOM     13  C   UNL     1     -17.050  -1.297  32.678  1.00  0.00    -0.003 C 
ATOM     14  C   UNL     1     -17.866  -2.508  33.126  1.00  0.00     0.004 C 
ENDBRANCH  12  13
ENDBRANCH  11  12
ENDBRANCH  10  11
ENDBRANCH   9  10
ENDBRANCH   1   9
TORSDOF 10
ENDMDL
MODEL 3
REMARK VINA RESULT:    -4.549      0.737      1.294
REMARK INTER + INTRA:          -8.253
REMARK INTER:                  -7.155
REMARK INTRA:                  -1.098
REMARK UNBOUND:                -1.045
REMARK SMILES CCCCCCCCCCCC(=O)[O-]
REMARK SMILES IDX 7 1 8 2 9 3 10 4 11 5 12 6 13 7 14 8 6 9 5 10 4 11 3 12 2 13
REMARK SMILES IDX 1 14
REMARK H PARENT
REMARK Flexibility Score: inf
ROOT
ATOM      1  C   UNL     1     -18.277   0.118  28.653  1.00  0.00     0.000 C 
ENDROOT
BRANCH   1   2
ATOM      2  C   UNL     1     -19.494  -0.381  29.441  1.00  0.00     0.000 C 
BRANCH   2   3
ATOM      3  C   UNL     1     -19.337  -1.858  29.821  1.00  0.00     0.000 C 
BRANCH   3   4
ATOM      4  C   UNL     1     -17.882  -2.318  29.653  1.00  0.00     0.006 C 
BRANCH   4   5
ATOM      5  C   UNL     1     -17.221  -2.657  30.995  1.00  0.00     0.053 C 
BRANCH   5   6
ATOM      6  C   UNL     1     -16.740  -1.427  31.703  1.00  0.00     0.041 C 
ATOM      7  O   UNL     1     -17.325  -1.023  32.742  1.00  0.00    -0.550 OA
ATOM      8  O   UNL     1     -15.624  -0.747  31.233  1.00  0.00    -0.550 OA
ENDBRANCH   5   6
ENDBRANCH   4   5
ENDBRANCH   3   4
ENDBRANCH   2   3
ENDBRANCH   1   2
BRANCH   1   9
ATOM      9  C   UNL     1     -18.708   0.952  27.441  1.00  0.00     0.000 C 
BRANCH   9  10
ATOM     10  C   UNL     1     -19.594   0.129  26.495  1.00  0.00    -0.000 C 
BRANCH  10  11
ATOM     11  C   UNL     1     -20.946   0.803  26.199  1.00  0.00    -0.000 C 
BRANCH  11  12
ATOM     12  C   UNL     1     -22.106  -0.167  25.910  1.00  0.00    -0.000 C 
BRANCH  12  13
ATOM     13  C   UNL     1     -22.741  -0.738  27.186  1.00  0.00    -0.003 C 
ATOM     14  C   UNL     1     -22.988   0.361  28.216  1.00  0.00     0.004 C 
ENDBRANCH  12  13
ENDBRANCH  11  12
ENDBRANCH  10  11
ENDBRANCH   9  10
ENDBRANCH   1   9
TORSDOF 10
ENDMDL
MODEL 4
REMARK VINA RESULT:    -4.383      1.359      2.655
REMARK INTER + INTRA:          -7.990
REMARK INTER:                  -6.736
REMARK INTRA:                  -1.254
REMARK UNBOUND:                -1.045
REMARK SMILES CCCCCCCCCCCC(=O)[O-]
REMARK SMILES IDX 7 1 8 2 9 3 10 4 11 5 12 6 13 7 14 8 6 9 5 10 4 11 3 12 2 13
REMARK SMILES IDX 1 14
REMARK H PARENT
REMARK Flexibility Score: inf
ROOT
ATOM      1  C   UNL     1     -18.994   0.522  26.755  1.00  0.00     0.000 C 
ENDROOT
BRANCH   1   2
ATOM      2  C   UNL     1     -18.682   0.471  28.256  1.00  0.00     0.000 C 
BRANCH   2   3
ATOM      3  C   UNL     1     -18.525  -0.977  28.737  1.00  0.00     0.000 C 
BRANCH   3   4
ATOM      4  C   UNL     1     -18.707  -1.073  30.259  1.00  0.00     0.006 C 
BRANCH   4   5
ATOM      5  C   UNL     1     -17.922  -2.244  30.864  1.00  0.00     0.053 C 
BRANCH   5   6
ATOM      6  C   UNL     1     -17.185  -1.835  32.103  1.00  0.00     0.041 C 
ATOM      7  O   UNL     1     -16.261  -0.982  32.039  1.00  0.00    -0.550 OA
ATOM      8  O   UNL     1     -17.541  -2.372  33.333  1.00  0.00    -0.550 OA
ENDBRANCH   5   6
ENDBRANCH   4   5
ENDBRANCH   3   4
ENDBRANCH   2   3
ENDBRANCH   1   2
BRANCH   1   9
ATOM      9  C   UNL     1     -20.386   1.115  26.502  1.00  0.00     0.000 C 
BRANCH   9  10
ATOM     10  C   UNL     1     -21.345   0.052  25.949  1.00  0.00    -0.000 C 
BRANCH  10  11
ATOM     11  C   UNL     1     -22.443  -0.348  26.951  1.00  0.00    -0.000 C 
BRANCH  11  12
ATOM     12  C   UNL     1     -22.515   0.525  28.217  1.00  0.00    -0.000 C 
BRANCH  12  13
ATOM     13  C   UNL     1     -22.214  -0.260  29.502  1.00  0.00    -0.003 C 
ATOM     14  C   UNL     1     -22.239  -1.765  29.246  1.00  0.00     0.004 C 
ENDBRANCH  12  13
ENDBRANCH  11  12
ENDBRANCH  10  11
ENDBRANCH   9  10
ENDBRANCH   1   9
TORSDOF 10
ENDMDL
MODEL 5
REMARK VINA RESULT:    -4.368      2.738      6.047
REMARK INTER + INTRA:          -7.966
REMARK INTER:                  -7.162
REMARK INTRA:                  -0.804
REMARK UNBOUND:                -1.045
REMARK SMILES CCCCCCCCCCCC(=O)[O-]
REMARK SMILES IDX 7 1 8 2 9 3 10 4 11 5 12 6 13 7 14 8 6 9 5 10 4 11 3 12 2 13
REMARK SMILES IDX 1 14
REMARK H PARENT
REMARK Flexibility Score: inf
ROOT
ATOM      1  C   UNL     1     -18.855   0.519  26.751  1.00  0.00     0.000 C 
ENDROOT
BRANCH   1   2
ATOM      2  C   UNL     1     -20.225   1.159  26.496  1.00  0.00     0.000 C 
BRANCH   2   3
ATOM      3  C   UNL     1     -21.230   0.122  25.980  1.00  0.00     0.000 C 
BRANCH   3   4
ATOM      4  C   UNL     1     -22.513   0.132  26.824  1.00  0.00     0.006 C 
BRANCH   4   5
ATOM      5  C   UNL     1     -22.248   0.535  28.280  1.00  0.00     0.053 C 
BRANCH   5   6
ATOM      6  C   UNL     1     -22.544  -0.586  29.228  1.00  0.00     0.041 C 
ATOM      7  O   UNL     1     -21.992  -1.708  29.077  1.00  0.00    -0.550 OA
ATOM      8  O   UNL     1     -23.404  -0.382  30.299  1.00  0.00    -0.550 OA
ENDBRANCH   5   6
ENDBRANCH   4   5
ENDBRANCH   3   4
ENDBRANCH   2   3
ENDBRANCH   1   2
BRANCH   1   9
ATOM      9  C   UNL     1     -18.524   0.501  28.248  1.00  0.00     0.000 C 
BRANCH   9  10
ATOM     10  C   UNL     1     -18.600  -0.925  28.811  1.00  0.00    -0.000 C 
BRANCH  10  11
ATOM     11  C   UNL     1     -18.535  -0.968  30.349  1.00  0.00    -0.000 C 
BRANCH  11  12
ATOM     12  C   UNL     1     -17.184  -1.424  30.929  1.00  0.00    -0.000 C 
BRANCH  12  13
ATOM     13  C   UNL     1     -17.087  -1.226  32.448  1.00  0.00    -0.003 C 
ATOM     14  C   UNL     1     -17.189  -2.560  33.183  1.00  0.00     0.004 C 
ENDBRANCH  12  13
ENDBRANCH  11  12
ENDBRANCH  10  11
ENDBRANCH   9  10
ENDBRANCH   1   9
TORSDOF 10
ENDMDL
MODEL 6
REMARK VINA RESULT:    -4.269      1.023      2.650
REMARK INTER + INTRA:          -7.811
REMARK INTER:                  -6.830
REMARK INTRA:                  -0.980
REMARK UNBOUND:                -1.045
REMARK SMILES CCCCCCCCCCCC(=O)[O-]
REMARK SMILES IDX 7 1 8 2 9 3 10 4 11 5 12 6 13 7 14 8 6 9 5 10 4 11 3 12 2 13
REMARK SMILES IDX 1 14
REMARK H PARENT
REMARK Flexibility Score: inf
ROOT
ATOM      1  C   UNL     1     -21.683  -1.281  29.240  1.00  0.00     0.000 C 
ENDROOT
BRANCH   1   2
ATOM      2  C   UNL     1     -20.246  -1.133  29.755  1.00  0.00     0.000 C 
BRANCH   2   3
ATOM      3  C   UNL     1     -19.604  -2.503  30.002  1.00  0.00     0.000 C 
BRANCH   3   4
ATOM      4  C   UNL     1     -18.072  -2.413  29.943  1.00  0.00     0.006 C 
BRANCH   4   5
ATOM      5  C   UNL     1     -17.551  -1.063  30.450  1.00  0.00     0.053 C 
BRANCH   5   6
ATOM      6  C   UNL     1     -16.598  -1.231  31.595  1.00  0.00     0.041 C 
ATOM      7  O   UNL     1     -15.467  -0.678  31.566  1.00  0.00    -0.550 OA
ATOM      8  O   UNL     1     -16.973  -1.972  32.708  1.00  0.00    -0.550 OA
ENDBRANCH   5   6
ENDBRANCH   4   5
ENDBRANCH   3   4
ENDBRANCH   2   3
ENDBRANCH   1   2
BRANCH   1   9
ATOM      9  C   UNL     1     -22.120  -0.037  28.458  1.00  0.00     0.000 C 
BRANCH   9  10
ATOM     10  C   UNL     1     -22.416  -0.384  26.993  1.00  0.00    -0.000 C 
BRANCH  10  11
ATOM     11  C   UNL     1     -21.513   0.374  26.001  1.00  0.00    -0.000 C 
BRANCH  11  12
ATOM     12  C   UNL     1     -20.378   1.188  26.648  1.00  0.00    -0.000 C 
BRANCH  12  13
ATOM     13  C   UNL     1     -19.065   0.400  26.761  1.00  0.00    -0.003 C 
ATOM     14  C   UNL     1     -18.059   1.132  27.645  1.00  0.00     0.004 C 
ENDBRANCH  12  13
ENDBRANCH  11  12
ENDBRANCH  10  11
ENDBRANCH   9  10
ENDBRANCH   1   9
TORSDOF 10
ENDMDL
MODEL 7
REMARK VINA RESULT:    -4.236     13.949     16.037
REMARK INTER + INTRA:          -7.758
REMARK INTER:                  -6.350
REMARK INTRA:                  -1.408
REMARK UNBOUND:                -1.045
REMARK SMILES CCCCCCCCCCCC(=O)[O-]
REMARK SMILES IDX 7 1 8 2 9 3 10 4 11 5 12 6 13 7 14 8 6 9 5 10 4 11 3 12 2 13
REMARK SMILES IDX 1 14
REMARK H PARENT
REMARK Flexibility Score: inf
ROOT
ATOM      1  C   UNL     1      -4.231   7.526  28.669  1.00  0.00     0.000 C 
ENDROOT
BRANCH   1   2
ATOM      2  C   UNL     1      -4.622   8.120  27.311  1.00  0.00     0.000 C 
BRANCH   2   3
ATOM      3  C   UNL     1      -4.705   7.030  26.236  1.00  0.00     0.000 C 
BRANCH   3   4
ATOM      4  C   UNL     1      -5.804   7.350  25.212  1.00  0.00     0.006 C 
BRANCH   4   5
ATOM      5  C   UNL     1      -6.534   8.660  25.533  1.00  0.00     0.053 C 
BRANCH   5   6
ATOM      6  C   UNL     1      -7.901   8.696  24.921  1.00  0.00     0.041 C 
ATOM      7  O   UNL     1      -8.912   8.392  25.608  1.00  0.00    -0.550 OA
ATOM      8  O   UNL     1      -8.062   9.099  23.602  1.00  0.00    -0.550 OA
ENDBRANCH   5   6
ENDBRANCH   4   5
ENDBRANCH   3   4
ENDBRANCH   2   3
ENDBRANCH   1   2
BRANCH   1   9
ATOM      9  C   UNL     1      -4.874   8.310  29.820  1.00  0.00     0.000 C 
BRANCH   9  10
ATOM     10  C   UNL     1      -5.551   7.363  30.820  1.00  0.00    -0.000 C 
BRANCH  10  11
ATOM     11  C   UNL     1      -6.412   6.284  30.139  1.00  0.00    -0.000 C 
BRANCH  11  12
ATOM     12  C   UNL     1      -7.638   6.818  29.377  1.00  0.00    -0.000 C 
BRANCH  12  13
ATOM     13  C   UNL     1      -7.881   6.088  28.048  1.00  0.00    -0.003 C 
ATOM     14  C   UNL     1      -6.973   4.868  27.917  1.00  0.00     0.004 C 
ENDBRANCH  12  13
ENDBRANCH  11  12
ENDBRANCH  10  11
ENDBRANCH   9  10
ENDBRANCH   1   9
TORSDOF 10
ENDMDL
MODEL 8
REMARK VINA RESULT:    -4.223     14.925     16.033
REMARK INTER + INTRA:          -7.738
REMARK INTER:                  -6.677
REMARK INTRA:                  -1.061
REMARK UNBOUND:                -1.045
REMARK SMILES CCCCCCCCCCCC(=O)[O-]
REMARK SMILES IDX 7 1 8 2 9 3 10 4 11 5 12 6 13 7 14 8 6 9 5 10 4 11 3 12 2 13
REMARK SMILES IDX 1 14
REMARK H PARENT
REMARK Flexibility Score: inf
ROOT
ATOM      1  C   UNL     1      -4.326   7.844  26.106  1.00  0.00     0.000 C 
ENDROOT
BRANCH   1   2
ATOM      2  C   UNL     1      -5.325   6.685  26.218  1.00  0.00     0.000 C 
BRANCH   2   3
ATOM      3  C   UNL     1      -5.774   6.483  27.670  1.00  0.00     0.000 C 
BRANCH   3   4
ATOM      4  C   UNL     1      -5.088   7.491  28.604  1.00  0.00     0.006 C 
BRANCH   4   5
ATOM      5  C   UNL     1      -4.721   6.872  29.958  1.00  0.00     0.053 C 
BRANCH   5   6
ATOM      6  C   UNL     1      -5.622   7.357  31.052  1.00  0.00     0.041 C 
ATOM      7  O   UNL     1      -6.679   7.983  30.774  1.00  0.00    -0.550 OA
ATOM      8  O   UNL     1      -5.310   7.089  32.379  1.00  0.00    -0.550 OA
ENDBRANCH   5   6
ENDBRANCH   4   5
ENDBRANCH   3   4
ENDBRANCH   2   3
ENDBRANCH   1   2
BRANCH   1   9
ATOM      9  C   UNL     1      -4.544   8.636  24.812  1.00  0.00     0.000 C 
BRANCH   9  10
ATOM     10  C   UNL     1      -4.897   7.701  23.647  1.00  0.00    -0.000 C 
BRANCH  10  11
ATOM     11  C   UNL     1      -6.101   8.195  22.823  1.00  0.00    -0.000 C 
BRANCH  11  12
ATOM     12  C   UNL     1      -6.899   9.344  23.465  1.00  0.00    -0.000 C 
BRANCH  12  13
ATOM     13  C   UNL     1      -8.284   8.905  23.964  1.00  0.00    -0.003 C 
ATOM     14  C   UNL     1      -8.292   8.735  25.481  1.00  0.00     0.004 C 
ENDBRANCH  12  13
ENDBRANCH  11  12
ENDBRANCH  10  11
ENDBRANCH   9  10
ENDBRANCH   1   9
TORSDOF 10
ENDMDL
MODEL 9
REMARK VINA RESULT:    -4.206     14.638     16.313
REMARK INTER + INTRA:          -7.710
REMARK INTER:                  -6.339
REMARK INTRA:                  -1.371
REMARK UNBOUND:                -1.045
REMARK SMILES CCCCCCCCCCCC(=O)[O-]
REMARK SMILES IDX 7 1 8 2 9 3 10 4 11 5 12 6 13 7 14 8 6 9 5 10 4 11 3 12 2 13
REMARK SMILES IDX 1 14
REMARK H PARENT
REMARK Flexibility Score: inf
ROOT
ATOM      1  C   UNL     1      -4.884   7.157  25.592  1.00  0.00     0.000 C 
ENDROOT
BRANCH   1   2
ATOM      2  C   UNL     1      -4.415   8.405  26.350  1.00  0.00     0.000 C 
BRANCH   2   3
ATOM      3  C   UNL     1      -3.902   8.040  27.748  1.00  0.00     0.000 C 
BRANCH   3   4
ATOM      4  C   UNL     1      -4.678   6.847  28.325  1.00  0.00     0.006 C 
BRANCH   4   5
ATOM      5  C   UNL     1      -5.821   7.288  29.248  1.00  0.00     0.053 C 
BRANCH   5   6
ATOM      6  C   UNL     1      -7.105   6.595  28.910  1.00  0.00     0.041 C 
ATOM      7  O   UNL     1      -8.185   6.964  29.442  1.00  0.00    -0.550 OA
ATOM      8  O   UNL     1      -7.114   5.561  27.983  1.00  0.00    -0.550 OA
ENDBRANCH   5   6
ENDBRANCH   4   5
ENDBRANCH   3   4
ENDBRANCH   2   3
ENDBRANCH   1   2
BRANCH   1   9
ATOM      9  C   UNL     1      -6.205   7.421  24.859  1.00  0.00     0.000 C 
BRANCH   9  10
ATOM     10  C   UNL     1      -7.110   8.353  25.676  1.00  0.00    -0.000 C 
BRANCH  10  11
ATOM     11  C   UNL     1      -7.644   9.542  24.856  1.00  0.00    -0.000 C 
BRANCH  11  12
ATOM     12  C   UNL     1      -6.920   9.788  23.521  1.00  0.00    -0.000 C 
BRANCH  12  13
ATOM     13  C   UNL     1      -5.985  11.006  23.563  1.00  0.00    -0.003 C 
ATOM     14  C   UNL     1      -4.528  10.586  23.386  1.00  0.00     0.004 C 
ENDBRANCH  12  13
ENDBRANCH  11  12
ENDBRANCH  10  11
ENDBRANCH   9  10
ENDBRANCH   1   9
TORSDOF 10
ENDMDL
