MODEL 1
REMARK VINA RESULT:    -8.598      0.000      0.000
REMARK INTER + INTRA:         -15.280
REMARK INTER:                 -14.128
REMARK INTRA:                  -1.152
REMARK UNBOUND:                -1.152
REMARK SMILES C[C@H]1O[C@H](OC[C@@H]2O[C@H](Oc3c(-c4ccc(O)c(O)c4)oc4cc(O)cc(O)c4c3=O)[C@@H](O)[C@@H](O)[C@H]2O)[C@@H](O)[C@@H](O)[C@H]1O
REMARK SMILES IDX 7 1 36 2 34 3 32 4 9 5 8 6 6 7 5 8 4 9 1 10 2 11 42 12 3 13
REMARK SMILES IDX 40 14 38 15 43 16 41 18 39 20 37 22 35 24 10 26 11 27 12 28
REMARK SMILES IDX 30 29 21 30 29 31 31 32 22 33 27 34 23 35 26 36 24 37 13 38
REMARK SMILES IDX 20 39 14 40 18 41 15 42 16 43 19 44 17 46 28 48 25 50 33 52
REMARK H PARENT 43 17 41 19 39 21 37 23 35 25 19 45 17 47 28 49 25 51 33 53
REMARK Flexibility Score: inf
ROOT
ATOM      1  C   UNL     1      18.109  -6.394  33.313  1.00  0.00     0.180 C 
ATOM      2  C   UNL     1      17.977  -7.854  33.812  1.00  0.00     0.177 C 
ATOM      3  C   UNL     1      17.468  -8.775  32.687  1.00  0.00     0.180 C 
ATOM      4  C   UNL     1      18.298  -8.585  31.408  1.00  0.00     0.214 C 
ATOM      5  C   UNL     1      18.339  -7.095  31.036  1.00  0.00     0.339 C 
ATOM      6  O   UNL     1      18.829  -6.274  32.089  1.00  0.00    -0.332 OA
ENDROOT
BRANCH   1   7
ATOM      7  C   UNL     1      16.771  -5.626  33.295  1.00  0.00     0.198 C 
BRANCH   7   8
ATOM      8  O   UNL     1      17.030  -4.240  33.386  1.00  0.00    -0.347 OA
BRANCH   8   9
ATOM      9  C   UNL     1      16.427  -3.692  34.550  1.00  0.00     0.281 C 
ATOM     10  C   UNL     1      14.987  -0.657  33.031  1.00  0.00     0.041 C 
ATOM     11  C   UNL     1      15.167  -2.153  33.299  1.00  0.00     0.150 C 
ATOM     12  C   UNL     1      13.820  -2.827  33.635  1.00  0.00     0.174 C 
ATOM     13  O   UNL     1      16.095  -2.321  34.361  1.00  0.00    -0.344 OA
ATOM     14  C   UNL     1      14.064  -4.325  33.893  1.00  0.00     0.179 C 
ATOM     15  C   UNL     1      15.183  -4.524  34.933  1.00  0.00     0.202 C 
BRANCH  12  16
ATOM     16  O   UNL     1      13.243  -2.212  34.761  1.00  0.00    -0.388 OA
ATOM     17  H   UNL     1      12.600  -2.859  35.143  1.00  0.00     0.211 HD
ENDBRANCH  12  16
BRANCH  14  18
ATOM     18  O   UNL     1      12.876  -4.941  34.319  1.00  0.00    -0.387 OA
ATOM     19  H   UNL     1      12.133  -4.500  33.830  1.00  0.00     0.211 HD
ENDBRANCH  14  18
BRANCH  15  20
ATOM     20  O   UNL     1      14.724  -4.144  36.206  1.00  0.00    -0.385 OA
ATOM     21  H   UNL     1      13.760  -3.934  36.112  1.00  0.00     0.211 HD
ENDBRANCH  15  20
ENDBRANCH   8   9
ENDBRANCH   7   8
ENDBRANCH   1   7
BRANCH   2  22
ATOM     22  O   UNL     1      19.237  -8.289  34.269  1.00  0.00    -0.387 OA
ATOM     23  H   UNL     1      19.734  -7.487  34.578  1.00  0.00     0.211 HD
ENDBRANCH   2  22
BRANCH   3  24
ATOM     24  O   UNL     1      17.427 -10.125  33.084  1.00  0.00    -0.387 OA
ATOM     25  H   UNL     1      18.120 -10.273  33.775  1.00  0.00     0.211 HD
ENDBRANCH   3  24
BRANCH   5  26
ATOM     26  O   UNL     1      17.053  -6.658  30.596  1.00  0.00    -0.454 OA
BRANCH  26  27
ATOM     27  C   UNL     1      16.409  -7.223  29.490  1.00  0.00     0.214 A 
ATOM     28  C   UNL     1      16.989  -7.131  28.213  1.00  0.00     0.180 A 
ATOM     29  C   UNL     1      15.163  -7.849  29.627  1.00  0.00     0.239 A 
ATOM     30  O   UNL     1      16.338  -7.600  27.157  1.00  0.00    -0.452 OA
ATOM     31  C   UNL     1      14.520  -8.396  28.491  1.00  0.00     0.111 A 
ATOM     32  O   UNL     1      14.629  -7.879  30.766  1.00  0.00    -0.285 OA
ATOM     33  C   UNL     1      15.157  -8.201  27.236  1.00  0.00     0.146 A 
ATOM     34  C   UNL     1      13.270  -9.085  28.520  1.00  0.00     0.134 A 
ATOM     35  C   UNL     1      14.546  -8.631  26.054  1.00  0.00     0.094 A 
ATOM     36  C   UNL     1      12.668  -9.472  27.317  1.00  0.00     0.093 A 
ATOM     37  C   UNL     1      13.297  -9.252  26.091  1.00  0.00     0.123 A 
BRANCH  28  38
ATOM     38  C   UNL     1      18.289  -6.456  28.000  1.00  0.00     0.025 A 
ATOM     39  C   UNL     1      19.473  -7.207  28.071  1.00  0.00     0.062 A 
ATOM     40  C   UNL     1      18.366  -5.078  27.734  1.00  0.00     0.016 A 
ATOM     41  C   UNL     1      20.718  -6.598  27.844  1.00  0.00     0.158 A 
ATOM     42  C   UNL     1      19.604  -4.470  27.511  1.00  0.00     0.051 A 
ATOM     43  C   UNL     1      20.781  -5.223  27.559  1.00  0.00     0.157 A 
BRANCH  41  44
ATOM     44  O   UNL     1      21.887  -7.356  27.901  1.00  0.00    -0.504 OA
ATOM     45  H   UNL     1      21.980  -8.137  28.542  1.00  0.00     0.293 HD
ENDBRANCH  41  44
BRANCH  43  46
ATOM     46  O   UNL     1      22.001  -4.590  27.322  1.00  0.00    -0.504 OA
ATOM     47  H   UNL     1      22.509  -4.107  28.054  1.00  0.00     0.293 HD
ENDBRANCH  43  46
ENDBRANCH  28  38
BRANCH  34  48
ATOM     48  O   UNL     1      12.594  -9.430  29.694  1.00  0.00    -0.507 OA
ATOM     49  H   UNL     1      11.976  -8.820  30.204  1.00  0.00     0.293 HD
ENDBRANCH  34  48
BRANCH  37  50
ATOM     50  O   UNL     1      12.675  -9.663  24.914  1.00  0.00    -0.508 OA
ATOM     51  H   UNL     1      11.925  -9.127  24.495  1.00  0.00     0.293 HD
ENDBRANCH  37  50
ENDBRANCH  26  27
ENDBRANCH   5  26
BRANCH   4  52
ATOM     52  O   UNL     1      19.616  -9.048  31.587  1.00  0.00    -0.384 OA
ATOM     53  H   UNL     1      19.693  -9.909  31.097  1.00  0.00     0.211 HD
ENDBRANCH   4  52
TORSDOF 16
ENDMDL
MODEL 2
REMARK VINA RESULT:    -8.428      2.057      5.392
REMARK INTER + INTRA:         -15.000
REMARK INTER:                 -12.423
REMARK INTRA:                  -2.577
REMARK UNBOUND:                -1.152
REMARK SMILES C[C@H]1O[C@H](OC[C@@H]2O[C@H](Oc3c(-c4ccc(O)c(O)c4)oc4cc(O)cc(O)c4c3=O)[C@@H](O)[C@@H](O)[C@H]2O)[C@@H](O)[C@@H](O)[C@H]1O
REMARK SMILES IDX 7 1 36 2 34 3 32 4 9 5 8 6 6 7 5 8 4 9 1 10 2 11 42 12 3 13
REMARK SMILES IDX 40 14 38 15 43 16 41 18 39 20 37 22 35 24 10 26 11 27 12 28
REMARK SMILES IDX 30 29 21 30 29 31 31 32 22 33 27 34 23 35 26 36 24 37 13 38
REMARK SMILES IDX 20 39 14 40 18 41 15 42 16 43 19 44 17 46 28 48 25 50 33 52
REMARK H PARENT 43 17 41 19 39 21 37 23 35 25 19 45 17 47 28 49 25 51 33 53
REMARK Flexibility Score: inf
ROOT
ATOM      1  C   UNL     1      14.360  -8.335  32.677  1.00  0.00     0.180 C 
ATOM      2  C   UNL     1      12.976  -8.511  32.007  1.00  0.00     0.177 C 
ATOM      3  C   UNL     1      13.019  -8.073  30.531  1.00  0.00     0.180 C 
ATOM      4  C   UNL     1      14.197  -8.735  29.800  1.00  0.00     0.214 C 
ATOM      5  C   UNL     1      15.497  -8.475  30.576  1.00  0.00     0.339 C 
ATOM      6  O   UNL     1      15.431  -8.907  31.929  1.00  0.00    -0.332 OA
ENDROOT
BRANCH   1   7
ATOM      7  C   UNL     1      14.650  -6.886  33.120  1.00  0.00     0.198 C 
BRANCH   7   8
ATOM      8  O   UNL     1      13.428  -6.192  33.266  1.00  0.00    -0.347 OA
BRANCH   8   9
ATOM      9  C   UNL     1      13.573  -4.833  32.881  1.00  0.00     0.281 C 
ATOM     10  C   UNL     1      10.559  -3.485  34.523  1.00  0.00     0.041 C 
ATOM     11  C   UNL     1      11.950  -4.115  34.421  1.00  0.00     0.150 C 
ATOM     12  C   UNL     1      12.970  -3.361  35.301  1.00  0.00     0.174 C 
ATOM     13  O   UNL     1      12.356  -4.114  33.061  1.00  0.00    -0.344 OA
ATOM     14  C   UNL     1      14.345  -4.038  35.159  1.00  0.00     0.179 C 
ATOM     15  C   UNL     1      14.730  -4.186  33.674  1.00  0.00     0.202 C 
BRANCH  12  16
ATOM     16  O   UNL     1      13.034  -2.011  34.911  1.00  0.00    -0.388 OA
ATOM     17  H   UNL     1      12.109  -1.661  34.933  1.00  0.00     0.211 HD
ENDBRANCH  12  16
BRANCH  14  18
ATOM     18  O   UNL     1      15.320  -3.302  35.852  1.00  0.00    -0.387 OA
ATOM     19  H   UNL     1      15.555  -3.828  36.661  1.00  0.00     0.211 HD
ENDBRANCH  14  18
BRANCH  15  20
ATOM     20  O   UNL     1      15.039  -2.927  33.133  1.00  0.00    -0.385 OA
ATOM     21  H   UNL     1      14.596  -2.879  32.247  1.00  0.00     0.211 HD
ENDBRANCH  15  20
ENDBRANCH   8   9
ENDBRANCH   7   8
ENDBRANCH   1   7
BRANCH   2  22
ATOM     22  O   UNL     1      12.598  -9.865  32.105  1.00  0.00    -0.387 OA
ATOM     23  H   UNL     1      11.606  -9.900  32.078  1.00  0.00     0.211 HD
ENDBRANCH   2  22
BRANCH   3  24
ATOM     24  O   UNL     1      11.799  -8.309  29.871  1.00  0.00    -0.387 OA
ATOM     25  H   UNL     1      11.930  -9.039  29.215  1.00  0.00     0.211 HD
ENDBRANCH   3  24
BRANCH   5  26
ATOM     26  O   UNL     1      15.861  -7.097  30.490  1.00  0.00    -0.454 OA
BRANCH  26  27
ATOM     27  C   UNL     1      16.979  -6.663  29.770  1.00  0.00     0.214 A 
ATOM     28  C   UNL     1      18.211  -6.485  30.421  1.00  0.00     0.180 A 
ATOM     29  C   UNL     1      16.880  -6.357  28.406  1.00  0.00     0.239 A 
ATOM     30  O   UNL     1      19.248  -5.998  29.751  1.00  0.00    -0.452 OA
ATOM     31  C   UNL     1      18.020  -5.898  27.702  1.00  0.00     0.111 A 
ATOM     32  O   UNL     1      15.759  -6.468  27.845  1.00  0.00    -0.285 OA
ATOM     33  C   UNL     1      19.204  -5.695  28.460  1.00  0.00     0.146 A 
ATOM     34  C   UNL     1      18.043  -5.592  26.308  1.00  0.00     0.134 A 
ATOM     35  C   UNL     1      20.348  -5.159  27.860  1.00  0.00     0.094 A 
ATOM     36  C   UNL     1      19.193  -5.025  25.745  1.00  0.00     0.093 A 
ATOM     37  C   UNL     1      20.340  -4.811  26.509  1.00  0.00     0.123 A 
BRANCH  28  38
ATOM     38  C   UNL     1      18.371  -6.763  31.866  1.00  0.00     0.025 A 
ATOM     39  C   UNL     1      18.019  -5.775  32.799  1.00  0.00     0.062 A 
ATOM     40  C   UNL     1      18.876  -7.992  32.326  1.00  0.00     0.016 A 
ATOM     41  C   UNL     1      18.133  -6.022  34.177  1.00  0.00     0.158 A 
ATOM     42  C   UNL     1      18.994  -8.238  33.696  1.00  0.00     0.051 A 
ATOM     43  C   UNL     1      18.620  -7.262  34.625  1.00  0.00     0.157 A 
BRANCH  41  44
ATOM     44  O   UNL     1      17.765  -5.040  35.096  1.00  0.00    -0.504 OA
ATOM     45  H   UNL     1      18.330  -4.209  35.235  1.00  0.00     0.293 HD
ENDBRANCH  41  44
BRANCH  43  46
ATOM     46  O   UNL     1      18.740  -7.541  35.987  1.00  0.00    -0.504 OA
ATOM     47  H   UNL     1      18.914  -8.478  36.332  1.00  0.00     0.293 HD
ENDBRANCH  43  46
ENDBRANCH  28  38
BRANCH  34  48
ATOM     48  O   UNL     1      16.980  -5.843  25.434  1.00  0.00    -0.507 OA
ATOM     49  H   UNL     1      16.122  -6.305  25.688  1.00  0.00     0.293 HD
ENDBRANCH  34  48
BRANCH  37  50
ATOM     50  O   UNL     1      21.471  -4.258  25.913  1.00  0.00    -0.508 OA
ATOM     51  H   UNL     1      22.042  -3.573  26.392  1.00  0.00     0.293 HD
ENDBRANCH  37  50
ENDBRANCH  26  27
ENDBRANCH   5  26
BRANCH   4  52
ATOM     52  O   UNL     1      14.004 -10.125  29.683  1.00  0.00    -0.384 OA
ATOM     53  H   UNL     1      14.896 -10.553  29.765  1.00  0.00     0.211 HD
ENDBRANCH   4  52
TORSDOF 16
ENDMDL
MODEL 3
REMARK VINA RESULT:    -8.273      2.351      5.601
REMARK INTER + INTRA:         -14.745
REMARK INTER:                 -13.150
REMARK INTRA:                  -1.594
REMARK UNBOUND:                -1.152
REMARK SMILES C[C@H]1O[C@H](OC[C@@H]2O[C@H](Oc3c(-c4ccc(O)c(O)c4)oc4cc(O)cc(O)c4c3=O)[C@@H](O)[C@@H](O)[C@H]2O)[C@@H](O)[C@@H](O)[C@H]1O
REMARK SMILES IDX 7 1 36 2 34 3 32 4 9 5 8 6 6 7 5 8 4 9 1 10 2 11 42 12 3 13
REMARK SMILES IDX 40 14 38 15 43 16 41 18 39 20 37 22 35 24 10 26 11 27 12 28
REMARK SMILES IDX 30 29 21 30 29 31 31 32 22 33 27 34 23 35 26 36 24 37 13 38
REMARK SMILES IDX 20 39 14 40 18 41 15 42 16 43 19 44 17 46 28 48 25 50 33 52
REMARK H PARENT 43 17 41 19 39 21 37 23 35 25 19 45 17 47 28 49 25 51 33 53
REMARK Flexibility Score: inf
ROOT
ATOM      1  C   UNL     1      15.462  -8.306  31.780  1.00  0.00     0.180 C 
ATOM      2  C   UNL     1      14.472  -7.925  30.652  1.00  0.00     0.177 C 
ATOM      3  C   UNL     1      15.208  -7.756  29.309  1.00  0.00     0.180 C 
ATOM      4  C   UNL     1      16.104  -8.971  29.022  1.00  0.00     0.214 C 
ATOM      5  C   UNL     1      17.027  -9.227  30.222  1.00  0.00     0.339 C 
ATOM      6  O   UNL     1      16.318  -9.395  31.442  1.00  0.00    -0.332 OA
ENDROOT
BRANCH   1   7
ATOM      7  C   UNL     1      16.232  -7.100  32.357  1.00  0.00     0.198 C 
BRANCH   7   8
ATOM      8  O   UNL     1      15.369  -6.355  33.191  1.00  0.00    -0.347 OA
BRANCH   8   9
ATOM      9  C   UNL     1      15.538  -4.962  32.973  1.00  0.00     0.281 C 
ATOM     10  C   UNL     1      12.374  -3.796  34.464  1.00  0.00     0.041 C 
ATOM     11  C   UNL     1      13.773  -4.414  34.425  1.00  0.00     0.150 C 
ATOM     12  C   UNL     1      14.701  -3.764  35.473  1.00  0.00     0.174 C 
ATOM     13  O   UNL     1      14.304  -4.264  33.117  1.00  0.00    -0.344 OA
ATOM     14  C   UNL     1      16.089  -4.425  35.386  1.00  0.00     0.179 C 
ATOM     15  C   UNL     1      16.611  -4.409  33.937  1.00  0.00     0.202 C 
BRANCH  12  16
ATOM     16  O   UNL     1      14.791  -2.379  35.241  1.00  0.00    -0.388 OA
ATOM     17  H   UNL     1      15.251  -1.986  36.024  1.00  0.00     0.211 HD
ENDBRANCH  12  16
BRANCH  14  18
ATOM     18  O   UNL     1      16.989  -3.771  36.244  1.00  0.00    -0.387 OA
ATOM     19  H   UNL     1      17.294  -2.954  35.771  1.00  0.00     0.211 HD
ENDBRANCH  14  18
BRANCH  15  20
ATOM     20  O   UNL     1      16.959  -3.099  33.569  1.00  0.00    -0.385 OA
ATOM     21  H   UNL     1      16.110  -2.600  33.448  1.00  0.00     0.211 HD
ENDBRANCH  15  20
ENDBRANCH   8   9
ENDBRANCH   7   8
ENDBRANCH   1   7
BRANCH   2  22
ATOM     22  O   UNL     1      13.494  -8.934  30.552  1.00  0.00    -0.387 OA
ATOM     23  H   UNL     1      13.030  -8.986  31.428  1.00  0.00     0.211 HD
ENDBRANCH   2  22
BRANCH   3  24
ATOM     24  O   UNL     1      14.321  -7.502  28.246  1.00  0.00    -0.387 OA
ATOM     25  H   UNL     1      13.847  -8.341  28.021  1.00  0.00     0.211 HD
ENDBRANCH   3  24
BRANCH   5  26
ATOM     26  O   UNL     1      18.001  -8.188  30.329  1.00  0.00    -0.454 OA
BRANCH  26  27
ATOM     27  C   UNL     1      19.307  -8.334  29.847  1.00  0.00     0.214 A 
ATOM     28  C   UNL     1      19.638  -7.873  28.562  1.00  0.00     0.180 A 
ATOM     29  C   UNL     1      20.288  -8.976  30.613  1.00  0.00     0.239 A 
ATOM     30  O   UNL     1      20.856  -8.084  28.078  1.00  0.00    -0.452 OA
ATOM     31  C   UNL     1      21.597  -9.132  30.097  1.00  0.00     0.111 A 
ATOM     32  O   UNL     1      19.965  -9.432  31.742  1.00  0.00    -0.285 OA
ATOM     33  C   UNL     1      21.819  -8.685  28.766  1.00  0.00     0.146 A 
ATOM     34  C   UNL     1      22.680  -9.735  30.802  1.00  0.00     0.134 A 
ATOM     35  C   UNL     1      23.058  -8.883  28.148  1.00  0.00     0.094 A 
ATOM     36  C   UNL     1      23.898  -9.949  30.145  1.00  0.00     0.093 A 
ATOM     37  C   UNL     1      24.092  -9.525  28.830  1.00  0.00     0.123 A 
BRANCH  28  38
ATOM     38  C   UNL     1      18.638  -7.214  27.693  1.00  0.00     0.025 A 
ATOM     39  C   UNL     1      17.962  -7.973  26.724  1.00  0.00     0.062 A 
ATOM     40  C   UNL     1      18.355  -5.842  27.809  1.00  0.00     0.016 A 
ATOM     41  C   UNL     1      16.987  -7.379  25.905  1.00  0.00     0.158 A 
ATOM     42  C   UNL     1      17.389  -5.249  26.993  1.00  0.00     0.051 A 
ATOM     43  C   UNL     1      16.698  -6.011  26.044  1.00  0.00     0.157 A 
BRANCH  41  44
ATOM     44  O   UNL     1      16.310  -8.146  24.958  1.00  0.00    -0.504 OA
ATOM     45  H   UNL     1      15.444  -8.623  25.186  1.00  0.00     0.293 HD
ENDBRANCH  41  44
BRANCH  43  46
ATOM     46  O   UNL     1      15.732  -5.393  25.252  1.00  0.00    -0.504 OA
ATOM     47  H   UNL     1      15.834  -5.305  24.247  1.00  0.00     0.293 HD
ENDBRANCH  43  46
ENDBRANCH  28  38
BRANCH  34  48
ATOM     48  O   UNL     1      22.622 -10.121  32.145  1.00  0.00    -0.507 OA
ATOM     49  H   UNL     1      23.332  -9.924  32.832  1.00  0.00     0.293 HD
ENDBRANCH  34  48
BRANCH  37  50
ATOM     50  O   UNL     1      25.321  -9.742  28.211  1.00  0.00    -0.508 OA
ATOM     51  H   UNL     1      25.873  -8.976  27.844  1.00  0.00     0.293 HD
ENDBRANCH  37  50
ENDBRANCH  26  27
ENDBRANCH   5  26
BRANCH   4  52
ATOM     52  O   UNL     1      15.331 -10.125  28.785  1.00  0.00    -0.384 OA
ATOM     53  H   UNL     1      15.963 -10.863  28.578  1.00  0.00     0.211 HD
ENDBRANCH   4  52
TORSDOF 16
ENDMDL
MODEL 4
REMARK VINA RESULT:    -7.883      2.868      7.050
REMARK INTER + INTRA:         -14.105
REMARK INTER:                 -12.570
REMARK INTRA:                  -1.535
REMARK UNBOUND:                -1.152
REMARK SMILES C[C@H]1O[C@H](OC[C@@H]2O[C@H](Oc3c(-c4ccc(O)c(O)c4)oc4cc(O)cc(O)c4c3=O)[C@@H](O)[C@@H](O)[C@H]2O)[C@@H](O)[C@@H](O)[C@H]1O
REMARK SMILES IDX 7 1 36 2 34 3 32 4 9 5 8 6 6 7 5 8 4 9 1 10 2 11 42 12 3 13
REMARK SMILES IDX 40 14 38 15 43 16 41 18 39 20 37 22 35 24 10 26 11 27 12 28
REMARK SMILES IDX 30 29 21 30 29 31 31 32 22 33 27 34 23 35 26 36 24 37 13 38
REMARK SMILES IDX 20 39 14 40 18 41 15 42 16 43 19 44 17 46 28 48 25 50 33 52
REMARK H PARENT 43 17 41 19 39 21 37 23 35 25 19 45 17 47 28 49 25 51 33 53
REMARK Flexibility Score: inf
ROOT
ATOM      1  C   UNL     1      16.303  -7.619  31.336  1.00  0.00     0.180 C 
ATOM      2  C   UNL     1      16.502  -7.890  32.847  1.00  0.00     0.177 C 
ATOM      3  C   UNL     1      17.959  -8.288  33.148  1.00  0.00     0.180 C 
ATOM      4  C   UNL     1      18.939  -7.283  32.521  1.00  0.00     0.214 C 
ATOM      5  C   UNL     1      18.622  -7.118  31.026  1.00  0.00     0.339 C 
ATOM      6  O   UNL     1      17.275  -6.734  30.784  1.00  0.00    -0.332 OA
ENDROOT
BRANCH   1   7
ATOM      7  C   UNL     1      16.121  -8.902  30.499  1.00  0.00     0.198 C 
BRANCH   7   8
ATOM      8  O   UNL     1      15.899  -8.548  29.149  1.00  0.00    -0.347 OA
BRANCH   8   9
ATOM      9  C   UNL     1      15.196  -9.578  28.469  1.00  0.00     0.281 C 
ATOM     10  C   UNL     1      12.178  -9.657  30.587  1.00  0.00     0.041 C 
ATOM     11  C   UNL     1      13.188  -9.088  29.587  1.00  0.00     0.150 C 
ATOM     12  C   UNL     1      12.484  -8.575  28.313  1.00  0.00     0.174 C 
ATOM     13  O   UNL     1      14.137 -10.094  29.270  1.00  0.00    -0.344 OA
ATOM     14  C   UNL     1      13.546  -8.015  27.349  1.00  0.00     0.179 C 
ATOM     15  C   UNL     1      14.669  -9.045  27.119  1.00  0.00     0.202 C 
BRANCH  12  16
ATOM     16  O   UNL     1      11.761  -9.620  27.710  1.00  0.00    -0.388 OA
ATOM     17  H   UNL     1      11.794 -10.389  28.333  1.00  0.00     0.211 HD
ENDBRANCH  12  16
BRANCH  14  18
ATOM     18  O   UNL     1      12.948  -7.652  26.131  1.00  0.00    -0.387 OA
ATOM     19  H   UNL     1      12.364  -6.872  26.320  1.00  0.00     0.211 HD
ENDBRANCH  14  18
BRANCH  15  20
ATOM     20  O   UNL     1      14.188 -10.108  26.336  1.00  0.00    -0.385 OA
ATOM     21  H   UNL     1      14.865 -10.831  26.387  1.00  0.00     0.211 HD
ENDBRANCH  15  20
ENDBRANCH   8   9
ENDBRANCH   7   8
ENDBRANCH   1   7
BRANCH   2  22
ATOM     22  O   UNL     1      16.153  -6.727  33.563  1.00  0.00    -0.387 OA
ATOM     23  H   UNL     1      15.981  -6.010  32.898  1.00  0.00     0.211 HD
ENDBRANCH   2  22
BRANCH   3  24
ATOM     24  O   UNL     1      18.192  -8.449  34.526  1.00  0.00    -0.387 OA
ATOM     25  H   UNL     1      19.158  -8.620  34.667  1.00  0.00     0.211 HD
ENDBRANCH   3  24
BRANCH   5  26
ATOM     26  O   UNL     1      18.957  -8.309  30.313  1.00  0.00    -0.454 OA
BRANCH  26  27
ATOM     27  C   UNL     1      20.192  -8.477  29.678  1.00  0.00     0.214 A 
ATOM     28  C   UNL     1      20.353  -8.088  28.337  1.00  0.00     0.180 A 
ATOM     29  C   UNL     1      21.269  -9.073  30.348  1.00  0.00     0.239 A 
ATOM     30  O   UNL     1      21.503  -8.322  27.716  1.00  0.00    -0.452 OA
ATOM     31  C   UNL     1      22.503  -9.253  29.678  1.00  0.00     0.111 A 
ATOM     32  O   UNL     1      21.097  -9.466  31.531  1.00  0.00    -0.285 OA
ATOM     33  C   UNL     1      22.551  -8.881  28.308  1.00  0.00     0.146 A 
ATOM     34  C   UNL     1      23.674  -9.813  30.273  1.00  0.00     0.134 A 
ATOM     35  C   UNL     1      23.703  -9.109  27.549  1.00  0.00     0.094 A 
ATOM     36  C   UNL     1      24.800 -10.060  29.478  1.00  0.00     0.093 A 
ATOM     37  C   UNL     1      24.822  -9.710  28.128  1.00  0.00     0.123 A 
BRANCH  28  38
ATOM     38  C   UNL     1      19.245  -7.482  27.568  1.00  0.00     0.025 A 
ATOM     39  C   UNL     1      18.514  -8.278  26.671  1.00  0.00     0.062 A 
ATOM     40  C   UNL     1      18.912  -6.123  27.707  1.00  0.00     0.016 A 
ATOM     41  C   UNL     1      17.439  -7.735  25.949  1.00  0.00     0.158 A 
ATOM     42  C   UNL     1      17.845  -5.581  26.987  1.00  0.00     0.051 A 
ATOM     43  C   UNL     1      17.102  -6.380  26.112  1.00  0.00     0.157 A 
BRANCH  41  44
ATOM     44  O   UNL     1      16.709  -8.538  25.073  1.00  0.00    -0.504 OA
ATOM     45  H   UNL     1      15.702  -8.452  24.993  1.00  0.00     0.293 HD
ENDBRANCH  41  44
BRANCH  43  46
ATOM     46  O   UNL     1      16.036  -5.813  25.414  1.00  0.00    -0.504 OA
ATOM     47  H   UNL     1      16.057  -5.683  24.409  1.00  0.00     0.293 HD
ENDBRANCH  43  46
ENDBRANCH  28  38
BRANCH  34  48
ATOM     48  O   UNL     1      23.790 -10.123  31.631  1.00  0.00    -0.507 OA
ATOM     49  H   UNL     1      24.553  -9.839  32.224  1.00  0.00     0.293 HD
ENDBRANCH  34  48
BRANCH  37  50
ATOM     50  O   UNL     1      25.964  -9.958  27.371  1.00  0.00    -0.508 OA
ATOM     51  H   UNL     1      25.967  -9.852  26.364  1.00  0.00     0.293 HD
ENDBRANCH  37  50
ENDBRANCH  26  27
ENDBRANCH   5  26
BRANCH   4  52
ATOM     52  O   UNL     1      18.846  -6.026  33.150  1.00  0.00    -0.384 OA
ATOM     53  H   UNL     1      17.894  -5.747  33.108  1.00  0.00     0.211 HD
ENDBRANCH   4  52
TORSDOF 16
ENDMDL
MODEL 5
REMARK VINA RESULT:    -6.854      5.663     10.187
REMARK INTER + INTRA:         -12.414
REMARK INTER:                 -11.247
REMARK INTRA:                  -1.166
REMARK UNBOUND:                -1.152
REMARK SMILES C[C@H]1O[C@H](OC[C@@H]2O[C@H](Oc3c(-c4ccc(O)c(O)c4)oc4cc(O)cc(O)c4c3=O)[C@@H](O)[C@@H](O)[C@H]2O)[C@@H](O)[C@@H](O)[C@H]1O
REMARK SMILES IDX 7 1 36 2 34 3 32 4 9 5 8 6 6 7 5 8 4 9 1 10 2 11 42 12 3 13
REMARK SMILES IDX 40 14 38 15 43 16 41 18 39 20 37 22 35 24 10 26 11 27 12 28
REMARK SMILES IDX 30 29 21 30 29 31 31 32 22 33 27 34 23 35 26 36 24 37 13 38
REMARK SMILES IDX 20 39 14 40 18 41 15 42 16 43 19 44 17 46 28 48 25 50 33 52
REMARK H PARENT 43 17 41 19 39 21 37 23 35 25 19 45 17 47 28 49 25 51 33 53
REMARK Flexibility Score: inf
ROOT
ATOM      1  C   UNL     1      25.882  -2.585  26.745  1.00  0.00     0.180 C 
ATOM      2  C   UNL     1      27.261  -3.230  27.033  1.00  0.00     0.177 C 
ATOM      3  C   UNL     1      27.098  -4.690  27.498  1.00  0.00     0.180 C 
ATOM      4  C   UNL     1      26.190  -5.471  26.535  1.00  0.00     0.214 C 
ATOM      5  C   UNL     1      24.866  -4.715  26.348  1.00  0.00     0.339 C 
ATOM      6  O   UNL     1      25.049  -3.377  25.902  1.00  0.00    -0.332 OA
ENDROOT
BRANCH   1   7
ATOM      7  C   UNL     1      25.154  -2.097  28.015  1.00  0.00     0.198 C 
BRANCH   7   8
ATOM      8  O   UNL     1      25.732  -0.881  28.443  1.00  0.00    -0.347 OA
BRANCH   8   9
ATOM      9  C   UNL     1      25.764   0.062  27.381  1.00  0.00     0.281 C 
ATOM     10  C   UNL     1      24.069   2.854  29.090  1.00  0.00     0.041 C 
ATOM     11  C   UNL     1      25.176   1.839  28.801  1.00  0.00     0.150 C 
ATOM     12  C   UNL     1      26.550   2.531  28.672  1.00  0.00     0.174 C 
ATOM     13  O   UNL     1      24.853   1.131  27.614  1.00  0.00    -0.344 OA
ATOM     14  C   UNL     1      27.620   1.463  28.384  1.00  0.00     0.179 C 
ATOM     15  C   UNL     1      27.205   0.583  27.189  1.00  0.00     0.202 C 
BRANCH  12  16
ATOM     16  O   UNL     1      26.509   3.489  27.643  1.00  0.00    -0.388 OA
ATOM     17  H   UNL     1      26.298   3.003  26.807  1.00  0.00     0.211 HD
ENDBRANCH  12  16
BRANCH  14  18
ATOM     18  O   UNL     1      28.860   2.076  28.142  1.00  0.00    -0.387 OA
ATOM     19  H   UNL     1      28.694   3.054  28.101  1.00  0.00     0.211 HD
ENDBRANCH  14  18
BRANCH  15  20
ATOM     20  O   UNL     1      27.295   1.323  25.998  1.00  0.00    -0.385 OA
ATOM     21  H   UNL     1      27.593   2.235  26.249  1.00  0.00     0.211 HD
ENDBRANCH  15  20
ENDBRANCH   8   9
ENDBRANCH   7   8
ENDBRANCH   1   7
BRANCH   2  22
ATOM     22  O   UNL     1      28.038  -3.172  25.859  1.00  0.00    -0.387 OA
ATOM     23  H   UNL     1      28.117  -4.098  25.509  1.00  0.00     0.211 HD
ENDBRANCH   2  22
BRANCH   3  24
ATOM     24  O   UNL     1      28.339  -5.331  27.677  1.00  0.00    -0.387 OA
ATOM     25  H   UNL     1      28.666  -5.640  26.795  1.00  0.00     0.211 HD
ENDBRANCH   3  24
BRANCH   5  26
ATOM     26  O   UNL     1      24.095  -4.759  27.548  1.00  0.00    -0.454 OA
BRANCH  26  27
ATOM     27  C   UNL     1      22.954  -5.559  27.675  1.00  0.00     0.214 A 
ATOM     28  C   UNL     1      23.081  -6.926  27.973  1.00  0.00     0.180 A 
ATOM     29  C   UNL     1      21.675  -5.025  27.466  1.00  0.00     0.239 A 
ATOM     30  O   UNL     1      22.001  -7.697  28.015  1.00  0.00    -0.452 OA
ATOM     31  C   UNL     1      20.536  -5.857  27.579  1.00  0.00     0.111 A 
ATOM     32  O   UNL     1      21.577  -3.811  27.148  1.00  0.00    -0.285 OA
ATOM     33  C   UNL     1      20.771  -7.237  27.825  1.00  0.00     0.146 A 
ATOM     34  C   UNL     1      19.189  -5.413  27.423  1.00  0.00     0.134 A 
ATOM     35  C   UNL     1      19.706  -8.143  27.861  1.00  0.00     0.094 A 
ATOM     36  C   UNL     1      18.148  -6.350  27.430  1.00  0.00     0.093 A 
ATOM     37  C   UNL     1      18.398  -7.705  27.651  1.00  0.00     0.123 A 
BRANCH  28  38
ATOM     38  C   UNL     1      24.405  -7.555  28.175  1.00  0.00     0.025 A 
ATOM     39  C   UNL     1      24.836  -8.552  27.285  1.00  0.00     0.062 A 
ATOM     40  C   UNL     1      25.239  -7.184  29.244  1.00  0.00     0.016 A 
ATOM     41  C   UNL     1      26.100  -9.145  27.435  1.00  0.00     0.158 A 
ATOM     42  C   UNL     1      26.495  -7.776  29.397  1.00  0.00     0.051 A 
ATOM     43  C   UNL     1      26.934  -8.751  28.496  1.00  0.00     0.157 A 
BRANCH  41  44
ATOM     44  O   UNL     1      26.525 -10.122  26.536  1.00  0.00    -0.504 OA
ATOM     45  H   UNL     1      27.181 -10.845  26.813  1.00  0.00     0.293 HD
ENDBRANCH  41  44
BRANCH  43  46
ATOM     46  O   UNL     1      28.197  -9.316  28.670  1.00  0.00    -0.504 OA
ATOM     47  H   UNL     1      28.953  -9.158  28.015  1.00  0.00     0.293 HD
ENDBRANCH  43  46
ENDBRANCH  28  38
BRANCH  34  48
ATOM     48  O   UNL     1      18.818  -4.072  27.280  1.00  0.00    -0.507 OA
ATOM     49  H   UNL     1      19.460  -3.296  27.259  1.00  0.00     0.293 HD
ENDBRANCH  34  48
BRANCH  37  50
ATOM     50  O   UNL     1      17.338  -8.607  27.666  1.00  0.00    -0.508 OA
ATOM     51  H   UNL     1      17.487  -9.603  27.560  1.00  0.00     0.293 HD
ENDBRANCH  37  50
ENDBRANCH  26  27
ENDBRANCH   5  26
BRANCH   4  52
ATOM     52  O   UNL     1      26.806  -5.634  25.279  1.00  0.00    -0.384 OA
ATOM     53  H   UNL     1      26.879  -4.732  24.869  1.00  0.00     0.211 HD
ENDBRANCH   4  52
TORSDOF 16
ENDMDL
MODEL 6
REMARK VINA RESULT:    -6.618      7.516     12.661
REMARK INTER + INTRA:         -12.025
REMARK INTER:                 -11.894
REMARK INTRA:                  -0.131
REMARK UNBOUND:                -1.152
REMARK SMILES C[C@H]1O[C@H](OC[C@@H]2O[C@H](Oc3c(-c4ccc(O)c(O)c4)oc4cc(O)cc(O)c4c3=O)[C@@H](O)[C@@H](O)[C@H]2O)[C@@H](O)[C@@H](O)[C@H]1O
REMARK SMILES IDX 7 1 36 2 34 3 32 4 9 5 8 6 6 7 5 8 4 9 1 10 2 11 42 12 3 13
REMARK SMILES IDX 40 14 38 15 43 16 41 18 39 20 37 22 35 24 10 26 11 27 12 28
REMARK SMILES IDX 30 29 21 30 29 31 31 32 22 33 27 34 23 35 26 36 24 37 13 38
REMARK SMILES IDX 20 39 14 40 18 41 15 42 16 43 19 44 17 46 28 48 25 50 33 52
REMARK H PARENT 43 17 41 19 39 21 37 23 35 25 19 45 17 47 28 49 25 51 33 53
REMARK Flexibility Score: inf
ROOT
ATOM      1  C   UNL     1      25.832   0.756  26.937  1.00  0.00     0.180 C 
ATOM      2  C   UNL     1      27.148   0.638  26.129  1.00  0.00     0.177 C 
ATOM      3  C   UNL     1      27.495  -0.838  25.858  1.00  0.00     0.180 C 
ATOM      4  C   UNL     1      26.288  -1.584  25.269  1.00  0.00     0.214 C 
ATOM      5  C   UNL     1      25.063  -1.378  26.173  1.00  0.00     0.339 C 
ATOM      6  O   UNL     1      24.758  -0.006  26.390  1.00  0.00    -0.332 OA
ENDROOT
BRANCH   1   7
ATOM      7  C   UNL     1      26.017   0.524  28.451  1.00  0.00     0.198 C 
BRANCH   7   8
ATOM      8  O   UNL     1      25.658   1.700  29.148  1.00  0.00    -0.347 OA
BRANCH   8   9
ATOM      9  C   UNL     1      25.519   2.793  28.251  1.00  0.00     0.281 C 
ATOM     10  C   UNL     1      23.166   4.822  30.235  1.00  0.00     0.041 C 
ATOM     11  C   UNL     1      24.486   4.134  29.880  1.00  0.00     0.150 C 
ATOM     12  C   UNL     1      25.671   5.119  29.968  1.00  0.00     0.174 C 
ATOM     13  O   UNL     1      24.381   3.585  28.575  1.00  0.00    -0.344 OA
ATOM     14  C   UNL     1      26.967   4.372  29.603  1.00  0.00     0.179 C 
ATOM     15  C   UNL     1      26.811   3.639  28.257  1.00  0.00     0.202 C 
BRANCH  12  16
ATOM     16  O   UNL     1      25.457   6.206  29.100  1.00  0.00    -0.388 OA
ATOM     17  H   UNL     1      26.108   6.114  28.361  1.00  0.00     0.211 HD
ENDBRANCH  12  16
BRANCH  14  18
ATOM     18  O   UNL     1      28.045   5.271  29.556  1.00  0.00    -0.387 OA
ATOM     19  H   UNL     1      28.541   5.081  28.717  1.00  0.00     0.211 HD
ENDBRANCH  14  18
BRANCH  15  20
ATOM     20  O   UNL     1      26.781   4.571  27.206  1.00  0.00    -0.385 OA
ATOM     21  H   UNL     1      26.011   4.328  26.630  1.00  0.00     0.211 HD
ENDBRANCH  15  20
ENDBRANCH   8   9
ENDBRANCH   7   8
ENDBRANCH   1   7
BRANCH   2  22
ATOM     22  O   UNL     1      26.994   1.337  24.915  1.00  0.00    -0.387 OA
ATOM     23  H   UNL     1      26.036   1.284  24.661  1.00  0.00     0.211 HD
ENDBRANCH   2  22
BRANCH   3  24
ATOM     24  O   UNL     1      28.636  -0.974  25.044  1.00  0.00    -0.387 OA
ATOM     25  H   UNL     1      28.893  -1.929  25.016  1.00  0.00     0.211 HD
ENDBRANCH   3  24
BRANCH   5  26
ATOM     26  O   UNL     1      25.237  -2.071  27.410  1.00  0.00    -0.454 OA
BRANCH  26  27
ATOM     27  C   UNL     1      25.869  -3.317  27.486  1.00  0.00     0.214 A 
ATOM     28  C   UNL     1      25.149  -4.490  27.204  1.00  0.00     0.180 A 
ATOM     29  C   UNL     1      27.208  -3.420  27.885  1.00  0.00     0.239 A 
ATOM     30  O   UNL     1      25.730  -5.674  27.354  1.00  0.00    -0.452 OA
ATOM     31  C   UNL     1      27.821  -4.693  27.976  1.00  0.00     0.111 A 
ATOM     32  O   UNL     1      27.827  -2.366  28.186  1.00  0.00    -0.285 OA
ATOM     33  C   UNL     1      26.995  -5.822  27.727  1.00  0.00     0.146 A 
ATOM     34  C   UNL     1      29.184  -4.912  28.335  1.00  0.00     0.134 A 
ATOM     35  C   UNL     1      27.498  -7.118  27.883  1.00  0.00     0.094 A 
ATOM     36  C   UNL     1      29.648  -6.221  28.516  1.00  0.00     0.093 A 
ATOM     37  C   UNL     1      28.817  -7.318  28.290  1.00  0.00     0.123 A 
BRANCH  28  38
ATOM     38  C   UNL     1      23.724  -4.449  26.807  1.00  0.00     0.025 A 
ATOM     39  C   UNL     1      22.750  -4.952  27.686  1.00  0.00     0.062 A 
ATOM     40  C   UNL     1      23.322  -3.925  25.567  1.00  0.00     0.016 A 
ATOM     41  C   UNL     1      21.389  -4.899  27.347  1.00  0.00     0.158 A 
ATOM     42  C   UNL     1      21.968  -3.874  25.227  1.00  0.00     0.051 A 
ATOM     43  C   UNL     1      20.997  -4.354  26.112  1.00  0.00     0.157 A 
BRANCH  41  44
ATOM     44  O   UNL     1      20.429  -5.386  28.234  1.00  0.00    -0.504 OA
ATOM     45  H   UNL     1      20.677  -5.674  29.174  1.00  0.00     0.293 HD
ENDBRANCH  41  44
BRANCH  43  46
ATOM     46  O   UNL     1      19.653  -4.281  25.749  1.00  0.00    -0.504 OA
ATOM     47  H   UNL     1      19.336  -4.494  24.810  1.00  0.00     0.293 HD
ENDBRANCH  43  46
ENDBRANCH  28  38
BRANCH  34  48
ATOM     48  O   UNL     1      30.124  -3.890  28.504  1.00  0.00    -0.507 OA
ATOM     49  H   UNL     1      29.911  -2.905  28.498  1.00  0.00     0.293 HD
ENDBRANCH  34  48
BRANCH  37  50
ATOM     50  O   UNL     1      29.316  -8.607  28.467  1.00  0.00    -0.508 OA
ATOM     51  H   UNL     1      29.330  -9.279  27.709  1.00  0.00     0.293 HD
ENDBRANCH  37  50
ENDBRANCH  26  27
ENDBRANCH   5  26
BRANCH   4  52
ATOM     52  O   UNL     1      25.985  -1.115  23.976  1.00  0.00    -0.384 OA
ATOM     53  H   UNL     1      26.423  -1.732  23.331  1.00  0.00     0.211 HD
ENDBRANCH   4  52
TORSDOF 16
ENDMDL
MODEL 7
REMARK VINA RESULT:    -6.179      1.507      2.191
REMARK INTER + INTRA:         -11.304
REMARK INTER:                 -11.430
REMARK INTRA:                   0.126
REMARK UNBOUND:                -1.152
REMARK SMILES C[C@H]1O[C@H](OC[C@@H]2O[C@H](Oc3c(-c4ccc(O)c(O)c4)oc4cc(O)cc(O)c4c3=O)[C@@H](O)[C@@H](O)[C@H]2O)[C@@H](O)[C@@H](O)[C@H]1O
REMARK SMILES IDX 7 1 36 2 34 3 32 4 9 5 8 6 6 7 5 8 4 9 1 10 2 11 42 12 3 13
REMARK SMILES IDX 40 14 38 15 43 16 41 18 39 20 37 22 35 24 10 26 11 27 12 28
REMARK SMILES IDX 30 29 21 30 29 31 31 32 22 33 27 34 23 35 26 36 24 37 13 38
REMARK SMILES IDX 20 39 14 40 18 41 15 42 16 43 19 44 17 46 28 48 25 50 33 52
REMARK H PARENT 43 17 41 19 39 21 37 23 35 25 19 45 17 47 28 49 25 51 33 53
REMARK Flexibility Score: inf
ROOT
ATOM      1  C   UNL     1      17.825  -6.395  32.828  1.00  0.00     0.180 C 
ATOM      2  C   UNL     1      18.717  -7.173  33.827  1.00  0.00     0.177 C 
ATOM      3  C   UNL     1      18.928  -8.625  33.360  1.00  0.00     0.180 C 
ATOM      4  C   UNL     1      19.385  -8.665  31.893  1.00  0.00     0.214 C 
ATOM      5  C   UNL     1      18.409  -7.857  31.026  1.00  0.00     0.339 C 
ATOM      6  O   UNL     1      18.249  -6.516  31.473  1.00  0.00    -0.332 OA
ENDROOT
BRANCH   1   7
ATOM      7  C   UNL     1      16.317  -6.668  33.008  1.00  0.00     0.198 C 
BRANCH   7   8
ATOM      8  O   UNL     1      15.767  -5.692  33.868  1.00  0.00    -0.347 OA
BRANCH   8   9
ATOM      9  C   UNL     1      15.462  -4.505  33.151  1.00  0.00     0.281 C 
ATOM     10  C   UNL     1      12.052  -3.959  34.443  1.00  0.00     0.041 C 
ATOM     11  C   UNL     1      13.578  -4.060  34.484  1.00  0.00     0.150 C 
ATOM     12  C   UNL     1      14.204  -2.806  35.130  1.00  0.00     0.174 C 
ATOM     13  O   UNL     1      14.062  -4.242  33.161  1.00  0.00    -0.344 OA
ATOM     14  C   UNL     1      15.736  -2.966  35.144  1.00  0.00     0.179 C 
ATOM     15  C   UNL     1      16.259  -3.320  33.739  1.00  0.00     0.202 C 
BRANCH  12  16
ATOM     16  O   UNL     1      13.827  -1.657  34.412  1.00  0.00    -0.388 OA
ATOM     17  H   UNL     1      13.743  -0.922  35.070  1.00  0.00     0.211 HD
ENDBRANCH  12  16
BRANCH  14  18
ATOM     18  O   UNL     1      16.339  -1.788  35.616  1.00  0.00    -0.387 OA
ATOM     19  H   UNL     1      15.619  -1.243  36.029  1.00  0.00     0.211 HD
ENDBRANCH  14  18
BRANCH  15  20
ATOM     20  O   UNL     1      16.154  -2.202  32.895  1.00  0.00    -0.385 OA
ATOM     21  H   UNL     1      16.726  -1.493  33.285  1.00  0.00     0.211 HD
ENDBRANCH  15  20
ENDBRANCH   8   9
ENDBRANCH   7   8
ENDBRANCH   1   7
BRANCH   2  22
ATOM     22  O   UNL     1      19.954  -6.508  33.936  1.00  0.00    -0.387 OA
ATOM     23  H   UNL     1      19.865  -5.829  34.655  1.00  0.00     0.211 HD
ENDBRANCH   2  22
BRANCH   3  24
ATOM     24  O   UNL     1      19.811  -9.330  34.199  1.00  0.00    -0.387 OA
ATOM     25  H   UNL     1      20.089 -10.162  33.740  1.00  0.00     0.211 HD
ENDBRANCH   3  24
BRANCH   5  26
ATOM     26  O   UNL     1      17.151  -8.526  30.938  1.00  0.00    -0.454 OA
BRANCH  26  27
ATOM     27  C   UNL     1      16.245  -8.284  29.900  1.00  0.00     0.214 A 
ATOM     28  C   UNL     1      16.705  -7.816  28.658  1.00  0.00     0.180 A 
ATOM     29  C   UNL     1      14.868  -8.459  30.093  1.00  0.00     0.239 A 
ATOM     30  O   UNL     1      15.836  -7.513  27.703  1.00  0.00    -0.452 OA
ATOM     31  C   UNL     1      13.967  -8.187  29.036  1.00  0.00     0.111 A 
ATOM     32  O   UNL     1      14.463  -8.827  31.227  1.00  0.00    -0.285 OA
ATOM     33  C   UNL     1      14.524  -7.664  27.838  1.00  0.00     0.146 A 
ATOM     34  C   UNL     1      12.553  -8.364  29.109  1.00  0.00     0.134 A 
ATOM     35  C   UNL     1      13.695  -7.283  26.777  1.00  0.00     0.094 A 
ATOM     36  C   UNL     1      11.749  -7.943  28.043  1.00  0.00     0.093 A 
ATOM     37  C   UNL     1      12.310  -7.409  26.883  1.00  0.00     0.123 A 
BRANCH  28  38
ATOM     38  C   UNL     1      18.144  -7.583  28.403  1.00  0.00     0.025 A 
ATOM     39  C   UNL     1      18.622  -6.266  28.311  1.00  0.00     0.062 A 
ATOM     40  C   UNL     1      19.044  -8.651  28.242  1.00  0.00     0.016 A 
ATOM     41  C   UNL     1      19.987  -6.015  28.098  1.00  0.00     0.158 A 
ATOM     42  C   UNL     1      20.402  -8.403  28.027  1.00  0.00     0.051 A 
ATOM     43  C   UNL     1      20.880  -7.091  27.959  1.00  0.00     0.157 A 
BRANCH  41  44
ATOM     44  O   UNL     1      20.453  -4.703  28.025  1.00  0.00    -0.504 OA
ATOM     45  H   UNL     1      20.028  -3.960  28.569  1.00  0.00     0.293 HD
ENDBRANCH  41  44
BRANCH  43  46
ATOM     46  O   UNL     1      22.243  -6.876  27.753  1.00  0.00    -0.504 OA
ATOM     47  H   UNL     1      22.816  -7.520  27.219  1.00  0.00     0.293 HD
ENDBRANCH  43  46
ENDBRANCH  28  38
BRANCH  34  48
ATOM     48  O   UNL     1      11.895  -8.964  30.187  1.00  0.00    -0.507 OA
ATOM     49  H   UNL     1      12.312  -9.153  31.084  1.00  0.00     0.293 HD
ENDBRANCH  34  48
BRANCH  37  50
ATOM     50  O   UNL     1      11.480  -7.013  25.836  1.00  0.00    -0.508 OA
ATOM     51  H   UNL     1      11.133  -7.676  25.154  1.00  0.00     0.293 HD
ENDBRANCH  37  50
ENDBRANCH  26  27
ENDBRANCH   5  26
BRANCH   4  52
ATOM     52  O   UNL     1      20.678  -8.125  31.752  1.00  0.00    -0.384 OA
ATOM     53  H   UNL     1      20.629  -7.427  31.047  1.00  0.00     0.211 HD
ENDBRANCH   4  52
TORSDOF 16
ENDMDL
MODEL 8
REMARK VINA RESULT:    -6.147      5.309      9.949
REMARK INTER + INTRA:         -11.252
REMARK INTER:                 -10.120
REMARK INTRA:                  -1.132
REMARK UNBOUND:                -1.152
REMARK SMILES C[C@H]1O[C@H](OC[C@@H]2O[C@H](Oc3c(-c4ccc(O)c(O)c4)oc4cc(O)cc(O)c4c3=O)[C@@H](O)[C@@H](O)[C@H]2O)[C@@H](O)[C@@H](O)[C@H]1O
REMARK SMILES IDX 7 1 36 2 34 3 32 4 9 5 8 6 6 7 5 8 4 9 1 10 2 11 42 12 3 13
REMARK SMILES IDX 40 14 38 15 43 16 41 18 39 20 37 22 35 24 10 26 11 27 12 28
REMARK SMILES IDX 30 29 21 30 29 31 31 32 22 33 27 34 23 35 26 36 24 37 13 38
REMARK SMILES IDX 20 39 14 40 18 41 15 42 16 43 19 44 17 46 28 48 25 50 33 52
REMARK H PARENT 43 17 41 19 39 21 37 23 35 25 19 45 17 47 28 49 25 51 33 53
REMARK Flexibility Score: inf
ROOT
ATOM      1  C   UNL     1      26.878  -5.109  27.576  1.00  0.00     0.180 C 
ATOM      2  C   UNL     1      27.160  -6.255  28.579  1.00  0.00     0.177 C 
ATOM      3  C   UNL     1      25.860  -6.995  28.947  1.00  0.00     0.180 C 
ATOM      4  C   UNL     1      25.085  -7.398  27.682  1.00  0.00     0.214 C 
ATOM      5  C   UNL     1      24.880  -6.165  26.789  1.00  0.00     0.339 C 
ATOM      6  O   UNL     1      26.099  -5.514  26.453  1.00  0.00    -0.332 OA
ENDROOT
BRANCH   1   7
ATOM      7  C   UNL     1      26.340  -3.826  28.243  1.00  0.00     0.198 C 
BRANCH   7   8
ATOM      8  O   UNL     1      27.241  -2.765  28.002  1.00  0.00    -0.347 OA
BRANCH   8   9
ATOM      9  C   UNL     1      26.779  -1.945  26.938  1.00  0.00     0.281 C 
ATOM     10  C   UNL     1      25.221   0.721  28.952  1.00  0.00     0.041 C 
ATOM     11  C   UNL     1      26.349  -0.139  28.378  1.00  0.00     0.150 C 
ATOM     12  C   UNL     1      27.472   0.737  27.782  1.00  0.00     0.174 C 
ATOM     13  O   UNL     1      25.809  -1.008  27.394  1.00  0.00    -0.344 OA
ATOM     14  C   UNL     1      28.575  -0.181  27.223  1.00  0.00     0.179 C 
ATOM     15  C   UNL     1      27.976  -1.234  26.270  1.00  0.00     0.202 C 
BRANCH  12  16
ATOM     16  O   UNL     1      26.949   1.564  26.771  1.00  0.00    -0.388 OA
ATOM     17  H   UNL     1      26.391   2.247  27.220  1.00  0.00     0.211 HD
ENDBRANCH  12  16
BRANCH  14  18
ATOM     18  O   UNL     1      29.552   0.584  26.566  1.00  0.00    -0.387 OA
ATOM     19  H   UNL     1      29.948   1.189  27.247  1.00  0.00     0.211 HD
ENDBRANCH  14  18
BRANCH  15  20
ATOM     20  O   UNL     1      27.565  -0.618  25.076  1.00  0.00    -0.385 OA
ATOM     21  H   UNL     1      26.963  -1.258  24.616  1.00  0.00     0.211 HD
ENDBRANCH  15  20
ENDBRANCH   8   9
ENDBRANCH   7   8
ENDBRANCH   1   7
BRANCH   2  22
ATOM     22  O   UNL     1      28.083  -7.146  27.996  1.00  0.00    -0.387 OA
ATOM     23  H   UNL     1      27.699  -7.450  27.133  1.00  0.00     0.211 HD
ENDBRANCH   2  22
BRANCH   3  24
ATOM     24  O   UNL     1      26.098  -8.102  29.784  1.00  0.00    -0.387 OA
ATOM     25  H   UNL     1      26.770  -8.687  29.352  1.00  0.00     0.211 HD
ENDBRANCH   3  24
BRANCH   5  26
ATOM     26  O   UNL     1      23.960  -5.258  27.397  1.00  0.00    -0.454 OA
BRANCH  26  27
ATOM     27  C   UNL     1      22.583  -5.314  27.155  1.00  0.00     0.214 A 
ATOM     28  C   UNL     1      21.991  -4.420  26.247  1.00  0.00     0.180 A 
ATOM     29  C   UNL     1      21.771  -6.227  27.840  1.00  0.00     0.239 A 
ATOM     30  O   UNL     1      20.674  -4.425  26.080  1.00  0.00    -0.452 OA
ATOM     31  C   UNL     1      20.376  -6.252  27.594  1.00  0.00     0.111 A 
ATOM     32  O   UNL     1      22.305  -6.987  28.689  1.00  0.00    -0.285 OA
ATOM     33  C   UNL     1      19.864  -5.271  26.704  1.00  0.00     0.146 A 
ATOM     34  C   UNL     1      19.462  -7.160  28.206  1.00  0.00     0.134 A 
ATOM     35  C   UNL     1      18.488  -5.168  26.476  1.00  0.00     0.094 A 
ATOM     36  C   UNL     1      18.087  -7.010  27.984  1.00  0.00     0.093 A 
ATOM     37  C   UNL     1      17.599  -6.026  27.124  1.00  0.00     0.123 A 
BRANCH  28  38
ATOM     38  C   UNL     1      22.792  -3.413  25.516  1.00  0.00     0.025 A 
ATOM     39  C   UNL     1      22.286  -2.113  25.360  1.00  0.00     0.062 A 
ATOM     40  C   UNL     1      24.045  -3.731  24.966  1.00  0.00     0.016 A 
ATOM     41  C   UNL     1      23.037  -1.130  24.696  1.00  0.00     0.158 A 
ATOM     42  C   UNL     1      24.792  -2.756  24.301  1.00  0.00     0.051 A 
ATOM     43  C   UNL     1      24.298  -1.454  24.167  1.00  0.00     0.157 A 
BRANCH  41  44
ATOM     44  O   UNL     1      22.532   0.163  24.562  1.00  0.00    -0.504 OA
ATOM     45  H   UNL     1      21.556   0.370  24.742  1.00  0.00     0.293 HD
ENDBRANCH  41  44
BRANCH  43  46
ATOM     46  O   UNL     1      25.072  -0.500  23.508  1.00  0.00    -0.504 OA
ATOM     47  H   UNL     1      26.085  -0.509  23.541  1.00  0.00     0.293 HD
ENDBRANCH  43  46
ENDBRANCH  28  38
BRANCH  34  48
ATOM     48  O   UNL     1      19.848  -8.232  29.017  1.00  0.00    -0.507 OA
ATOM     49  H   UNL     1      19.763  -9.204  28.766  1.00  0.00     0.293 HD
ENDBRANCH  34  48
BRANCH  37  50
ATOM     50  O   UNL     1      16.226  -5.914  26.916  1.00  0.00    -0.508 OA
ATOM     51  H   UNL     1      15.720  -5.068  27.152  1.00  0.00     0.293 HD
ENDBRANCH  37  50
ENDBRANCH  26  27
ENDBRANCH   5  26
BRANCH   4  52
ATOM     52  O   UNL     1      25.781  -8.381  26.953  1.00  0.00    -0.384 OA
ATOM     53  H   UNL     1      25.380  -8.411  26.045  1.00  0.00     0.211 HD
ENDBRANCH   4  52
TORSDOF 16
ENDMDL
MODEL 9
REMARK VINA RESULT:    -6.045      5.652     10.951
REMARK INTER + INTRA:         -11.084
REMARK INTER:                  -9.503
REMARK INTRA:                  -1.581
REMARK UNBOUND:                -1.152
REMARK SMILES C[C@H]1O[C@H](OC[C@@H]2O[C@H](Oc3c(-c4ccc(O)c(O)c4)oc4cc(O)cc(O)c4c3=O)[C@@H](O)[C@@H](O)[C@H]2O)[C@@H](O)[C@@H](O)[C@H]1O
REMARK SMILES IDX 7 1 36 2 34 3 32 4 9 5 8 6 6 7 5 8 4 9 1 10 2 11 42 12 3 13
REMARK SMILES IDX 40 14 38 15 43 16 41 18 39 20 37 22 35 24 10 26 11 27 12 28
REMARK SMILES IDX 30 29 21 30 29 31 31 32 22 33 27 34 23 35 26 36 24 37 13 38
REMARK SMILES IDX 20 39 14 40 18 41 15 42 16 43 19 44 17 46 28 48 25 50 33 52
REMARK H PARENT 43 17 41 19 39 21 37 23 35 25 19 45 17 47 28 49 25 51 33 53
REMARK Flexibility Score: inf
ROOT
ATOM      1  C   UNL     1      22.612  -3.381  25.303  1.00  0.00     0.180 C 
ATOM      2  C   UNL     1      22.690  -1.835  25.366  1.00  0.00     0.177 C 
ATOM      3  C   UNL     1      23.981  -1.378  26.071  1.00  0.00     0.180 C 
ATOM      4  C   UNL     1      25.208  -2.078  25.468  1.00  0.00     0.214 C 
ATOM      5  C   UNL     1      24.989  -3.599  25.473  1.00  0.00     0.339 C 
ATOM      6  O   UNL     1      23.799  -3.990  24.800  1.00  0.00    -0.332 OA
ENDROOT
BRANCH   1   7
ATOM      7  C   UNL     1      22.121  -4.026  26.615  1.00  0.00     0.198 C 
BRANCH   7   8
ATOM      8  O   UNL     1      20.936  -4.752  26.360  1.00  0.00    -0.347 OA
BRANCH   8   9
ATOM      9  C   UNL     1      20.055  -4.685  27.472  1.00  0.00     0.281 C 
ATOM     10  C   UNL     1      16.881  -5.226  25.678  1.00  0.00     0.041 C 
ATOM     11  C   UNL     1      18.262  -5.570  26.239  1.00  0.00     0.150 C 
ATOM     12  C   UNL     1      18.227  -6.889  27.040  1.00  0.00     0.174 C 
ATOM     13  O   UNL     1      18.708  -4.495  27.052  1.00  0.00    -0.344 OA
ATOM     14  C   UNL     1      19.640  -7.182  27.577  1.00  0.00     0.179 C 
ATOM     15  C   UNL     1      20.201  -5.961  28.330  1.00  0.00     0.202 C 
BRANCH  12  16
ATOM     16  O   UNL     1      17.303  -6.784  28.096  1.00  0.00    -0.388 OA
ATOM     17  H   UNL     1      17.596  -6.026  28.660  1.00  0.00     0.211 HD
ENDBRANCH  12  16
BRANCH  14  18
ATOM     18  O   UNL     1      19.615  -8.311  28.411  1.00  0.00    -0.387 OA
ATOM     19  H   UNL     1      18.846  -8.195  29.028  1.00  0.00     0.211 HD
ENDBRANCH  14  18
BRANCH  15  20
ATOM     20  O   UNL     1      19.523  -5.800  29.550  1.00  0.00    -0.385 OA
ATOM     21  H   UNL     1      19.428  -4.824  29.699  1.00  0.00     0.211 HD
ENDBRANCH  15  20
ENDBRANCH   8   9
ENDBRANCH   7   8
ENDBRANCH   1   7
BRANCH   2  22
ATOM     22  O   UNL     1      22.642  -1.329  24.052  1.00  0.00    -0.387 OA
ATOM     23  H   UNL     1      23.308  -0.595  23.992  1.00  0.00     0.211 HD
ENDBRANCH   2  22
BRANCH   3  24
ATOM     24  O   UNL     1      24.124   0.023  26.059  1.00  0.00    -0.387 OA
ATOM     25  H   UNL     1      24.161   0.345  26.995  1.00  0.00     0.211 HD
ENDBRANCH   3  24
BRANCH   5  26
ATOM     26  O   UNL     1      25.017  -4.100  26.810  1.00  0.00    -0.454 OA
BRANCH  26  27
ATOM     27  C   UNL     1      26.008  -4.980  27.258  1.00  0.00     0.214 A 
ATOM     28  C   UNL     1      27.256  -4.483  27.669  1.00  0.00     0.180 A 
ATOM     29  C   UNL     1      25.790  -6.364  27.265  1.00  0.00     0.239 A 
ATOM     30  O   UNL     1      28.219  -5.327  28.019  1.00  0.00    -0.452 OA
ATOM     31  C   UNL     1      26.815  -7.237  27.703  1.00  0.00     0.111 A 
ATOM     32  O   UNL     1      24.686  -6.800  26.845  1.00  0.00    -0.285 OA
ATOM     33  C   UNL     1      28.061  -6.645  28.043  1.00  0.00     0.146 A 
ATOM     34  C   UNL     1      26.690  -8.656  27.785  1.00  0.00     0.134 A 
ATOM     35  C   UNL     1      29.153  -7.442  28.399  1.00  0.00     0.094 A 
ATOM     36  C   UNL     1      27.811  -9.429  28.112  1.00  0.00     0.093 A 
ATOM     37  C   UNL     1      29.034  -8.832  28.421  1.00  0.00     0.123 A 
BRANCH  28  38
ATOM     38  C   UNL     1      27.557  -3.035  27.656  1.00  0.00     0.025 A 
ATOM     39  C   UNL     1      28.565  -2.549  26.807  1.00  0.00     0.062 A 
ATOM     40  C   UNL     1      26.863  -2.134  28.482  1.00  0.00     0.016 A 
ATOM     41  C   UNL     1      28.851  -1.175  26.753  1.00  0.00     0.158 A 
ATOM     42  C   UNL     1      27.149  -0.767  28.432  1.00  0.00     0.051 A 
ATOM     43  C   UNL     1      28.136  -0.281  27.569  1.00  0.00     0.157 A 
BRANCH  41  44
ATOM     44  O   UNL     1      29.842  -0.701  25.895  1.00  0.00    -0.504 OA
ATOM     45  H   UNL     1      29.613  -0.323  24.982  1.00  0.00     0.293 HD
ENDBRANCH  41  44
BRANCH  43  46
ATOM     46  O   UNL     1      28.392   1.090  27.535  1.00  0.00    -0.504 OA
ATOM     47  H   UNL     1      28.516   1.636  28.379  1.00  0.00     0.293 HD
ENDBRANCH  43  46
ENDBRANCH  28  38
BRANCH  34  48
ATOM     48  O   UNL     1      25.494  -9.350  27.579  1.00  0.00    -0.507 OA
ATOM     49  H   UNL     1      24.575  -8.977  27.750  1.00  0.00     0.293 HD
ENDBRANCH  34  48
BRANCH  37  50
ATOM     50  O   UNL     1      30.125  -9.631  28.755  1.00  0.00    -0.508 OA
ATOM     51  H   UNL     1      30.014 -10.484  29.290  1.00  0.00     0.293 HD
ENDBRANCH  37  50
ENDBRANCH  26  27
ENDBRANCH   5  26
BRANCH   4  52
ATOM     52  O   UNL     1      25.435  -1.653  24.145  1.00  0.00    -0.384 OA
ATOM     53  H   UNL     1      25.591  -2.467  23.598  1.00  0.00     0.211 HD
ENDBRANCH   4  52
TORSDOF 16
ENDMDL
