MODEL 1
REMARK VINA RESULT:    -3.428      0.000      0.000
REMARK INTER + INTRA:          -9.081
REMARK INTER:                  -6.433
REMARK INTRA:                  -2.648
REMARK UNBOUND:                -2.648
REMARK SMILES CCCCCCCCC=CCCCCCCCC(=O)[O-]
REMARK SMILES IDX 10 1 9 2 11 3 12 4 13 5 14 6 15 7 16 8 17 9 18 10 19 11
REMARK SMILES IDX 20 12 8 13 7 14 6 15 5 16 4 17 3 18 2 19 1 20
REMARK H PARENT
REMARK Flexibility Score: inf
ROOT
ATOM      1  C   UNL     1      64.407  32.444  59.502  1.00  0.00    -0.031 C 
ATOM      2  C   UNL     1      64.680  31.126  59.476  1.00  0.00    -0.031 C 
ENDROOT
BRANCH   1   3
ATOM      3  C   UNL     1      63.749  33.163  60.652  1.00  0.00     0.027 C 
BRANCH   3   4
ATOM      4  C   UNL     1      64.506  34.455  60.987  1.00  0.00     0.004 C 
BRANCH   4   5
ATOM      5  C   UNL     1      63.563  35.664  60.965  1.00  0.00     0.000 C 
BRANCH   5   6
ATOM      6  C   UNL     1      62.124  35.237  60.652  1.00  0.00     0.000 C 
BRANCH   6   7
ATOM      7  C   UNL     1      61.156  36.425  60.524  1.00  0.00     0.000 C 
BRANCH   7   8
ATOM      8  C   UNL     1      60.180  36.310  59.334  1.00  0.00     0.006 C 
BRANCH   8   9
ATOM      9  C   UNL     1      60.759  35.462  58.191  1.00  0.00     0.053 C 
BRANCH   9  10
ATOM     10  C   UNL     1      59.722  35.214  57.143  1.00  0.00     0.041 C 
ATOM     11  O   UNL     1      59.782  35.815  56.037  1.00  0.00    -0.550 OA
ATOM     12  O   UNL     1      58.715  34.284  57.367  1.00  0.00    -0.550 OA
ENDBRANCH   9  10
ENDBRANCH   8   9
ENDBRANCH   7   8
ENDBRANCH   6   7
ENDBRANCH   5   6
ENDBRANCH   4   5
ENDBRANCH   3   4
ENDBRANCH   1   3
BRANCH   2  13
ATOM     13  C   UNL     1      64.454  30.178  60.629  1.00  0.00     0.027 C 
BRANCH  13  14
ATOM     14  C   UNL     1      63.770  28.877  60.188  1.00  0.00     0.004 C 
BRANCH  14  15
ATOM     15  C   UNL     1      62.258  28.886  60.475  1.00  0.00     0.000 C 
BRANCH  15  16
ATOM     16  C   UNL     1      61.891  29.794  61.661  1.00  0.00     0.000 C 
BRANCH  16  17
ATOM     17  C   UNL     1      60.748  30.765  61.322  1.00  0.00    -0.000 C 
BRANCH  17  18
ATOM     18  C   UNL     1      60.381  30.681  59.831  1.00  0.00    -0.000 C 
BRANCH  18  19
ATOM     19  C   UNL     1      60.727  31.971  59.066  1.00  0.00    -0.003 C 
ATOM     20  C   UNL     1      61.228  31.702  57.644  1.00  0.00     0.004 C 
ENDBRANCH  18  19
ENDBRANCH  17  18
ENDBRANCH  16  17
ENDBRANCH  15  16
ENDBRANCH  14  15
ENDBRANCH  13  14
ENDBRANCH   2  13
TORSDOF 15
ENDMDL
MODEL 2
REMARK VINA RESULT:    -3.339      3.266      6.655
REMARK INTER + INTRA:          -8.916
REMARK INTER:                  -6.486
REMARK INTRA:                  -2.430
REMARK UNBOUND:                -2.648
REMARK SMILES CCCCCCCCC=CCCCCCCCC(=O)[O-]
REMARK SMILES IDX 10 1 9 2 11 3 12 4 13 5 14 6 15 7 16 8 17 9 18 10 19 11
REMARK SMILES IDX 20 12 8 13 7 14 6 15 5 16 4 17 3 18 2 19 1 20
REMARK H PARENT
REMARK Flexibility Score: inf
ROOT
ATOM      1  C   UNL     1      60.772  33.697  58.290  1.00  0.00    -0.031 C 
ATOM      2  C   UNL     1      60.632  34.888  58.900  1.00  0.00    -0.031 C 
ENDROOT
BRANCH   1   3
ATOM      3  C   UNL     1      61.622  32.562  58.802  1.00  0.00     0.027 C 
BRANCH   3   4
ATOM      4  C   UNL     1      60.768  31.551  59.578  1.00  0.00     0.004 C 
BRANCH   4   5
ATOM      5  C   UNL     1      61.209  31.471  61.044  1.00  0.00     0.000 C 
BRANCH   5   6
ATOM      6  C   UNL     1      61.415  30.015  61.480  1.00  0.00     0.000 C 
BRANCH   6   7
ATOM      7  C   UNL     1      62.755  29.428  61.004  1.00  0.00     0.000 C 
BRANCH   7   8
ATOM      8  C   UNL     1      63.945  30.402  61.133  1.00  0.00     0.006 C 
BRANCH   8   9
ATOM      9  C   UNL     1      64.875  30.344  59.911  1.00  0.00     0.053 C 
BRANCH   9  10
ATOM     10  C   UNL     1      65.566  29.020  59.840  1.00  0.00     0.041 C 
ATOM     11  O   UNL     1      65.524  28.338  58.780  1.00  0.00    -0.550 OA
ATOM     12  O   UNL     1      66.297  28.558  60.926  1.00  0.00    -0.550 OA
ENDBRANCH   9  10
ENDBRANCH   8   9
ENDBRANCH   7   8
ENDBRANCH   6   7
ENDBRANCH   5   6
ENDBRANCH   4   5
ENDBRANCH   3   4
ENDBRANCH   1   3
BRANCH   2  13
ATOM     13  C   UNL     1      61.233  35.245  60.238  1.00  0.00     0.027 C 
BRANCH  13  14
ATOM     14  C   UNL     1      61.751  36.689  60.277  1.00  0.00     0.004 C 
BRANCH  14  15
ATOM     15  C   UNL     1      62.873  36.879  61.315  1.00  0.00     0.000 C 
BRANCH  15  16
ATOM     16  C   UNL     1      64.259  36.524  60.750  1.00  0.00     0.000 C 
BRANCH  16  17
ATOM     17  C   UNL     1      64.810  35.213  61.336  1.00  0.00    -0.000 C 
BRANCH  17  18
ATOM     18  C   UNL     1      64.589  34.042  60.364  1.00  0.00    -0.000 C 
BRANCH  18  19
ATOM     19  C   UNL     1      64.645  34.482  58.890  1.00  0.00    -0.003 C 
ATOM     20  C   UNL     1      65.310  33.442  57.984  1.00  0.00     0.004 C 
ENDBRANCH  18  19
ENDBRANCH  17  18
ENDBRANCH  16  17
ENDBRANCH  15  16
ENDBRANCH  14  15
ENDBRANCH  13  14
ENDBRANCH   2  13
TORSDOF 15
ENDMDL
MODEL 3
REMARK VINA RESULT:    -3.318      1.403      4.732
REMARK INTER + INTRA:          -8.875
REMARK INTER:                  -6.126
REMARK INTRA:                  -2.749
REMARK UNBOUND:                -2.648
REMARK SMILES CCCCCCCCC=CCCCCCCCC(=O)[O-]
REMARK SMILES IDX 10 1 9 2 11 3 12 4 13 5 14 6 15 7 16 8 17 9 18 10 19 11
REMARK SMILES IDX 20 12 8 13 7 14 6 15 5 16 4 17 3 18 2 19 1 20
REMARK H PARENT
REMARK Flexibility Score: inf
ROOT
ATOM      1  C   UNL     1      64.080  30.857  60.986  1.00  0.00    -0.031 C 
ATOM      2  C   UNL     1      64.169  31.962  60.222  1.00  0.00    -0.031 C 
ENDROOT
BRANCH   1   3
ATOM      3  C   UNL     1      63.153  29.699  60.718  1.00  0.00     0.027 C 
BRANCH   3   4
ATOM      4  C   UNL     1      61.890  29.803  61.583  1.00  0.00     0.004 C 
BRANCH   4   5
ATOM      5  C   UNL     1      60.742  30.453  60.802  1.00  0.00     0.000 C 
BRANCH   5   6
ATOM      6  C   UNL     1      60.342  29.598  59.594  1.00  0.00     0.000 C 
BRANCH   6   7
ATOM      7  C   UNL     1      60.269  30.400  58.284  1.00  0.00     0.000 C 
BRANCH   7   8
ATOM      8  C   UNL     1      59.298  31.599  58.339  1.00  0.00     0.006 C 
BRANCH   8   9
ATOM      9  C   UNL     1      59.152  32.287  56.974  1.00  0.00     0.053 C 
BRANCH   9  10
ATOM     10  C   UNL     1      58.642  33.683  57.140  1.00  0.00     0.041 C 
ATOM     11  O   UNL     1      59.314  34.532  57.784  1.00  0.00    -0.550 OA
ATOM     12  O   UNL     1      57.446  34.061  56.544  1.00  0.00    -0.550 OA
ENDBRANCH   9  10
ENDBRANCH   8   9
ENDBRANCH   7   8
ENDBRANCH   6   7
ENDBRANCH   5   6
ENDBRANCH   4   5
ENDBRANCH   3   4
ENDBRANCH   1   3
BRANCH   2  13
ATOM     13  C   UNL     1      63.421  32.175  58.928  1.00  0.00     0.027 C 
BRANCH  13  14
ATOM     14  C   UNL     1      62.438  33.350  59.011  1.00  0.00     0.004 C 
BRANCH  14  15
ATOM     15  C   UNL     1      62.232  33.838  60.457  1.00  0.00     0.000 C 
BRANCH  15  16
ATOM     16  C   UNL     1      61.884  35.335  60.527  1.00  0.00     0.000 C 
BRANCH  16  17
ATOM     17  C   UNL     1      63.094  36.197  60.924  1.00  0.00    -0.000 C 
BRANCH  17  18
ATOM     18  C   UNL     1      64.225  35.326  61.496  1.00  0.00    -0.000 C 
BRANCH  18  19
ATOM     19  C   UNL     1      65.587  35.627  60.844  1.00  0.00    -0.003 C 
ATOM     20  C   UNL     1      65.553  35.506  59.318  1.00  0.00     0.004 C 
ENDBRANCH  18  19
ENDBRANCH  17  18
ENDBRANCH  16  17
ENDBRANCH  15  16
ENDBRANCH  14  15
ENDBRANCH  13  14
ENDBRANCH   2  13
TORSDOF 15
ENDMDL
MODEL 4
REMARK VINA RESULT:    -3.286      2.975      6.303
REMARK INTER + INTRA:          -8.816
REMARK INTER:                  -6.426
REMARK INTRA:                  -2.390
REMARK UNBOUND:                -2.648
REMARK SMILES CCCCCCCCC=CCCCCCCCC(=O)[O-]
REMARK SMILES IDX 10 1 9 2 11 3 12 4 13 5 14 6 15 7 16 8 17 9 18 10 19 11
REMARK SMILES IDX 20 12 8 13 7 14 6 15 5 16 4 17 3 18 2 19 1 20
REMARK H PARENT
REMARK Flexibility Score: inf
ROOT
ATOM      1  C   UNL     1      63.299  32.747  59.902  1.00  0.00    -0.031 C 
ATOM      2  C   UNL     1      64.310  33.571  60.236  1.00  0.00    -0.031 C 
ENDROOT
BRANCH   1   3
ATOM      3  C   UNL     1      61.910  32.812  60.483  1.00  0.00     0.027 C 
BRANCH   3   4
ATOM      4  C   UNL     1      61.105  31.561  60.109  1.00  0.00     0.004 C 
BRANCH   4   5
ATOM      5  C   UNL     1      60.740  30.750  61.357  1.00  0.00     0.000 C 
BRANCH   5   6
ATOM      6  C   UNL     1      61.851  29.753  61.712  1.00  0.00     0.000 C 
BRANCH   6   7
ATOM      7  C   UNL     1      61.844  28.500  60.821  1.00  0.00     0.000 C 
BRANCH   7   8
ATOM      8  C   UNL     1      63.230  28.138  60.243  1.00  0.00     0.006 C 
BRANCH   8   9
ATOM      9  C   UNL     1      64.291  29.194  60.583  1.00  0.00     0.053 C 
BRANCH   9  10
ATOM     10  C   UNL     1      65.326  29.265  59.506  1.00  0.00     0.041 C 
ATOM     11  O   UNL     1      65.764  28.209  58.976  1.00  0.00    -0.550 OA
ATOM     12  O   UNL     1      65.773  30.499  59.052  1.00  0.00    -0.550 OA
ENDBRANCH   9  10
ENDBRANCH   8   9
ENDBRANCH   7   8
ENDBRANCH   6   7
ENDBRANCH   5   6
ENDBRANCH   4   5
ENDBRANCH   3   4
ENDBRANCH   1   3
BRANCH   2  13
ATOM     13  C   UNL     1      64.189  34.745  61.176  1.00  0.00     0.027 C 
BRANCH  13  14
ATOM     14  C   UNL     1      63.915  36.060  60.434  1.00  0.00     0.004 C 
BRANCH  14  15
ATOM     15  C   UNL     1      62.801  36.887  61.101  1.00  0.00     0.000 C 
BRANCH  15  16
ATOM     16  C   UNL     1      61.399  36.478  60.618  1.00  0.00     0.000 C 
BRANCH  16  17
ATOM     17  C   UNL     1      61.372  36.144  59.118  1.00  0.00    -0.000 C 
BRANCH  17  18
ATOM     18  C   UNL     1      59.966  35.705  58.677  1.00  0.00    -0.000 C 
BRANCH  18  19
ATOM     19  C   UNL     1      59.985  34.397  57.867  1.00  0.00    -0.003 C 
ATOM     20  C   UNL     1      61.256  34.238  57.026  1.00  0.00     0.004 C 
ENDBRANCH  18  19
ENDBRANCH  17  18
ENDBRANCH  16  17
ENDBRANCH  15  16
ENDBRANCH  14  15
ENDBRANCH  13  14
ENDBRANCH   2  13
TORSDOF 15
ENDMDL
MODEL 5
REMARK VINA RESULT:    -3.269      9.115     11.891
REMARK INTER + INTRA:          -8.784
REMARK INTER:                  -5.834
REMARK INTRA:                  -2.950
REMARK UNBOUND:                -2.648
REMARK SMILES CCCCCCCCC=CCCCCCCCC(=O)[O-]
REMARK SMILES IDX 10 1 9 2 11 3 12 4 13 5 14 6 15 7 16 8 17 9 18 10 19 11
REMARK SMILES IDX 20 12 8 13 7 14 6 15 5 16 4 17 3 18 2 19 1 20
REMARK H PARENT
REMARK Flexibility Score: inf
ROOT
ATOM      1  C   UNL     1      60.564  26.670  49.349  1.00  0.00    -0.031 C 
ATOM      2  C   UNL     1      60.612  28.008  49.206  1.00  0.00    -0.031 C 
ENDROOT
BRANCH   1   3
ATOM      3  C   UNL     1      59.324  25.888  49.701  1.00  0.00     0.027 C 
BRANCH   3   4
ATOM      4  C   UNL     1      59.404  25.365  51.141  1.00  0.00     0.004 C 
BRANCH   4   5
ATOM      5  C   UNL     1      58.265  25.935  51.995  1.00  0.00     0.000 C 
BRANCH   5   6
ATOM      6  C   UNL     1      58.808  26.599  53.266  1.00  0.00     0.000 C 
BRANCH   6   7
ATOM      7  C   UNL     1      60.336  26.489  53.399  1.00  0.00     0.000 C 
BRANCH   7   8
ATOM      8  C   UNL     1      61.052  27.852  53.521  1.00  0.00     0.006 C 
BRANCH   8   9
ATOM      9  C   UNL     1      62.147  28.026  52.459  1.00  0.00     0.053 C 
BRANCH   9  10
ATOM     10  C   UNL     1      63.130  26.901  52.529  1.00  0.00     0.041 C 
ATOM     11  O   UNL     1      63.411  26.239  51.494  1.00  0.00    -0.550 OA
ATOM     12  O   UNL     1      63.773  26.613  53.726  1.00  0.00    -0.550 OA
ENDBRANCH   9  10
ENDBRANCH   8   9
ENDBRANCH   7   8
ENDBRANCH   6   7
ENDBRANCH   5   6
ENDBRANCH   4   5
ENDBRANCH   3   4
ENDBRANCH   1   3
BRANCH   2  13
ATOM     13  C   UNL     1      59.416  28.925  49.288  1.00  0.00     0.027 C 
BRANCH  13  14
ATOM     14  C   UNL     1      59.253  29.546  50.682  1.00  0.00     0.004 C 
BRANCH  14  15
ATOM     15  C   UNL     1      57.784  29.575  51.140  1.00  0.00     0.000 C 
BRANCH  15  16
ATOM     16  C   UNL     1      56.881  28.681  50.272  1.00  0.00     0.000 C 
BRANCH  16  17
ATOM     17  C   UNL     1      55.391  29.020  50.439  1.00  0.00    -0.000 C 
BRANCH  17  18
ATOM     18  C   UNL     1      54.507  27.951  49.773  1.00  0.00    -0.000 C 
BRANCH  18  19
ATOM     19  C   UNL     1      55.199  26.579  49.698  1.00  0.00    -0.003 C 
ATOM     20  C   UNL     1      54.363  25.532  48.956  1.00  0.00     0.004 C 
ENDBRANCH  18  19
ENDBRANCH  17  18
ENDBRANCH  16  17
ENDBRANCH  15  16
ENDBRANCH  14  15
ENDBRANCH  13  14
ENDBRANCH   2  13
TORSDOF 15
ENDMDL
MODEL 6
REMARK VINA RESULT:    -3.182      2.779      6.155
REMARK INTER + INTRA:          -8.621
REMARK INTER:                  -5.644
REMARK INTRA:                  -2.977
REMARK UNBOUND:                -2.648
REMARK SMILES CCCCCCCCC=CCCCCCCCC(=O)[O-]
REMARK SMILES IDX 10 1 9 2 11 3 12 4 13 5 14 6 15 7 16 8 17 9 18 10 19 11
REMARK SMILES IDX 20 12 8 13 7 14 6 15 5 16 4 17 3 18 2 19 1 20
REMARK H PARENT
REMARK Flexibility Score: inf
ROOT
ATOM      1  C   UNL     1      62.066  35.308  60.617  1.00  0.00    -0.031 C 
ATOM      2  C   UNL     1      63.075  36.123  60.976  1.00  0.00    -0.031 C 
ENDROOT
BRANCH   1   3
ATOM      3  C   UNL     1      62.202  33.825  60.381  1.00  0.00     0.027 C 
BRANCH   3   4
ATOM      4  C   UNL     1      62.235  33.516  58.878  1.00  0.00     0.004 C 
BRANCH   4   5
ATOM      5  C   UNL     1      63.403  32.585  58.535  1.00  0.00     0.000 C 
BRANCH   5   6
ATOM      6  C   UNL     1      64.273  32.314  59.768  1.00  0.00     0.000 C 
BRANCH   6   7
ATOM      7  C   UNL     1      64.423  30.816  60.082  1.00  0.00     0.000 C 
BRANCH   7   8
ATOM      8  C   UNL     1      63.544  30.333  61.256  1.00  0.00     0.006 C 
BRANCH   8   9
ATOM      9  C   UNL     1      62.353  29.490  60.777  1.00  0.00     0.053 C 
BRANCH   9  10
ATOM     10  C   UNL     1      61.110  30.320  60.722  1.00  0.00     0.041 C 
ATOM     11  O   UNL     1      60.537  30.531  59.620  1.00  0.00    -0.550 OA
ATOM     12  O   UNL     1      60.556  30.821  61.893  1.00  0.00    -0.550 OA
ENDBRANCH   9  10
ENDBRANCH   8   9
ENDBRANCH   7   8
ENDBRANCH   6   7
ENDBRANCH   5   6
ENDBRANCH   4   5
ENDBRANCH   3   4
ENDBRANCH   1   3
BRANCH   2  13
ATOM     13  C   UNL     1      64.481  35.668  61.285  1.00  0.00     0.027 C 
BRANCH  13  14
ATOM     14  C   UNL     1      65.406  35.768  60.065  1.00  0.00     0.004 C 
BRANCH  14  15
ATOM     15  C   UNL     1      64.915  36.808  59.043  1.00  0.00     0.000 C 
BRANCH  15  16
ATOM     16  C   UNL     1      64.546  36.174  57.691  1.00  0.00     0.000 C 
BRANCH  16  17
ATOM     17  C   UNL     1      65.783  35.880  56.827  1.00  0.00    -0.000 C 
BRANCH  17  18
ATOM     18  C   UNL     1      65.791  34.415  56.359  1.00  0.00    -0.000 C 
BRANCH  18  19
ATOM     19  C   UNL     1      66.785  33.549  57.155  1.00  0.00    -0.003 C 
ATOM     20  C   UNL     1      66.673  32.058  56.821  1.00  0.00     0.004 C 
ENDBRANCH  18  19
ENDBRANCH  17  18
ENDBRANCH  16  17
ENDBRANCH  15  16
ENDBRANCH  14  15
ENDBRANCH  13  14
ENDBRANCH   2  13
TORSDOF 15
ENDMDL
MODEL 7
REMARK VINA RESULT:    -3.179      2.199      3.624
REMARK INTER + INTRA:          -8.614
REMARK INTER:                  -5.712
REMARK INTRA:                  -2.902
REMARK UNBOUND:                -2.648
REMARK SMILES CCCCCCCCC=CCCCCCCCC(=O)[O-]
REMARK SMILES IDX 10 1 9 2 11 3 12 4 13 5 14 6 15 7 16 8 17 9 18 10 19 11
REMARK SMILES IDX 20 12 8 13 7 14 6 15 5 16 4 17 3 18 2 19 1 20
REMARK H PARENT
REMARK Flexibility Score: inf
ROOT
ATOM      1  C   UNL     1      61.902  32.857  58.014  1.00  0.00    -0.031 C 
ATOM      2  C   UNL     1      63.030  32.192  58.326  1.00  0.00    -0.031 C 
ENDROOT
BRANCH   1   3
ATOM      3  C   UNL     1      61.045  33.608  59.001  1.00  0.00     0.027 C 
BRANCH   3   4
ATOM      4  C   UNL     1      61.565  35.039  59.193  1.00  0.00     0.004 C 
BRANCH   4   5
ATOM      5  C   UNL     1      61.843  35.328  60.672  1.00  0.00     0.000 C 
BRANCH   5   6
ATOM      6  C   UNL     1      63.057  36.251  60.836  1.00  0.00     0.000 C 
BRANCH   6   7
ATOM      7  C   UNL     1      64.280  35.538  61.436  1.00  0.00     0.000 C 
BRANCH   7   8
ATOM      8  C   UNL     1      65.400  35.250  60.412  1.00  0.00     0.006 C 
BRANCH   8   9
ATOM      9  C   UNL     1      65.225  36.063  59.121  1.00  0.00     0.053 C 
BRANCH   9  10
ATOM     10  C   UNL     1      65.187  35.158  57.931  1.00  0.00     0.041 C 
ATOM     11  O   UNL     1      65.966  34.171  57.860  1.00  0.00    -0.550 OA
ATOM     12  O   UNL     1      64.259  35.376  56.921  1.00  0.00    -0.550 OA
ENDBRANCH   9  10
ENDBRANCH   8   9
ENDBRANCH   7   8
ENDBRANCH   6   7
ENDBRANCH   5   6
ENDBRANCH   4   5
ENDBRANCH   3   4
ENDBRANCH   1   3
BRANCH   2  13
ATOM     13  C   UNL     1      63.663  32.168  59.696  1.00  0.00     0.027 C 
BRANCH  13  14
ATOM     14  C   UNL     1      64.738  31.081  59.822  1.00  0.00     0.004 C 
BRANCH  14  15
ATOM     15  C   UNL     1      64.372  30.015  60.870  1.00  0.00     0.000 C 
BRANCH  15  16
ATOM     16  C   UNL     1      63.757  28.756  60.237  1.00  0.00     0.000 C 
BRANCH  16  17
ATOM     17  C   UNL     1      62.289  28.552  60.649  1.00  0.00    -0.000 C 
BRANCH  17  18
ATOM     18  C   UNL     1      61.838  29.647  61.631  1.00  0.00    -0.000 C 
BRANCH  18  19
ATOM     19  C   UNL     1      60.702  30.516  61.060  1.00  0.00    -0.003 C 
ATOM     20  C   UNL     1      60.185  30.006  59.712  1.00  0.00     0.004 C 
ENDBRANCH  18  19
ENDBRANCH  17  18
ENDBRANCH  16  17
ENDBRANCH  15  16
ENDBRANCH  14  15
ENDBRANCH  13  14
ENDBRANCH   2  13
TORSDOF 15
ENDMDL
MODEL 8
REMARK VINA RESULT:    -3.170     10.448     12.760
REMARK INTER + INTRA:          -8.598
REMARK INTER:                  -6.068
REMARK INTRA:                  -2.531
REMARK UNBOUND:                -2.648
REMARK SMILES CCCCCCCCC=CCCCCCCCC(=O)[O-]
REMARK SMILES IDX 10 1 9 2 11 3 12 4 13 5 14 6 15 7 16 8 17 9 18 10 19 11
REMARK SMILES IDX 20 12 8 13 7 14 6 15 5 16 4 17 3 18 2 19 1 20
REMARK H PARENT
REMARK Flexibility Score: inf
ROOT
ATOM      1  C   UNL     1      57.385  27.496  51.122  1.00  0.00    -0.031 C 
ATOM      2  C   UNL     1      56.543  26.481  50.853  1.00  0.00    -0.031 C 
ENDROOT
BRANCH   1   3
ATOM      3  C   UNL     1      57.814  28.544  50.127  1.00  0.00     0.027 C 
BRANCH   3   4
ATOM      4  C   UNL     1      58.649  29.633  50.813  1.00  0.00     0.004 C 
BRANCH   4   5
ATOM      5  C   UNL     1      60.088  29.635  50.285  1.00  0.00     0.000 C 
BRANCH   5   6
ATOM      6  C   UNL     1      60.933  28.563  50.984  1.00  0.00     0.000 C 
BRANCH   6   7
ATOM      7  C   UNL     1      62.123  28.085  50.135  1.00  0.00     0.000 C 
BRANCH   7   8
ATOM      8  C   UNL     1      62.025  26.606  49.700  1.00  0.00     0.006 C 
BRANCH   8   9
ATOM      9  C   UNL     1      60.568  26.144  49.548  1.00  0.00     0.053 C 
BRANCH   9  10
ATOM     10  C   UNL     1      60.325  24.901  50.344  1.00  0.00     0.041 C 
ATOM     11  O   UNL     1      60.642  23.775  49.875  1.00  0.00    -0.550 OA
ATOM     12  O   UNL     1      59.793  24.988  51.624  1.00  0.00    -0.550 OA
ENDBRANCH   9  10
ENDBRANCH   8   9
ENDBRANCH   7   8
ENDBRANCH   6   7
ENDBRANCH   5   6
ENDBRANCH   4   5
ENDBRANCH   3   4
ENDBRANCH   1   3
BRANCH   2  13
ATOM     13  C   UNL     1      55.825  26.284  49.540  1.00  0.00     0.027 C 
BRANCH  13  14
ATOM     14  C   UNL     1      54.501  25.527  49.708  1.00  0.00     0.004 C 
BRANCH  14  15
ATOM     15  C   UNL     1      53.364  26.441  50.198  1.00  0.00     0.000 C 
BRANCH  15  16
ATOM     16  C   UNL     1      53.187  27.685  49.310  1.00  0.00     0.000 C 
BRANCH  16  17
ATOM     17  C   UNL     1      53.028  28.973  50.135  1.00  0.00    -0.000 C 
BRANCH  17  18
ATOM     18  C   UNL     1      54.373  29.705  50.275  1.00  0.00    -0.000 C 
BRANCH  18  19
ATOM     19  C   UNL     1      54.702  30.057  51.737  1.00  0.00    -0.003 C 
ATOM     20  C   UNL     1      54.360  28.925  52.711  1.00  0.00     0.004 C 
ENDBRANCH  18  19
ENDBRANCH  17  18
ENDBRANCH  16  17
ENDBRANCH  15  16
ENDBRANCH  14  15
ENDBRANCH  13  14
ENDBRANCH   2  13
TORSDOF 15
ENDMDL
MODEL 9
REMARK VINA RESULT:    -3.070      8.883     11.373
REMARK INTER + INTRA:          -8.411
REMARK INTER:                  -5.562
REMARK INTRA:                  -2.849
REMARK UNBOUND:                -2.648
REMARK SMILES CCCCCCCCC=CCCCCCCCC(=O)[O-]
REMARK SMILES IDX 10 1 9 2 11 3 12 4 13 5 14 6 15 7 16 8 17 9 18 10 19 11
REMARK SMILES IDX 20 12 8 13 7 14 6 15 5 16 4 17 3 18 2 19 1 20
REMARK H PARENT
REMARK Flexibility Score: inf
ROOT
ATOM      1  C   UNL     1      57.449  25.877  51.310  1.00  0.00    -0.031 C 
ATOM      2  C   UNL     1      58.753  25.544  51.279  1.00  0.00    -0.031 C 
ENDROOT
BRANCH   1   3
ATOM      3  C   UNL     1      56.636  26.283  50.107  1.00  0.00     0.027 C 
BRANCH   3   4
ATOM      4  C   UNL     1      55.226  26.716  50.526  1.00  0.00     0.004 C 
BRANCH   4   5
ATOM      5  C   UNL     1      54.779  27.958  49.745  1.00  0.00     0.000 C 
BRANCH   5   6
ATOM      6  C   UNL     1      54.575  29.155  50.681  1.00  0.00     0.000 C 
BRANCH   6   7
ATOM      7  C   UNL     1      54.551  28.761  52.167  1.00  0.00     0.000 C 
BRANCH   7   8
ATOM      8  C   UNL     1      55.129  29.840  53.109  1.00  0.00     0.006 C 
BRANCH   8   9
ATOM      9  C   UNL     1      55.044  31.246  52.496  1.00  0.00     0.053 C 
BRANCH   9  10
ATOM     10  C   UNL     1      55.859  32.216  53.291  1.00  0.00     0.041 C 
ATOM     11  O   UNL     1      57.069  32.414  53.003  1.00  0.00    -0.550 OA
ATOM     12  O   UNL     1      55.270  32.938  54.321  1.00  0.00    -0.550 OA
ENDBRANCH   9  10
ENDBRANCH   8   9
ENDBRANCH   7   8
ENDBRANCH   6   7
ENDBRANCH   5   6
ENDBRANCH   4   5
ENDBRANCH   3   4
ENDBRANCH   1   3
BRANCH   2  13
ATOM     13  C   UNL     1      59.584  25.438  50.024  1.00  0.00     0.027 C 
BRANCH  13  14
ATOM     14  C   UNL     1      61.075  25.682  50.290  1.00  0.00     0.004 C 
BRANCH  14  15
ATOM     15  C   UNL     1      61.541  27.061  49.788  1.00  0.00     0.000 C 
BRANCH  15  16
ATOM     16  C   UNL     1      60.465  27.774  48.950  1.00  0.00     0.000 C 
BRANCH  16  17
ATOM     17  C   UNL     1      60.099  29.153  49.523  1.00  0.00    -0.000 C 
BRANCH  17  18
ATOM     18  C   UNL     1      58.581  29.272  49.742  1.00  0.00    -0.000 C 
BRANCH  18  19
ATOM     19  C   UNL     1      58.222  29.618  51.198  1.00  0.00    -0.003 C 
ATOM     20  C   UNL     1      59.234  29.065  52.206  1.00  0.00     0.004 C 
ENDBRANCH  18  19
ENDBRANCH  17  18
ENDBRANCH  16  17
ENDBRANCH  15  16
ENDBRANCH  14  15
ENDBRANCH  13  14
ENDBRANCH   2  13
TORSDOF 15
ENDMDL
