MODEL 1
REMARK VINA RESULT:    -6.912      0.000      0.000
REMARK INTER + INTRA:         -11.772
REMARK INTER:                 -10.144
REMARK INTRA:                  -1.628
REMARK UNBOUND:                -1.628
REMARK SMILES O=c1c(O[C@@H]2O[C@@H](CO)[C@H](O)[C@@H](O)[C@H]2O)c(-c2ccc(O)c(O)c2)oc2cc(O)cc(O)c12
REMARK SMILES IDX 4 1 3 2 16 3 25 4 2 5 26 6 1 7 33 8 27 9 31 10 28 11 30 12
REMARK SMILES IDX 17 13 18 14 19 15 20 16 24 17 22 18 21 19 23 21 32 23 29 25
REMARK SMILES IDX 5 27 14 28 6 29 12 30 7 31 10 32 15 33 13 35 8 37 9 38 11 40
REMARK H PARENT 21 20 23 22 32 24 29 26 15 34 13 36 9 39 11 41
REMARK Flexibility Score: inf
ROOT
ATOM      1  O   UNL     1     -11.935 -15.654  20.333  1.00  0.00    -0.454 OA
ENDROOT
BRANCH   1   2
ATOM      2  C   UNL     1     -12.726 -16.717  19.870  1.00  0.00     0.214 A 
ATOM      3  C   UNL     1     -12.368 -18.045  20.211  1.00  0.00     0.180 A 
ATOM      4  O   UNL     1     -13.315 -18.923  20.429  1.00  0.00    -0.452 OA
ATOM      5  C   UNL     1     -13.984 -16.489  19.298  1.00  0.00     0.239 A 
ATOM      6  C   UNL     1     -14.579 -18.691  20.101  1.00  0.00     0.146 A 
ATOM      7  O   UNL     1     -14.283 -15.326  18.890  1.00  0.00    -0.285 OA
ATOM      8  C   UNL     1     -14.946 -17.516  19.384  1.00  0.00     0.111 A 
ATOM      9  C   UNL     1     -15.542 -19.616  20.465  1.00  0.00     0.094 A 
ATOM     10  C   UNL     1     -16.233 -17.402  18.867  1.00  0.00     0.134 A 
ATOM     11  C   UNL     1     -16.850 -19.490  19.985  1.00  0.00     0.123 A 
ATOM     12  C   UNL     1     -17.194 -18.393  19.193  1.00  0.00     0.093 A 
BRANCH   3  13
ATOM     13  C   UNL     1     -10.984 -18.403  20.584  1.00  0.00     0.025 A 
ATOM     14  C   UNL     1     -10.110 -18.883  19.599  1.00  0.00     0.016 A 
ATOM     15  C   UNL     1      -8.760 -19.103  19.903  1.00  0.00     0.051 A 
ATOM     16  C   UNL     1      -8.296 -18.868  21.201  1.00  0.00     0.157 A 
ATOM     17  C   UNL     1     -10.533 -18.240  21.897  1.00  0.00     0.062 A 
ATOM     18  C   UNL     1      -9.179 -18.440  22.202  1.00  0.00     0.158 A 
BRANCH  16  19
ATOM     19  O   UNL     1      -6.929 -19.009  21.459  1.00  0.00    -0.504 OA
ATOM     20  H   UNL     1      -6.431 -19.874  21.303  1.00  0.00     0.293 HD
ENDBRANCH  16  19
BRANCH  18  21
ATOM     21  O   UNL     1      -8.728 -18.252  23.504  1.00  0.00    -0.504 OA
ATOM     22  H   UNL     1      -8.987 -17.432  24.053  1.00  0.00     0.293 HD
ENDBRANCH  18  21
ENDBRANCH   3  13
BRANCH  10  23
ATOM     23  O   UNL     1     -16.569 -16.408  17.950  1.00  0.00    -0.507 OA
ATOM     24  H   UNL     1     -15.852 -16.181  17.229  1.00  0.00     0.293 HD
ENDBRANCH  10  23
BRANCH  11  25
ATOM     25  O   UNL     1     -17.785 -20.491  20.220  1.00  0.00    -0.508 OA
ATOM     26  H   UNL     1     -18.734 -20.361  19.911  1.00  0.00     0.293 HD
ENDBRANCH  11  25
ENDBRANCH   1   2
BRANCH   1  27
ATOM     27  C   UNL     1     -11.047 -15.038  19.391  1.00  0.00     0.339 C 
ATOM     28  C   UNL     1     -11.272 -13.542  19.123  1.00  0.00     0.214 C 
ATOM     29  O   UNL     1      -9.716 -15.331  19.716  1.00  0.00    -0.332 OA
ATOM     30  C   UNL     1     -10.853 -12.683  20.311  1.00  0.00     0.180 C 
ATOM     31  C   UNL     1      -9.262 -14.663  20.885  1.00  0.00     0.179 C 
ATOM     32  C   UNL     1      -9.374 -13.085  20.707  1.00  0.00     0.177 C 
BRANCH  28  33
ATOM     33  O   UNL     1     -10.488 -13.189  17.994  1.00  0.00    -0.384 OA
ATOM     34  H   UNL     1     -11.145 -12.888  17.309  1.00  0.00     0.211 HD
ENDBRANCH  28  33
BRANCH  30  35
ATOM     35  O   UNL     1     -11.008 -11.318  20.010  1.00  0.00    -0.387 OA
ATOM     36  H   UNL     1     -10.354 -10.813  20.563  1.00  0.00     0.211 HD
ENDBRANCH  30  35
BRANCH  31  37
ATOM     37  C   UNL     1      -7.808 -15.125  20.999  1.00  0.00     0.191 C 
BRANCH  37  38
ATOM     38  O   UNL     1      -7.353 -14.855  22.315  1.00  0.00    -0.394 OA
ATOM     39  H   UNL     1      -6.730 -15.601  22.561  1.00  0.00     0.210 HD
ENDBRANCH  37  38
ENDBRANCH  31  37
BRANCH  32  40
ATOM     40  O   UNL     1      -8.989 -12.467  21.913  1.00  0.00    -0.387 OA
ATOM     41  H   UNL     1      -8.231 -12.985  22.292  1.00  0.00     0.211 HD
ENDBRANCH  32  40
ENDBRANCH   1  27
TORSDOF 12
ENDMDL
MODEL 2
REMARK VINA RESULT:    -6.862      3.807      7.542
REMARK INTER + INTRA:         -11.699
REMARK INTER:                 -10.044
REMARK INTRA:                  -1.655
REMARK UNBOUND:                -1.628
REMARK SMILES O=c1c(O[C@@H]2O[C@@H](CO)[C@H](O)[C@@H](O)[C@H]2O)c(-c2ccc(O)c(O)c2)oc2cc(O)cc(O)c12
REMARK SMILES IDX 4 1 3 2 16 3 25 4 2 5 26 6 1 7 33 8 27 9 31 10 28 11 30 12
REMARK SMILES IDX 17 13 18 14 19 15 20 16 24 17 22 18 21 19 23 21 32 23 29 25
REMARK SMILES IDX 5 27 14 28 6 29 12 30 7 31 10 32 15 33 13 35 8 37 9 38 11 40
REMARK H PARENT 21 20 23 22 32 24 29 26 15 34 13 36 9 39 11 41
REMARK Flexibility Score: inf
ROOT
ATOM      1  O   UNL     1      -8.302 -16.517  19.317  1.00  0.00    -0.454 OA
ENDROOT
BRANCH   1   2
ATOM      2  C   UNL     1      -8.367 -15.541  18.310  1.00  0.00     0.214 A 
ATOM      3  C   UNL     1      -8.036 -14.199  18.625  1.00  0.00     0.180 A 
ATOM      4  O   UNL     1      -7.429 -13.466  17.726  1.00  0.00    -0.452 OA
ATOM      5  C   UNL     1      -8.504 -15.897  16.962  1.00  0.00     0.239 A 
ATOM      6  C   UNL     1      -7.336 -13.841  16.457  1.00  0.00     0.146 A 
ATOM      7  O   UNL     1      -8.902 -17.064  16.662  1.00  0.00    -0.285 OA
ATOM      8  C   UNL     1      -8.001 -15.011  15.988  1.00  0.00     0.111 A 
ATOM      9  C   UNL     1      -6.582 -13.072  15.589  1.00  0.00     0.094 A 
ATOM     10  C   UNL     1      -8.066 -15.261  14.621  1.00  0.00     0.134 A 
ATOM     11  C   UNL     1      -6.606 -13.340  14.215  1.00  0.00     0.123 A 
ATOM     12  C   UNL     1      -7.341 -14.424  13.734  1.00  0.00     0.093 A 
BRANCH   3  13
ATOM     13  C   UNL     1      -8.116 -13.686  20.008  1.00  0.00     0.025 A 
ATOM     14  C   UNL     1      -6.988 -13.766  20.836  1.00  0.00     0.016 A 
ATOM     15  C   UNL     1      -7.002 -13.168  22.103  1.00  0.00     0.051 A 
ATOM     16  C   UNL     1      -8.156 -12.516  22.548  1.00  0.00     0.157 A 
ATOM     17  C   UNL     1      -9.290 -13.097  20.484  1.00  0.00     0.062 A 
ATOM     18  C   UNL     1      -9.303 -12.480  21.744  1.00  0.00     0.158 A 
BRANCH  16  19
ATOM     19  O   UNL     1      -8.117 -11.851  23.777  1.00  0.00    -0.504 OA
ATOM     20  H   UNL     1      -7.453 -11.117  23.979  1.00  0.00     0.293 HD
ENDBRANCH  16  19
BRANCH  18  21
ATOM     21  O   UNL     1     -10.466 -11.873  22.205  1.00  0.00    -0.504 OA
ATOM     22  H   UNL     1     -11.376 -12.056  21.782  1.00  0.00     0.293 HD
ENDBRANCH  18  21
ENDBRANCH   3  13
BRANCH  10  23
ATOM     23  O   UNL     1      -8.911 -16.237  14.094  1.00  0.00    -0.507 OA
ATOM     24  H   UNL     1      -9.516 -15.944  13.298  1.00  0.00     0.293 HD
ENDBRANCH  10  23
BRANCH  11  25
ATOM     25  O   UNL     1      -5.975 -12.483  13.321  1.00  0.00    -0.508 OA
ATOM     26  H   UNL     1      -6.379 -12.337  12.410  1.00  0.00     0.293 HD
ENDBRANCH  11  25
ENDBRANCH   1   2
BRANCH   1  27
ATOM     27  C   UNL     1      -9.539 -17.112  19.733  1.00  0.00     0.339 C 
ATOM     28  C   UNL     1      -9.521 -18.632  19.953  1.00  0.00     0.214 C 
ATOM     29  O   UNL     1     -10.064 -16.418  20.831  1.00  0.00    -0.332 OA
ATOM     30  C   UNL     1      -8.737 -19.018  21.202  1.00  0.00     0.180 C 
ATOM     31  C   UNL     1      -9.329 -16.620  22.030  1.00  0.00     0.179 C 
ATOM     32  C   UNL     1      -9.299 -18.165  22.413  1.00  0.00     0.177 C 
BRANCH  28  33
ATOM     33  O   UNL     1     -10.868 -19.057  20.098  1.00  0.00    -0.384 OA
ATOM     34  H   UNL     1     -10.903 -19.497  20.990  1.00  0.00     0.211 HD
ENDBRANCH  28  33
BRANCH  30  35
ATOM     35  O   UNL     1      -8.797 -20.407  21.411  1.00  0.00    -0.387 OA
ATOM     36  H   UNL     1      -9.757 -20.667  21.425  1.00  0.00     0.211 HD
ENDBRANCH  30  35
BRANCH  31  37
ATOM     37  C   UNL     1     -10.110 -15.793  23.054  1.00  0.00     0.191 C 
BRANCH  37  38
ATOM     38  O   UNL     1      -9.249 -15.493  24.139  1.00  0.00    -0.394 OA
ATOM     39  H   UNL     1      -9.274 -16.286  24.752  1.00  0.00     0.210 HD
ENDBRANCH  37  38
ENDBRANCH  31  37
BRANCH  32  40
ATOM     40  O   UNL     1      -8.497 -18.330  23.560  1.00  0.00    -0.387 OA
ATOM     41  H   UNL     1      -8.171 -19.268  23.569  1.00  0.00     0.211 HD
ENDBRANCH  32  40
ENDBRANCH   1  27
TORSDOF 12
ENDMDL
MODEL 3
REMARK VINA RESULT:    -6.617      3.047      7.240
REMARK INTER + INTRA:         -11.340
REMARK INTER:                 -10.236
REMARK INTRA:                  -1.104
REMARK UNBOUND:                -1.628
REMARK SMILES O=c1c(O[C@@H]2O[C@@H](CO)[C@H](O)[C@@H](O)[C@H]2O)c(-c2ccc(O)c(O)c2)oc2cc(O)cc(O)c12
REMARK SMILES IDX 4 1 3 2 16 3 25 4 2 5 26 6 1 7 33 8 27 9 31 10 28 11 30 12
REMARK SMILES IDX 17 13 18 14 19 15 20 16 24 17 22 18 21 19 23 21 32 23 29 25
REMARK SMILES IDX 5 27 14 28 6 29 12 30 7 31 10 32 15 33 13 35 8 37 9 38 11 40
REMARK H PARENT 21 20 23 22 32 24 29 26 15 34 13 36 9 39 11 41
REMARK Flexibility Score: inf
ROOT
ATOM      1  O   UNL     1     -10.425 -15.773  19.686  1.00  0.00    -0.454 OA
ENDROOT
BRANCH   1   2
ATOM      2  C   UNL     1      -9.722 -15.056  18.705  1.00  0.00     0.214 A 
ATOM      3  C   UNL     1      -8.696 -14.162  19.103  1.00  0.00     0.180 A 
ATOM      4  O   UNL     1      -7.637 -14.032  18.345  1.00  0.00    -0.452 OA
ATOM      5  C   UNL     1      -9.834 -15.383  17.347  1.00  0.00     0.239 A 
ATOM      6  C   UNL     1      -7.594 -14.505  17.107  1.00  0.00     0.146 A 
ATOM      7  O   UNL     1     -10.807 -16.096  16.955  1.00  0.00    -0.285 OA
ATOM      8  C   UNL     1      -8.749 -15.076  16.500  1.00  0.00     0.111 A 
ATOM      9  C   UNL     1      -6.403 -14.432  16.406  1.00  0.00     0.094 A 
ATOM     10  C   UNL     1      -8.739 -15.364  15.139  1.00  0.00     0.134 A 
ATOM     11  C   UNL     1      -6.369 -14.759  15.046  1.00  0.00     0.123 A 
ATOM     12  C   UNL     1      -7.526 -15.221  14.417  1.00  0.00     0.093 A 
BRANCH   3  13
ATOM     13  C   UNL     1      -8.662 -13.577  20.459  1.00  0.00     0.025 A 
ATOM     14  C   UNL     1      -7.457 -13.569  21.173  1.00  0.00     0.016 A 
ATOM     15  C   UNL     1      -7.372 -12.904  22.404  1.00  0.00     0.051 A 
ATOM     16  C   UNL     1      -8.504 -12.273  22.927  1.00  0.00     0.157 A 
ATOM     17  C   UNL     1      -9.809 -13.007  21.019  1.00  0.00     0.062 A 
ATOM     18  C   UNL     1      -9.725 -12.323  22.241  1.00  0.00     0.158 A 
BRANCH  16  19
ATOM     19  O   UNL     1      -8.374 -11.539  24.112  1.00  0.00    -0.504 OA
ATOM     20  H   UNL     1      -7.506 -11.105  24.391  1.00  0.00     0.293 HD
ENDBRANCH  16  19
BRANCH  18  21
ATOM     21  O   UNL     1     -10.862 -11.736  22.784  1.00  0.00    -0.504 OA
ATOM     22  H   UNL     1     -11.530 -11.219  22.212  1.00  0.00     0.293 HD
ENDBRANCH  18  21
ENDBRANCH   3  13
BRANCH  10  23
ATOM     23  O   UNL     1      -9.907 -15.677  14.446  1.00  0.00    -0.507 OA
ATOM     24  H   UNL     1     -10.661 -16.140  14.995  1.00  0.00     0.293 HD
ENDBRANCH  10  23
BRANCH  11  25
ATOM     25  O   UNL     1      -5.216 -14.546  14.300  1.00  0.00    -0.508 OA
ATOM     26  H   UNL     1      -4.926 -15.241  13.632  1.00  0.00     0.293 HD
ENDBRANCH  11  25
ENDBRANCH   1   2
BRANCH   1  27
ATOM     27  C   UNL     1     -10.187 -17.185  19.761  1.00  0.00     0.339 C 
ATOM     28  C   UNL     1      -9.058 -17.634  20.702  1.00  0.00     0.214 C 
ATOM     29  O   UNL     1     -11.388 -17.866  20.001  1.00  0.00    -0.332 OA
ATOM     30  C   UNL     1      -9.439 -17.464  22.169  1.00  0.00     0.180 C 
ATOM     31  C   UNL     1     -11.891 -17.676  21.316  1.00  0.00     0.179 C 
ATOM     32  C   UNL     1     -10.834 -18.177  22.396  1.00  0.00     0.177 C 
BRANCH  28  33
ATOM     33  O   UNL     1      -8.809 -19.007  20.441  1.00  0.00    -0.384 OA
ATOM     34  H   UNL     1      -9.664 -19.358  20.073  1.00  0.00     0.211 HD
ENDBRANCH  28  33
BRANCH  30  35
ATOM     35  O   UNL     1      -8.414 -17.946  23.001  1.00  0.00    -0.387 OA
ATOM     36  H   UNL     1      -8.821 -18.598  23.632  1.00  0.00     0.211 HD
ENDBRANCH  30  35
BRANCH  31  37
ATOM     37  C   UNL     1     -13.162 -18.528  21.321  1.00  0.00     0.191 C 
BRANCH  37  38
ATOM     38  O   UNL     1     -13.842 -18.311  22.547  1.00  0.00    -0.394 OA
ATOM     39  H   UNL     1     -13.343 -17.585  23.026  1.00  0.00     0.210 HD
ENDBRANCH  37  38
ENDBRANCH  31  37
BRANCH  32  40
ATOM     40  O   UNL     1     -11.338 -17.899  23.682  1.00  0.00    -0.387 OA
ATOM     41  H   UNL     1     -12.179 -17.382  23.573  1.00  0.00     0.211 HD
ENDBRANCH  32  40
ENDBRANCH   1  27
TORSDOF 12
ENDMDL
MODEL 4
REMARK VINA RESULT:    -6.576      3.775      6.082
REMARK INTER + INTRA:         -11.280
REMARK INTER:                 -10.456
REMARK INTRA:                  -0.824
REMARK UNBOUND:                -1.628
REMARK SMILES O=c1c(O[C@@H]2O[C@@H](CO)[C@H](O)[C@@H](O)[C@H]2O)c(-c2ccc(O)c(O)c2)oc2cc(O)cc(O)c12
REMARK SMILES IDX 4 1 3 2 16 3 25 4 2 5 26 6 1 7 33 8 27 9 31 10 28 11 30 12
REMARK SMILES IDX 17 13 18 14 19 15 20 16 24 17 22 18 21 19 23 21 32 23 29 25
REMARK SMILES IDX 5 27 14 28 6 29 12 30 7 31 10 32 15 33 13 35 8 37 9 38 11 40
REMARK H PARENT 21 20 23 22 32 24 29 26 15 34 13 36 9 39 11 41
REMARK Flexibility Score: inf
ROOT
ATOM      1  O   UNL     1      -8.028 -15.361  21.246  1.00  0.00    -0.454 OA
ENDROOT
BRANCH   1   2
ATOM      2  C   UNL     1      -8.015 -16.491  20.414  1.00  0.00     0.214 A 
ATOM      3  C   UNL     1      -6.851 -16.781  19.658  1.00  0.00     0.180 A 
ATOM      4  O   UNL     1      -6.516 -18.030  19.461  1.00  0.00    -0.452 OA
ATOM      5  C   UNL     1      -9.016 -17.466  20.500  1.00  0.00     0.239 A 
ATOM      6  C   UNL     1      -7.346 -19.032  19.720  1.00  0.00     0.146 A 
ATOM      7  O   UNL     1     -10.109 -17.190  21.081  1.00  0.00    -0.285 OA
ATOM      8  C   UNL     1      -8.692 -18.784  20.115  1.00  0.00     0.111 A 
ATOM      9  C   UNL     1      -6.884 -20.330  19.596  1.00  0.00     0.094 A 
ATOM     10  C   UNL     1      -9.597 -19.839  20.169  1.00  0.00     0.134 A 
ATOM     11  C   UNL     1      -7.777 -21.403  19.690  1.00  0.00     0.123 A 
ATOM     12  C   UNL     1      -9.121 -21.162  19.974  1.00  0.00     0.093 A 
BRANCH   3  13
ATOM     13  C   UNL     1      -5.870 -15.731  19.314  1.00  0.00     0.025 A 
ATOM     14  C   UNL     1      -4.631 -15.708  19.967  1.00  0.00     0.016 A 
ATOM     15  C   UNL     1      -3.639 -14.803  19.564  1.00  0.00     0.051 A 
ATOM     16  C   UNL     1      -3.903 -13.907  18.524  1.00  0.00     0.157 A 
ATOM     17  C   UNL     1      -6.155 -14.785  18.325  1.00  0.00     0.062 A 
ATOM     18  C   UNL     1      -5.159 -13.891  17.904  1.00  0.00     0.158 A 
BRANCH  16  19
ATOM     19  O   UNL     1      -2.870 -13.075  18.079  1.00  0.00    -0.504 OA
ATOM     20  H   UNL     1      -2.880 -12.074  18.211  1.00  0.00     0.293 HD
ENDBRANCH  16  19
BRANCH  18  21
ATOM     21  O   UNL     1      -5.438 -12.968  16.902  1.00  0.00    -0.504 OA
ATOM     22  H   UNL     1      -6.151 -12.247  17.013  1.00  0.00     0.293 HD
ENDBRANCH  18  21
ENDBRANCH   3  13
BRANCH  10  23
ATOM     23  O   UNL     1     -10.968 -19.625  20.296  1.00  0.00    -0.507 OA
ATOM     24  H   UNL     1     -11.575 -20.469  20.247  1.00  0.00     0.293 HD
ENDBRANCH  10  23
BRANCH  11  25
ATOM     25  O   UNL     1      -7.351 -22.698  19.417  1.00  0.00    -0.508 OA
ATOM     26  H   UNL     1      -7.933 -23.475  19.684  1.00  0.00     0.293 HD
ENDBRANCH  11  25
ENDBRANCH   1   2
BRANCH   1  27
ATOM     27  C   UNL     1      -8.324 -14.099  20.634  1.00  0.00     0.339 C 
ATOM     28  C   UNL     1      -9.762 -13.912  20.125  1.00  0.00     0.214 C 
ATOM     29  O   UNL     1      -7.908 -13.049  21.464  1.00  0.00    -0.332 OA
ATOM     30  C   UNL     1     -10.756 -13.764  21.270  1.00  0.00     0.180 C 
ATOM     31  C   UNL     1      -8.708 -12.900  22.628  1.00  0.00     0.179 C 
ATOM     32  C   UNL     1     -10.225 -12.624  22.233  1.00  0.00     0.177 C 
BRANCH  28  33
ATOM     33  O   UNL     1      -9.782 -12.734  19.334  1.00  0.00    -0.384 OA
ATOM     34  H   UNL     1      -8.920 -12.277  19.532  1.00  0.00     0.211 HD
ENDBRANCH  28  33
BRANCH  30  35
ATOM     35  O   UNL     1     -12.049 -13.527  20.771  1.00  0.00    -0.387 OA
ATOM     36  H   UNL     1     -12.632 -14.269  21.084  1.00  0.00     0.211 HD
ENDBRANCH  30  35
BRANCH  31  37
ATOM     37  C   UNL     1      -8.072 -11.698  23.328  1.00  0.00     0.191 C 
BRANCH  37  38
ATOM     38  O   UNL     1      -9.107 -10.829  23.758  1.00  0.00    -0.394 OA
ATOM     39  H   UNL     1      -9.835 -11.412  24.127  1.00  0.00     0.210 HD
ENDBRANCH  37  38
ENDBRANCH  31  37
BRANCH  32  40
ATOM     40  O   UNL     1     -10.995 -12.561  23.412  1.00  0.00    -0.387 OA
ATOM     41  H   UNL     1     -10.935 -11.635  23.764  1.00  0.00     0.211 HD
ENDBRANCH  32  40
ENDBRANCH   1  27
TORSDOF 12
ENDMDL
MODEL 5
REMARK VINA RESULT:    -6.568      1.770      4.964
REMARK INTER + INTRA:         -11.268
REMARK INTER:                  -9.945
REMARK INTRA:                  -1.323
REMARK UNBOUND:                -1.628
REMARK SMILES O=c1c(O[C@@H]2O[C@@H](CO)[C@H](O)[C@@H](O)[C@H]2O)c(-c2ccc(O)c(O)c2)oc2cc(O)cc(O)c12
REMARK SMILES IDX 4 1 3 2 16 3 25 4 2 5 26 6 1 7 33 8 27 9 31 10 28 11 30 12
REMARK SMILES IDX 17 13 18 14 19 15 20 16 24 17 22 18 21 19 23 21 32 23 29 25
REMARK SMILES IDX 5 27 14 28 6 29 12 30 7 31 10 32 15 33 13 35 8 37 9 38 11 40
REMARK H PARENT 21 20 23 22 32 24 29 26 15 34 13 36 9 39 11 41
REMARK Flexibility Score: inf
ROOT
ATOM      1  O   UNL     1     -10.507 -16.882  20.963  1.00  0.00    -0.454 OA
ENDROOT
BRANCH   1   2
ATOM      2  C   UNL     1     -11.910 -16.865  20.995  1.00  0.00     0.214 A 
ATOM      3  C   UNL     1     -12.610 -15.958  20.161  1.00  0.00     0.180 A 
ATOM      4  O   UNL     1     -13.753 -16.326  19.639  1.00  0.00    -0.452 OA
ATOM      5  C   UNL     1     -12.633 -17.881  21.633  1.00  0.00     0.239 A 
ATOM      6  C   UNL     1     -14.401 -17.406  20.054  1.00  0.00     0.146 A 
ATOM      7  O   UNL     1     -12.045 -18.638  22.464  1.00  0.00    -0.285 OA
ATOM      8  C   UNL     1     -13.938 -18.153  21.175  1.00  0.00     0.111 A 
ATOM      9  C   UNL     1     -15.544 -17.798  19.380  1.00  0.00     0.094 A 
ATOM     10  C   UNL     1     -14.747 -19.145  21.720  1.00  0.00     0.134 A 
ATOM     11  C   UNL     1     -16.345 -18.823  19.895  1.00  0.00     0.123 A 
ATOM     12  C   UNL     1     -15.951 -19.492  21.055  1.00  0.00     0.093 A 
BRANCH   3  13
ATOM     13  C   UNL     1     -11.976 -14.724  19.654  1.00  0.00     0.025 A 
ATOM     14  C   UNL     1     -11.915 -14.501  18.272  1.00  0.00     0.016 A 
ATOM     15  C   UNL     1     -11.437 -13.280  17.777  1.00  0.00     0.051 A 
ATOM     16  C   UNL     1     -10.995 -12.298  18.668  1.00  0.00     0.157 A 
ATOM     17  C   UNL     1     -11.466 -13.769  20.538  1.00  0.00     0.062 A 
ATOM     18  C   UNL     1     -11.004 -12.538  20.049  1.00  0.00     0.158 A 
BRANCH  16  19
ATOM     19  O   UNL     1     -10.606 -11.055  18.156  1.00  0.00    -0.504 OA
ATOM     20  H   UNL     1     -10.430 -10.902  17.173  1.00  0.00     0.293 HD
ENDBRANCH  16  19
BRANCH  18  21
ATOM     21  O   UNL     1     -10.521 -11.580  20.933  1.00  0.00    -0.504 OA
ATOM     22  H   UNL     1     -10.014 -11.833  21.780  1.00  0.00     0.293 HD
ENDBRANCH  18  21
ENDBRANCH   3  13
BRANCH  10  23
ATOM     23  O   UNL     1     -14.465 -19.725  22.956  1.00  0.00    -0.507 OA
ATOM     24  H   UNL     1     -13.665 -20.392  22.983  1.00  0.00     0.293 HD
ENDBRANCH  10  23
BRANCH  11  25
ATOM     25  O   UNL     1     -17.570 -19.121  19.309  1.00  0.00    -0.508 OA
ATOM     26  H   UNL     1     -17.656 -19.948  18.741  1.00  0.00     0.293 HD
ENDBRANCH  11  25
ENDBRANCH   1   2
BRANCH   1  27
ATOM     27  C   UNL     1      -9.883 -17.237  19.722  1.00  0.00     0.339 C 
ATOM     28  C   UNL     1      -8.503 -16.617  19.453  1.00  0.00     0.214 C 
ATOM     29  O   UNL     1      -9.887 -18.629  19.559  1.00  0.00    -0.332 OA
ATOM     30  C   UNL     1      -7.425 -17.222  20.345  1.00  0.00     0.180 C 
ATOM     31  C   UNL     1      -8.992 -19.301  20.433  1.00  0.00     0.179 C 
ATOM     32  C   UNL     1      -7.500 -18.797  20.200  1.00  0.00     0.177 C 
BRANCH  28  33
ATOM     33  O   UNL     1      -8.181 -16.871  18.094  1.00  0.00    -0.384 OA
ATOM     34  H   UNL     1      -7.407 -17.496  18.126  1.00  0.00     0.211 HD
ENDBRANCH  28  33
BRANCH  30  35
ATOM     35  O   UNL     1      -6.166 -16.684  20.027  1.00  0.00    -0.387 OA
ATOM     36  H   UNL     1      -6.294 -16.041  19.279  1.00  0.00     0.211 HD
ENDBRANCH  30  35
BRANCH  31  37
ATOM     37  C   UNL     1      -9.168 -20.769  20.040  1.00  0.00     0.191 C 
BRANCH  37  38
ATOM     38  O   UNL     1      -8.461 -21.571  20.971  1.00  0.00    -0.394 OA
ATOM     39  H   UNL     1      -7.820 -20.962  21.444  1.00  0.00     0.210 HD
ENDBRANCH  37  38
ENDBRANCH  31  37
BRANCH  32  40
ATOM     40  O   UNL     1      -6.659 -19.430  21.137  1.00  0.00    -0.387 OA
ATOM     41  H   UNL     1      -6.131 -20.119  20.655  1.00  0.00     0.211 HD
ENDBRANCH  32  40
ENDBRANCH   1  27
TORSDOF 12
ENDMDL
MODEL 6
REMARK VINA RESULT:    -6.497      5.948      8.997
REMARK INTER + INTRA:         -11.164
REMARK INTER:                  -9.621
REMARK INTRA:                  -1.543
REMARK UNBOUND:                -1.628
REMARK SMILES O=c1c(O[C@@H]2O[C@@H](CO)[C@H](O)[C@@H](O)[C@H]2O)c(-c2ccc(O)c(O)c2)oc2cc(O)cc(O)c12
REMARK SMILES IDX 4 1 3 2 16 3 25 4 2 5 26 6 1 7 33 8 27 9 31 10 28 11 30 12
REMARK SMILES IDX 17 13 18 14 19 15 20 16 24 17 22 18 21 19 23 21 32 23 29 25
REMARK SMILES IDX 5 27 14 28 6 29 12 30 7 31 10 32 15 33 13 35 8 37 9 38 11 40
REMARK H PARENT 21 20 23 22 32 24 29 26 15 34 13 36 9 39 11 41
REMARK Flexibility Score: inf
ROOT
ATOM      1  O   UNL     1      -5.109 -15.318  18.796  1.00  0.00    -0.454 OA
ENDROOT
BRANCH   1   2
ATOM      2  C   UNL     1      -5.963 -14.296  19.239  1.00  0.00     0.214 A 
ATOM      3  C   UNL     1      -7.115 -13.977  18.478  1.00  0.00     0.180 A 
ATOM      4  O   UNL     1      -8.208 -13.613  19.100  1.00  0.00    -0.452 OA
ATOM      5  C   UNL     1      -5.844 -13.761  20.528  1.00  0.00     0.239 A 
ATOM      6  C   UNL     1      -8.212 -13.289  20.386  1.00  0.00     0.146 A 
ATOM      7  O   UNL     1      -4.776 -13.947  21.186  1.00  0.00    -0.285 OA
ATOM      8  C   UNL     1      -6.996 -13.207  21.124  1.00  0.00     0.111 A 
ATOM      9  C   UNL     1      -9.421 -13.025  21.003  1.00  0.00     0.094 A 
ATOM     10  C   UNL     1      -7.005 -12.659  22.403  1.00  0.00     0.134 A 
ATOM     11  C   UNL     1      -9.446 -12.512  22.305  1.00  0.00     0.123 A 
ATOM     12  C   UNL     1      -8.250 -12.330  23.000  1.00  0.00     0.093 A 
BRANCH   3  13
ATOM     13  C   UNL     1      -7.203 -14.293  17.037  1.00  0.00     0.025 A 
ATOM     14  C   UNL     1      -7.831 -15.476  16.630  1.00  0.00     0.016 A 
ATOM     15  C   UNL     1      -8.041 -15.730  15.267  1.00  0.00     0.051 A 
ATOM     16  C   UNL     1      -7.594 -14.808  14.316  1.00  0.00     0.157 A 
ATOM     17  C   UNL     1      -6.694 -13.409  16.081  1.00  0.00     0.062 A 
ATOM     18  C   UNL     1      -6.918 -13.648  14.717  1.00  0.00     0.158 A 
BRANCH  16  19
ATOM     19  O   UNL     1      -7.893 -15.038  12.969  1.00  0.00    -0.504 OA
ATOM     20  H   UNL     1      -8.721 -15.535  12.672  1.00  0.00     0.293 HD
ENDBRANCH  16  19
BRANCH  18  21
ATOM     21  O   UNL     1      -6.432 -12.754  13.770  1.00  0.00    -0.504 OA
ATOM     22  H   UNL     1      -6.280 -11.768  13.983  1.00  0.00     0.293 HD
ENDBRANCH  18  21
ENDBRANCH   3  13
BRANCH  10  23
ATOM     23  O   UNL     1      -5.826 -12.320  23.064  1.00  0.00    -0.507 OA
ATOM     24  H   UNL     1      -5.874 -11.498  23.703  1.00  0.00     0.293 HD
ENDBRANCH  10  23
BRANCH  11  25
ATOM     25  O   UNL     1     -10.645 -12.104  22.877  1.00  0.00    -0.508 OA
ATOM     26  H   UNL     1     -10.724 -11.167  23.239  1.00  0.00     0.293 HD
ENDBRANCH  11  25
ENDBRANCH   1   2
BRANCH   1  27
ATOM     27  C   UNL     1      -3.794 -14.936  18.372  1.00  0.00     0.339 C 
ATOM     28  C   UNL     1      -2.630 -15.764  18.938  1.00  0.00     0.214 C 
ATOM     29  O   UNL     1      -3.747 -14.830  16.975  1.00  0.00    -0.332 OA
ATOM     30  C   UNL     1      -2.584 -17.165  18.337  1.00  0.00     0.180 C 
ATOM     31  C   UNL     1      -3.816 -16.084  16.312  1.00  0.00     0.179 C 
ATOM     32  C   UNL     1      -2.608 -17.020  16.760  1.00  0.00     0.177 C 
BRANCH  28  33
ATOM     33  O   UNL     1      -1.428 -15.081  18.620  1.00  0.00    -0.384 OA
ATOM     34  H   UNL     1      -1.636 -14.117  18.760  1.00  0.00     0.211 HD
ENDBRANCH  28  33
BRANCH  30  35
ATOM     35  O   UNL     1      -1.471 -17.872  18.824  1.00  0.00    -0.387 OA
ATOM     36  H   UNL     1      -0.943 -17.247  19.390  1.00  0.00     0.211 HD
ENDBRANCH  30  35
BRANCH  31  37
ATOM     37  C   UNL     1      -3.720 -15.696  14.835  1.00  0.00     0.191 C 
BRANCH  37  38
ATOM     38  O   UNL     1      -2.395 -15.936  14.393  1.00  0.00    -0.394 OA
ATOM     39  H   UNL     1      -2.468 -16.378  13.496  1.00  0.00     0.210 HD
ENDBRANCH  37  38
ENDBRANCH  31  37
BRANCH  32  40
ATOM     40  O   UNL     1      -2.758 -18.277  16.141  1.00  0.00    -0.387 OA
ATOM     41  H   UNL     1      -3.713 -18.379  15.890  1.00  0.00     0.211 HD
ENDBRANCH  32  40
ENDBRANCH   1  27
TORSDOF 12
ENDMDL
MODEL 7
REMARK VINA RESULT:    -6.444      3.683      8.901
REMARK INTER + INTRA:         -11.086
REMARK INTER:                  -9.623
REMARK INTRA:                  -1.463
REMARK UNBOUND:                -1.628
REMARK SMILES O=c1c(O[C@@H]2O[C@@H](CO)[C@H](O)[C@@H](O)[C@H]2O)c(-c2ccc(O)c(O)c2)oc2cc(O)cc(O)c12
REMARK SMILES IDX 4 1 3 2 16 3 25 4 2 5 26 6 1 7 33 8 27 9 31 10 28 11 30 12
REMARK SMILES IDX 17 13 18 14 19 15 20 16 24 17 22 18 21 19 23 21 32 23 29 25
REMARK SMILES IDX 5 27 14 28 6 29 12 30 7 31 10 32 15 33 13 35 8 37 9 38 11 40
REMARK H PARENT 21 20 23 22 32 24 29 26 15 34 13 36 9 39 11 41
REMARK Flexibility Score: inf
ROOT
ATOM      1  O   UNL     1      -7.997 -16.588  19.412  1.00  0.00    -0.454 OA
ENDROOT
BRANCH   1   2
ATOM      2  C   UNL     1      -6.978 -15.690  19.060  1.00  0.00     0.214 A 
ATOM      3  C   UNL     1      -6.799 -14.510  19.827  1.00  0.00     0.180 A 
ATOM      4  O   UNL     1      -5.587 -14.052  20.016  1.00  0.00    -0.452 OA
ATOM      5  C   UNL     1      -5.984 -16.045  18.140  1.00  0.00     0.239 A 
ATOM      6  C   UNL     1      -4.550 -14.496  19.319  1.00  0.00     0.146 A 
ATOM      7  O   UNL     1      -6.171 -17.036  17.370  1.00  0.00    -0.285 OA
ATOM      8  C   UNL     1      -4.728 -15.412  18.243  1.00  0.00     0.111 A 
ATOM      9  C   UNL     1      -3.283 -14.049  19.651  1.00  0.00     0.094 A 
ATOM     10  C   UNL     1      -3.661 -15.691  17.395  1.00  0.00     0.134 A 
ATOM     11  C   UNL     1      -2.193 -14.358  18.829  1.00  0.00     0.123 A 
ATOM     12  C   UNL     1      -2.379 -15.172  17.711  1.00  0.00     0.093 A 
BRANCH   3  13
ATOM     13  C   UNL     1      -7.897 -13.936  20.631  1.00  0.00     0.025 A 
ATOM     14  C   UNL     1      -7.795 -13.930  22.028  1.00  0.00     0.016 A 
ATOM     15  C   UNL     1      -8.762 -13.273  22.802  1.00  0.00     0.051 A 
ATOM     16  C   UNL     1      -9.843 -12.649  22.173  1.00  0.00     0.157 A 
ATOM     17  C   UNL     1      -9.016 -13.373  20.011  1.00  0.00     0.062 A 
ATOM     18  C   UNL     1      -9.976 -12.698  20.778  1.00  0.00     0.158 A 
BRANCH  16  19
ATOM     19  O   UNL     1     -10.746 -11.924  22.957  1.00  0.00    -0.504 OA
ATOM     20  H   UNL     1     -10.459 -11.165  23.559  1.00  0.00     0.293 HD
ENDBRANCH  16  19
BRANCH  18  21
ATOM     21  O   UNL     1     -11.076 -12.117  20.156  1.00  0.00    -0.504 OA
ATOM     22  H   UNL     1     -12.007 -12.139  20.572  1.00  0.00     0.293 HD
ENDBRANCH  18  21
ENDBRANCH   3  13
BRANCH  10  23
ATOM     23  O   UNL     1      -3.838 -16.369  16.190  1.00  0.00    -0.507 OA
ATOM     24  H   UNL     1      -3.065 -17.003  15.897  1.00  0.00     0.293 HD
ENDBRANCH  10  23
BRANCH  11  25
ATOM     25  O   UNL     1      -0.948 -13.790  19.071  1.00  0.00    -0.508 OA
ATOM     26  H   UNL     1      -0.231 -13.858  18.367  1.00  0.00     0.293 HD
ENDBRANCH  11  25
ENDBRANCH   1   2
BRANCH   1  27
ATOM     27  C   UNL     1      -7.835 -17.316  20.636  1.00  0.00     0.339 C 
ATOM     28  C   UNL     1      -9.071 -17.401  21.545  1.00  0.00     0.214 C 
ATOM     29  O   UNL     1      -7.271 -18.573  20.380  1.00  0.00    -0.332 OA
ATOM     30  C   UNL     1     -10.144 -18.315  20.963  1.00  0.00     0.180 C 
ATOM     31  C   UNL     1      -8.161 -19.469  19.728  1.00  0.00     0.179 C 
ATOM     32  C   UNL     1      -9.465 -19.702  20.612  1.00  0.00     0.177 C 
BRANCH  28  33
ATOM     33  O   UNL     1      -8.644 -17.921  22.795  1.00  0.00    -0.384 OA
ATOM     34  H   UNL     1      -9.311 -17.584  23.454  1.00  0.00     0.211 HD
ENDBRANCH  28  33
BRANCH  30  35
ATOM     35  O   UNL     1     -11.230 -18.424  21.849  1.00  0.00    -0.387 OA
ATOM     36  H   UNL     1     -10.892 -18.225  22.763  1.00  0.00     0.211 HD
ENDBRANCH  30  35
BRANCH  31  37
ATOM     37  C   UNL     1      -7.326 -20.743  19.593  1.00  0.00     0.191 C 
BRANCH  37  38
ATOM     38  O   UNL     1      -7.789 -21.686  20.546  1.00  0.00    -0.394 OA
ATOM     39  H   UNL     1      -8.787 -21.598  20.574  1.00  0.00     0.210 HD
ENDBRANCH  37  38
ENDBRANCH  31  37
BRANCH  32  40
ATOM     40  O   UNL     1     -10.352 -20.531  19.897  1.00  0.00    -0.387 OA
ATOM     41  H   UNL     1     -10.859 -19.957  19.264  1.00  0.00     0.211 HD
ENDBRANCH  32  40
ENDBRANCH   1  27
TORSDOF 12
ENDMDL
MODEL 8
REMARK VINA RESULT:    -6.404      3.408      8.200
REMARK INTER + INTRA:         -11.028
REMARK INTER:                  -9.502
REMARK INTRA:                  -1.525
REMARK UNBOUND:                -1.628
REMARK SMILES O=c1c(O[C@@H]2O[C@@H](CO)[C@H](O)[C@@H](O)[C@H]2O)c(-c2ccc(O)c(O)c2)oc2cc(O)cc(O)c12
REMARK SMILES IDX 4 1 3 2 16 3 25 4 2 5 26 6 1 7 33 8 27 9 31 10 28 11 30 12
REMARK SMILES IDX 17 13 18 14 19 15 20 16 24 17 22 18 21 19 23 21 32 23 29 25
REMARK SMILES IDX 5 27 14 28 6 29 12 30 7 31 10 32 15 33 13 35 8 37 9 38 11 40
REMARK H PARENT 21 20 23 22 32 24 29 26 15 34 13 36 9 39 11 41
REMARK Flexibility Score: inf
ROOT
ATOM      1  O   UNL     1      -8.803 -15.797  18.525  1.00  0.00    -0.454 OA
ENDROOT
BRANCH   1   2
ATOM      2  C   UNL     1      -7.535 -15.195  18.517  1.00  0.00     0.214 A 
ATOM      3  C   UNL     1      -7.071 -14.544  19.688  1.00  0.00     0.180 A 
ATOM      4  O   UNL     1      -5.797 -14.597  19.983  1.00  0.00    -0.452 OA
ATOM      5  C   UNL     1      -6.624 -15.434  17.480  1.00  0.00     0.239 A 
ATOM      6  C   UNL     1      -4.889 -15.016  19.112  1.00  0.00     0.146 A 
ATOM      7  O   UNL     1      -7.039 -15.919  16.384  1.00  0.00    -0.285 OA
ATOM      8  C   UNL     1      -5.248 -15.316  17.766  1.00  0.00     0.111 A 
ATOM      9  C   UNL     1      -3.577 -15.154  19.530  1.00  0.00     0.094 A 
ATOM     10  C   UNL     1      -4.251 -15.541  16.823  1.00  0.00     0.134 A 
ATOM     11  C   UNL     1      -2.569 -15.423  18.597  1.00  0.00     0.123 A 
ATOM     12  C   UNL     1      -2.901 -15.615  17.256  1.00  0.00     0.093 A 
BRANCH   3  13
ATOM     13  C   UNL     1      -8.005 -14.036  20.714  1.00  0.00     0.025 A 
ATOM     14  C   UNL     1      -8.669 -12.822  20.497  1.00  0.00     0.016 A 
ATOM     15  C   UNL     1      -9.655 -12.389  21.394  1.00  0.00     0.051 A 
ATOM     16  C   UNL     1      -9.952 -13.162  22.521  1.00  0.00     0.157 A 
ATOM     17  C   UNL     1      -8.254 -14.769  21.878  1.00  0.00     0.062 A 
ATOM     18  C   UNL     1      -9.253 -14.350  22.769  1.00  0.00     0.158 A 
BRANCH  16  19
ATOM     19  O   UNL     1     -11.001 -12.756  23.353  1.00  0.00    -0.504 OA
ATOM     20  H   UNL     1     -10.863 -12.143  24.144  1.00  0.00     0.293 HD
ENDBRANCH  16  19
BRANCH  18  21
ATOM     21  O   UNL     1      -9.516 -15.095  23.913  1.00  0.00    -0.504 OA
ATOM     22  H   UNL     1     -10.462 -15.222  24.271  1.00  0.00     0.293 HD
ENDBRANCH  18  21
ENDBRANCH   3  13
BRANCH  10  23
ATOM     23  O   UNL     1      -4.527 -15.584  15.458  1.00  0.00    -0.507 OA
ATOM     24  H   UNL     1      -5.242 -16.276  15.152  1.00  0.00     0.293 HD
ENDBRANCH  10  23
BRANCH  11  25
ATOM     25  O   UNL     1      -1.234 -15.415  18.983  1.00  0.00    -0.508 OA
ATOM     26  H   UNL     1      -0.556 -14.951  18.401  1.00  0.00     0.293 HD
ENDBRANCH  11  25
ENDBRANCH   1   2
BRANCH   1  27
ATOM     27  C   UNL     1      -9.819 -15.194  17.714  1.00  0.00     0.339 C 
ATOM     28  C   UNL     1     -10.530 -16.120  16.715  1.00  0.00     0.214 C 
ATOM     29  O   UNL     1     -10.719 -14.480  18.518  1.00  0.00    -0.332 OA
ATOM     30  C   UNL     1     -11.458 -17.107  17.415  1.00  0.00     0.180 C 
ATOM     31  C   UNL     1     -11.557 -15.316  19.304  1.00  0.00     0.179 C 
ATOM     32  C   UNL     1     -12.413 -16.283  18.373  1.00  0.00     0.177 C 
BRANCH  28  33
ATOM     33  O   UNL     1     -11.294 -15.299  15.845  1.00  0.00    -0.384 OA
ATOM     34  H   UNL     1     -12.013 -15.894  15.497  1.00  0.00     0.211 HD
ENDBRANCH  28  33
BRANCH  30  35
ATOM     35  O   UNL     1     -12.142 -17.892  16.471  1.00  0.00    -0.387 OA
ATOM     36  H   UNL     1     -11.579 -17.936  15.653  1.00  0.00     0.211 HD
ENDBRANCH  30  35
BRANCH  31  37
ATOM     37  C   UNL     1     -12.439 -14.311  20.048  1.00  0.00     0.191 C 
BRANCH  37  38
ATOM     38  O   UNL     1     -13.653 -14.161  19.330  1.00  0.00    -0.394 OA
ATOM     39  H   UNL     1     -13.411 -14.156  18.357  1.00  0.00     0.210 HD
ENDBRANCH  37  38
ENDBRANCH  31  37
BRANCH  32  40
ATOM     40  O   UNL     1     -13.169 -17.145  19.192  1.00  0.00    -0.387 OA
ATOM     41  H   UNL     1     -12.534 -17.682  19.735  1.00  0.00     0.211 HD
ENDBRANCH  32  40
ENDBRANCH   1  27
TORSDOF 12
ENDMDL
MODEL 9
REMARK VINA RESULT:    -6.278      1.427      4.675
REMARK INTER + INTRA:         -10.842
REMARK INTER:                  -9.343
REMARK INTRA:                  -1.499
REMARK UNBOUND:                -1.628
REMARK SMILES O=c1c(O[C@@H]2O[C@@H](CO)[C@H](O)[C@@H](O)[C@H]2O)c(-c2ccc(O)c(O)c2)oc2cc(O)cc(O)c12
REMARK SMILES IDX 4 1 3 2 16 3 25 4 2 5 26 6 1 7 33 8 27 9 31 10 28 11 30 12
REMARK SMILES IDX 17 13 18 14 19 15 20 16 24 17 22 18 21 19 23 21 32 23 29 25
REMARK SMILES IDX 5 27 14 28 6 29 12 30 7 31 10 32 15 33 13 35 8 37 9 38 11 40
REMARK H PARENT 21 20 23 22 32 24 29 26 15 34 13 36 9 39 11 41
REMARK Flexibility Score: inf
ROOT
ATOM      1  O   UNL     1     -10.505 -17.359  19.731  1.00  0.00    -0.454 OA
ENDROOT
BRANCH   1   2
ATOM      2  C   UNL     1     -11.882 -17.269  19.987  1.00  0.00     0.214 A 
ATOM      3  C   UNL     1     -12.551 -16.041  19.755  1.00  0.00     0.180 A 
ATOM      4  O   UNL     1     -13.782 -16.060  19.311  1.00  0.00    -0.452 OA
ATOM      5  C   UNL     1     -12.653 -18.415  20.221  1.00  0.00     0.239 A 
ATOM      6  C   UNL     1     -14.512 -17.168  19.307  1.00  0.00     0.146 A 
ATOM      7  O   UNL     1     -12.077 -19.501  20.534  1.00  0.00    -0.285 OA
ATOM      8  C   UNL     1     -14.026 -18.367  19.901  1.00  0.00     0.111 A 
ATOM      9  C   UNL     1     -15.764 -17.139  18.719  1.00  0.00     0.094 A 
ATOM     10  C   UNL     1     -14.888 -19.445  20.077  1.00  0.00     0.134 A 
ATOM     11  C   UNL     1     -16.626 -18.234  18.852  1.00  0.00     0.123 A 
ATOM     12  C   UNL     1     -16.193 -19.377  19.525  1.00  0.00     0.093 A 
BRANCH   3  13
ATOM     13  C   UNL     1     -11.825 -14.754  19.746  1.00  0.00     0.025 A 
ATOM     14  C   UNL     1     -11.480 -14.169  18.521  1.00  0.00     0.016 A 
ATOM     15  C   UNL     1     -10.909 -12.889  18.488  1.00  0.00     0.051 A 
ATOM     16  C   UNL     1     -10.661 -12.212  19.686  1.00  0.00     0.157 A 
ATOM     17  C   UNL     1     -11.509 -14.105  20.943  1.00  0.00     0.062 A 
ATOM     18  C   UNL     1     -10.956 -12.816  20.915  1.00  0.00     0.158 A 
BRANCH  16  19
ATOM     19  O   UNL     1     -10.175 -10.902  19.625  1.00  0.00    -0.504 OA
ATOM     20  H   UNL     1      -9.694 -10.535  18.816  1.00  0.00     0.293 HD
ENDBRANCH  16  19
BRANCH  18  21
ATOM     21  O   UNL     1     -10.666 -12.162  22.108  1.00  0.00    -0.504 OA
ATOM     22  H   UNL     1     -10.950 -11.198  22.279  1.00  0.00     0.293 HD
ENDBRANCH  18  21
ENDBRANCH   3  13
BRANCH  10  23
ATOM     23  O   UNL     1     -14.546 -20.537  20.873  1.00  0.00    -0.507 OA
ATOM     24  H   UNL     1     -15.335 -21.121  21.222  1.00  0.00     0.293 HD
ENDBRANCH  10  23
BRANCH  11  25
ATOM     25  O   UNL     1     -17.936 -18.156  18.395  1.00  0.00    -0.508 OA
ATOM     26  H   UNL     1     -18.635 -18.759  18.798  1.00  0.00     0.293 HD
ENDBRANCH  11  25
ENDBRANCH   1   2
BRANCH   1  27
ATOM     27  C   UNL     1      -9.633 -17.451  20.865  1.00  0.00     0.339 C 
ATOM     28  C   UNL     1      -8.600 -18.588  20.838  1.00  0.00     0.214 C 
ATOM     29  O   UNL     1      -9.051 -16.204  21.131  1.00  0.00    -0.332 OA
ATOM     30  C   UNL     1      -7.497 -18.330  19.817  1.00  0.00     0.180 C 
ATOM     31  C   UNL     1      -8.085 -15.816  20.165  1.00  0.00     0.179 C 
ATOM     32  C   UNL     1      -6.908 -16.886  20.091  1.00  0.00     0.177 C 
BRANCH  28  33
ATOM     33  O   UNL     1      -8.026 -18.673  22.133  1.00  0.00    -0.384 OA
ATOM     34  H   UNL     1      -7.623 -17.777  22.294  1.00  0.00     0.211 HD
ENDBRANCH  28  33
BRANCH  30  35
ATOM     35  O   UNL     1      -6.535 -19.353  19.864  1.00  0.00    -0.387 OA
ATOM     36  H   UNL     1      -5.639 -18.926  19.794  1.00  0.00     0.211 HD
ENDBRANCH  30  35
BRANCH  31  37
ATOM     37  C   UNL     1      -7.597 -14.465  20.693  1.00  0.00     0.191 C 
BRANCH  37  38
ATOM     38  O   UNL     1      -6.444 -14.684  21.489  1.00  0.00    -0.394 OA
ATOM     39  H   UNL     1      -6.470 -15.646  21.773  1.00  0.00     0.210 HD
ENDBRANCH  37  38
ENDBRANCH  31  37
BRANCH  32  40
ATOM     40  O   UNL     1      -6.015 -16.504  19.070  1.00  0.00    -0.387 OA
ATOM     41  H   UNL     1      -6.053 -15.515  18.989  1.00  0.00     0.211 HD
ENDBRANCH  32  40
ENDBRANCH   1  27
TORSDOF 12
ENDMDL
