MODEL 1
REMARK VINA RESULT:    -3.991      0.000      0.000
REMARK INTER + INTRA:          -7.464
REMARK INTER:                  -6.323
REMARK INTRA:                  -1.140
REMARK UNBOUND:                -1.140
REMARK SMILES CCCCCCCCCCCC(=O)[O-]
REMARK SMILES IDX 7 1 8 2 9 3 10 4 11 5 12 6 13 7 14 8 6 9 5 10 4 11 3 12 2 13
REMARK SMILES IDX 1 14
REMARK H PARENT
REMARK Flexibility Score: inf
ROOT
ATOM      1  C   UNL     1     -10.588  -6.538  -6.280  1.00  0.00     0.000 C 
ENDROOT
BRANCH   1   2
ATOM      2  C   UNL     1     -10.810  -6.118  -4.822  1.00  0.00     0.000 C 
BRANCH   2   3
ATOM      3  C   UNL     1     -10.076  -4.805  -4.510  1.00  0.00     0.000 C 
BRANCH   3   4
ATOM      4  C   UNL     1     -10.919  -3.837  -3.660  1.00  0.00     0.006 C 
BRANCH   4   5
ATOM      5  C   UNL     1     -10.617  -3.889  -2.154  1.00  0.00     0.053 C 
BRANCH   5   6
ATOM      6  C   UNL     1      -9.158  -3.715  -1.866  1.00  0.00     0.041 C 
ATOM      7  O   UNL     1      -8.624  -2.579  -1.960  1.00  0.00    -0.550 OA
ATOM      8  O   UNL     1      -8.394  -4.803  -1.461  1.00  0.00    -0.550 OA
ENDBRANCH   5   6
ENDBRANCH   4   5
ENDBRANCH   3   4
ENDBRANCH   2   3
ENDBRANCH   1   2
BRANCH   1   9
ATOM      9  C   UNL     1     -10.554  -5.318  -7.207  1.00  0.00     0.000 C 
BRANCH   9  10
ATOM     10  C   UNL     1      -9.307  -5.339  -8.100  1.00  0.00    -0.000 C 
BRANCH  10  11
ATOM     11  C   UNL     1      -8.261  -6.322  -7.562  1.00  0.00    -0.000 C 
BRANCH  11  12
ATOM     12  C   UNL     1      -6.901  -5.636  -7.386  1.00  0.00    -0.000 C 
BRANCH  12  13
ATOM     13  C   UNL     1      -6.308  -5.937  -6.005  1.00  0.00    -0.003 C 
ATOM     14  C   UNL     1      -7.049  -7.085  -5.324  1.00  0.00     0.004 C 
ENDBRANCH  12  13
ENDBRANCH  11  12
ENDBRANCH  10  11
ENDBRANCH   9  10
ENDBRANCH   1   9
TORSDOF 10
ENDMDL
MODEL 2
REMARK VINA RESULT:    -3.876      1.058      2.485
REMARK INTER + INTRA:          -7.281
REMARK INTER:                  -6.159
REMARK INTRA:                  -1.122
REMARK UNBOUND:                -1.140
REMARK SMILES CCCCCCCCCCCC(=O)[O-]
REMARK SMILES IDX 7 1 8 2 9 3 10 4 11 5 12 6 13 7 14 8 6 9 5 10 4 11 3 12 2 13
REMARK SMILES IDX 1 14
REMARK H PARENT
REMARK Flexibility Score: inf
ROOT
ATOM      1  C   UNL     1      -8.656  -5.768  -4.988  1.00  0.00     0.000 C 
ENDROOT
BRANCH   1   2
ATOM      2  C   UNL     1     -10.175  -5.836  -5.188  1.00  0.00     0.000 C 
BRANCH   2   3
ATOM      3  C   UNL     1     -10.860  -4.580  -4.631  1.00  0.00     0.000 C 
BRANCH   3   4
ATOM      4  C   UNL     1     -10.955  -4.584  -3.094  1.00  0.00     0.006 C 
BRANCH   4   5
ATOM      5  C   UNL     1     -10.393  -3.321  -2.421  1.00  0.00     0.053 C 
BRANCH   5   6
ATOM      6  C   UNL     1      -8.968  -3.498  -1.998  1.00  0.00     0.041 C 
ATOM      7  O   UNL     1      -8.184  -2.512  -1.984  1.00  0.00    -0.550 OA
ATOM      8  O   UNL     1      -8.513  -4.744  -1.586  1.00  0.00    -0.550 OA
ENDBRANCH   5   6
ENDBRANCH   4   5
ENDBRANCH   3   4
ENDBRANCH   2   3
ENDBRANCH   1   2
BRANCH   1   9
ATOM      9  C   UNL     1      -7.934  -6.761  -5.905  1.00  0.00     0.000 C 
BRANCH   9  10
ATOM     10  C   UNL     1      -8.429  -6.637  -7.351  1.00  0.00    -0.000 C 
BRANCH  10  11
ATOM     11  C   UNL     1      -7.591  -5.619  -8.134  1.00  0.00    -0.000 C 
BRANCH  11  12
ATOM     12  C   UNL     1      -8.474  -4.774  -9.058  1.00  0.00    -0.000 C 
BRANCH  12  13
ATOM     13  C   UNL     1      -9.961  -5.037  -8.791  1.00  0.00    -0.003 C 
ATOM     14  C   UNL     1     -10.706  -3.738  -8.497  1.00  0.00     0.004 C 
ENDBRANCH  12  13
ENDBRANCH  11  12
ENDBRANCH  10  11
ENDBRANCH   9  10
ENDBRANCH   1   9
TORSDOF 10
ENDMDL
MODEL 3
REMARK VINA RESULT:    -3.829      1.337      2.246
REMARK INTER + INTRA:          -7.208
REMARK INTER:                  -6.106
REMARK INTRA:                  -1.102
REMARK UNBOUND:                -1.140
REMARK SMILES CCCCCCCCCCCC(=O)[O-]
REMARK SMILES IDX 7 1 8 2 9 3 10 4 11 5 12 6 13 7 14 8 6 9 5 10 4 11 3 12 2 13
REMARK SMILES IDX 1 14
REMARK H PARENT
REMARK Flexibility Score: inf
ROOT
ATOM      1  C   UNL     1      -9.737  -6.740  -5.715  1.00  0.00     0.000 C 
ENDROOT
BRANCH   1   2
ATOM      2  C   UNL     1      -9.539  -5.475  -4.871  1.00  0.00     0.000 C 
BRANCH   2   3
ATOM      3  C   UNL     1     -10.890  -4.852  -4.488  1.00  0.00     0.000 C 
BRANCH   3   4
ATOM      4  C   UNL     1     -11.007  -4.561  -2.981  1.00  0.00     0.006 C 
BRANCH   4   5
ATOM      5  C   UNL     1     -10.356  -3.240  -2.538  1.00  0.00     0.053 C 
BRANCH   5   6
ATOM      6  C   UNL     1      -8.989  -3.451  -1.966  1.00  0.00     0.041 C 
ATOM      7  O   UNL     1      -8.636  -4.593  -1.571  1.00  0.00    -0.550 OA
ATOM      8  O   UNL     1      -8.091  -2.392  -1.898  1.00  0.00    -0.550 OA
ENDBRANCH   5   6
ENDBRANCH   4   5
ENDBRANCH   3   4
ENDBRANCH   2   3
ENDBRANCH   1   2
BRANCH   1   9
ATOM      9  C   UNL     1     -11.108  -6.737  -6.399  1.00  0.00     0.000 C 
BRANCH   9  10
ATOM     10  C   UNL     1     -10.970  -6.492  -7.907  1.00  0.00    -0.000 C 
BRANCH  10  11
ATOM     11  C   UNL     1     -11.047  -4.996  -8.231  1.00  0.00    -0.000 C 
BRANCH  11  12
ATOM     12  C   UNL     1      -9.676  -4.451  -8.645  1.00  0.00    -0.000 C 
BRANCH  12  13
ATOM     13  C   UNL     1      -8.731  -5.588  -9.051  1.00  0.00    -0.003 C 
ATOM     14  C   UNL     1      -7.390  -5.474  -8.332  1.00  0.00     0.004 C 
ENDBRANCH  12  13
ENDBRANCH  11  12
ENDBRANCH  10  11
ENDBRANCH   9  10
ENDBRANCH   1   9
TORSDOF 10
ENDMDL
MODEL 4
REMARK VINA RESULT:    -3.729      2.093      5.056
REMARK INTER + INTRA:          -7.049
REMARK INTER:                  -6.162
REMARK INTRA:                  -0.887
REMARK UNBOUND:                -1.140
REMARK SMILES CCCCCCCCCCCC(=O)[O-]
REMARK SMILES IDX 7 1 8 2 9 3 10 4 11 5 12 6 13 7 14 8 6 9 5 10 4 11 3 12 2 13
REMARK SMILES IDX 1 14
REMARK H PARENT
REMARK Flexibility Score: inf
ROOT
ATOM      1  C   UNL     1     -11.124  -6.576  -5.120  1.00  0.00     0.000 C 
ENDROOT
BRANCH   1   2
ATOM      2  C   UNL     1     -11.111  -7.221  -6.511  1.00  0.00     0.000 C 
BRANCH   2   3
ATOM      3  C   UNL     1     -10.221  -6.426  -7.478  1.00  0.00     0.000 C 
BRANCH   3   4
ATOM      4  C   UNL     1      -8.780  -6.963  -7.541  1.00  0.00     0.006 C 
BRANCH   4   5
ATOM      5  C   UNL     1      -7.740  -6.069  -6.846  1.00  0.00     0.053 C 
BRANCH   5   6
ATOM      6  C   UNL     1      -7.093  -6.758  -5.684  1.00  0.00     0.041 C 
ATOM      7  O   UNL     1      -7.797  -7.366  -4.835  1.00  0.00    -0.550 OA
ATOM      8  O   UNL     1      -5.709  -6.759  -5.557  1.00  0.00    -0.550 OA
ENDBRANCH   5   6
ENDBRANCH   4   5
ENDBRANCH   3   4
ENDBRANCH   2   3
ENDBRANCH   1   2
BRANCH   1   9
ATOM      9  C   UNL     1     -10.830  -5.074  -5.206  1.00  0.00     0.000 C 
BRANCH   9  10
ATOM     10  C   UNL     1     -10.831  -4.432  -3.813  1.00  0.00    -0.000 C 
BRANCH  10  11
ATOM     11  C   UNL     1      -9.422  -4.424  -3.209  1.00  0.00    -0.000 C 
BRANCH  11  12
ATOM     12  C   UNL     1      -9.336  -3.454  -2.025  1.00  0.00    -0.000 C 
BRANCH  12  13
ATOM     13  C   UNL     1     -10.711  -3.252  -1.378  1.00  0.00    -0.003 C 
ATOM     14  C   UNL     1     -10.816  -4.008  -0.057  1.00  0.00     0.004 C 
ENDBRANCH  12  13
ENDBRANCH  11  12
ENDBRANCH  10  11
ENDBRANCH   9  10
ENDBRANCH   1   9
TORSDOF 10
ENDMDL
MODEL 5
REMARK VINA RESULT:    -3.675      2.964      5.674
REMARK INTER + INTRA:          -6.963
REMARK INTER:                  -6.240
REMARK INTRA:                  -0.723
REMARK UNBOUND:                -1.140
REMARK SMILES CCCCCCCCCCCC(=O)[O-]
REMARK SMILES IDX 7 1 8 2 9 3 10 4 11 5 12 6 13 7 14 8 6 9 5 10 4 11 3 12 2 13
REMARK SMILES IDX 1 14
REMARK H PARENT
REMARK Flexibility Score: inf
ROOT
ATOM      1  C   UNL     1     -10.053  -6.063  -5.446  1.00  0.00     0.000 C 
ENDROOT
BRANCH   1   2
ATOM      2  C   UNL     1     -10.810  -6.840  -6.531  1.00  0.00     0.000 C 
BRANCH   2   3
ATOM      3  C   UNL     1     -10.651  -6.167  -7.902  1.00  0.00     0.000 C 
BRANCH   3   4
ATOM      4  C   UNL     1      -9.723  -4.940  -7.861  1.00  0.00     0.006 C 
BRANCH   4   5
ATOM      5  C   UNL     1      -8.719  -4.864  -9.022  1.00  0.00     0.053 C 
BRANCH   5   6
ATOM      6  C   UNL     1      -7.424  -5.538  -8.690  1.00  0.00     0.041 C 
ATOM      7  O   UNL     1      -6.530  -5.662  -9.568  1.00  0.00    -0.550 OA
ATOM      8  O   UNL     1      -7.190  -6.001  -7.401  1.00  0.00    -0.550 OA
ENDBRANCH   5   6
ENDBRANCH   4   5
ENDBRANCH   3   4
ENDBRANCH   2   3
ENDBRANCH   1   2
BRANCH   1   9
ATOM      9  C   UNL     1     -11.019  -5.490  -4.403  1.00  0.00     0.000 C 
BRANCH   9  10
ATOM     10  C   UNL     1     -10.575  -4.094  -3.951  1.00  0.00    -0.000 C 
BRANCH  10  11
ATOM     11  C   UNL     1      -9.238  -4.155  -3.203  1.00  0.00    -0.000 C 
BRANCH  11  12
ATOM     12  C   UNL     1      -9.319  -3.409  -1.867  1.00  0.00    -0.000 C 
BRANCH  12  13
ATOM     13  C   UNL     1     -10.777  -3.222  -1.429  1.00  0.00    -0.003 C 
ATOM     14  C   UNL     1     -11.000  -3.750  -0.015  1.00  0.00     0.004 C 
ENDBRANCH  12  13
ENDBRANCH  11  12
ENDBRANCH  10  11
ENDBRANCH   9  10
ENDBRANCH   1   9
TORSDOF 10
ENDMDL
MODEL 6
REMARK VINA RESULT:    -3.338      2.020      4.861
REMARK INTER + INTRA:          -6.430
REMARK INTER:                  -5.782
REMARK INTRA:                  -0.648
REMARK UNBOUND:                -1.140
REMARK SMILES CCCCCCCCCCCC(=O)[O-]
REMARK SMILES IDX 7 1 8 2 9 3 10 4 11 5 12 6 13 7 14 8 6 9 5 10 4 11 3 12 2 13
REMARK SMILES IDX 1 14
REMARK H PARENT
REMARK Flexibility Score: inf
ROOT
ATOM      1  C   UNL     1     -10.708  -4.281  -7.334  1.00  0.00     0.000 C 
ENDROOT
BRANCH   1   2
ATOM      2  C   UNL     1     -10.226  -5.337  -8.337  1.00  0.00     0.000 C 
BRANCH   2   3
ATOM      3  C   UNL     1      -8.828  -4.991  -8.871  1.00  0.00     0.000 C 
BRANCH   3   4
ATOM      4  C   UNL     1      -7.728  -5.900  -8.295  1.00  0.00     0.006 C 
BRANCH   4   5
ATOM      5  C   UNL     1      -8.128  -6.646  -7.012  1.00  0.00     0.053 C 
BRANCH   5   6
ATOM      6  C   UNL     1      -7.184  -6.370  -5.884  1.00  0.00     0.041 C 
ATOM      7  O   UNL     1      -6.168  -5.649  -6.068  1.00  0.00    -0.550 OA
ATOM      8  O   UNL     1      -7.442  -6.882  -4.618  1.00  0.00    -0.550 OA
ENDBRANCH   5   6
ENDBRANCH   4   5
ENDBRANCH   3   4
ENDBRANCH   2   3
ENDBRANCH   1   2
BRANCH   1   9
ATOM      9  C   UNL     1     -11.125  -4.929  -6.010  1.00  0.00     0.000 C 
BRANCH   9  10
ATOM     10  C   UNL     1     -10.916  -3.965  -4.835  1.00  0.00    -0.000 C 
BRANCH  10  11
ATOM     11  C   UNL     1     -10.440  -4.715  -3.585  1.00  0.00    -0.000 C 
BRANCH  11  12
ATOM     12  C   UNL     1      -9.145  -4.104  -3.038  1.00  0.00    -0.000 C 
BRANCH  12  13
ATOM     13  C   UNL     1      -9.265  -3.816  -1.537  1.00  0.00    -0.003 C 
ATOM     14  C   UNL     1     -10.722  -3.627  -1.126  1.00  0.00     0.004 C 
ENDBRANCH  12  13
ENDBRANCH  11  12
ENDBRANCH  10  11
ENDBRANCH   9  10
ENDBRANCH   1   9
TORSDOF 10
ENDMDL
MODEL 7
REMARK VINA RESULT:    -3.195      2.824      5.490
REMARK INTER + INTRA:          -6.203
REMARK INTER:                  -5.295
REMARK INTRA:                  -0.908
REMARK UNBOUND:                -1.140
REMARK SMILES CCCCCCCCCCCC(=O)[O-]
REMARK SMILES IDX 7 1 8 2 9 3 10 4 11 5 12 6 13 7 14 8 6 9 5 10 4 11 3 12 2 13
REMARK SMILES IDX 1 14
REMARK H PARENT
REMARK Flexibility Score: inf
ROOT
ATOM      1  C   UNL     1      -8.254  -6.265  -5.207  1.00  0.00     0.000 C 
ENDROOT
BRANCH   1   2
ATOM      2  C   UNL     1      -7.357  -5.983  -6.418  1.00  0.00     0.000 C 
BRANCH   2   3
ATOM      3  C   UNL     1      -8.112  -6.232  -7.732  1.00  0.00     0.000 C 
BRANCH   3   4
ATOM      4  C   UNL     1      -7.812  -5.168  -8.803  1.00  0.00     0.006 C 
BRANCH   4   5
ATOM      5  C   UNL     1      -9.061  -4.579  -9.479  1.00  0.00     0.053 C 
BRANCH   5   6
ATOM      6  C   UNL     1     -10.278  -4.705  -8.616  1.00  0.00     0.041 C 
ATOM      7  O   UNL     1     -11.109  -5.628  -8.823  1.00  0.00    -0.550 OA
ATOM      8  O   UNL     1     -10.479  -3.822  -7.562  1.00  0.00    -0.550 OA
ENDBRANCH   5   6
ENDBRANCH   4   5
ENDBRANCH   3   4
ENDBRANCH   2   3
ENDBRANCH   1   2
BRANCH   1   9
ATOM      9  C   UNL     1      -9.634  -6.765  -5.647  1.00  0.00     0.000 C 
BRANCH   9  10
ATOM     10  C   UNL     1     -10.749  -6.087  -4.842  1.00  0.00    -0.000 C 
BRANCH  10  11
ATOM     11  C   UNL     1     -10.254  -4.784  -4.204  1.00  0.00    -0.000 C 
BRANCH  11  12
ATOM     12  C   UNL     1     -11.125  -4.393  -3.005  1.00  0.00    -0.000 C 
BRANCH  12  13
ATOM     13  C   UNL     1     -10.331  -3.548  -2.001  1.00  0.00    -0.003 C 
ATOM     14  C   UNL     1      -8.883  -4.021  -1.906  1.00  0.00     0.004 C 
ENDBRANCH  12  13
ENDBRANCH  11  12
ENDBRANCH  10  11
ENDBRANCH   9  10
ENDBRANCH   1   9
TORSDOF 10
ENDMDL
MODEL 8
REMARK VINA RESULT:    -3.096      1.377      3.104
REMARK INTER + INTRA:          -6.047
REMARK INTER:                  -4.944
REMARK INTRA:                  -1.103
REMARK UNBOUND:                -1.140
REMARK SMILES CCCCCCCCCCCC(=O)[O-]
REMARK SMILES IDX 7 1 8 2 9 3 10 4 11 5 12 6 13 7 14 8 6 9 5 10 4 11 3 12 2 13
REMARK SMILES IDX 1 14
REMARK H PARENT
REMARK Flexibility Score: inf
ROOT
ATOM      1  C   UNL     1      -6.969  -6.114  -6.197  1.00  0.00     0.000 C 
ENDROOT
BRANCH   1   2
ATOM      2  C   UNL     1      -8.281  -6.876  -6.420  1.00  0.00     0.000 C 
BRANCH   2   3
ATOM      3  C   UNL     1      -9.325  -6.499  -5.358  1.00  0.00     0.000 C 
BRANCH   3   4
ATOM      4  C   UNL     1      -8.911  -5.272  -4.525  1.00  0.00     0.006 C 
BRANCH   4   5
ATOM      5  C   UNL     1     -10.091  -4.456  -3.971  1.00  0.00     0.053 C 
BRANCH   5   6
ATOM      6  C   UNL     1      -9.776  -3.846  -2.640  1.00  0.00     0.041 C 
ATOM      7  O   UNL     1     -10.347  -2.783  -2.279  1.00  0.00    -0.550 OA
ATOM      8  O   UNL     1      -8.877  -4.469  -1.783  1.00  0.00    -0.550 OA
ENDBRANCH   5   6
ENDBRANCH   4   5
ENDBRANCH   3   4
ENDBRANCH   2   3
ENDBRANCH   1   2
BRANCH   1   9
ATOM      9  C   UNL     1      -6.592  -5.292  -7.434  1.00  0.00     0.000 C 
BRANCH   9  10
ATOM     10  C   UNL     1      -7.391  -5.746  -8.662  1.00  0.00    -0.000 C 
BRANCH  10  11
ATOM     11  C   UNL     1      -8.154  -4.572  -9.287  1.00  0.00    -0.000 C 
BRANCH  11  12
ATOM     12  C   UNL     1      -9.668  -4.804  -9.225  1.00  0.00    -0.000 C 
BRANCH  12  13
ATOM     13  C   UNL     1     -10.019  -6.248  -9.604  1.00  0.00    -0.003 C 
ATOM     14  C   UNL     1     -11.124  -6.800  -8.709  1.00  0.00     0.004 C 
ENDBRANCH  12  13
ENDBRANCH  11  12
ENDBRANCH  10  11
ENDBRANCH   9  10
ENDBRANCH   1   9
TORSDOF 10
ENDMDL
MODEL 9
REMARK VINA RESULT:    -3.079     17.857     19.682
REMARK INTER + INTRA:          -6.020
REMARK INTER:                  -5.266
REMARK INTRA:                  -0.754
REMARK UNBOUND:                -1.140
REMARK SMILES CCCCCCCCCCCC(=O)[O-]
REMARK SMILES IDX 7 1 8 2 9 3 10 4 11 5 12 6 13 7 14 8 6 9 5 10 4 11 3 12 2 13
REMARK SMILES IDX 1 14
REMARK H PARENT
REMARK Flexibility Score: inf
ROOT
ATOM      1  C   UNL     1      -4.708   7.816   7.248  1.00  0.00     0.000 C 
ENDROOT
BRANCH   1   2
ATOM      2  C   UNL     1      -4.732   9.270   7.736  1.00  0.00     0.000 C 
BRANCH   2   3
ATOM      3  C   UNL     1      -3.482   9.593   8.567  1.00  0.00     0.000 C 
BRANCH   3   4
ATOM      4  C   UNL     1      -3.275   8.617   9.739  1.00  0.00     0.006 C 
BRANCH   4   5
ATOM      5  C   UNL     1      -1.804   8.279  10.030  1.00  0.00     0.053 C 
BRANCH   5   6
ATOM      6  C   UNL     1      -1.438   6.906   9.558  1.00  0.00     0.041 C 
ATOM      7  O   UNL     1      -2.338   6.074   9.270  1.00  0.00    -0.550 OA
ATOM      8  O   UNL     1      -0.102   6.556   9.402  1.00  0.00    -0.550 OA
ENDBRANCH   5   6
ENDBRANCH   4   5
ENDBRANCH   3   4
ENDBRANCH   2   3
ENDBRANCH   1   2
BRANCH   1   9
ATOM      9  C   UNL     1      -6.012   7.094   7.603  1.00  0.00     0.000 C 
BRANCH   9  10
ATOM     10  C   UNL     1      -6.834   7.904   8.613  1.00  0.00    -0.000 C 
BRANCH  10  11
ATOM     11  C   UNL     1      -7.898   7.028   9.285  1.00  0.00    -0.000 C 
BRANCH  11  12
ATOM     12  C   UNL     1      -9.310   7.504   8.926  1.00  0.00    -0.000 C 
BRANCH  12  13
ATOM     13  C   UNL     1      -9.651   7.163   7.470  1.00  0.00    -0.003 C 
ATOM     14  C   UNL     1     -10.695   8.125   6.909  1.00  0.00     0.004 C 
ENDBRANCH  12  13
ENDBRANCH  11  12
ENDBRANCH  10  11
ENDBRANCH   9  10
ENDBRANCH   1   9
TORSDOF 10
ENDMDL
