MODEL 1
REMARK VINA RESULT:    -4.079      0.000      0.000
REMARK INTER + INTRA:         -15.319
REMARK INTER:                 -10.755
REMARK INTRA:                  -4.564
REMARK UNBOUND:                -4.564
REMARK SMILES CCCCCCCCCCCCCCCCCCCCCCCCCCCCCC(=O)[O-]
REMARK SMILES IDX 16 1 17 2 18 3 19 4 20 5 21 6 22 7 23 8 24 9 25 10 26 11
REMARK SMILES IDX 27 12 28 13 29 14 30 15 31 16 32 17 15 18 14 19 13 20 12 21
REMARK SMILES IDX 11 22 10 23 9 24 8 25 7 26 6 27 5 28 4 29 3 30 2 31 1 32
REMARK H PARENT
REMARK Flexibility Score: inf
ROOT
ATOM      1  C   UNL     1       5.818  -0.740  -1.166  1.00  0.00     0.000 C 
ENDROOT
BRANCH   1   2
ATOM      2  C   UNL     1       6.162   0.762  -1.163  1.00  0.00     0.000 C 
BRANCH   2   3
ATOM      3  C   UNL     1       7.267   1.189  -2.148  1.00  0.00     0.000 C 
BRANCH   3   4
ATOM      4  C   UNL     1       8.420   1.946  -1.471  1.00  0.00     0.000 C 
BRANCH   4   5
ATOM      5  C   UNL     1       9.698   1.094  -1.343  1.00  0.00     0.000 C 
BRANCH   5   6
ATOM      6  C   UNL     1       9.774   0.211  -0.081  1.00  0.00     0.000 C 
BRANCH   6   7
ATOM      7  C   UNL     1       9.495   0.929   1.255  1.00  0.00     0.000 C 
BRANCH   7   8
ATOM      8  C   UNL     1       8.459   0.220   2.150  1.00  0.00     0.000 C 
BRANCH   8   9
ATOM      9  C   UNL     1       7.207   1.078   2.406  1.00  0.00     0.000 C 
BRANCH   9  10
ATOM     10  C   UNL     1       7.513   2.584   2.355  1.00  0.00     0.000 C 
BRANCH  10  11
ATOM     11  C   UNL     1       6.617   3.329   1.355  1.00  0.00     0.000 C 
BRANCH  11  12
ATOM     12  C   UNL     1       5.131   3.098   1.675  1.00  0.00     0.000 C 
BRANCH  12  13
ATOM     13  C   UNL     1       4.204   4.072   0.933  1.00  0.00     0.006 C 
BRANCH  13  14
ATOM     14  C   UNL     1       2.783   4.104   1.511  1.00  0.00     0.053 C 
BRANCH  14  15
ATOM     15  C   UNL     1       2.806   4.556   2.939  1.00  0.00     0.041 C 
ATOM     16  O   UNL     1       2.383   3.796   3.852  1.00  0.00    -0.550 OA
ATOM     17  O   UNL     1       3.347   5.793   3.270  1.00  0.00    -0.550 OA
ENDBRANCH  14  15
ENDBRANCH  13  14
ENDBRANCH  12  13
ENDBRANCH  11  12
ENDBRANCH  10  11
ENDBRANCH   9  10
ENDBRANCH   8   9
ENDBRANCH   7   8
ENDBRANCH   6   7
ENDBRANCH   5   6
ENDBRANCH   4   5
ENDBRANCH   3   4
ENDBRANCH   2   3
ENDBRANCH   1   2
BRANCH   1  18
ATOM     18  C   UNL     1       6.695  -1.639  -0.272  1.00  0.00     0.000 C 
BRANCH  18  19
ATOM     19  C   UNL     1       7.511  -2.707  -1.030  1.00  0.00     0.000 C 
BRANCH  19  20
ATOM     20  C   UNL     1       7.713  -2.370  -2.518  1.00  0.00     0.000 C 
BRANCH  20  21
ATOM     21  C   UNL     1       7.206  -3.485  -3.452  1.00  0.00     0.000 C 
BRANCH  21  22
ATOM     22  C   UNL     1       6.186  -3.015  -4.512  1.00  0.00     0.000 C 
BRANCH  22  23
ATOM     23  C   UNL     1       6.356  -1.559  -5.004  1.00  0.00     0.000 C 
BRANCH  23  24
ATOM     24  C   UNL     1       5.090  -0.685  -4.917  1.00  0.00    -0.000 C 
BRANCH  24  25
ATOM     25  C   UNL     1       3.968  -1.352  -4.107  1.00  0.00    -0.000 C 
BRANCH  25  26
ATOM     26  C   UNL     1       2.637  -1.326  -4.873  1.00  0.00    -0.000 C 
BRANCH  26  27
ATOM     27  C   UNL     1       2.331  -2.665  -5.582  1.00  0.00    -0.000 C 
BRANCH  27  28
ATOM     28  C   UNL     1       2.314  -3.885  -4.642  1.00  0.00    -0.000 C 
BRANCH  28  29
ATOM     29  C   UNL     1       1.341  -3.787  -3.452  1.00  0.00    -0.000 C 
BRANCH  29  30
ATOM     30  C   UNL     1       0.664  -5.113  -3.043  1.00  0.00    -0.000 C 
BRANCH  30  31
ATOM     31  C   UNL     1      -0.603  -5.466  -3.840  1.00  0.00    -0.003 C 
ATOM     32  C   UNL     1      -1.865  -5.479  -2.977  1.00  0.00     0.004 C 
ENDBRANCH  30  31
ENDBRANCH  29  30
ENDBRANCH  28  29
ENDBRANCH  27  28
ENDBRANCH  26  27
ENDBRANCH  25  26
ENDBRANCH  24  25
ENDBRANCH  23  24
ENDBRANCH  22  23
ENDBRANCH  21  22
ENDBRANCH  20  21
ENDBRANCH  19  20
ENDBRANCH  18  19
ENDBRANCH   1  18
TORSDOF 28
ENDMDL
MODEL 2
REMARK VINA RESULT:    -4.064      1.897      4.372
REMARK INTER + INTRA:         -15.280
REMARK INTER:                 -10.339
REMARK INTRA:                  -4.941
REMARK UNBOUND:                -4.564
REMARK SMILES CCCCCCCCCCCCCCCCCCCCCCCCCCCCCC(=O)[O-]
REMARK SMILES IDX 16 1 17 2 18 3 19 4 20 5 21 6 22 7 23 8 24 9 25 10 26 11
REMARK SMILES IDX 27 12 28 13 29 14 30 15 31 16 32 17 15 18 14 19 13 20 12 21
REMARK SMILES IDX 11 22 10 23 9 24 8 25 7 26 6 27 5 28 4 29 3 30 2 31 1 32
REMARK H PARENT
REMARK Flexibility Score: inf
ROOT
ATOM      1  C   UNL     1       6.266  -1.658  -4.704  1.00  0.00     0.000 C 
ENDROOT
BRANCH   1   2
ATOM      2  C   UNL     1       6.279  -2.842  -3.717  1.00  0.00     0.000 C 
BRANCH   2   3
ATOM      3  C   UNL     1       7.676  -3.331  -3.290  1.00  0.00     0.000 C 
BRANCH   3   4
ATOM      4  C   UNL     1       7.919  -3.217  -1.777  1.00  0.00     0.000 C 
BRANCH   4   5
ATOM      5  C   UNL     1       8.964  -2.142  -1.421  1.00  0.00     0.000 C 
BRANCH   5   6
ATOM      6  C   UNL     1       9.366  -1.208  -2.580  1.00  0.00     0.000 C 
BRANCH   6   7
ATOM      7  C   UNL     1       8.824   0.234  -2.497  1.00  0.00     0.000 C 
BRANCH   7   8
ATOM      8  C   UNL     1       7.933   0.504  -1.269  1.00  0.00     0.000 C 
BRANCH   8   9
ATOM      9  C   UNL     1       6.436   0.568  -1.622  1.00  0.00     0.000 C 
BRANCH   9  10
ATOM     10  C   UNL     1       5.578  -0.290  -0.677  1.00  0.00     0.000 C 
BRANCH  10  11
ATOM     11  C   UNL     1       6.357  -0.754   0.562  1.00  0.00     0.000 C 
BRANCH  11  12
ATOM     12  C   UNL     1       5.714  -0.210   1.847  1.00  0.00     0.000 C 
BRANCH  12  13
ATOM     13  C   UNL     1       6.663   0.689   2.653  1.00  0.00     0.006 C 
BRANCH  13  14
ATOM     14  C   UNL     1       6.896   2.056   1.995  1.00  0.00     0.053 C 
BRANCH  14  15
ATOM     15  C   UNL     1       5.598   2.780   1.809  1.00  0.00     0.041 C 
ATOM     16  O   UNL     1       4.937   3.163   2.811  1.00  0.00    -0.550 OA
ATOM     17  O   UNL     1       5.146   3.082   0.529  1.00  0.00    -0.550 OA
ENDBRANCH  14  15
ENDBRANCH  13  14
ENDBRANCH  12  13
ENDBRANCH  11  12
ENDBRANCH  10  11
ENDBRANCH   9  10
ENDBRANCH   8   9
ENDBRANCH   7   8
ENDBRANCH   6   7
ENDBRANCH   5   6
ENDBRANCH   4   5
ENDBRANCH   3   4
ENDBRANCH   2   3
ENDBRANCH   1   2
BRANCH   1  18
ATOM     18  C   UNL     1       4.941  -0.878  -4.811  1.00  0.00     0.000 C 
BRANCH  18  19
ATOM     19  C   UNL     1       3.917  -1.185  -3.698  1.00  0.00     0.000 C 
BRANCH  19  20
ATOM     20  C   UNL     1       2.575  -1.708  -4.239  1.00  0.00     0.000 C 
BRANCH  20  21
ATOM     21  C   UNL     1       2.559  -1.821  -5.775  1.00  0.00     0.000 C 
BRANCH  21  22
ATOM     22  C   UNL     1       2.568  -3.269  -6.309  1.00  0.00     0.000 C 
BRANCH  22  23
ATOM     23  C   UNL     1       3.310  -4.302  -5.428  1.00  0.00     0.000 C 
BRANCH  23  24
ATOM     24  C   UNL     1       2.483  -5.539  -5.032  1.00  0.00    -0.000 C 
BRANCH  24  25
ATOM     25  C   UNL     1       1.001  -5.210  -4.797  1.00  0.00    -0.000 C 
BRANCH  25  26
ATOM     26  C   UNL     1       0.767  -4.676  -3.376  1.00  0.00    -0.000 C 
BRANCH  26  27
ATOM     27  C   UNL     1      -0.466  -5.313  -2.696  1.00  0.00    -0.000 C 
BRANCH  27  28
ATOM     28  C   UNL     1      -0.140  -6.538  -1.822  1.00  0.00    -0.000 C 
BRANCH  28  29
ATOM     29  C   UNL     1       1.224  -6.493  -1.107  1.00  0.00    -0.000 C 
BRANCH  29  30
ATOM     30  C   UNL     1       2.020  -7.817  -1.124  1.00  0.00    -0.000 C 
BRANCH  30  31
ATOM     31  C   UNL     1       2.075  -8.523  -2.488  1.00  0.00    -0.003 C 
ATOM     32  C   UNL     1       3.442  -8.408  -3.164  1.00  0.00     0.004 C 
ENDBRANCH  30  31
ENDBRANCH  29  30
ENDBRANCH  28  29
ENDBRANCH  27  28
ENDBRANCH  26  27
ENDBRANCH  25  26
ENDBRANCH  24  25
ENDBRANCH  23  24
ENDBRANCH  22  23
ENDBRANCH  21  22
ENDBRANCH  20  21
ENDBRANCH  19  20
ENDBRANCH  18  19
ENDBRANCH   1  18
TORSDOF 28
ENDMDL
MODEL 3
REMARK VINA RESULT:    -4.013      4.077      8.979
REMARK INTER + INTRA:         -15.145
REMARK INTER:                 -10.070
REMARK INTRA:                  -5.074
REMARK UNBOUND:                -4.564
REMARK SMILES CCCCCCCCCCCCCCCCCCCCCCCCCCCCCC(=O)[O-]
REMARK SMILES IDX 16 1 17 2 18 3 19 4 20 5 21 6 22 7 23 8 24 9 25 10 26 11
REMARK SMILES IDX 27 12 28 13 29 14 30 15 31 16 32 17 15 18 14 19 13 20 12 21
REMARK SMILES IDX 11 22 10 23 9 24 8 25 7 26 6 27 5 28 4 29 3 30 2 31 1 32
REMARK H PARENT
REMARK Flexibility Score: inf
ROOT
ATOM      1  C   UNL     1       5.253  -0.508  -4.680  1.00  0.00     0.000 C 
ENDROOT
BRANCH   1   2
ATOM      2  C   UNL     1       4.572  -1.589  -3.817  1.00  0.00     0.000 C 
BRANCH   2   3
ATOM      3  C   UNL     1       3.031  -1.584  -3.847  1.00  0.00     0.000 C 
BRANCH   3   4
ATOM      4  C   UNL     1       2.455  -1.095  -5.185  1.00  0.00     0.000 C 
BRANCH   4   5
ATOM      5  C   UNL     1       2.100  -2.252  -6.140  1.00  0.00     0.000 C 
BRANCH   5   6
ATOM      6  C   UNL     1       3.259  -2.750  -7.027  1.00  0.00     0.000 C 
BRANCH   6   7
ATOM      7  C   UNL     1       3.564  -4.259  -6.944  1.00  0.00     0.000 C 
BRANCH   7   8
ATOM      8  C   UNL     1       4.055  -4.731  -5.561  1.00  0.00     0.000 C 
BRANCH   8   9
ATOM      9  C   UNL     1       3.085  -5.720  -4.891  1.00  0.00     0.000 C 
BRANCH   9  10
ATOM     10  C   UNL     1       1.694  -5.706  -5.546  1.00  0.00     0.000 C 
BRANCH  10  11
ATOM     11  C   UNL     1       0.570  -5.462  -4.529  1.00  0.00     0.000 C 
BRANCH  11  12
ATOM     12  C   UNL     1       1.066  -4.588  -3.366  1.00  0.00     0.000 C 
BRANCH  12  13
ATOM     13  C   UNL     1       0.511  -5.036  -2.006  1.00  0.00     0.006 C 
BRANCH  13  14
ATOM     14  C   UNL     1       1.174  -6.318  -1.481  1.00  0.00     0.053 C 
BRANCH  14  15
ATOM     15  C   UNL     1       0.159  -7.407  -1.317  1.00  0.00     0.041 C 
ATOM     16  O   UNL     1      -0.944  -7.342  -1.924  1.00  0.00    -0.550 OA
ATOM     17  O   UNL     1       0.452  -8.521  -0.540  1.00  0.00    -0.550 OA
ENDBRANCH  14  15
ENDBRANCH  13  14
ENDBRANCH  12  13
ENDBRANCH  11  12
ENDBRANCH  10  11
ENDBRANCH   9  10
ENDBRANCH   8   9
ENDBRANCH   7   8
ENDBRANCH   6   7
ENDBRANCH   5   6
ENDBRANCH   4   5
ENDBRANCH   3   4
ENDBRANCH   2   3
ENDBRANCH   1   2
BRANCH   1  18
ATOM     18  C   UNL     1       6.300  -1.010  -5.693  1.00  0.00     0.000 C 
BRANCH  18  19
ATOM     19  C   UNL     1       7.761  -0.655  -5.345  1.00  0.00     0.000 C 
BRANCH  19  20
ATOM     20  C   UNL     1       8.340  -1.523  -4.214  1.00  0.00     0.000 C 
BRANCH  20  21
ATOM     21  C   UNL     1       8.266  -3.029  -4.526  1.00  0.00     0.000 C 
BRANCH  21  22
ATOM     22  C   UNL     1       7.493  -3.861  -3.481  1.00  0.00     0.000 C 
BRANCH  22  23
ATOM     23  C   UNL     1       8.277  -4.214  -2.195  1.00  0.00     0.000 C 
BRANCH  23  24
ATOM     24  C   UNL     1       7.788  -3.511  -0.915  1.00  0.00    -0.000 C 
BRANCH  24  25
ATOM     25  C   UNL     1       8.669  -2.314  -0.526  1.00  0.00    -0.000 C 
BRANCH  25  26
ATOM     26  C   UNL     1       7.833  -1.034  -0.372  1.00  0.00    -0.000 C 
BRANCH  26  27
ATOM     27  C   UNL     1       6.418  -1.170  -0.978  1.00  0.00    -0.000 C 
BRANCH  27  28
ATOM     28  C   UNL     1       5.424  -0.093  -0.505  1.00  0.00    -0.000 C 
BRANCH  28  29
ATOM     29  C   UNL     1       6.060   1.149   0.146  1.00  0.00    -0.000 C 
BRANCH  29  30
ATOM     30  C   UNL     1       6.250   2.361  -0.792  1.00  0.00    -0.000 C 
BRANCH  30  31
ATOM     31  C   UNL     1       7.690   2.579  -1.285  1.00  0.00    -0.003 C 
ATOM     32  C   UNL     1       7.975   1.884  -2.617  1.00  0.00     0.004 C 
ENDBRANCH  30  31
ENDBRANCH  29  30
ENDBRANCH  28  29
ENDBRANCH  27  28
ENDBRANCH  26  27
ENDBRANCH  25  26
ENDBRANCH  24  25
ENDBRANCH  23  24
ENDBRANCH  22  23
ENDBRANCH  21  22
ENDBRANCH  20  21
ENDBRANCH  19  20
ENDBRANCH  18  19
ENDBRANCH   1  18
TORSDOF 28
ENDMDL
MODEL 4
REMARK VINA RESULT:    -3.979      1.901      4.283
REMARK INTER + INTRA:         -15.056
REMARK INTER:                 -10.747
REMARK INTRA:                  -4.309
REMARK UNBOUND:                -4.564
REMARK SMILES CCCCCCCCCCCCCCCCCCCCCCCCCCCCCC(=O)[O-]
REMARK SMILES IDX 16 1 17 2 18 3 19 4 20 5 21 6 22 7 23 8 24 9 25 10 26 11
REMARK SMILES IDX 27 12 28 13 29 14 30 15 31 16 32 17 15 18 14 19 13 20 12 21
REMARK SMILES IDX 11 22 10 23 9 24 8 25 7 26 6 27 5 28 4 29 3 30 2 31 1 32
REMARK H PARENT
REMARK Flexibility Score: inf
ROOT
ATOM      1  C   UNL     1       5.217  -0.766  -4.287  1.00  0.00     0.000 C 
ENDROOT
BRANCH   1   2
ATOM      2  C   UNL     1       6.535  -1.543  -4.473  1.00  0.00     0.000 C 
BRANCH   2   3
ATOM      3  C   UNL     1       6.619  -2.889  -3.728  1.00  0.00     0.000 C 
BRANCH   3   4
ATOM      4  C   UNL     1       8.052  -3.265  -3.321  1.00  0.00     0.000 C 
BRANCH   4   5
ATOM      5  C   UNL     1       8.134  -3.839  -1.892  1.00  0.00     0.000 C 
BRANCH   5   6
ATOM      6  C   UNL     1       7.447  -2.989  -0.804  1.00  0.00     0.000 C 
BRANCH   6   7
ATOM      7  C   UNL     1       8.104  -1.626  -0.505  1.00  0.00     0.000 C 
BRANCH   7   8
ATOM      8  C   UNL     1       7.303  -0.412  -1.016  1.00  0.00     0.000 C 
BRANCH   8   9
ATOM      9  C   UNL     1       5.816  -0.473  -0.626  1.00  0.00     0.000 C 
BRANCH   9  10
ATOM     10  C   UNL     1       5.428   0.636   0.366  1.00  0.00     0.000 C 
BRANCH  10  11
ATOM     11  C   UNL     1       6.595   1.587   0.666  1.00  0.00     0.000 C 
BRANCH  11  12
ATOM     12  C   UNL     1       6.133   2.760   1.545  1.00  0.00     0.000 C 
BRANCH  12  13
ATOM     13  C   UNL     1       4.638   3.072   1.384  1.00  0.00     0.006 C 
BRANCH  13  14
ATOM     14  C   UNL     1       4.371   4.259   0.447  1.00  0.00     0.053 C 
BRANCH  14  15
ATOM     15  C   UNL     1       3.089   4.940   0.813  1.00  0.00     0.041 C 
ATOM     16  O   UNL     1       2.872   5.284   2.007  1.00  0.00    -0.550 OA
ATOM     17  O   UNL     1       2.157   5.247  -0.172  1.00  0.00    -0.550 OA
ENDBRANCH  14  15
ENDBRANCH  13  14
ENDBRANCH  12  13
ENDBRANCH  11  12
ENDBRANCH  10  11
ENDBRANCH   9  10
ENDBRANCH   8   9
ENDBRANCH   7   8
ENDBRANCH   6   7
ENDBRANCH   5   6
ENDBRANCH   4   5
ENDBRANCH   3   4
ENDBRANCH   2   3
ENDBRANCH   1   2
BRANCH   1  18
ATOM     18  C   UNL     1       4.020  -1.577  -3.755  1.00  0.00     0.000 C 
BRANCH  18  19
ATOM     19  C   UNL     1       2.704  -1.380  -4.538  1.00  0.00     0.000 C 
BRANCH  19  20
ATOM     20  C   UNL     1       2.586  -2.305  -5.762  1.00  0.00     0.000 C 
BRANCH  20  21
ATOM     21  C   UNL     1       3.520  -3.527  -5.674  1.00  0.00     0.000 C 
BRANCH  21  22
ATOM     22  C   UNL     1       2.874  -4.781  -5.047  1.00  0.00     0.000 C 
BRANCH  22  23
ATOM     23  C   UNL     1       1.372  -4.985  -5.357  1.00  0.00     0.000 C 
BRANCH  23  24
ATOM     24  C   UNL     1       0.465  -5.157  -4.125  1.00  0.00    -0.000 C 
BRANCH  24  25
ATOM     25  C   UNL     1       0.815  -4.179  -2.993  1.00  0.00    -0.000 C 
BRANCH  25  26
ATOM     26  C   UNL     1       0.678  -4.846  -1.617  1.00  0.00    -0.000 C 
BRANCH  26  27
ATOM     27  C   UNL     1       0.539  -6.382  -1.711  1.00  0.00    -0.000 C 
BRANCH  27  28
ATOM     28  C   UNL     1       1.721  -7.160  -1.102  1.00  0.00    -0.000 C 
BRANCH  28  29
ATOM     29  C   UNL     1       2.242  -8.336  -1.949  1.00  0.00    -0.000 C 
BRANCH  29  30
ATOM     30  C   UNL     1       2.997  -7.938  -3.236  1.00  0.00    -0.000 C 
BRANCH  30  31
ATOM     31  C   UNL     1       2.434  -8.546  -4.531  1.00  0.00    -0.003 C 
ATOM     32  C   UNL     1       0.935  -8.840  -4.450  1.00  0.00     0.004 C 
ENDBRANCH  30  31
ENDBRANCH  29  30
ENDBRANCH  28  29
ENDBRANCH  27  28
ENDBRANCH  26  27
ENDBRANCH  25  26
ENDBRANCH  24  25
ENDBRANCH  23  24
ENDBRANCH  22  23
ENDBRANCH  21  22
ENDBRANCH  20  21
ENDBRANCH  19  20
ENDBRANCH  18  19
ENDBRANCH   1  18
TORSDOF 28
ENDMDL
MODEL 5
REMARK VINA RESULT:    -3.975      2.439      5.011
REMARK INTER + INTRA:         -15.046
REMARK INTER:                 -10.355
REMARK INTRA:                  -4.691
REMARK UNBOUND:                -4.564
REMARK SMILES CCCCCCCCCCCCCCCCCCCCCCCCCCCCCC(=O)[O-]
REMARK SMILES IDX 16 1 17 2 18 3 19 4 20 5 21 6 22 7 23 8 24 9 25 10 26 11
REMARK SMILES IDX 27 12 28 13 29 14 30 15 31 16 32 17 15 18 14 19 13 20 12 21
REMARK SMILES IDX 11 22 10 23 9 24 8 25 7 26 6 27 5 28 4 29 3 30 2 31 1 32
REMARK H PARENT
REMARK Flexibility Score: inf
ROOT
ATOM      1  C   UNL     1       3.910  -1.537  -3.518  1.00  0.00     0.000 C 
ENDROOT
BRANCH   1   2
ATOM      2  C   UNL     1       4.896  -0.910  -4.524  1.00  0.00     0.000 C 
BRANCH   2   3
ATOM      3  C   UNL     1       6.218  -1.676  -4.718  1.00  0.00     0.000 C 
BRANCH   3   4
ATOM      4  C   UNL     1       6.234  -3.042  -4.015  1.00  0.00     0.000 C 
BRANCH   4   5
ATOM      5  C   UNL     1       7.415  -3.927  -4.460  1.00  0.00     0.000 C 
BRANCH   5   6
ATOM      6  C   UNL     1       8.783  -3.218  -4.514  1.00  0.00     0.000 C 
BRANCH   6   7
ATOM      7  C   UNL     1       9.520  -3.083  -3.166  1.00  0.00     0.000 C 
BRANCH   7   8
ATOM      8  C   UNL     1       9.373  -4.305  -2.239  1.00  0.00     0.000 C 
BRANCH   8   9
ATOM      9  C   UNL     1       8.477  -4.024  -1.020  1.00  0.00     0.000 C 
BRANCH   9  10
ATOM     10  C   UNL     1       8.351  -2.520  -0.724  1.00  0.00     0.000 C 
BRANCH  10  11
ATOM     11  C   UNL     1       6.904  -2.100  -0.433  1.00  0.00     0.000 C 
BRANCH  11  12
ATOM     12  C   UNL     1       6.566  -0.776  -1.137  1.00  0.00     0.000 C 
BRANCH  12  13
ATOM     13  C   UNL     1       5.574   0.085  -0.341  1.00  0.00     0.006 C 
BRANCH  13  14
ATOM     14  C   UNL     1       6.266   1.121   0.556  1.00  0.00     0.053 C 
BRANCH  14  15
ATOM     15  C   UNL     1       5.854   0.939   1.985  1.00  0.00     0.041 C 
ATOM     16  O   UNL     1       5.967   1.891   2.803  1.00  0.00    -0.550 OA
ATOM     17  O   UNL     1       5.290  -0.262   2.399  1.00  0.00    -0.550 OA
ENDBRANCH  14  15
ENDBRANCH  13  14
ENDBRANCH  12  13
ENDBRANCH  11  12
ENDBRANCH  10  11
ENDBRANCH   9  10
ENDBRANCH   8   9
ENDBRANCH   7   8
ENDBRANCH   6   7
ENDBRANCH   5   6
ENDBRANCH   4   5
ENDBRANCH   3   4
ENDBRANCH   2   3
ENDBRANCH   1   2
BRANCH   1  18
ATOM     18  C   UNL     1       2.604  -2.103  -4.110  1.00  0.00     0.000 C 
BRANCH  18  19
ATOM     19  C   UNL     1       2.239  -1.562  -5.508  1.00  0.00     0.000 C 
BRANCH  19  20
ATOM     20  C   UNL     1       2.271  -2.644  -6.602  1.00  0.00     0.000 C 
BRANCH  20  21
ATOM     21  C   UNL     1       3.633  -2.724  -7.316  1.00  0.00     0.000 C 
BRANCH  21  22
ATOM     22  C   UNL     1       4.440  -4.004  -7.011  1.00  0.00     0.000 C 
BRANCH  22  23
ATOM     23  C   UNL     1       3.625  -5.187  -6.436  1.00  0.00     0.000 C 
BRANCH  23  24
ATOM     24  C   UNL     1       4.325  -5.985  -5.321  1.00  0.00    -0.000 C 
BRANCH  24  25
ATOM     25  C   UNL     1       3.376  -6.961  -4.609  1.00  0.00    -0.000 C 
BRANCH  25  26
ATOM     26  C   UNL     1       1.998  -6.991  -5.284  1.00  0.00    -0.000 C 
BRANCH  26  27
ATOM     27  C   UNL     1       0.854  -6.603  -4.320  1.00  0.00    -0.000 C 
BRANCH  27  28
ATOM     28  C   UNL     1       0.823  -5.108  -3.949  1.00  0.00    -0.000 C 
BRANCH  28  29
ATOM     29  C   UNL     1       0.250  -4.787  -2.556  1.00  0.00    -0.000 C 
BRANCH  29  30
ATOM     30  C   UNL     1      -1.251  -4.428  -2.527  1.00  0.00    -0.000 C 
BRANCH  30  31
ATOM     31  C   UNL     1      -2.206  -5.632  -2.570  1.00  0.00    -0.003 C 
ATOM     32  C   UNL     1      -3.673  -5.224  -2.720  1.00  0.00     0.004 C 
ENDBRANCH  30  31
ENDBRANCH  29  30
ENDBRANCH  28  29
ENDBRANCH  27  28
ENDBRANCH  26  27
ENDBRANCH  25  26
ENDBRANCH  24  25
ENDBRANCH  23  24
ENDBRANCH  22  23
ENDBRANCH  21  22
ENDBRANCH  20  21
ENDBRANCH  19  20
ENDBRANCH  18  19
ENDBRANCH   1  18
TORSDOF 28
ENDMDL
MODEL 6
REMARK VINA RESULT:    -3.953      2.746      5.921
REMARK INTER + INTRA:         -14.987
REMARK INTER:                 -11.057
REMARK INTRA:                  -3.930
REMARK UNBOUND:                -4.564
REMARK SMILES CCCCCCCCCCCCCCCCCCCCCCCCCCCCCC(=O)[O-]
REMARK SMILES IDX 16 1 17 2 18 3 19 4 20 5 21 6 22 7 23 8 24 9 25 10 26 11
REMARK SMILES IDX 27 12 28 13 29 14 30 15 31 16 32 17 15 18 14 19 13 20 12 21
REMARK SMILES IDX 11 22 10 23 9 24 8 25 7 26 6 27 5 28 4 29 3 30 2 31 1 32
REMARK H PARENT
REMARK Flexibility Score: inf
ROOT
ATOM      1  C   UNL     1       5.328  -0.379  -5.018  1.00  0.00     0.000 C 
ENDROOT
BRANCH   1   2
ATOM      2  C   UNL     1       6.237  -0.973  -6.112  1.00  0.00     0.000 C 
BRANCH   2   3
ATOM      3  C   UNL     1       5.528  -1.868  -7.147  1.00  0.00     0.000 C 
BRANCH   3   4
ATOM      4  C   UNL     1       5.763  -3.368  -6.909  1.00  0.00     0.000 C 
BRANCH   4   5
ATOM      5  C   UNL     1       6.984  -3.644  -6.008  1.00  0.00     0.000 C 
BRANCH   5   6
ATOM      6  C   UNL     1       6.693  -4.484  -4.748  1.00  0.00     0.000 C 
BRANCH   6   7
ATOM      7  C   UNL     1       7.919  -5.145  -4.087  1.00  0.00     0.000 C 
BRANCH   7   8
ATOM      8  C   UNL     1       8.195  -4.668  -2.647  1.00  0.00     0.000 C 
BRANCH   8   9
ATOM      9  C   UNL     1       7.655  -3.253  -2.374  1.00  0.00     0.000 C 
BRANCH   9  10
ATOM     10  C   UNL     1       7.620  -2.922  -0.873  1.00  0.00     0.000 C 
BRANCH  10  11
ATOM     11  C   UNL     1       7.594  -1.410  -0.607  1.00  0.00     0.000 C 
BRANCH  11  12
ATOM     12  C   UNL     1       6.359  -1.023   0.222  1.00  0.00     0.000 C 
BRANCH  12  13
ATOM     13  C   UNL     1       5.448  -0.019  -0.500  1.00  0.00     0.006 C 
BRANCH  13  14
ATOM     14  C   UNL     1       6.227   1.117  -1.177  1.00  0.00     0.053 C 
BRANCH  14  15
ATOM     15  C   UNL     1       6.382   2.279  -0.244  1.00  0.00     0.041 C 
ATOM     16  O   UNL     1       5.659   3.303  -0.381  1.00  0.00    -0.550 OA
ATOM     17  O   UNL     1       7.282   2.209   0.813  1.00  0.00    -0.550 OA
ENDBRANCH  14  15
ENDBRANCH  13  14
ENDBRANCH  12  13
ENDBRANCH  11  12
ENDBRANCH  10  11
ENDBRANCH   9  10
ENDBRANCH   8   9
ENDBRANCH   7   8
ENDBRANCH   6   7
ENDBRANCH   5   6
ENDBRANCH   4   5
ENDBRANCH   3   4
ENDBRANCH   2   3
ENDBRANCH   1   2
BRANCH   1  18
ATOM     18  C   UNL     1       4.983  -1.313  -3.842  1.00  0.00     0.000 C 
BRANCH  18  19
ATOM     19  C   UNL     1       3.483  -1.645  -3.696  1.00  0.00     0.000 C 
BRANCH  19  20
ATOM     20  C   UNL     1       2.650  -1.226  -4.920  1.00  0.00     0.000 C 
BRANCH  20  21
ATOM     21  C   UNL     1       2.228  -2.426  -5.789  1.00  0.00     0.000 C 
BRANCH  21  22
ATOM     22  C   UNL     1       2.628  -3.802  -5.214  1.00  0.00     0.000 C 
BRANCH  22  23
ATOM     23  C   UNL     1       1.456  -4.698  -4.749  1.00  0.00     0.000 C 
BRANCH  23  24
ATOM     24  C   UNL     1       0.931  -4.407  -3.331  1.00  0.00    -0.000 C 
BRANCH  24  25
ATOM     25  C   UNL     1      -0.434  -5.059  -3.061  1.00  0.00    -0.000 C 
BRANCH  25  26
ATOM     26  C   UNL     1      -0.319  -6.182  -2.020  1.00  0.00    -0.000 C 
BRANCH  26  27
ATOM     27  C   UNL     1       1.062  -6.213  -1.327  1.00  0.00    -0.000 C 
BRANCH  27  28
ATOM     28  C   UNL     1       1.590  -7.630  -1.040  1.00  0.00    -0.000 C 
BRANCH  28  29
ATOM     29  C   UNL     1       2.582  -8.187  -2.079  1.00  0.00    -0.000 C 
BRANCH  29  30
ATOM     30  C   UNL     1       3.647  -9.156  -1.521  1.00  0.00    -0.000 C 
BRANCH  30  31
ATOM     31  C   UNL     1       3.341  -9.720  -0.124  1.00  0.00    -0.003 C 
ATOM     32  C   UNL     1       4.388  -9.327   0.919  1.00  0.00     0.004 C 
ENDBRANCH  30  31
ENDBRANCH  29  30
ENDBRANCH  28  29
ENDBRANCH  27  28
ENDBRANCH  26  27
ENDBRANCH  25  26
ENDBRANCH  24  25
ENDBRANCH  23  24
ENDBRANCH  22  23
ENDBRANCH  21  22
ENDBRANCH  20  21
ENDBRANCH  19  20
ENDBRANCH  18  19
ENDBRANCH   1  18
TORSDOF 28
ENDMDL
MODEL 7
REMARK VINA RESULT:    -3.901      1.481      3.034
REMARK INTER + INTRA:         -14.850
REMARK INTER:                 -10.624
REMARK INTRA:                  -4.226
REMARK UNBOUND:                -4.564
REMARK SMILES CCCCCCCCCCCCCCCCCCCCCCCCCCCCCC(=O)[O-]
REMARK SMILES IDX 16 1 17 2 18 3 19 4 20 5 21 6 22 7 23 8 24 9 25 10 26 11
REMARK SMILES IDX 27 12 28 13 29 14 30 15 31 16 32 17 15 18 14 19 13 20 12 21
REMARK SMILES IDX 11 22 10 23 9 24 8 25 7 26 6 27 5 28 4 29 3 30 2 31 1 32
REMARK H PARENT
REMARK Flexibility Score: inf
ROOT
ATOM      1  C   UNL     1       7.897  -3.397  -1.442  1.00  0.00     0.000 C 
ENDROOT
BRANCH   1   2
ATOM      2  C   UNL     1       9.242  -3.121  -0.742  1.00  0.00     0.000 C 
BRANCH   2   3
ATOM      3  C   UNL     1       9.576  -1.634  -0.516  1.00  0.00     0.000 C 
BRANCH   3   4
ATOM      4  C   UNL     1       9.722  -0.842  -1.824  1.00  0.00     0.000 C 
BRANCH   4   5
ATOM      5  C   UNL     1       8.886   0.453  -1.833  1.00  0.00     0.000 C 
BRANCH   5   6
ATOM      6  C   UNL     1       7.486   0.326  -2.465  1.00  0.00     0.000 C 
BRANCH   6   7
ATOM      7  C   UNL     1       6.305   0.742  -1.565  1.00  0.00     0.000 C 
BRANCH   7   8
ATOM      8  C   UNL     1       5.611  -0.433  -0.847  1.00  0.00     0.000 C 
BRANCH   8   9
ATOM      9  C   UNL     1       6.294  -0.805   0.481  1.00  0.00     0.000 C 
BRANCH   9  10
ATOM     10  C   UNL     1       5.746   0.009   1.665  1.00  0.00     0.000 C 
BRANCH  10  11
ATOM     11  C   UNL     1       6.787   0.981   2.238  1.00  0.00     0.000 C 
BRANCH  11  12
ATOM     12  C   UNL     1       6.391   2.438   1.951  1.00  0.00     0.000 C 
BRANCH  12  13
ATOM     13  C   UNL     1       4.998   2.562   1.318  1.00  0.00     0.006 C 
BRANCH  13  14
ATOM     14  C   UNL     1       4.792   3.892   0.578  1.00  0.00     0.053 C 
BRANCH  14  15
ATOM     15  C   UNL     1       3.612   4.628   1.136  1.00  0.00     0.041 C 
ATOM     16  O   UNL     1       2.645   3.990   1.634  1.00  0.00    -0.550 OA
ATOM     17  O   UNL     1       3.606   6.017   1.159  1.00  0.00    -0.550 OA
ENDBRANCH  14  15
ENDBRANCH  13  14
ENDBRANCH  12  13
ENDBRANCH  11  12
ENDBRANCH  10  11
ENDBRANCH   9  10
ENDBRANCH   8   9
ENDBRANCH   7   8
ENDBRANCH   6   7
ENDBRANCH   5   6
ENDBRANCH   4   5
ENDBRANCH   3   4
ENDBRANCH   2   3
ENDBRANCH   1   2
BRANCH   1  18
ATOM     18  C   UNL     1       7.977  -4.069  -2.827  1.00  0.00     0.000 C 
BRANCH  18  19
ATOM     19  C   UNL     1       7.635  -3.147  -4.015  1.00  0.00     0.000 C 
BRANCH  19  20
ATOM     20  C   UNL     1       6.153  -2.734  -4.053  1.00  0.00     0.000 C 
BRANCH  20  21
ATOM     21  C   UNL     1       5.885  -1.576  -5.033  1.00  0.00     0.000 C 
BRANCH  21  22
ATOM     22  C   UNL     1       4.465  -0.977  -4.942  1.00  0.00     0.000 C 
BRANCH  22  23
ATOM     23  C   UNL     1       3.620  -1.443  -3.733  1.00  0.00     0.000 C 
BRANCH  23  24
ATOM     24  C   UNL     1       2.312  -2.173  -4.090  1.00  0.00    -0.000 C 
BRANCH  24  25
ATOM     25  C   UNL     1       2.285  -2.656  -5.548  1.00  0.00    -0.000 C 
BRANCH  25  26
ATOM     26  C   UNL     1       2.549  -4.167  -5.639  1.00  0.00    -0.000 C 
BRANCH  26  27
ATOM     27  C   UNL     1       1.350  -5.011  -5.150  1.00  0.00    -0.000 C 
BRANCH  27  28
ATOM     28  C   UNL     1       1.587  -5.720  -3.804  1.00  0.00    -0.000 C 
BRANCH  28  29
ATOM     29  C   UNL     1       0.646  -5.295  -2.661  1.00  0.00    -0.000 C 
BRANCH  29  30
ATOM     30  C   UNL     1       1.029  -5.822  -1.261  1.00  0.00    -0.000 C 
BRANCH  30  31
ATOM     31  C   UNL     1       0.819  -7.331  -1.056  1.00  0.00    -0.003 C 
ATOM     32  C   UNL     1       2.128  -8.121  -1.058  1.00  0.00     0.004 C 
ENDBRANCH  30  31
ENDBRANCH  29  30
ENDBRANCH  28  29
ENDBRANCH  27  28
ENDBRANCH  26  27
ENDBRANCH  25  26
ENDBRANCH  24  25
ENDBRANCH  23  24
ENDBRANCH  22  23
ENDBRANCH  21  22
ENDBRANCH  20  21
ENDBRANCH  19  20
ENDBRANCH  18  19
ENDBRANCH   1  18
TORSDOF 28
ENDMDL
MODEL 8
REMARK VINA RESULT:    -3.880      1.377      2.269
REMARK INTER + INTRA:         -14.794
REMARK INTER:                 -10.083
REMARK INTRA:                  -4.711
REMARK UNBOUND:                -4.564
REMARK SMILES CCCCCCCCCCCCCCCCCCCCCCCCCCCCCC(=O)[O-]
REMARK SMILES IDX 16 1 17 2 18 3 19 4 20 5 21 6 22 7 23 8 24 9 25 10 26 11
REMARK SMILES IDX 27 12 28 13 29 14 30 15 31 16 32 17 15 18 14 19 13 20 12 21
REMARK SMILES IDX 11 22 10 23 9 24 8 25 7 26 6 27 5 28 4 29 3 30 2 31 1 32
REMARK H PARENT
REMARK Flexibility Score: inf
ROOT
ATOM      1  C   UNL     1       7.101  -2.168  -0.448  1.00  0.00     0.000 C 
ENDROOT
BRANCH   1   2
ATOM      2  C   UNL     1       6.098  -1.139  -1.005  1.00  0.00     0.000 C 
BRANCH   2   3
ATOM      3  C   UNL     1       5.824   0.076  -0.098  1.00  0.00     0.000 C 
BRANCH   3   4
ATOM      4  C   UNL     1       6.040   1.421  -0.809  1.00  0.00     0.000 C 
BRANCH   4   5
ATOM      5  C   UNL     1       7.454   1.556  -1.409  1.00  0.00     0.000 C 
BRANCH   5   6
ATOM      6  C   UNL     1       8.588   1.737  -0.380  1.00  0.00     0.000 C 
BRANCH   6   7
ATOM      7  C   UNL     1       9.529   0.528  -0.203  1.00  0.00     0.000 C 
BRANCH   7   8
ATOM      8  C   UNL     1       9.497  -0.097   1.206  1.00  0.00     0.000 C 
BRANCH   8   9
ATOM      9  C   UNL     1       9.218   0.937   2.310  1.00  0.00     0.000 C 
BRANCH   9  10
ATOM     10  C   UNL     1       8.149   0.452   3.305  1.00  0.00     0.000 C 
BRANCH  10  11
ATOM     11  C   UNL     1       6.776   1.086   3.043  1.00  0.00     0.000 C 
BRANCH  11  12
ATOM     12  C   UNL     1       6.827   2.608   3.258  1.00  0.00     0.000 C 
BRANCH  12  13
ATOM     13  C   UNL     1       6.277   3.396   2.061  1.00  0.00     0.006 C 
BRANCH  13  14
ATOM     14  C   UNL     1       4.748   3.527   2.080  1.00  0.00     0.053 C 
BRANCH  14  15
ATOM     15  C   UNL     1       4.269   4.296   0.888  1.00  0.00     0.041 C 
ATOM     16  O   UNL     1       5.092   4.694   0.019  1.00  0.00    -0.550 OA
ATOM     17  O   UNL     1       2.910   4.524   0.705  1.00  0.00    -0.550 OA
ENDBRANCH  14  15
ENDBRANCH  13  14
ENDBRANCH  12  13
ENDBRANCH  11  12
ENDBRANCH  10  11
ENDBRANCH   9  10
ENDBRANCH   8   9
ENDBRANCH   7   8
ENDBRANCH   6   7
ENDBRANCH   5   6
ENDBRANCH   4   5
ENDBRANCH   3   4
ENDBRANCH   2   3
ENDBRANCH   1   2
BRANCH   1  18
ATOM     18  C   UNL     1       7.955  -2.916  -1.489  1.00  0.00     0.000 C 
BRANCH  18  19
ATOM     19  C   UNL     1       7.753  -2.452  -2.947  1.00  0.00     0.000 C 
BRANCH  19  20
ATOM     20  C   UNL     1       8.775  -1.389  -3.390  1.00  0.00     0.000 C 
BRANCH  20  21
ATOM     21  C   UNL     1       8.234  -0.478  -4.508  1.00  0.00     0.000 C 
BRANCH  21  22
ATOM     22  C   UNL     1       6.715  -0.215  -4.440  1.00  0.00     0.000 C 
BRANCH  22  23
ATOM     23  C   UNL     1       5.900  -0.686  -5.667  1.00  0.00     0.000 C 
BRANCH  23  24
ATOM     24  C   UNL     1       4.840  -1.765  -5.375  1.00  0.00    -0.000 C 
BRANCH  24  25
ATOM     25  C   UNL     1       4.146  -1.561  -4.020  1.00  0.00    -0.000 C 
BRANCH  25  26
ATOM     26  C   UNL     1       2.620  -1.658  -4.155  1.00  0.00    -0.000 C 
BRANCH  26  27
ATOM     27  C   UNL     1       2.179  -2.763  -5.142  1.00  0.00    -0.000 C 
BRANCH  27  28
ATOM     28  C   UNL     1       1.855  -4.112  -4.472  1.00  0.00    -0.000 C 
BRANCH  28  29
ATOM     29  C   UNL     1       0.984  -4.027  -3.205  1.00  0.00    -0.000 C 
BRANCH  29  30
ATOM     30  C   UNL     1       0.334  -5.355  -2.760  1.00  0.00    -0.000 C 
BRANCH  30  31
ATOM     31  C   UNL     1       1.319  -6.512  -2.528  1.00  0.00    -0.003 C 
ATOM     32  C   UNL     1       1.343  -6.992  -1.076  1.00  0.00     0.004 C 
ENDBRANCH  30  31
ENDBRANCH  29  30
ENDBRANCH  28  29
ENDBRANCH  27  28
ENDBRANCH  26  27
ENDBRANCH  25  26
ENDBRANCH  24  25
ENDBRANCH  23  24
ENDBRANCH  22  23
ENDBRANCH  21  22
ENDBRANCH  20  21
ENDBRANCH  19  20
ENDBRANCH  18  19
ENDBRANCH   1  18
TORSDOF 28
ENDMDL
MODEL 9
REMARK VINA RESULT:    -3.859      2.196      5.501
REMARK INTER + INTRA:         -14.740
REMARK INTER:                 -10.150
REMARK INTRA:                  -4.590
REMARK UNBOUND:                -4.564
REMARK SMILES CCCCCCCCCCCCCCCCCCCCCCCCCCCCCC(=O)[O-]
REMARK SMILES IDX 16 1 17 2 18 3 19 4 20 5 21 6 22 7 23 8 24 9 25 10 26 11
REMARK SMILES IDX 27 12 28 13 29 14 30 15 31 16 32 17 15 18 14 19 13 20 12 21
REMARK SMILES IDX 11 22 10 23 9 24 8 25 7 26 6 27 5 28 4 29 3 30 2 31 1 32
REMARK H PARENT
REMARK Flexibility Score: inf
ROOT
ATOM      1  C   UNL     1       3.480  -1.862  -3.842  1.00  0.00     0.000 C 
ENDROOT
BRANCH   1   2
ATOM      2  C   UNL     1       4.483  -1.107  -4.737  1.00  0.00     0.000 C 
BRANCH   2   3
ATOM      3  C   UNL     1       5.837  -1.809  -4.951  1.00  0.00     0.000 C 
BRANCH   3   4
ATOM      4  C   UNL     1       5.970  -3.118  -4.156  1.00  0.00     0.000 C 
BRANCH   4   5
ATOM      5  C   UNL     1       7.124  -4.006  -4.662  1.00  0.00     0.000 C 
BRANCH   5   6
ATOM      6  C   UNL     1       7.799  -4.881  -3.586  1.00  0.00     0.000 C 
BRANCH   6   7
ATOM      7  C   UNL     1       8.684  -4.129  -2.571  1.00  0.00     0.000 C 
BRANCH   7   8
ATOM      8  C   UNL     1       8.125  -4.113  -1.134  1.00  0.00     0.000 C 
BRANCH   8   9
ATOM      9  C   UNL     1       7.502  -2.759  -0.752  1.00  0.00     0.000 C 
BRANCH   9  10
ATOM     10  C   UNL     1       8.167  -1.583  -1.488  1.00  0.00     0.000 C 
BRANCH  10  11
ATOM     11  C   UNL     1       7.196  -0.419  -1.729  1.00  0.00     0.000 C 
BRANCH  11  12
ATOM     12  C   UNL     1       5.788  -0.767  -1.220  1.00  0.00     0.000 C 
BRANCH  12  13
ATOM     13  C   UNL     1       5.338   0.128  -0.056  1.00  0.00     0.006 C 
BRANCH  13  14
ATOM     14  C   UNL     1       6.508   0.627   0.803  1.00  0.00     0.053 C 
BRANCH  14  15
ATOM     15  C   UNL     1       6.139   1.894   1.512  1.00  0.00     0.041 C 
ATOM     16  O   UNL     1       6.080   1.921   2.771  1.00  0.00    -0.550 OA
ATOM     17  O   UNL     1       5.918   3.058   0.787  1.00  0.00    -0.550 OA
ENDBRANCH  14  15
ENDBRANCH  13  14
ENDBRANCH  12  13
ENDBRANCH  11  12
ENDBRANCH  10  11
ENDBRANCH   9  10
ENDBRANCH   8   9
ENDBRANCH   7   8
ENDBRANCH   6   7
ENDBRANCH   5   6
ENDBRANCH   4   5
ENDBRANCH   3   4
ENDBRANCH   2   3
ENDBRANCH   1   2
BRANCH   1  18
ATOM     18  C   UNL     1       2.131  -2.226  -4.491  1.00  0.00     0.000 C 
BRANCH  18  19
ATOM     19  C   UNL     1       2.236  -3.120  -5.744  1.00  0.00     0.000 C 
BRANCH  19  20
ATOM     20  C   UNL     1       2.721  -4.546  -5.430  1.00  0.00     0.000 C 
BRANCH  20  21
ATOM     21  C   UNL     1       1.641  -5.612  -5.697  1.00  0.00     0.000 C 
BRANCH  21  22
ATOM     22  C   UNL     1       2.066  -7.054  -5.346  1.00  0.00     0.000 C 
BRANCH  22  23
ATOM     23  C   UNL     1       0.932  -7.984  -4.856  1.00  0.00     0.000 C 
BRANCH  23  24
ATOM     24  C   UNL     1       1.050  -8.448  -3.392  1.00  0.00    -0.000 C 
BRANCH  24  25
ATOM     25  C   UNL     1       2.186  -7.740  -2.639  1.00  0.00    -0.000 C 
BRANCH  25  26
ATOM     26  C   UNL     1       1.824  -7.518  -1.163  1.00  0.00    -0.000 C 
BRANCH  26  27
ATOM     27  C   UNL     1       1.030  -6.211  -0.935  1.00  0.00    -0.000 C 
BRANCH  27  28
ATOM     28  C   UNL     1       1.007  -5.268  -2.152  1.00  0.00    -0.000 C 
BRANCH  28  29
ATOM     29  C   UNL     1      -0.341  -4.572  -2.420  1.00  0.00    -0.000 C 
BRANCH  29  30
ATOM     30  C   UNL     1      -1.321  -5.357  -3.318  1.00  0.00    -0.000 C 
BRANCH  30  31
ATOM     31  C   UNL     1      -2.168  -6.411  -2.586  1.00  0.00    -0.003 C 
ATOM     32  C   UNL     1      -3.655  -6.058  -2.545  1.00  0.00     0.004 C 
ENDBRANCH  30  31
ENDBRANCH  29  30
ENDBRANCH  28  29
ENDBRANCH  27  28
ENDBRANCH  26  27
ENDBRANCH  25  26
ENDBRANCH  24  25
ENDBRANCH  23  24
ENDBRANCH  22  23
ENDBRANCH  21  22
ENDBRANCH  20  21
ENDBRANCH  19  20
ENDBRANCH  18  19
ENDBRANCH   1  18
TORSDOF 28
ENDMDL
