MODEL 1
REMARK VINA RESULT:    -6.545      0.000      0.000
REMARK INTER + INTRA:          -7.959
REMARK INTER:                  -7.693
REMARK INTRA:                  -0.266
REMARK UNBOUND:                -0.266
REMARK SMILES O=c1cc(-c2ccc(O)c(O)c2)oc2cc(O)cc(O)c12
REMARK SMILES IDX 4 1 3 2 2 3 1 4 21 5 19 6 18 7 16 8 15 9 14 10 13 11 5 12
REMARK SMILES IDX 6 13 7 14 8 15 12 16 10 17 9 18 11 20 20 22 17 24
REMARK H PARENT 9 19 11 21 20 23 17 25
REMARK Flexibility Score: inf
ROOT
ATOM      1  C   UNL     1       3.245  13.934  25.946  1.00  0.00     0.138 A 
ATOM      2  C   UNL     1       4.232  13.401  25.104  1.00  0.00     0.100 A 
ATOM      3  C   UNL     1       4.912  12.244  25.484  1.00  0.00     0.197 A 
ATOM      4  O   UNL     1       5.749  11.756  24.680  1.00  0.00    -0.289 OA
ATOM      5  C   UNL     1       4.623  11.633  26.727  1.00  0.00     0.107 A 
ATOM      6  C   UNL     1       5.281  10.474  27.236  1.00  0.00     0.134 A 
ATOM      7  C   UNL     1       4.828   9.891  28.426  1.00  0.00     0.093 A 
ATOM      8  C   UNL     1       3.782  10.461  29.157  1.00  0.00     0.123 A 
ATOM      9  C   UNL     1       3.169  11.623  28.696  1.00  0.00     0.094 A 
ATOM     10  C   UNL     1       3.575  12.209  27.494  1.00  0.00     0.146 A 
ATOM     11  O   UNL     1       2.953  13.309  27.082  1.00  0.00    -0.456 OA
ENDROOT
BRANCH   1  12
ATOM     12  C   UNL     1       2.491  15.163  25.591  1.00  0.00     0.021 A 
ATOM     13  C   UNL     1       1.376  15.070  24.741  1.00  0.00     0.016 A 
ATOM     14  C   UNL     1       0.646  16.210  24.400  1.00  0.00     0.051 A 
ATOM     15  C   UNL     1       1.011  17.463  24.909  1.00  0.00     0.157 A 
ATOM     16  C   UNL     1       2.846  16.423  26.111  1.00  0.00     0.062 A 
ATOM     17  C   UNL     1       2.115  17.568  25.772  1.00  0.00     0.158 A 
BRANCH  15  18
ATOM     18  O   UNL     1       0.281  18.599  24.565  1.00  0.00    -0.504 OA
ATOM     19  H   UNL     1       0.302  18.979  23.626  1.00  0.00     0.293 HD
ENDBRANCH  15  18
BRANCH  17  20
ATOM     20  O   UNL     1       2.497  18.798  26.305  1.00  0.00    -0.504 OA
ATOM     21  H   UNL     1       3.344  18.910  26.850  1.00  0.00     0.293 HD
ENDBRANCH  17  20
ENDBRANCH   1  12
BRANCH   6  22
ATOM     22  O   UNL     1       6.389   9.875  26.630  1.00  0.00    -0.507 OA
ATOM     23  H   UNL     1       6.355   9.314  25.793  1.00  0.00     0.293 HD
ENDBRANCH   6  22
BRANCH   8  24
ATOM     24  O   UNL     1       3.350   9.882  30.348  1.00  0.00    -0.508 OA
ATOM     25  H   UNL     1       2.533   9.284  30.382  1.00  0.00     0.293 HD
ENDBRANCH   8  24
TORSDOF 5
ENDMDL
MODEL 2
REMARK VINA RESULT:    -6.024      1.743      3.177
REMARK INTER + INTRA:          -7.347
REMARK INTER:                  -7.066
REMARK INTRA:                  -0.281
REMARK UNBOUND:                -0.266
REMARK SMILES O=c1cc(-c2ccc(O)c(O)c2)oc2cc(O)cc(O)c12
REMARK SMILES IDX 4 1 3 2 2 3 1 4 21 5 19 6 18 7 16 8 15 9 14 10 13 11 5 12
REMARK SMILES IDX 6 13 7 14 8 15 12 16 10 17 9 18 11 20 20 22 17 24
REMARK H PARENT 9 19 11 21 20 23 17 25
REMARK Flexibility Score: inf
ROOT
ATOM      1  C   UNL     1       1.774  14.865  26.608  1.00  0.00     0.138 A 
ATOM      2  C   UNL     1       1.162  13.900  27.421  1.00  0.00     0.100 A 
ATOM      3  C   UNL     1       1.710  12.620  27.505  1.00  0.00     0.197 A 
ATOM      4  O   UNL     1       1.174  11.795  28.291  1.00  0.00    -0.289 OA
ATOM      5  C   UNL     1       2.860  12.296  26.748  1.00  0.00     0.107 A 
ATOM      6  C   UNL     1       3.482  11.012  26.724  1.00  0.00     0.134 A 
ATOM      7  C   UNL     1       4.685  10.841  26.027  1.00  0.00     0.093 A 
ATOM      8  C   UNL     1       5.256  11.892  25.304  1.00  0.00     0.123 A 
ATOM      9  C   UNL     1       4.628  13.134  25.277  1.00  0.00     0.094 A 
ATOM     10  C   UNL     1       3.444  13.346  25.991  1.00  0.00     0.146 A 
ATOM     11  O   UNL     1       2.886  14.551  25.951  1.00  0.00    -0.456 OA
ENDROOT
BRANCH   1  12
ATOM     12  C   UNL     1       1.233  16.242  26.481  1.00  0.00     0.021 A 
ATOM     13  C   UNL     1      -0.091  16.427  26.048  1.00  0.00     0.016 A 
ATOM     14  C   UNL     1      -0.627  17.711  25.929  1.00  0.00     0.051 A 
ATOM     15  C   UNL     1       0.148  18.833  26.248  1.00  0.00     0.157 A 
ATOM     16  C   UNL     1       2.003  17.373  26.814  1.00  0.00     0.062 A 
ATOM     17  C   UNL     1       1.468  18.661  26.697  1.00  0.00     0.158 A 
BRANCH  15  18
ATOM     18  O   UNL     1      -0.388  20.114  26.126  1.00  0.00    -0.504 OA
ATOM     19  H   UNL     1       0.202  20.927  25.999  1.00  0.00     0.293 HD
ENDBRANCH  15  18
BRANCH  17  20
ATOM     20  O   UNL     1       2.262  19.757  27.034  1.00  0.00    -0.504 OA
ATOM     21  H   UNL     1       2.165  20.241  27.919  1.00  0.00     0.293 HD
ENDBRANCH  17  20
ENDBRANCH   1  12
BRANCH   6  22
ATOM     22  O   UNL     1       2.952   9.875  27.342  1.00  0.00    -0.507 OA
ATOM     23  H   UNL     1       2.066   9.841  27.821  1.00  0.00     0.293 HD
ENDBRANCH   6  22
BRANCH   8  24
ATOM     24  O   UNL     1       6.444  11.707  24.601  1.00  0.00    -0.508 OA
ATOM     25  H   UNL     1       7.311  11.483  25.075  1.00  0.00     0.293 HD
ENDBRANCH   8  24
TORSDOF 5
ENDMDL
MODEL 3
REMARK VINA RESULT:    -6.016      2.117      7.149
REMARK INTER + INTRA:          -7.337
REMARK INTER:                  -7.052
REMARK INTRA:                  -0.284
REMARK UNBOUND:                -0.266
REMARK SMILES O=c1cc(-c2ccc(O)c(O)c2)oc2cc(O)cc(O)c12
REMARK SMILES IDX 4 1 3 2 2 3 1 4 21 5 19 6 18 7 16 8 15 9 14 10 13 11 5 12
REMARK SMILES IDX 6 13 7 14 8 15 12 16 10 17 9 18 11 20 20 22 17 24
REMARK H PARENT 9 19 11 21 20 23 17 25
REMARK Flexibility Score: inf
ROOT
ATOM      1  C   UNL     1       2.021  15.222  26.133  1.00  0.00     0.138 A 
ATOM      2  C   UNL     1       1.932  15.949  24.937  1.00  0.00     0.100 A 
ATOM      3  C   UNL     1       1.272  17.178  24.924  1.00  0.00     0.197 A 
ATOM      4  O   UNL     1       1.262  17.836  23.851  1.00  0.00    -0.289 OA
ATOM      5  C   UNL     1       0.671  17.667  26.108  1.00  0.00     0.107 A 
ATOM      6  C   UNL     1      -0.062  18.888  26.203  1.00  0.00     0.134 A 
ATOM      7  C   UNL     1      -0.512  19.327  27.455  1.00  0.00     0.093 A 
ATOM      8  C   UNL     1      -0.307  18.559  28.605  1.00  0.00     0.123 A 
ATOM      9  C   UNL     1       0.361  17.341  28.513  1.00  0.00     0.094 A 
ATOM     10  C   UNL     1       0.852  16.892  27.284  1.00  0.00     0.146 A 
ATOM     11  O   UNL     1       1.496  15.730  27.244  1.00  0.00    -0.456 OA
ENDROOT
BRANCH   1  12
ATOM     12  C   UNL     1       2.711  13.909  26.203  1.00  0.00     0.021 A 
ATOM     13  C   UNL     1       2.220  12.915  27.066  1.00  0.00     0.016 A 
ATOM     14  C   UNL     1       2.845  11.669  27.145  1.00  0.00     0.051 A 
ATOM     15  C   UNL     1       3.968  11.391  26.355  1.00  0.00     0.157 A 
ATOM     16  C   UNL     1       3.832  13.620  25.403  1.00  0.00     0.062 A 
ATOM     17  C   UNL     1       4.461  12.371  25.477  1.00  0.00     0.158 A 
BRANCH  15  18
ATOM     18  O   UNL     1       4.592  10.147  26.437  1.00  0.00    -0.504 OA
ATOM     19  H   UNL     1       5.339   9.971  27.097  1.00  0.00     0.293 HD
ENDBRANCH  15  18
BRANCH  17  20
ATOM     20  O   UNL     1       5.570  12.121  24.670  1.00  0.00    -0.504 OA
ATOM     21  H   UNL     1       5.693  11.242  24.181  1.00  0.00     0.293 HD
ENDBRANCH  17  20
ENDBRANCH   1  12
BRANCH   6  22
ATOM     22  O   UNL     1      -0.395  19.687  25.105  1.00  0.00    -0.507 OA
ATOM     23  H   UNL     1      -0.406  20.694  25.109  1.00  0.00     0.293 HD
ENDBRANCH   6  22
BRANCH   8  24
ATOM     24  O   UNL     1      -0.772  18.997  29.843  1.00  0.00    -0.508 OA
ATOM     25  H   UNL     1      -1.019  19.966  30.004  1.00  0.00     0.293 HD
ENDBRANCH   8  24
TORSDOF 5
ENDMDL
MODEL 4
REMARK VINA RESULT:    -5.819      2.047      7.068
REMARK INTER + INTRA:          -7.105
REMARK INTER:                  -6.801
REMARK INTRA:                  -0.305
REMARK UNBOUND:                -0.266
REMARK SMILES O=c1cc(-c2ccc(O)c(O)c2)oc2cc(O)cc(O)c12
REMARK SMILES IDX 4 1 3 2 2 3 1 4 21 5 19 6 18 7 16 8 15 9 14 10 13 11 5 12
REMARK SMILES IDX 6 13 7 14 8 15 12 16 10 17 9 18 11 20 20 22 17 24
REMARK H PARENT 9 19 11 21 20 23 17 25
REMARK Flexibility Score: inf
ROOT
ATOM      1  C   UNL     1       2.241  14.932  26.032  1.00  0.00     0.138 A 
ATOM      2  C   UNL     1       2.136  15.673  24.846  1.00  0.00     0.100 A 
ATOM      3  C   UNL     1       1.457  16.891  24.851  1.00  0.00     0.197 A 
ATOM      4  O   UNL     1       1.432  17.562  23.786  1.00  0.00    -0.289 OA
ATOM      5  C   UNL     1       0.854  17.356  26.044  1.00  0.00     0.107 A 
ATOM      6  C   UNL     1       0.102  18.564  26.158  1.00  0.00     0.134 A 
ATOM      7  C   UNL     1      -0.348  18.980  27.417  1.00  0.00     0.093 A 
ATOM      8  C   UNL     1      -0.126  18.202  28.556  1.00  0.00     0.123 A 
ATOM      9  C   UNL     1       0.560  16.995  28.446  1.00  0.00     0.094 A 
ATOM     10  C   UNL     1       1.052  16.569  27.209  1.00  0.00     0.146 A 
ATOM     11  O   UNL     1       1.714  15.418  27.151  1.00  0.00    -0.456 OA
ENDROOT
BRANCH   1  12
ATOM     12  C   UNL     1       2.952  13.630  26.082  1.00  0.00     0.021 A 
ATOM     13  C   UNL     1       4.044  13.403  25.228  1.00  0.00     0.016 A 
ATOM     14  C   UNL     1       4.734  12.190  25.263  1.00  0.00     0.051 A 
ATOM     15  C   UNL     1       4.351  11.184  26.158  1.00  0.00     0.157 A 
ATOM     16  C   UNL     1       2.579  12.619  26.990  1.00  0.00     0.062 A 
ATOM     17  C   UNL     1       3.270  11.402  27.028  1.00  0.00     0.158 A 
BRANCH  15  18
ATOM     18  O   UNL     1       5.040   9.973  26.188  1.00  0.00    -0.504 OA
ATOM     19  H   UNL     1       4.733   9.173  25.648  1.00  0.00     0.293 HD
ENDBRANCH  15  18
BRANCH  17  20
ATOM     20  O   UNL     1       2.871  10.425  27.939  1.00  0.00    -0.504 OA
ATOM     21  H   UNL     1       1.920  10.075  27.972  1.00  0.00     0.293 HD
ENDBRANCH  17  20
ENDBRANCH   1  12
BRANCH   6  22
ATOM     22  O   UNL     1      -0.248  19.372  25.071  1.00  0.00    -0.507 OA
ATOM     23  H   UNL     1       0.111  19.265  24.136  1.00  0.00     0.293 HD
ENDBRANCH   6  22
BRANCH   8  24
ATOM     24  O   UNL     1      -0.591  18.617  29.801  1.00  0.00    -0.508 OA
ATOM     25  H   UNL     1      -1.394  19.228  29.891  1.00  0.00     0.293 HD
ENDBRANCH   8  24
TORSDOF 5
ENDMDL
MODEL 5
REMARK VINA RESULT:    -5.764      1.576      7.201
REMARK INTER + INTRA:          -7.040
REMARK INTER:                  -6.775
REMARK INTRA:                  -0.266
REMARK UNBOUND:                -0.266
REMARK SMILES O=c1cc(-c2ccc(O)c(O)c2)oc2cc(O)cc(O)c12
REMARK SMILES IDX 4 1 3 2 2 3 1 4 21 5 19 6 18 7 16 8 15 9 14 10 13 11 5 12
REMARK SMILES IDX 6 13 7 14 8 15 12 16 10 17 9 18 11 20 20 22 17 24
REMARK H PARENT 9 19 11 21 20 23 17 25
REMARK Flexibility Score: inf
ROOT
ATOM      1  C   UNL     1       2.365  14.593  25.949  1.00  0.00     0.138 A 
ATOM      2  C   UNL     1       1.207  14.598  25.159  1.00  0.00     0.100 A 
ATOM      3  C   UNL     1       0.451  15.765  25.048  1.00  0.00     0.197 A 
ATOM      4  O   UNL     1      -0.548  15.756  24.283  1.00  0.00    -0.289 OA
ATOM      5  C   UNL     1       0.842  16.926  25.758  1.00  0.00     0.107 A 
ATOM      6  C   UNL     1       0.126  18.161  25.753  1.00  0.00     0.134 A 
ATOM      7  C   UNL     1       0.672  19.276  26.400  1.00  0.00     0.093 A 
ATOM      8  C   UNL     1       1.876  19.185  27.104  1.00  0.00     0.123 A 
ATOM      9  C   UNL     1       2.554  17.971  27.159  1.00  0.00     0.094 A 
ATOM     10  C   UNL     1       2.053  16.848  26.495  1.00  0.00     0.146 A 
ATOM     11  O   UNL     1       2.740  15.712  26.561  1.00  0.00    -0.456 OA
ENDROOT
BRANCH   1  12
ATOM     12  C   UNL     1       3.205  13.378  26.102  1.00  0.00     0.021 A 
ATOM     13  C   UNL     1       2.852  12.409  27.056  1.00  0.00     0.016 A 
ATOM     14  C   UNL     1       3.620  11.253  27.214  1.00  0.00     0.051 A 
ATOM     15  C   UNL     1       4.751  11.042  26.415  1.00  0.00     0.157 A 
ATOM     16  C   UNL     1       4.335  13.154  25.293  1.00  0.00     0.062 A 
ATOM     17  C   UNL     1       5.106  11.996  25.447  1.00  0.00     0.158 A 
BRANCH  15  18
ATOM     18  O   UNL     1       5.517   9.889  26.576  1.00  0.00    -0.504 OA
ATOM     19  H   UNL     1       5.925   9.407  25.783  1.00  0.00     0.293 HD
ENDBRANCH  15  18
BRANCH  17  20
ATOM     20  O   UNL     1       6.219  11.809  24.628  1.00  0.00    -0.504 OA
ATOM     21  H   UNL     1       6.957  11.155  24.862  1.00  0.00     0.293 HD
ENDBRANCH  17  20
ENDBRANCH   1  12
BRANCH   6  22
ATOM     22  O   UNL     1      -1.125  18.337  25.153  1.00  0.00    -0.507 OA
ATOM     23  H   UNL     1      -1.542  19.230  24.945  1.00  0.00     0.293 HD
ENDBRANCH   6  22
BRANCH   8  24
ATOM     24  O   UNL     1       2.402  20.297  27.757  1.00  0.00    -0.508 OA
ATOM     25  H   UNL     1       1.856  21.139  27.897  1.00  0.00     0.293 HD
ENDBRANCH   8  24
TORSDOF 5
ENDMDL
MODEL 6
REMARK VINA RESULT:    -5.450      3.693      6.171
REMARK INTER + INTRA:          -6.672
REMARK INTER:                  -6.366
REMARK INTRA:                  -0.306
REMARK UNBOUND:                -0.266
REMARK SMILES O=c1cc(-c2ccc(O)c(O)c2)oc2cc(O)cc(O)c12
REMARK SMILES IDX 4 1 3 2 2 3 1 4 21 5 19 6 18 7 16 8 15 9 14 10 13 11 5 12
REMARK SMILES IDX 6 13 7 14 8 15 12 16 10 17 9 18 11 20 20 22 17 24
REMARK H PARENT 9 19 11 21 20 23 17 25
REMARK Flexibility Score: inf
ROOT
ATOM      1  C   UNL     1       0.510  18.547  27.286  1.00  0.00     0.138 A 
ATOM      2  C   UNL     1      -0.493  17.572  27.187  1.00  0.00     0.100 A 
ATOM      3  C   UNL     1      -0.165  16.285  26.759  1.00  0.00     0.197 A 
ATOM      4  O   UNL     1      -1.075  15.416  26.741  1.00  0.00    -0.289 OA
ATOM      5  C   UNL     1       1.169  15.982  26.399  1.00  0.00     0.107 A 
ATOM      6  C   UNL     1       1.611  14.716  25.910  1.00  0.00     0.134 A 
ATOM      7  C   UNL     1       2.978  14.498  25.697  1.00  0.00     0.093 A 
ATOM      8  C   UNL     1       3.911  15.520  25.895  1.00  0.00     0.123 A 
ATOM      9  C   UNL     1       3.483  16.774  26.321  1.00  0.00     0.094 A 
ATOM     10  C   UNL     1       2.130  17.013  26.576  1.00  0.00     0.146 A 
ATOM     11  O   UNL     1       1.765  18.220  26.994  1.00  0.00    -0.456 OA
ENDROOT
BRANCH   1  12
ATOM     12  C   UNL     1       0.217  19.931  27.735  1.00  0.00     0.021 A 
ATOM     13  C   UNL     1      -0.833  20.157  28.640  1.00  0.00     0.016 A 
ATOM     14  C   UNL     1      -1.124  21.449  29.085  1.00  0.00     0.051 A 
ATOM     15  C   UNL     1      -0.364  22.537  28.639  1.00  0.00     0.157 A 
ATOM     16  C   UNL     1       0.986  21.028  27.300  1.00  0.00     0.062 A 
ATOM     17  C   UNL     1       0.699  22.324  27.745  1.00  0.00     0.158 A 
BRANCH  15  18
ATOM     18  O   UNL     1      -0.657  23.826  29.083  1.00  0.00    -0.504 OA
ATOM     19  H   UNL     1      -0.734  24.604  28.439  1.00  0.00     0.293 HD
ENDBRANCH  15  18
BRANCH  17  20
ATOM     20  O   UNL     1       1.481  23.385  27.291  1.00  0.00    -0.504 OA
ATOM     21  H   UNL     1       2.186  23.266  26.573  1.00  0.00     0.293 HD
ENDBRANCH  17  20
ENDBRANCH   1  12
BRANCH   6  22
ATOM     22  O   UNL     1       0.754  13.656  25.598  1.00  0.00    -0.507 OA
ATOM     23  H   UNL     1       0.871  12.708  25.918  1.00  0.00     0.293 HD
ENDBRANCH   6  22
BRANCH   8  24
ATOM     24  O   UNL     1       5.267  15.298  25.665  1.00  0.00    -0.508 OA
ATOM     25  H   UNL     1       5.641  15.226  24.726  1.00  0.00     0.293 HD
ENDBRANCH   8  24
TORSDOF 5
ENDMDL
MODEL 7
REMARK VINA RESULT:    -5.275      2.097      2.843
REMARK INTER + INTRA:          -6.466
REMARK INTER:                  -6.199
REMARK INTRA:                  -0.266
REMARK UNBOUND:                -0.266
REMARK SMILES O=c1cc(-c2ccc(O)c(O)c2)oc2cc(O)cc(O)c12
REMARK SMILES IDX 4 1 3 2 2 3 1 4 21 5 19 6 18 7 16 8 15 9 14 10 13 11 5 12
REMARK SMILES IDX 6 13 7 14 8 15 12 16 10 17 9 18 11 20 20 22 17 24
REMARK H PARENT 9 19 11 21 20 23 17 25
REMARK Flexibility Score: inf
ROOT
ATOM      1  C   UNL     1       1.896  16.245  26.099  1.00  0.00     0.138 A 
ATOM      2  C   UNL     1       3.213  16.134  25.630  1.00  0.00     0.100 A 
ATOM      3  C   UNL     1       3.892  14.922  25.759  1.00  0.00     0.197 A 
ATOM      4  O   UNL     1       5.050  14.835  25.272  1.00  0.00    -0.289 OA
ATOM      5  C   UNL     1       3.259  13.824  26.389  1.00  0.00     0.107 A 
ATOM      6  C   UNL     1       3.869  12.554  26.612  1.00  0.00     0.134 A 
ATOM      7  C   UNL     1       3.105  11.505  27.141  1.00  0.00     0.093 A 
ATOM      8  C   UNL     1       1.772  11.700  27.511  1.00  0.00     0.123 A 
ATOM      9  C   UNL     1       1.184  12.952  27.347  1.00  0.00     0.094 A 
ATOM     10  C   UNL     1       1.909  14.008  26.790  1.00  0.00     0.146 A 
ATOM     11  O   UNL     1       1.306  15.182  26.637  1.00  0.00    -0.456 OA
ENDROOT
BRANCH   1  12
ATOM     12  C   UNL     1       1.128  17.510  25.988  1.00  0.00     0.021 A 
ATOM     13  C   UNL     1       0.237  17.687  24.916  1.00  0.00     0.016 A 
ATOM     14  C   UNL     1      -0.504  18.864  24.794  1.00  0.00     0.051 A 
ATOM     15  C   UNL     1      -0.375  19.883  25.746  1.00  0.00     0.157 A 
ATOM     16  C   UNL     1       1.244  18.533  26.949  1.00  0.00     0.062 A 
ATOM     17  C   UNL     1       0.501  19.714  26.831  1.00  0.00     0.158 A 
BRANCH  15  18
ATOM     18  O   UNL     1      -1.114  21.058  25.620  1.00  0.00    -0.504 OA
ATOM     19  H   UNL     1      -1.219  21.704  26.393  1.00  0.00     0.293 HD
ENDBRANCH  15  18
BRANCH  17  20
ATOM     20  O   UNL     1       0.644  20.704  27.801  1.00  0.00    -0.504 OA
ATOM     21  H   UNL     1       1.490  21.256  27.888  1.00  0.00     0.293 HD
ENDBRANCH  17  20
ENDBRANCH   1  12
BRANCH   6  22
ATOM     22  O   UNL     1       5.216  12.277  26.357  1.00  0.00    -0.507 OA
ATOM     23  H   UNL     1       5.556  11.448  25.897  1.00  0.00     0.293 HD
ENDBRANCH   6  22
BRANCH   8  24
ATOM     24  O   UNL     1       1.025  10.656  28.051  1.00  0.00    -0.508 OA
ATOM     25  H   UNL     1       1.342   9.695  28.000  1.00  0.00     0.293 HD
ENDBRANCH   8  24
TORSDOF 5
ENDMDL
MODEL 8
REMARK VINA RESULT:    -5.257      2.603      4.323
REMARK INTER + INTRA:          -6.445
REMARK INTER:                  -6.151
REMARK INTRA:                  -0.294
REMARK UNBOUND:                -0.266
REMARK SMILES O=c1cc(-c2ccc(O)c(O)c2)oc2cc(O)cc(O)c12
REMARK SMILES IDX 4 1 3 2 2 3 1 4 21 5 19 6 18 7 16 8 15 9 14 10 13 11 5 12
REMARK SMILES IDX 6 13 7 14 8 15 12 16 10 17 9 18 11 20 20 22 17 24
REMARK H PARENT 9 19 11 21 20 23 17 25
REMARK Flexibility Score: inf
ROOT
ATOM      1  C   UNL     1       1.512  16.764  26.396  1.00  0.00     0.138 A 
ATOM      2  C   UNL     1       0.852  15.589  26.782  1.00  0.00     0.100 A 
ATOM      3  C   UNL     1       1.520  14.366  26.709  1.00  0.00     0.197 A 
ATOM      4  O   UNL     1       0.923  13.337  27.122  1.00  0.00    -0.289 OA
ATOM      5  C   UNL     1       2.846  14.316  26.217  1.00  0.00     0.107 A 
ATOM      6  C   UNL     1       3.610  13.122  26.060  1.00  0.00     0.134 A 
ATOM      7  C   UNL     1       4.954  13.208  25.674  1.00  0.00     0.093 A 
ATOM      8  C   UNL     1       5.542  14.441  25.380  1.00  0.00     0.123 A 
ATOM      9  C   UNL     1       4.788  15.608  25.479  1.00  0.00     0.094 A 
ATOM     10  C   UNL     1       3.455  15.558  25.895  1.00  0.00     0.146 A 
ATOM     11  O   UNL     1       2.776  16.696  25.990  1.00  0.00    -0.456 OA
ENDROOT
BRANCH   1  12
ATOM     12  C   UNL     1       0.849  18.091  26.452  1.00  0.00     0.021 A 
ATOM     13  C   UNL     1      -0.476  18.222  26.002  1.00  0.00     0.016 A 
ATOM     14  C   UNL     1      -1.125  19.458  26.053  1.00  0.00     0.051 A 
ATOM     15  C   UNL     1      -0.465  20.583  26.563  1.00  0.00     0.157 A 
ATOM     16  C   UNL     1       1.503  19.222  26.976  1.00  0.00     0.062 A 
ATOM     17  C   UNL     1       0.854  20.462  27.031  1.00  0.00     0.158 A 
BRANCH  15  18
ATOM     18  O   UNL     1      -1.114  21.815  26.611  1.00  0.00    -0.504 OA
ATOM     19  H   UNL     1      -1.586  22.134  27.448  1.00  0.00     0.293 HD
ENDBRANCH  15  18
BRANCH  17  20
ATOM     20  O   UNL     1       1.535  21.560  27.555  1.00  0.00    -0.504 OA
ATOM     21  H   UNL     1       2.167  22.120  26.995  1.00  0.00     0.293 HD
ENDBRANCH  17  20
ENDBRANCH   1  12
BRANCH   6  22
ATOM     22  O   UNL     1       3.096  11.835  26.246  1.00  0.00    -0.507 OA
ATOM     23  H   UNL     1       3.631  10.985  26.168  1.00  0.00     0.293 HD
ENDBRANCH   6  22
BRANCH   8  24
ATOM     24  O   UNL     1       6.874  14.515  24.982  1.00  0.00    -0.508 OA
ATOM     25  H   UNL     1       7.510  15.196  25.380  1.00  0.00     0.293 HD
ENDBRANCH   8  24
TORSDOF 5
ENDMDL
MODEL 9
REMARK VINA RESULT:    -5.148      3.118      8.315
REMARK INTER + INTRA:          -6.316
REMARK INTER:                  -6.045
REMARK INTRA:                  -0.271
REMARK UNBOUND:                -0.266
REMARK SMILES O=c1cc(-c2ccc(O)c(O)c2)oc2cc(O)cc(O)c12
REMARK SMILES IDX 4 1 3 2 2 3 1 4 21 5 19 6 18 7 16 8 15 9 14 10 13 11 5 12
REMARK SMILES IDX 6 13 7 14 8 15 12 16 10 17 9 18 11 20 20 22 17 24
REMARK H PARENT 9 19 11 21 20 23 17 25
REMARK Flexibility Score: inf
ROOT
ATOM      1  C   UNL     1       1.395  17.076  27.126  1.00  0.00     0.138 A 
ATOM      2  C   UNL     1       1.019  17.210  28.470  1.00  0.00     0.100 A 
ATOM      3  C   UNL     1       0.287  18.327  28.875  1.00  0.00     0.197 A 
ATOM      4  O   UNL     1      -0.089  18.388  30.075  1.00  0.00    -0.289 OA
ATOM      5  C   UNL     1      -0.044  19.330  27.933  1.00  0.00     0.107 A 
ATOM      6  C   UNL     1      -0.752  20.531  28.240  1.00  0.00     0.134 A 
ATOM      7  C   UNL     1      -1.125  21.395  27.204  1.00  0.00     0.093 A 
ATOM      8  C   UNL     1      -0.763  21.133  25.880  1.00  0.00     0.123 A 
ATOM      9  C   UNL     1      -0.026  19.991  25.577  1.00  0.00     0.094 A 
ATOM     10  C   UNL     1       0.332  19.091  26.585  1.00  0.00     0.146 A 
ATOM     11  O   UNL     1       1.023  18.006  26.251  1.00  0.00    -0.456 OA
ENDROOT
BRANCH   1  12
ATOM     12  C   UNL     1       2.174  15.909  26.642  1.00  0.00     0.021 A 
ATOM     13  C   UNL     1       1.583  14.635  26.643  1.00  0.00     0.016 A 
ATOM     14  C   UNL     1       2.292  13.522  26.184  1.00  0.00     0.051 A 
ATOM     15  C   UNL     1       3.602  13.665  25.708  1.00  0.00     0.157 A 
ATOM     16  C   UNL     1       3.486  16.050  26.150  1.00  0.00     0.062 A 
ATOM     17  C   UNL     1       4.199  14.937  25.688  1.00  0.00     0.158 A 
BRANCH  15  18
ATOM     18  O   UNL     1       4.307  12.553  25.253  1.00  0.00    -0.504 OA
ATOM     19  H   UNL     1       5.018  12.107  25.820  1.00  0.00     0.293 HD
ENDBRANCH  15  18
BRANCH  17  20
ATOM     20  O   UNL     1       5.497  15.114  25.209  1.00  0.00    -0.504 OA
ATOM     21  H   UNL     1       5.693  15.265  24.226  1.00  0.00     0.293 HD
ENDBRANCH  17  20
ENDBRANCH   1  12
BRANCH   6  22
ATOM     22  O   UNL     1      -1.088  20.930  29.537  1.00  0.00    -0.507 OA
ATOM     23  H   UNL     1      -0.601  21.635  30.067  1.00  0.00     0.293 HD
ENDBRANCH   6  22
BRANCH   8  24
ATOM     24  O   UNL     1      -1.125  22.007  24.858  1.00  0.00    -0.508 OA
ATOM     25  H   UNL     1      -1.061  21.740  23.883  1.00  0.00     0.293 HD
ENDBRANCH   8  24
TORSDOF 5
ENDMDL
