MODEL 1
REMARK VINA RESULT:    -6.854      0.000      0.000
REMARK INTER + INTRA:         -12.007
REMARK INTER:                 -10.060
REMARK INTRA:                  -1.948
REMARK UNBOUND:                -1.948
REMARK SMILES O=c1c(O[C@@H]2O[C@H](CO)[C@H](O)[C@H](O)[C@@H]2O)c(-c2ccc(O)c(O)c2)oc2cc(O)cc(O)c12
REMARK SMILES IDX 4 1 3 2 16 3 25 4 2 5 26 6 1 7 33 8 27 9 31 10 28 11 30 12
REMARK SMILES IDX 17 13 18 14 19 15 20 16 24 17 22 18 21 19 23 21 32 23 29 25
REMARK SMILES IDX 5 27 14 28 6 29 12 30 7 31 10 32 15 33 13 35 8 37 9 38 11 40
REMARK H PARENT 21 20 23 22 32 24 29 26 15 34 13 36 9 39 11 41
REMARK Flexibility Score: inf
ROOT
ATOM      1  O   UNL     1     139.581 131.828 156.262  1.00  0.00    -0.454 OA
ENDROOT
BRANCH   1   2
ATOM      2  C   UNL     1     139.867 131.708 154.888  1.00  0.00     0.214 A 
ATOM      3  C   UNL     1     139.193 130.809 154.028  1.00  0.00     0.180 A 
ATOM      4  O   UNL     1     139.612 130.654 152.775  1.00  0.00    -0.452 OA
ATOM      5  C   UNL     1     140.872 132.520 154.346  1.00  0.00     0.239 A 
ATOM      6  C   UNL     1     140.606 131.355 152.246  1.00  0.00     0.146 A 
ATOM      7  O   UNL     1     141.415 133.394 155.074  1.00  0.00    -0.285 OA
ATOM      8  C   UNL     1     141.270 132.345 153.005  1.00  0.00     0.111 A 
ATOM      9  C   UNL     1     140.973 131.121 150.917  1.00  0.00     0.094 A 
ATOM     10  C   UNL     1     142.299 133.106 152.398  1.00  0.00     0.134 A 
ATOM     11  C   UNL     1     141.990 131.871 150.323  1.00  0.00     0.123 A 
ATOM     12  C   UNL     1     142.649 132.860 151.062  1.00  0.00     0.093 A 
BRANCH   3  13
ATOM     13  C   UNL     1     137.991 130.063 154.435  1.00  0.00     0.025 A 
ATOM     14  C   UNL     1     136.750 130.709 154.476  1.00  0.00     0.016 A 
ATOM     15  C   UNL     1     135.609 130.017 154.887  1.00  0.00     0.051 A 
ATOM     16  C   UNL     1     135.691 128.677 155.281  1.00  0.00     0.157 A 
ATOM     17  C   UNL     1     138.082 128.723 154.845  1.00  0.00     0.062 A 
ATOM     18  C   UNL     1     136.944 128.020 155.260  1.00  0.00     0.158 A 
BRANCH  16  19
ATOM     19  O   UNL     1     134.514 128.044 155.687  1.00  0.00    -0.504 OA
ATOM     20  H   UNL     1     133.969 128.327 156.488  1.00  0.00     0.293 HD
ENDBRANCH  16  19
BRANCH  18  21
ATOM     21  O   UNL     1     137.104 126.687 155.641  1.00  0.00    -0.504 OA
ATOM     22  H   UNL     1     137.839 126.085 155.294  1.00  0.00     0.293 HD
ENDBRANCH  18  21
ENDBRANCH   3  13
BRANCH  10  23
ATOM     23  O   UNL     1     142.974 134.098 153.110  1.00  0.00    -0.507 OA
ATOM     24  H   UNL     1     143.778 133.885 153.690  1.00  0.00     0.293 HD
ENDBRANCH  10  23
BRANCH  11  25
ATOM     25  O   UNL     1     142.330 131.630 148.994  1.00  0.00    -0.508 OA
ATOM     26  H   UNL     1     141.624 131.441 148.291  1.00  0.00     0.293 HD
ENDBRANCH  11  25
ENDBRANCH   1   2
BRANCH   1  27
ATOM     27  C   UNL     1     140.144 131.025 157.311  1.00  0.00     0.339 C 
ATOM     28  C   UNL     1     140.987 131.835 158.321  1.00  0.00     0.214 C 
ATOM     29  O   UNL     1     139.128 130.266 157.951  1.00  0.00    -0.332 OA
ATOM     30  C   UNL     1     140.106 132.740 159.194  1.00  0.00     0.180 C 
ATOM     31  C   UNL     1     138.239 131.040 158.752  1.00  0.00     0.179 C 
ATOM     32  C   UNL     1     138.975 131.908 159.808  1.00  0.00     0.177 C 
BRANCH  28  33
ATOM     33  O   UNL     1     141.971 132.582 157.653  1.00  0.00    -0.384 OA
ATOM     34  H   UNL     1     142.360 133.206 158.320  1.00  0.00     0.211 HD
ENDBRANCH  28  33
BRANCH  30  35
ATOM     35  O   UNL     1     139.582 133.810 158.452  1.00  0.00    -0.387 OA
ATOM     36  H   UNL     1     139.578 134.604 159.050  1.00  0.00     0.211 HD
ENDBRANCH  30  35
BRANCH  31  37
ATOM     37  C   UNL     1     137.186 131.802 157.916  1.00  0.00     0.191 C 
BRANCH  37  38
ATOM     38  O   UNL     1     136.028 132.030 158.671  1.00  0.00    -0.394 OA
ATOM     39  H   UNL     1     135.439 131.241 158.539  1.00  0.00     0.210 HD
ENDBRANCH  37  38
ENDBRANCH  31  37
BRANCH  32  40
ATOM     40  O   UNL     1     138.078 132.751 160.485  1.00  0.00    -0.387 OA
ATOM     41  H   UNL     1     138.487 133.657 160.493  1.00  0.00     0.211 HD
ENDBRANCH  32  40
ENDBRANCH   1  27
TORSDOF 12
ENDMDL
MODEL 2
REMARK VINA RESULT:    -6.641      2.934      7.175
REMARK INTER + INTRA:         -11.695
REMARK INTER:                  -9.854
REMARK INTRA:                  -1.841
REMARK UNBOUND:                -1.948
REMARK SMILES O=c1c(O[C@@H]2O[C@H](CO)[C@H](O)[C@H](O)[C@@H]2O)c(-c2ccc(O)c(O)c2)oc2cc(O)cc(O)c12
REMARK SMILES IDX 4 1 3 2 16 3 25 4 2 5 26 6 1 7 33 8 27 9 31 10 28 11 30 12
REMARK SMILES IDX 17 13 18 14 19 15 20 16 24 17 22 18 21 19 23 21 32 23 29 25
REMARK SMILES IDX 5 27 14 28 6 29 12 30 7 31 10 32 15 33 13 35 8 37 9 38 11 40
REMARK H PARENT 21 20 23 22 32 24 29 26 15 34 13 36 9 39 11 41
REMARK Flexibility Score: inf
ROOT
ATOM      1  O   UNL     1     140.216 134.931 154.434  1.00  0.00    -0.454 OA
ENDROOT
BRANCH   1   2
ATOM      2  C   UNL     1     140.322 133.778 155.233  1.00  0.00     0.214 A 
ATOM      3  C   UNL     1     140.568 132.486 154.710  1.00  0.00     0.180 A 
ATOM      4  O   UNL     1     140.517 131.427 155.512  1.00  0.00    -0.452 OA
ATOM      5  C   UNL     1     140.173 133.916 156.620  1.00  0.00     0.239 A 
ATOM      6  C   UNL     1     140.309 131.511 156.820  1.00  0.00     0.146 A 
ATOM      7  O   UNL     1     140.050 135.070 157.113  1.00  0.00    -0.285 OA
ATOM      8  C   UNL     1     140.152 132.770 157.442  1.00  0.00     0.111 A 
ATOM      9  C   UNL     1     140.274 130.339 157.581  1.00  0.00     0.094 A 
ATOM     10  C   UNL     1     139.974 132.829 158.846  1.00  0.00     0.134 A 
ATOM     11  C   UNL     1     140.096 130.401 158.964  1.00  0.00     0.123 A 
ATOM     12  C   UNL     1     139.947 131.642 159.593  1.00  0.00     0.093 A 
BRANCH   3  13
ATOM     13  C   UNL     1     140.943 132.252 153.305  1.00  0.00     0.025 A 
ATOM     14  C   UNL     1     140.104 131.498 152.475  1.00  0.00     0.016 A 
ATOM     15  C   UNL     1     140.465 131.247 151.150  1.00  0.00     0.051 A 
ATOM     16  C   UNL     1     141.676 131.727 150.638  1.00  0.00     0.157 A 
ATOM     17  C   UNL     1     142.167 132.721 152.802  1.00  0.00     0.062 A 
ATOM     18  C   UNL     1     142.540 132.474 151.475  1.00  0.00     0.158 A 
BRANCH  16  19
ATOM     19  O   UNL     1     141.981 131.437 149.306  1.00  0.00    -0.504 OA
ATOM     20  H   UNL     1     141.548 131.892 148.516  1.00  0.00     0.293 HD
ENDBRANCH  16  19
BRANCH  18  21
ATOM     21  O   UNL     1     143.763 132.982 151.035  1.00  0.00    -0.504 OA
ATOM     22  H   UNL     1     143.940 133.964 150.870  1.00  0.00     0.293 HD
ENDBRANCH  18  21
ENDBRANCH   3  13
BRANCH  10  23
ATOM     23  O   UNL     1     139.823 134.052 159.500  1.00  0.00    -0.507 OA
ATOM     24  H   UNL     1     140.167 134.200 160.442  1.00  0.00     0.293 HD
ENDBRANCH  10  23
BRANCH  11  25
ATOM     25  O   UNL     1     140.077 129.221 159.705  1.00  0.00    -0.508 OA
ATOM     26  H   UNL     1     140.923 128.689 159.878  1.00  0.00     0.293 HD
ENDBRANCH  11  25
ENDBRANCH   1   2
BRANCH   1  27
ATOM     27  C   UNL     1     139.052 135.341 153.698  1.00  0.00     0.339 C 
ATOM     28  C   UNL     1     138.365 136.595 154.282  1.00  0.00     0.214 C 
ATOM     29  O   UNL     1     139.368 135.497 152.321  1.00  0.00    -0.332 OA
ATOM     30  C   UNL     1     139.212 137.857 154.062  1.00  0.00     0.180 C 
ATOM     31  C   UNL     1     140.188 136.627 152.036  1.00  0.00     0.179 C 
ATOM     32  C   UNL     1     139.600 137.956 152.583  1.00  0.00     0.177 C 
BRANCH  28  33
ATOM     33  O   UNL     1     138.080 136.410 155.645  1.00  0.00    -0.384 OA
ATOM     34  H   UNL     1     137.635 137.240 155.961  1.00  0.00     0.211 HD
ENDBRANCH  28  33
BRANCH  30  35
ATOM     35  O   UNL     1     140.357 137.849 154.872  1.00  0.00    -0.387 OA
ATOM     36  H   UNL     1     140.297 137.046 155.454  1.00  0.00     0.211 HD
ENDBRANCH  30  35
BRANCH  31  37
ATOM     37  C   UNL     1     141.675 136.392 152.382  1.00  0.00     0.191 C 
BRANCH  37  38
ATOM     38  O   UNL     1     142.505 137.047 151.461  1.00  0.00    -0.394 OA
ATOM     39  H   UNL     1     142.551 137.999 151.743  1.00  0.00     0.210 HD
ENDBRANCH  37  38
ENDBRANCH  31  37
BRANCH  32  40
ATOM     40  O   UNL     1     140.497 139.021 152.398  1.00  0.00    -0.387 OA
ATOM     41  H   UNL     1     141.257 138.868 153.020  1.00  0.00     0.211 HD
ENDBRANCH  32  40
ENDBRANCH   1  27
TORSDOF 12
ENDMDL
MODEL 3
REMARK VINA RESULT:    -6.407      2.067      5.494
REMARK INTER + INTRA:         -11.352
REMARK INTER:                  -9.503
REMARK INTRA:                  -1.849
REMARK UNBOUND:                -1.948
REMARK SMILES O=c1c(O[C@@H]2O[C@H](CO)[C@H](O)[C@H](O)[C@@H]2O)c(-c2ccc(O)c(O)c2)oc2cc(O)cc(O)c12
REMARK SMILES IDX 4 1 3 2 16 3 25 4 2 5 26 6 1 7 33 8 27 9 31 10 28 11 30 12
REMARK SMILES IDX 17 13 18 14 19 15 20 16 24 17 22 18 21 19 23 21 32 23 29 25
REMARK SMILES IDX 5 27 14 28 6 29 12 30 7 31 10 32 15 33 13 35 8 37 9 38 11 40
REMARK H PARENT 21 20 23 22 32 24 29 26 15 34 13 36 9 39 11 41
REMARK Flexibility Score: inf
ROOT
ATOM      1  O   UNL     1     139.421 131.168 155.738  1.00  0.00    -0.454 OA
ENDROOT
BRANCH   1   2
ATOM      2  C   UNL     1     139.403 130.579 154.459  1.00  0.00     0.214 A 
ATOM      3  C   UNL     1     139.851 131.240 153.290  1.00  0.00     0.180 A 
ATOM      4  O   UNL     1     139.675 130.672 152.101  1.00  0.00    -0.452 OA
ATOM      5  C   UNL     1     138.915 129.272 154.337  1.00  0.00     0.239 A 
ATOM      6  C   UNL     1     139.151 129.463 151.940  1.00  0.00     0.146 A 
ATOM      7  O   UNL     1     138.603 128.633 155.379  1.00  0.00    -0.285 OA
ATOM      8  C   UNL     1     138.768 128.692 153.060  1.00  0.00     0.111 A 
ATOM      9  C   UNL     1     139.007 128.950 150.648  1.00  0.00     0.094 A 
ATOM     10  C   UNL     1     138.252 127.389 152.857  1.00  0.00     0.134 A 
ATOM     11  C   UNL     1     138.496 127.666 150.451  1.00  0.00     0.123 A 
ATOM     12  C   UNL     1     138.120 126.889 151.553  1.00  0.00     0.093 A 
BRANCH   3  13
ATOM     13  C   UNL     1     140.570 132.525 153.325  1.00  0.00     0.025 A 
ATOM     14  C   UNL     1     139.853 133.723 153.430  1.00  0.00     0.016 A 
ATOM     15  C   UNL     1     140.524 134.947 153.436  1.00  0.00     0.051 A 
ATOM     16  C   UNL     1     141.918 134.997 153.318  1.00  0.00     0.157 A 
ATOM     17  C   UNL     1     141.967 132.569 153.189  1.00  0.00     0.062 A 
ATOM     18  C   UNL     1     142.650 133.791 153.192  1.00  0.00     0.158 A 
BRANCH  16  19
ATOM     19  O   UNL     1     142.528 136.253 153.324  1.00  0.00    -0.504 OA
ATOM     20  H   UNL     1     142.026 137.124 153.238  1.00  0.00     0.293 HD
ENDBRANCH  16  19
BRANCH  18  21
ATOM     21  O   UNL     1     144.040 133.762 153.067  1.00  0.00    -0.504 OA
ATOM     22  H   UNL     1     144.545 134.159 152.287  1.00  0.00     0.293 HD
ENDBRANCH  18  21
ENDBRANCH   3  13
BRANCH  10  23
ATOM     23  O   UNL     1     137.869 126.592 153.936  1.00  0.00    -0.507 OA
ATOM     24  H   UNL     1     138.460 126.478 154.752  1.00  0.00     0.293 HD
ENDBRANCH  10  23
BRANCH  11  25
ATOM     25  O   UNL     1     138.374 127.169 149.155  1.00  0.00    -0.508 OA
ATOM     26  H   UNL     1     137.472 126.917 148.766  1.00  0.00     0.293 HD
ENDBRANCH  11  25
ENDBRANCH   1   2
BRANCH   1  27
ATOM     27  C   UNL     1     138.434 132.070 156.262  1.00  0.00     0.339 C 
ATOM     28  C   UNL     1     137.451 131.401 157.248  1.00  0.00     0.214 C 
ATOM     29  O   UNL     1     139.061 133.214 156.826  1.00  0.00    -0.332 OA
ATOM     30  C   UNL     1     138.139 131.043 158.574  1.00  0.00     0.180 C 
ATOM     31  C   UNL     1     139.758 132.957 158.042  1.00  0.00     0.179 C 
ATOM     32  C   UNL     1     138.869 132.275 159.117  1.00  0.00     0.177 C 
BRANCH  28  33
ATOM     33  O   UNL     1     136.862 130.269 156.664  1.00  0.00    -0.384 OA
ATOM     34  H   UNL     1     137.432 129.492 156.903  1.00  0.00     0.211 HD
ENDBRANCH  28  33
BRANCH  30  35
ATOM     35  O   UNL     1     139.033 129.973 158.412  1.00  0.00    -0.387 OA
ATOM     36  H   UNL     1     139.940 130.365 158.309  1.00  0.00     0.211 HD
ENDBRANCH  30  35
BRANCH  31  37
ATOM     37  C   UNL     1     141.128 132.280 157.817  1.00  0.00     0.191 C 
BRANCH  37  38
ATOM     38  O   UNL     1     141.768 132.822 156.695  1.00  0.00    -0.394 OA
ATOM     39  H   UNL     1     141.791 132.107 156.005  1.00  0.00     0.210 HD
ENDBRANCH  37  38
ENDBRANCH  31  37
BRANCH  32  40
ATOM     40  O   UNL     1     139.623 131.921 160.248  1.00  0.00    -0.387 OA
ATOM     41  H   UNL     1     140.473 131.528 159.915  1.00  0.00     0.211 HD
ENDBRANCH  32  40
ENDBRANCH   1  27
TORSDOF 12
ENDMDL
MODEL 4
REMARK VINA RESULT:    -6.390      1.860      5.117
REMARK INTER + INTRA:         -11.326
REMARK INTER:                 -10.071
REMARK INTRA:                  -1.255
REMARK UNBOUND:                -1.948
REMARK SMILES O=c1c(O[C@@H]2O[C@H](CO)[C@H](O)[C@H](O)[C@@H]2O)c(-c2ccc(O)c(O)c2)oc2cc(O)cc(O)c12
REMARK SMILES IDX 4 1 3 2 16 3 25 4 2 5 26 6 1 7 33 8 27 9 31 10 28 11 30 12
REMARK SMILES IDX 17 13 18 14 19 15 20 16 24 17 22 18 21 19 23 21 32 23 29 25
REMARK SMILES IDX 5 27 14 28 6 29 12 30 7 31 10 32 15 33 13 35 8 37 9 38 11 40
REMARK H PARENT 21 20 23 22 32 24 29 26 15 34 13 36 9 39 11 41
REMARK Flexibility Score: inf
ROOT
ATOM      1  O   UNL     1     139.453 131.351 155.949  1.00  0.00    -0.454 OA
ENDROOT
BRANCH   1   2
ATOM      2  C   UNL     1     139.412 130.708 154.697  1.00  0.00     0.214 A 
ATOM      3  C   UNL     1     139.876 131.304 153.500  1.00  0.00     0.180 A 
ATOM      4  O   UNL     1     139.678 130.691 152.337  1.00  0.00    -0.452 OA
ATOM      5  C   UNL     1     138.884 129.412 154.633  1.00  0.00     0.239 A 
ATOM      6  C   UNL     1     139.117 129.493 152.229  1.00  0.00     0.146 A 
ATOM      7  O   UNL     1     138.556 128.829 155.701  1.00  0.00    -0.285 OA
ATOM      8  C   UNL     1     138.714 128.783 153.382  1.00  0.00     0.111 A 
ATOM      9  C   UNL     1     138.953 128.929 150.960  1.00  0.00     0.094 A 
ATOM     10  C   UNL     1     138.157 127.489 153.237  1.00  0.00     0.134 A 
ATOM     11  C   UNL     1     138.401 127.654 150.820  1.00  0.00     0.123 A 
ATOM     12  C   UNL     1     138.006 126.937 151.956  1.00  0.00     0.093 A 
BRANCH   3  13
ATOM     13  C   UNL     1     140.634 132.566 153.477  1.00  0.00     0.025 A 
ATOM     14  C   UNL     1     139.988 133.773 153.769  1.00  0.00     0.016 A 
ATOM     15  C   UNL     1     140.692 134.978 153.723  1.00  0.00     0.051 A 
ATOM     16  C   UNL     1     142.046 135.000 153.367  1.00  0.00     0.157 A 
ATOM     17  C   UNL     1     141.987 132.583 153.102  1.00  0.00     0.062 A 
ATOM     18  C   UNL     1     142.703 133.786 153.052  1.00  0.00     0.158 A 
BRANCH  16  19
ATOM     19  O   UNL     1     142.691 136.238 153.334  1.00  0.00    -0.504 OA
ATOM     20  H   UNL     1     143.687 136.351 153.215  1.00  0.00     0.293 HD
ENDBRANCH  16  19
BRANCH  18  21
ATOM     21  O   UNL     1     144.049 133.729 152.687  1.00  0.00    -0.504 OA
ATOM     22  H   UNL     1     144.456 134.281 151.944  1.00  0.00     0.293 HD
ENDBRANCH  18  21
ENDBRANCH   3  13
BRANCH  10  23
ATOM     23  O   UNL     1     137.754 126.751 154.351  1.00  0.00    -0.507 OA
ATOM     24  H   UNL     1     137.480 127.201 155.217  1.00  0.00     0.293 HD
ENDBRANCH  10  23
BRANCH  11  25
ATOM     25  O   UNL     1     138.259 127.106 149.548  1.00  0.00    -0.508 OA
ATOM     26  H   UNL     1     139.064 126.845 148.989  1.00  0.00     0.293 HD
ENDBRANCH  11  25
ENDBRANCH   1   2
BRANCH   1  27
ATOM     27  C   UNL     1     140.314 131.004 157.044  1.00  0.00     0.339 C 
ATOM     28  C   UNL     1     141.082 132.211 157.627  1.00  0.00     0.214 C 
ATOM     29  O   UNL     1     139.586 130.302 158.042  1.00  0.00    -0.332 OA
ATOM     30  C   UNL     1     140.146 133.163 158.385  1.00  0.00     0.180 C 
ATOM     31  C   UNL     1     138.662 131.108 158.767  1.00  0.00     0.179 C 
ATOM     32  C   UNL     1     139.321 132.364 159.399  1.00  0.00     0.177 C 
BRANCH  28  33
ATOM     33  O   UNL     1     141.778 132.888 156.613  1.00  0.00    -0.384 OA
ATOM     34  H   UNL     1     141.221 133.669 156.355  1.00  0.00     0.211 HD
ENDBRANCH  28  33
BRANCH  30  35
ATOM     35  O   UNL     1     139.304 133.858 157.503  1.00  0.00    -0.387 OA
ATOM     36  H   UNL     1     138.761 133.178 157.023  1.00  0.00     0.211 HD
ENDBRANCH  30  35
BRANCH  31  37
ATOM     37  C   UNL     1     137.365 131.392 157.977  1.00  0.00     0.191 C 
BRANCH  37  38
ATOM     38  O   UNL     1     136.343 131.810 158.841  1.00  0.00    -0.394 OA
ATOM     39  H   UNL     1     136.526 132.762 159.062  1.00  0.00     0.210 HD
ENDBRANCH  37  38
ENDBRANCH  31  37
BRANCH  32  40
ATOM     40  O   UNL     1     138.357 133.199 159.990  1.00  0.00    -0.387 OA
ATOM     41  H   UNL     1     137.602 133.264 159.349  1.00  0.00     0.211 HD
ENDBRANCH  32  40
ENDBRANCH   1  27
TORSDOF 12
ENDMDL
MODEL 5
REMARK VINA RESULT:    -6.329      8.181     10.405
REMARK INTER + INTRA:         -11.236
REMARK INTER:                  -9.280
REMARK INTRA:                  -1.956
REMARK UNBOUND:                -1.948
REMARK SMILES O=c1c(O[C@@H]2O[C@H](CO)[C@H](O)[C@H](O)[C@@H]2O)c(-c2ccc(O)c(O)c2)oc2cc(O)cc(O)c12
REMARK SMILES IDX 4 1 3 2 16 3 25 4 2 5 26 6 1 7 33 8 27 9 31 10 28 11 30 12
REMARK SMILES IDX 17 13 18 14 19 15 20 16 24 17 22 18 21 19 23 21 32 23 29 25
REMARK SMILES IDX 5 27 14 28 6 29 12 30 7 31 10 32 15 33 13 35 8 37 9 38 11 40
REMARK H PARENT 21 20 23 22 32 24 29 26 15 34 13 36 9 39 11 41
REMARK Flexibility Score: inf
ROOT
ATOM      1  O   UNL     1     136.668 139.564 155.125  1.00  0.00    -0.454 OA
ENDROOT
BRANCH   1   2
ATOM      2  C   UNL     1     137.900 138.954 154.825  1.00  0.00     0.214 A 
ATOM      3  C   UNL     1     139.018 139.661 154.322  1.00  0.00     0.180 A 
ATOM      4  O   UNL     1     140.101 138.995 153.932  1.00  0.00    -0.452 OA
ATOM      5  C   UNL     1     138.026 137.574 155.034  1.00  0.00     0.239 A 
ATOM      6  C   UNL     1     140.230 137.679 154.050  1.00  0.00     0.146 A 
ATOM      7  O   UNL     1     137.074 136.945 155.572  1.00  0.00    -0.285 OA
ATOM      8  C   UNL     1     139.201 136.906 154.633  1.00  0.00     0.111 A 
ATOM      9  C   UNL     1     141.409 137.069 153.612  1.00  0.00     0.094 A 
ATOM     10  C   UNL     1     139.386 135.510 154.782  1.00  0.00     0.134 A 
ATOM     11  C   UNL     1     141.588 135.692 153.758  1.00  0.00     0.123 A 
ATOM     12  C   UNL     1     140.580 134.917 154.342  1.00  0.00     0.093 A 
BRANCH   3  13
ATOM     13  C   UNL     1     139.071 141.132 154.259  1.00  0.00     0.025 A 
ATOM     14  C   UNL     1     138.608 141.798 153.118  1.00  0.00     0.016 A 
ATOM     15  C   UNL     1     138.680 143.190 153.039  1.00  0.00     0.051 A 
ATOM     16  C   UNL     1     139.231 143.937 154.086  1.00  0.00     0.157 A 
ATOM     17  C   UNL     1     139.641 141.874 155.306  1.00  0.00     0.062 A 
ATOM     18  C   UNL     1     139.719 143.270 155.235  1.00  0.00     0.158 A 
BRANCH  16  19
ATOM     19  O   UNL     1     139.279 145.325 153.941  1.00  0.00    -0.504 OA
ATOM     20  H   UNL     1     138.829 145.973 154.570  1.00  0.00     0.293 HD
ENDBRANCH  16  19
BRANCH  18  21
ATOM     21  O   UNL     1     140.284 143.947 156.317  1.00  0.00    -0.504 OA
ATOM     22  H   UNL     1     140.987 144.668 156.228  1.00  0.00     0.293 HD
ENDBRANCH  18  21
ENDBRANCH   3  13
BRANCH  10  23
ATOM     23  O   UNL     1     138.399 134.712 155.360  1.00  0.00    -0.507 OA
ATOM     24  H   UNL     1     138.578 134.156 156.188  1.00  0.00     0.293 HD
ENDBRANCH  10  23
BRANCH  11  25
ATOM     25  O   UNL     1     142.776 135.107 153.328  1.00  0.00    -0.508 OA
ATOM     26  H   UNL     1     142.976 134.973 152.342  1.00  0.00     0.293 HD
ENDBRANCH  11  25
ENDBRANCH   1   2
BRANCH   1  27
ATOM     27  C   UNL     1     135.555 139.698 154.227  1.00  0.00     0.339 C 
ATOM     28  C   UNL     1     134.269 139.009 154.735  1.00  0.00     0.214 C 
ATOM     29  O   UNL     1     135.338 141.066 153.909  1.00  0.00    -0.332 OA
ATOM     30  C   UNL     1     133.666 139.754 155.934  1.00  0.00     0.180 C 
ATOM     31  C   UNL     1     134.815 141.839 154.986  1.00  0.00     0.179 C 
ATOM     32  C   UNL     1     133.516 141.238 155.588  1.00  0.00     0.177 C 
BRANCH  28  33
ATOM     33  O   UNL     1     134.523 137.665 155.051  1.00  0.00    -0.384 OA
ATOM     34  H   UNL     1     134.478 137.155 154.201  1.00  0.00     0.211 HD
ENDBRANCH  28  33
BRANCH  30  35
ATOM     35  O   UNL     1     134.456 139.594 157.083  1.00  0.00    -0.387 OA
ATOM     36  H   UNL     1     133.849 139.669 157.866  1.00  0.00     0.211 HD
ENDBRANCH  30  35
BRANCH  31  37
ATOM     37  C   UNL     1     135.890 142.220 156.029  1.00  0.00     0.191 C 
BRANCH  37  38
ATOM     38  O   UNL     1     135.486 143.341 156.767  1.00  0.00    -0.394 OA
ATOM     39  H   UNL     1     135.404 144.093 156.123  1.00  0.00     0.210 HD
ENDBRANCH  37  38
ENDBRANCH  31  37
BRANCH  32  40
ATOM     40  O   UNL     1     133.107 141.953 156.726  1.00  0.00    -0.387 OA
ATOM     41  H   UNL     1     133.100 142.914 156.474  1.00  0.00     0.211 HD
ENDBRANCH  32  40
ENDBRANCH   1  27
TORSDOF 12
ENDMDL
MODEL 6
REMARK VINA RESULT:    -6.311      1.928      6.429
REMARK INTER + INTRA:         -11.210
REMARK INTER:                  -9.362
REMARK INTRA:                  -1.848
REMARK UNBOUND:                -1.948
REMARK SMILES O=c1c(O[C@@H]2O[C@H](CO)[C@H](O)[C@H](O)[C@@H]2O)c(-c2ccc(O)c(O)c2)oc2cc(O)cc(O)c12
REMARK SMILES IDX 4 1 3 2 16 3 25 4 2 5 26 6 1 7 33 8 27 9 31 10 28 11 30 12
REMARK SMILES IDX 17 13 18 14 19 15 20 16 24 17 22 18 21 19 23 21 32 23 29 25
REMARK SMILES IDX 5 27 14 28 6 29 12 30 7 31 10 32 15 33 13 35 8 37 9 38 11 40
REMARK H PARENT 21 20 23 22 32 24 29 26 15 34 13 36 9 39 11 41
REMARK Flexibility Score: inf
ROOT
ATOM      1  O   UNL     1     138.784 132.269 154.627  1.00  0.00    -0.454 OA
ENDROOT
BRANCH   1   2
ATOM      2  C   UNL     1     137.721 131.373 154.845  1.00  0.00     0.214 A 
ATOM      3  C   UNL     1     137.534 130.666 156.057  1.00  0.00     0.180 A 
ATOM      4  O   UNL     1     136.589 129.734 156.139  1.00  0.00    -0.452 OA
ATOM      5  C   UNL     1     136.802 131.168 153.808  1.00  0.00     0.239 A 
ATOM      6  C   UNL     1     135.744 129.463 155.154  1.00  0.00     0.146 A 
ATOM      7  O   UNL     1     136.896 131.860 152.758  1.00  0.00    -0.285 OA
ATOM      8  C   UNL     1     135.796 130.189 153.942  1.00  0.00     0.111 A 
ATOM      9  C   UNL     1     134.782 128.465 155.336  1.00  0.00     0.094 A 
ATOM     10  C   UNL     1     134.852 129.905 152.925  1.00  0.00     0.134 A 
ATOM     11  C   UNL     1     133.855 128.184 154.330  1.00  0.00     0.123 A 
ATOM     12  C   UNL     1     133.891 128.903 153.130  1.00  0.00     0.093 A 
BRANCH   3  13
ATOM     13  C   UNL     1     138.307 130.953 157.277  1.00  0.00     0.025 A 
ATOM     14  C   UNL     1     139.526 130.301 157.500  1.00  0.00     0.016 A 
ATOM     15  C   UNL     1     140.253 130.546 158.667  1.00  0.00     0.051 A 
ATOM     16  C   UNL     1     139.767 131.430 159.637  1.00  0.00     0.157 A 
ATOM     17  C   UNL     1     137.807 131.828 158.254  1.00  0.00     0.062 A 
ATOM     18  C   UNL     1     138.527 132.080 159.429  1.00  0.00     0.158 A 
BRANCH  16  19
ATOM     19  O   UNL     1     140.539 131.627 160.784  1.00  0.00    -0.504 OA
ATOM     20  H   UNL     1     140.247 132.188 161.571  1.00  0.00     0.293 HD
ENDBRANCH  16  19
BRANCH  18  21
ATOM     21  O   UNL     1     137.978 132.972 160.351  1.00  0.00    -0.504 OA
ATOM     22  H   UNL     1     137.487 133.818 160.096  1.00  0.00     0.293 HD
ENDBRANCH  18  21
ENDBRANCH   3  13
BRANCH  10  23
ATOM     23  O   UNL     1     134.865 130.604 151.718  1.00  0.00    -0.507 OA
ATOM     24  H   UNL     1     134.008 130.872 151.248  1.00  0.00     0.293 HD
ENDBRANCH  10  23
BRANCH  11  25
ATOM     25  O   UNL     1     132.897 127.195 154.539  1.00  0.00    -0.508 OA
ATOM     26  H   UNL     1     131.908 127.414 154.579  1.00  0.00     0.293 HD
ENDBRANCH  11  25
ENDBRANCH   1   2
BRANCH   1  27
ATOM     27  C   UNL     1     140.147 131.908 154.356  1.00  0.00     0.339 C 
ATOM     28  C   UNL     1     140.572 132.163 152.892  1.00  0.00     0.214 C 
ATOM     29  O   UNL     1     141.020 132.540 155.282  1.00  0.00    -0.332 OA
ATOM     30  C   UNL     1     140.685 133.664 152.591  1.00  0.00     0.180 C 
ATOM     31  C   UNL     1     141.149 133.946 155.096  1.00  0.00     0.179 C 
ATOM     32  C   UNL     1     141.569 134.330 153.651  1.00  0.00     0.177 C 
BRANCH  28  33
ATOM     33  O   UNL     1     139.681 131.536 152.006  1.00  0.00    -0.384 OA
ATOM     34  H   UNL     1     140.221 130.928 151.437  1.00  0.00     0.211 HD
ENDBRANCH  28  33
BRANCH  30  35
ATOM     35  O   UNL     1     139.421 134.273 152.551  1.00  0.00    -0.387 OA
ATOM     36  H   UNL     1     139.136 134.414 153.493  1.00  0.00     0.211 HD
ENDBRANCH  30  35
BRANCH  31  37
ATOM     37  C   UNL     1     139.942 134.739 155.646  1.00  0.00     0.191 C 
BRANCH  37  38
ATOM     38  O   UNL     1     139.614 134.304 156.937  1.00  0.00    -0.394 OA
ATOM     39  H   UNL     1     138.784 133.762 156.855  1.00  0.00     0.210 HD
ENDBRANCH  37  38
ENDBRANCH  31  37
BRANCH  32  40
ATOM     40  O   UNL     1     141.557 135.724 153.473  1.00  0.00    -0.387 OA
ATOM     41  H   UNL     1     140.712 135.945 153.000  1.00  0.00     0.211 HD
ENDBRANCH  32  40
ENDBRANCH   1  27
TORSDOF 12
ENDMDL
MODEL 7
REMARK VINA RESULT:    -6.296      1.827      5.085
REMARK INTER + INTRA:         -11.188
REMARK INTER:                  -9.337
REMARK INTRA:                  -1.852
REMARK UNBOUND:                -1.948
REMARK SMILES O=c1c(O[C@@H]2O[C@H](CO)[C@H](O)[C@H](O)[C@@H]2O)c(-c2ccc(O)c(O)c2)oc2cc(O)cc(O)c12
REMARK SMILES IDX 4 1 3 2 16 3 25 4 2 5 26 6 1 7 33 8 27 9 31 10 28 11 30 12
REMARK SMILES IDX 17 13 18 14 19 15 20 16 24 17 22 18 21 19 23 21 32 23 29 25
REMARK SMILES IDX 5 27 14 28 6 29 12 30 7 31 10 32 15 33 13 35 8 37 9 38 11 40
REMARK H PARENT 21 20 23 22 32 24 29 26 15 34 13 36 9 39 11 41
REMARK Flexibility Score: inf
ROOT
ATOM      1  O   UNL     1     140.042 130.711 154.049  1.00  0.00    -0.454 OA
ENDROOT
BRANCH   1   2
ATOM      2  C   UNL     1     140.673 131.943 153.793  1.00  0.00     0.214 A 
ATOM      3  C   UNL     1     140.754 132.990 154.741  1.00  0.00     0.180 A 
ATOM      4  O   UNL     1     141.243 134.172 154.380  1.00  0.00    -0.452 OA
ATOM      5  C   UNL     1     141.249 132.142 152.531  1.00  0.00     0.239 A 
ATOM      6  C   UNL     1     141.734 134.421 153.173  1.00  0.00     0.146 A 
ATOM      7  O   UNL     1     141.272 131.188 151.708  1.00  0.00    -0.285 OA
ATOM      8  C   UNL     1     141.783 133.403 152.193  1.00  0.00     0.111 A 
ATOM      9  C   UNL     1     142.228 135.698 152.887  1.00  0.00     0.094 A 
ATOM     10  C   UNL     1     142.352 133.689 150.928  1.00  0.00     0.134 A 
ATOM     11  C   UNL     1     142.785 135.977 151.638  1.00  0.00     0.123 A 
ATOM     12  C   UNL     1     142.847 134.975 150.663  1.00  0.00     0.093 A 
BRANCH   3  13
ATOM     13  C   UNL     1     140.372 132.820 156.154  1.00  0.00     0.025 A 
ATOM     14  C   UNL     1     141.362 132.624 157.124  1.00  0.00     0.016 A 
ATOM     15  C   UNL     1     141.009 132.434 158.462  1.00  0.00     0.051 A 
ATOM     16  C   UNL     1     139.664 132.419 158.849  1.00  0.00     0.157 A 
ATOM     17  C   UNL     1     139.021 132.788 156.533  1.00  0.00     0.062 A 
ATOM     18  C   UNL     1     138.656 132.598 157.871  1.00  0.00     0.158 A 
BRANCH  16  19
ATOM     19  O   UNL     1     139.377 132.219 160.201  1.00  0.00    -0.504 OA
ATOM     20  H   UNL     1     139.098 131.332 160.593  1.00  0.00     0.293 HD
ENDBRANCH  16  19
BRANCH  18  21
ATOM     21  O   UNL     1     137.295 132.592 158.181  1.00  0.00    -0.504 OA
ATOM     22  H   UNL     1     136.647 131.882 157.867  1.00  0.00     0.293 HD
ENDBRANCH  18  21
ENDBRANCH   3  13
BRANCH  10  23
ATOM     23  O   UNL     1     142.426 132.710 149.937  1.00  0.00    -0.507 OA
ATOM     24  H   UNL     1     142.981 132.840 149.099  1.00  0.00     0.293 HD
ENDBRANCH  10  23
BRANCH  11  25
ATOM     25  O   UNL     1     143.283 137.252 151.381  1.00  0.00    -0.508 OA
ATOM     26  H   UNL     1     144.279 137.443 151.378  1.00  0.00     0.293 HD
ENDBRANCH  11  25
ENDBRANCH   1   2
BRANCH   1  27
ATOM     27  C   UNL     1     138.665 130.399 153.782  1.00  0.00     0.339 C 
ATOM     28  C   UNL     1     138.480 129.168 152.868  1.00  0.00     0.214 C 
ATOM     29  O   UNL     1     137.942 130.275 154.999  1.00  0.00    -0.332 OA
ATOM     30  C   UNL     1     138.857 127.867 153.591  1.00  0.00     0.180 C 
ATOM     31  C   UNL     1     138.264 129.109 155.753  1.00  0.00     0.179 C 
ATOM     32  C   UNL     1     138.121 127.799 154.933  1.00  0.00     0.177 C 
BRANCH  28  33
ATOM     33  O   UNL     1     139.218 129.319 151.684  1.00  0.00    -0.384 OA
ATOM     34  H   UNL     1     139.700 128.464 151.534  1.00  0.00     0.211 HD
ENDBRANCH  28  33
BRANCH  30  35
ATOM     35  O   UNL     1     140.244 127.775 153.786  1.00  0.00    -0.387 OA
ATOM     36  H   UNL     1     140.663 127.749 152.885  1.00  0.00     0.211 HD
ENDBRANCH  30  35
BRANCH  31  37
ATOM     37  C   UNL     1     139.597 129.242 156.523  1.00  0.00     0.191 C 
BRANCH  37  38
ATOM     38  O   UNL     1     139.518 128.590 157.761  1.00  0.00    -0.394 OA
ATOM     39  H   UNL     1     139.957 127.706 157.648  1.00  0.00     0.210 HD
ENDBRANCH  37  38
ENDBRANCH  31  37
BRANCH  32  40
ATOM     40  O   UNL     1     138.572 126.689 155.667  1.00  0.00    -0.387 OA
ATOM     41  H   UNL     1     138.254 126.815 156.600  1.00  0.00     0.211 HD
ENDBRANCH  32  40
ENDBRANCH   1  27
TORSDOF 12
ENDMDL
MODEL 8
REMARK VINA RESULT:    -6.261      4.264      7.329
REMARK INTER + INTRA:         -11.136
REMARK INTER:                  -9.868
REMARK INTRA:                  -1.268
REMARK UNBOUND:                -1.948
REMARK SMILES O=c1c(O[C@@H]2O[C@H](CO)[C@H](O)[C@H](O)[C@@H]2O)c(-c2ccc(O)c(O)c2)oc2cc(O)cc(O)c12
REMARK SMILES IDX 4 1 3 2 16 3 25 4 2 5 26 6 1 7 33 8 27 9 31 10 28 11 30 12
REMARK SMILES IDX 17 13 18 14 19 15 20 16 24 17 22 18 21 19 23 21 32 23 29 25
REMARK SMILES IDX 5 27 14 28 6 29 12 30 7 31 10 32 15 33 13 35 8 37 9 38 11 40
REMARK H PARENT 21 20 23 22 32 24 29 26 15 34 13 36 9 39 11 41
REMARK Flexibility Score: inf
ROOT
ATOM      1  O   UNL     1     140.946 135.382 153.408  1.00  0.00    -0.454 OA
ENDROOT
BRANCH   1   2
ATOM      2  C   UNL     1     139.987 136.156 154.087  1.00  0.00     0.214 A 
ATOM      3  C   UNL     1     139.188 135.657 155.143  1.00  0.00     0.180 A 
ATOM      4  O   UNL     1     138.209 136.406 155.642  1.00  0.00    -0.452 OA
ATOM      5  C   UNL     1     139.813 137.490 153.695  1.00  0.00     0.239 A 
ATOM      6  C   UNL     1     137.968 137.650 155.248  1.00  0.00     0.146 A 
ATOM      7  O   UNL     1     140.581 137.980 152.824  1.00  0.00    -0.285 OA
ATOM      8  C   UNL     1     138.780 138.262 154.267  1.00  0.00     0.111 A 
ATOM      9  C   UNL     1     136.915 138.358 155.833  1.00  0.00     0.094 A 
ATOM     10  C   UNL     1     138.524 139.605 153.898  1.00  0.00     0.134 A 
ATOM     11  C   UNL     1     136.663 139.681 155.466  1.00  0.00     0.123 A 
ATOM     12  C   UNL     1     137.466 140.301 154.502  1.00  0.00     0.093 A 
BRANCH   3  13
ATOM     13  C   UNL     1     139.424 134.347 155.774  1.00  0.00     0.025 A 
ATOM     14  C   UNL     1     138.433 133.360 155.722  1.00  0.00     0.016 A 
ATOM     15  C   UNL     1     138.637 132.125 156.341  1.00  0.00     0.051 A 
ATOM     16  C   UNL     1     139.823 131.862 157.036  1.00  0.00     0.157 A 
ATOM     17  C   UNL     1     140.609 134.096 156.484  1.00  0.00     0.062 A 
ATOM     18  C   UNL     1     140.823 132.862 157.109  1.00  0.00     0.158 A 
BRANCH  16  19
ATOM     19  O   UNL     1     139.963 130.610 157.638  1.00  0.00    -0.504 OA
ATOM     20  H   UNL     1     139.739 129.737 157.182  1.00  0.00     0.293 HD
ENDBRANCH  16  19
BRANCH  18  21
ATOM     21  O   UNL     1     142.029 132.674 157.786  1.00  0.00    -0.504 OA
ATOM     22  H   UNL     1     142.177 131.965 158.491  1.00  0.00     0.293 HD
ENDBRANCH  18  21
ENDBRANCH   3  13
BRANCH  10  23
ATOM     23  O   UNL     1     139.307 140.249 152.940  1.00  0.00    -0.507 OA
ATOM     24  H   UNL     1     139.698 139.750 152.148  1.00  0.00     0.293 HD
ENDBRANCH  10  23
BRANCH  11  25
ATOM     25  O   UNL     1     135.617 140.373 156.072  1.00  0.00    -0.508 OA
ATOM     26  H   UNL     1     135.768 140.956 156.887  1.00  0.00     0.293 HD
ENDBRANCH  11  25
ENDBRANCH   1   2
BRANCH   1  27
ATOM     27  C   UNL     1     141.131 135.330 151.985  1.00  0.00     0.339 C 
ATOM     28  C   UNL     1     142.610 135.433 151.552  1.00  0.00     0.214 C 
ATOM     29  O   UNL     1     140.496 134.178 151.446  1.00  0.00    -0.332 OA
ATOM     30  C   UNL     1     143.394 134.164 151.915  1.00  0.00     0.180 C 
ATOM     31  C   UNL     1     141.141 132.950 151.773  1.00  0.00     0.179 C 
ATOM     32  C   UNL     1     142.646 132.936 151.388  1.00  0.00     0.177 C 
BRANCH  28  33
ATOM     33  O   UNL     1     143.208 136.573 152.112  1.00  0.00    -0.384 OA
ATOM     34  H   UNL     1     142.680 136.807 152.920  1.00  0.00     0.211 HD
ENDBRANCH  28  33
BRANCH  30  35
ATOM     35  O   UNL     1     143.589 134.064 153.302  1.00  0.00    -0.387 OA
ATOM     36  H   UNL     1     142.774 134.431 153.737  1.00  0.00     0.211 HD
ENDBRANCH  30  35
BRANCH  31  37
ATOM     37  C   UNL     1     140.842 132.479 153.214  1.00  0.00     0.191 C 
BRANCH  37  38
ATOM     38  O   UNL     1     140.588 131.101 153.239  1.00  0.00    -0.394 OA
ATOM     39  H   UNL     1     141.173 130.714 153.943  1.00  0.00     0.210 HD
ENDBRANCH  37  38
ENDBRANCH  31  37
BRANCH  32  40
ATOM     40  O   UNL     1     143.274 131.764 151.844  1.00  0.00    -0.387 OA
ATOM     41  H   UNL     1     144.195 132.020 152.115  1.00  0.00     0.211 HD
ENDBRANCH  32  40
ENDBRANCH   1  27
TORSDOF 12
ENDMDL
MODEL 9
REMARK VINA RESULT:    -6.242      3.918      9.041
REMARK INTER + INTRA:         -11.109
REMARK INTER:                  -9.182
REMARK INTRA:                  -1.927
REMARK UNBOUND:                -1.948
REMARK SMILES O=c1c(O[C@@H]2O[C@H](CO)[C@H](O)[C@H](O)[C@@H]2O)c(-c2ccc(O)c(O)c2)oc2cc(O)cc(O)c12
REMARK SMILES IDX 4 1 3 2 16 3 25 4 2 5 26 6 1 7 33 8 27 9 31 10 28 11 30 12
REMARK SMILES IDX 17 13 18 14 19 15 20 16 24 17 22 18 21 19 23 21 32 23 29 25
REMARK SMILES IDX 5 27 14 28 6 29 12 30 7 31 10 32 15 33 13 35 8 37 9 38 11 40
REMARK H PARENT 21 20 23 22 32 24 29 26 15 34 13 36 9 39 11 41
REMARK Flexibility Score: inf
ROOT
ATOM      1  O   UNL     1     142.427 135.095 149.830  1.00  0.00    -0.454 OA
ENDROOT
BRANCH   1   2
ATOM      2  C   UNL     1     141.909 134.632 151.054  1.00  0.00     0.214 A 
ATOM      3  C   UNL     1     141.544 133.285 151.286  1.00  0.00     0.180 A 
ATOM      4  O   UNL     1     140.934 132.951 152.420  1.00  0.00    -0.452 OA
ATOM      5  C   UNL     1     141.746 135.554 152.097  1.00  0.00     0.239 A 
ATOM      6  C   UNL     1     140.699 133.811 153.403  1.00  0.00     0.146 A 
ATOM      7  O   UNL     1     142.155 136.736 151.941  1.00  0.00    -0.285 OA
ATOM      8  C   UNL     1     141.119 135.156 153.296  1.00  0.00     0.111 A 
ATOM      9  C   UNL     1     140.051 133.364 154.558  1.00  0.00     0.094 A 
ATOM     10  C   UNL     1     140.890 136.039 154.379  1.00  0.00     0.134 A 
ATOM     11  C   UNL     1     139.825 134.238 155.623  1.00  0.00     0.123 A 
ATOM     12  C   UNL     1     140.244 135.570 155.533  1.00  0.00     0.093 A 
BRANCH   3  13
ATOM     13  C   UNL     1     141.862 132.197 150.345  1.00  0.00     0.025 A 
ATOM     14  C   UNL     1     140.880 131.730 149.462  1.00  0.00     0.016 A 
ATOM     15  C   UNL     1     141.164 130.681 148.586  1.00  0.00     0.051 A 
ATOM     16  C   UNL     1     142.423 130.070 148.589  1.00  0.00     0.157 A 
ATOM     17  C   UNL     1     143.121 131.577 150.365  1.00  0.00     0.062 A 
ATOM     18  C   UNL     1     143.415 130.523 149.491  1.00  0.00     0.158 A 
BRANCH  16  19
ATOM     19  O   UNL     1     142.641 129.022 147.691  1.00  0.00    -0.504 OA
ATOM     20  H   UNL     1     141.986 128.270 147.533  1.00  0.00     0.293 HD
ENDBRANCH  16  19
BRANCH  18  21
ATOM     21  O   UNL     1     144.691 129.961 149.553  1.00  0.00    -0.504 OA
ATOM     22  H   UNL     1     144.882 128.976 149.427  1.00  0.00     0.293 HD
ENDBRANCH  18  21
ENDBRANCH   3  13
BRANCH  10  23
ATOM     23  O   UNL     1     141.296 137.372 154.317  1.00  0.00    -0.507 OA
ATOM     24  H   UNL     1     141.425 137.931 155.153  1.00  0.00     0.293 HD
ENDBRANCH  10  23
BRANCH  11  25
ATOM     25  O   UNL     1     139.190 133.768 156.771  1.00  0.00    -0.508 OA
ATOM     26  H   UNL     1     138.537 134.344 157.290  1.00  0.00     0.293 HD
ENDBRANCH  11  25
ENDBRANCH   1   2
BRANCH   1  27
ATOM     27  C   UNL     1     141.676 135.298 148.622  1.00  0.00     0.339 C 
ATOM     28  C   UNL     1     141.292 136.774 148.377  1.00  0.00     0.214 C 
ATOM     29  O   UNL     1     142.363 134.734 147.514  1.00  0.00    -0.332 OA
ATOM     30  C   UNL     1     142.518 137.623 148.012  1.00  0.00     0.180 C 
ATOM     31  C   UNL     1     143.540 135.442 147.134  1.00  0.00     0.179 C 
ATOM     32  C   UNL     1     143.279 136.949 146.865  1.00  0.00     0.177 C 
BRANCH  28  33
ATOM     33  O   UNL     1     140.629 137.302 149.497  1.00  0.00    -0.384 OA
ATOM     34  H   UNL     1     139.697 136.960 149.467  1.00  0.00     0.211 HD
ENDBRANCH  28  33
BRANCH  30  35
ATOM     35  O   UNL     1     143.360 137.807 149.120  1.00  0.00    -0.387 OA
ATOM     36  H   UNL     1     143.401 136.939 149.601  1.00  0.00     0.211 HD
ENDBRANCH  30  35
BRANCH  31  37
ATOM     37  C   UNL     1     144.740 135.153 148.063  1.00  0.00     0.191 C 
BRANCH  37  38
ATOM     38  O   UNL     1     144.781 133.795 148.408  1.00  0.00    -0.394 OA
ATOM     39  H   UNL     1     145.164 133.743 149.324  1.00  0.00     0.210 HD
ENDBRANCH  37  38
ENDBRANCH  31  37
BRANCH  32  40
ATOM     40  O   UNL     1     144.481 137.635 146.624  1.00  0.00    -0.387 OA
ATOM     41  H   UNL     1     145.005 137.082 145.987  1.00  0.00     0.211 HD
ENDBRANCH  32  40
ENDBRANCH   1  27
TORSDOF 12
ENDMDL
