MODEL 1
REMARK VINA RESULT:    -7.798      0.000      0.000
REMARK INTER + INTRA:          -8.681
REMARK INTER:                  -8.482
REMARK INTRA:                  -0.198
REMARK UNBOUND:                -0.198
REMARK SMILES C[C@H]1[C@H](C)CC[C@]2(C(=O)[O-])CC[C@@]3(C)C(=CC[C@H]4[C@@]5(C)CC[C@H](O)C(C)(C)[C@H]5CC[C@@]43C)[C@H]12
REMARK SMILES IDX 7 1 6 2 11 3 33 4 5 5 12 6 15 7 2 8 3 9 13 10 16 11 1 12
REMARK SMILES IDX 4 13 14 14 31 15 17 16 18 17 30 18 32 19 19 20 29 21 28 22
REMARK SMILES IDX 21 23 20 24 25 25 22 26 23 27 26 28 27 29 8 30 9 31 10 32
REMARK SMILES IDX 24 33
REMARK H PARENT 24 34
REMARK Flexibility Score: inf
ROOT
ATOM      1  C   UNL     1      30.123 -22.199 -27.240  1.00  0.00     0.017 C 
ATOM      2  C   UNL     1      29.662 -22.032 -25.752  1.00  0.00     0.014 C 
ATOM      3  C   UNL     1      29.503 -21.009 -28.065  1.00  0.00     0.014 C 
ATOM      4  C   UNL     1      29.716 -23.641 -27.793  1.00  0.00     0.030 C 
ATOM      5  C   UNL     1      29.732 -23.345 -24.983  1.00  0.00     0.004 C 
ATOM      6  C   UNL     1      28.640 -21.427 -29.261  1.00  0.00     0.013 C 
ATOM      7  C   UNL     1      29.629 -23.710 -29.339  1.00  0.00    -0.063 C 
ATOM      8  C   UNL     1      28.441 -24.209 -27.064  1.00  0.00    -0.003 C 
ATOM      9  C   UNL     1      28.673 -24.333 -25.515  1.00  0.00    -0.011 C 
ATOM     10  C   UNL     1      29.331 -22.468 -30.192  1.00  0.00    -0.006 C 
ATOM     11  C   UNL     1      29.846 -24.902 -29.941  1.00  0.00    -0.027 C 
ATOM     12  C   UNL     1      27.990 -25.590 -27.592  1.00  0.00     0.008 C 
ATOM     13  C   UNL     1      27.351 -24.170 -24.739  1.00  0.00     0.008 C 
ATOM     14  C   UNL     1      30.699 -21.854 -30.649  1.00  0.00     0.017 C 
ATOM     15  C   UNL     1      28.399 -22.870 -31.450  1.00  0.00    -0.020 C 
ATOM     16  C   UNL     1      29.297 -25.264 -31.299  1.00  0.00     0.032 C 
ATOM     17  C   UNL     1      29.088 -24.053 -32.242  1.00  0.00     0.006 C 
ATOM     18  C   UNL     1      28.234 -21.691 -32.435  1.00  0.00     0.008 C 
ATOM     19  C   UNL     1      26.979 -23.255 -30.919  1.00  0.00     0.012 C 
ATOM     20  C   UNL     1      28.570 -24.430 -33.718  1.00  0.00    -0.025 C 
ATOM     21  C   UNL     1      27.435 -22.074 -33.680  1.00  0.00     0.005 C 
ATOM     22  C   UNL     1      28.154 -23.135 -34.556  1.00  0.00     0.003 C 
ATOM     23  C   UNL     1      27.415 -25.483 -33.672  1.00  0.00     0.010 C 
ATOM     24  C   UNL     1      29.782 -25.108 -34.443  1.00  0.00     0.012 C 
ATOM     25  C   UNL     1      27.359 -23.423 -35.918  1.00  0.00    -0.006 C 
ATOM     26  C   UNL     1      26.746 -25.759 -35.018  1.00  0.00     0.033 C 
ATOM     27  C   UNL     1      26.232 -24.472 -35.677  1.00  0.00     0.120 C 
ATOM     28  C   UNL     1      28.323 -23.890 -37.057  1.00  0.00     0.014 C 
ATOM     29  C   UNL     1      26.680 -22.132 -36.465  1.00  0.00     0.014 C 
ENDROOT
BRANCH   1  30
ATOM     30  C   UNL     1      31.649 -22.050 -27.254  1.00  0.00     0.048 C 
ATOM     31  O   UNL     1      32.187 -21.017 -26.769  1.00  0.00    -0.550 OA
ATOM     32  O   UNL     1      32.471 -23.014 -27.828  1.00  0.00    -0.550 OA
ENDBRANCH   1  30
BRANCH  27  33
ATOM     33  O   UNL     1      25.605 -24.794 -36.894  1.00  0.00    -0.393 OA
ATOM     34  H   UNL     1      26.299 -24.742 -37.603  1.00  0.00     0.210 HD
ENDBRANCH  27  33
TORSDOF 2
ENDMDL
MODEL 2
REMARK VINA RESULT:    -7.674      1.933      8.043
REMARK INTER + INTRA:          -8.545
REMARK INTER:                  -8.600
REMARK INTRA:                   0.055
REMARK UNBOUND:                -0.198
REMARK SMILES C[C@H]1[C@H](C)CC[C@]2(C(=O)[O-])CC[C@@]3(C)C(=CC[C@H]4[C@@]5(C)CC[C@H](O)C(C)(C)[C@H]5CC[C@@]43C)[C@H]12
REMARK SMILES IDX 7 1 6 2 11 3 33 4 5 5 12 6 15 7 2 8 3 9 13 10 16 11 1 12
REMARK SMILES IDX 4 13 14 14 31 15 17 16 18 17 30 18 32 19 19 20 29 21 28 22
REMARK SMILES IDX 21 23 20 24 25 25 22 26 23 27 26 28 27 29 8 30 9 31 10 32
REMARK SMILES IDX 24 33
REMARK H PARENT 24 34
REMARK Flexibility Score: inf
ROOT
ATOM      1  C   UNL     1      29.058 -23.396 -34.712  1.00  0.00     0.017 C 
ATOM      2  C   UNL     1      28.638 -24.387 -35.849  1.00  0.00     0.014 C 
ATOM      3  C   UNL     1      30.500 -23.811 -34.230  1.00  0.00     0.014 C 
ATOM      4  C   UNL     1      27.970 -23.391 -33.542  1.00  0.00     0.030 C 
ATOM      5  C   UNL     1      27.125 -24.444 -36.024  1.00  0.00     0.004 C 
ATOM      6  C   UNL     1      30.622 -24.116 -32.733  1.00  0.00     0.013 C 
ATOM      7  C   UNL     1      28.524 -22.896 -32.182  1.00  0.00    -0.063 C 
ATOM      8  C   UNL     1      27.205 -24.765 -33.449  1.00  0.00    -0.003 C 
ATOM      9  C   UNL     1      26.468 -25.104 -34.795  1.00  0.00    -0.011 C 
ATOM     10  C   UNL     1      30.012 -23.010 -31.821  1.00  0.00    -0.006 C 
ATOM     11  C   UNL     1      27.662 -22.328 -31.307  1.00  0.00    -0.027 C 
ATOM     12  C   UNL     1      26.165 -24.818 -32.308  1.00  0.00     0.008 C 
ATOM     13  C   UNL     1      26.358 -26.628 -35.000  1.00  0.00     0.008 C 
ATOM     14  C   UNL     1      30.707 -21.655 -32.197  1.00  0.00     0.017 C 
ATOM     15  C   UNL     1      30.176 -23.358 -30.251  1.00  0.00    -0.020 C 
ATOM     16  C   UNL     1      27.888 -22.293 -29.816  1.00  0.00     0.032 C 
ATOM     17  C   UNL     1      29.380 -22.287 -29.401  1.00  0.00     0.006 C 
ATOM     18  C   UNL     1      31.654 -23.293 -29.805  1.00  0.00     0.008 C 
ATOM     19  C   UNL     1      29.664 -24.816 -30.005  1.00  0.00     0.012 C 
ATOM     20  C   UNL     1      29.639 -22.177 -27.817  1.00  0.00    -0.025 C 
ATOM     21  C   UNL     1      31.826 -23.526 -28.306  1.00  0.00     0.005 C 
ATOM     22  C   UNL     1      31.175 -22.411 -27.443  1.00  0.00     0.003 C 
ATOM     23  C   UNL     1      28.698 -23.130 -27.012  1.00  0.00     0.010 C 
ATOM     24  C   UNL     1      29.262 -20.710 -27.417  1.00  0.00     0.012 C 
ATOM     25  C   UNL     1      31.480 -22.609 -25.881  1.00  0.00    -0.006 C 
ATOM     26  C   UNL     1      29.003 -23.219 -25.517  1.00  0.00     0.033 C 
ATOM     27  C   UNL     1      30.463 -23.609 -25.253  1.00  0.00     0.120 C 
ATOM     28  C   UNL     1      31.470 -21.246 -25.118  1.00  0.00     0.014 C 
ATOM     29  C   UNL     1      32.906 -23.193 -25.650  1.00  0.00     0.014 C 
ENDROOT
BRANCH   1  30
ATOM     30  C   UNL     1      29.145 -22.002 -35.344  1.00  0.00     0.048 C 
ATOM     31  O   UNL     1      30.229 -21.357 -35.304  1.00  0.00    -0.550 OA
ATOM     32  O   UNL     1      28.040 -21.398 -35.935  1.00  0.00    -0.550 OA
ENDBRANCH   1  30
BRANCH  27  33
ATOM     33  O   UNL     1      30.673 -23.701 -23.864  1.00  0.00    -0.393 OA
ATOM     34  H   UNL     1      29.910 -23.243 -23.423  1.00  0.00     0.210 HD
ENDBRANCH  27  33
TORSDOF 2
ENDMDL
MODEL 3
REMARK VINA RESULT:    -7.646      3.233      9.289
REMARK INTER + INTRA:          -8.515
REMARK INTER:                  -8.239
REMARK INTRA:                  -0.276
REMARK UNBOUND:                -0.198
REMARK SMILES C[C@H]1[C@H](C)CC[C@]2(C(=O)[O-])CC[C@@]3(C)C(=CC[C@H]4[C@@]5(C)CC[C@H](O)C(C)(C)[C@H]5CC[C@@]43C)[C@H]12
REMARK SMILES IDX 7 1 6 2 11 3 33 4 5 5 12 6 15 7 2 8 3 9 13 10 16 11 1 12
REMARK SMILES IDX 4 13 14 14 31 15 17 16 18 17 30 18 32 19 19 20 29 21 28 22
REMARK SMILES IDX 21 23 20 24 25 25 22 26 23 27 26 28 27 29 8 30 9 31 10 32
REMARK SMILES IDX 24 33
REMARK H PARENT 24 34
REMARK Flexibility Score: inf
ROOT
ATOM      1  C   UNL     1      24.346 -28.305 -36.964  1.00  0.00     0.017 C 
ATOM      2  C   UNL     1      24.401 -29.041 -38.345  1.00  0.00     0.014 C 
ATOM      3  C   UNL     1      24.221 -26.762 -37.253  1.00  0.00     0.014 C 
ATOM      4  C   UNL     1      25.616 -28.689 -36.074  1.00  0.00     0.030 C 
ATOM      5  C   UNL     1      25.039 -30.420 -38.231  1.00  0.00     0.004 C 
ATOM      6  C   UNL     1      25.314 -25.892 -36.621  1.00  0.00     0.013 C 
ATOM      7  C   UNL     1      25.937 -27.648 -34.971  1.00  0.00    -0.063 C 
ATOM      8  C   UNL     1      26.860 -29.071 -36.962  1.00  0.00    -0.003 C 
ATOM      9  C   UNL     1      26.541 -30.289 -37.902  1.00  0.00    -0.011 C 
ATOM     10  C   UNL     1      25.533 -26.173 -35.105  1.00  0.00    -0.006 C 
ATOM     11  C   UNL     1      26.574 -28.072 -33.855  1.00  0.00    -0.027 C 
ATOM     12  C   UNL     1      28.123 -29.416 -36.143  1.00  0.00     0.008 C 
ATOM     13  C   UNL     1      27.370 -30.223 -39.199  1.00  0.00     0.008 C 
ATOM     14  C   UNL     1      24.152 -25.982 -34.388  1.00  0.00     0.017 C 
ATOM     15  C   UNL     1      26.679 -25.224 -34.471  1.00  0.00    -0.020 C 
ATOM     16  C   UNL     1      27.410 -27.173 -32.978  1.00  0.00     0.032 C 
ATOM     17  C   UNL     1      26.967 -25.689 -32.986  1.00  0.00     0.006 C 
ATOM     18  C   UNL     1      26.227 -23.748 -34.412  1.00  0.00     0.008 C 
ATOM     19  C   UNL     1      27.951 -25.302 -35.378  1.00  0.00     0.012 C 
ATOM     20  C   UNL     1      27.803 -24.730 -32.001  1.00  0.00    -0.025 C 
ATOM     21  C   UNL     1      27.254 -22.846 -33.731  1.00  0.00     0.005 C 
ATOM     22  C   UNL     1      27.456 -23.187 -32.229  1.00  0.00     0.003 C 
ATOM     23  C   UNL     1      29.339 -24.998 -32.105  1.00  0.00     0.010 C 
ATOM     24  C   UNL     1      27.365 -25.115 -30.547  1.00  0.00     0.012 C 
ATOM     25  C   UNL     1      28.440 -22.147 -31.507  1.00  0.00    -0.006 C 
ATOM     26  C   UNL     1      30.215 -24.008 -31.337  1.00  0.00     0.033 C 
ATOM     27  C   UNL     1      29.925 -22.556 -31.739  1.00  0.00     0.120 C 
ATOM     28  C   UNL     1      28.125 -22.025 -29.981  1.00  0.00     0.014 C 
ATOM     29  C   UNL     1      28.262 -20.707 -32.075  1.00  0.00     0.014 C 
ENDROOT
BRANCH   1  30
ATOM     30  C   UNL     1      23.063 -28.768 -36.262  1.00  0.00     0.048 C 
ATOM     31  O   UNL     1      21.961 -28.218 -36.535  1.00  0.00    -0.550 OA
ATOM     32  O   UNL     1      23.081 -29.765 -35.292  1.00  0.00    -0.550 OA
ENDBRANCH   1  30
BRANCH  27  33
ATOM     33  O   UNL     1      30.779 -21.698 -31.021  1.00  0.00    -0.393 OA
ATOM     34  H   UNL     1      30.207 -21.004 -30.598  1.00  0.00     0.210 HD
ENDBRANCH  27  33
TORSDOF 2
ENDMDL
MODEL 4
REMARK VINA RESULT:    -7.582      1.837      8.183
REMARK INTER + INTRA:          -8.445
REMARK INTER:                  -8.263
REMARK INTRA:                  -0.182
REMARK UNBOUND:                -0.198
REMARK SMILES C[C@H]1[C@H](C)CC[C@]2(C(=O)[O-])CC[C@@]3(C)C(=CC[C@H]4[C@@]5(C)CC[C@H](O)C(C)(C)[C@H]5CC[C@@]43C)[C@H]12
REMARK SMILES IDX 7 1 6 2 11 3 33 4 5 5 12 6 15 7 2 8 3 9 13 10 16 11 1 12
REMARK SMILES IDX 4 13 14 14 31 15 17 16 18 17 30 18 32 19 19 20 29 21 28 22
REMARK SMILES IDX 21 23 20 24 25 25 22 26 23 27 26 28 27 29 8 30 9 31 10 32
REMARK SMILES IDX 24 33
REMARK H PARENT 24 34
REMARK Flexibility Score: inf
ROOT
ATOM      1  C   UNL     1      28.591 -25.370 -34.530  1.00  0.00     0.017 C 
ATOM      2  C   UNL     1      27.769 -25.220 -35.855  1.00  0.00     0.014 C 
ATOM      3  C   UNL     1      27.634 -25.996 -33.446  1.00  0.00     0.014 C 
ATOM      4  C   UNL     1      29.216 -23.966 -34.096  1.00  0.00     0.030 C 
ATOM      5  C   UNL     1      28.375 -24.176 -36.785  1.00  0.00     0.004 C 
ATOM      6  C   UNL     1      27.480 -25.173 -32.162  1.00  0.00     0.013 C 
ATOM      7  C   UNL     1      29.564 -23.881 -32.589  1.00  0.00    -0.063 C 
ATOM      8  C   UNL     1      28.350 -22.755 -34.612  1.00  0.00    -0.003 C 
ATOM      9  C   UNL     1      28.224 -22.766 -36.178  1.00  0.00    -0.011 C 
ATOM     10  C   UNL     1      28.839 -24.735 -31.538  1.00  0.00    -0.006 C 
ATOM     11  C   UNL     1      30.553 -23.042 -32.204  1.00  0.00    -0.027 C 
ATOM     12  C   UNL     1      28.899 -21.375 -34.186  1.00  0.00     0.008 C 
ATOM     13  C   UNL     1      26.899 -22.125 -36.634  1.00  0.00     0.008 C 
ATOM     14  C   UNL     1      29.686 -26.033 -31.300  1.00  0.00     0.017 C 
ATOM     15  C   UNL     1      28.637 -23.887 -30.177  1.00  0.00    -0.020 C 
ATOM     16  C   UNL     1      30.656 -22.448 -30.821  1.00  0.00     0.032 C 
ATOM     17  C   UNL     1      30.040 -23.330 -29.706  1.00  0.00     0.006 C 
ATOM     18  C   UNL     1      28.085 -24.768 -29.034  1.00  0.00     0.008 C 
ATOM     19  C   UNL     1      27.602 -22.745 -30.447  1.00  0.00     0.012 C 
ATOM     20  C   UNL     1      30.205 -22.744 -28.216  1.00  0.00    -0.025 C 
ATOM     21  C   UNL     1      27.974 -24.013 -27.711  1.00  0.00     0.005 C 
ATOM     22  C   UNL     1      29.353 -23.574 -27.149  1.00  0.00     0.003 C 
ATOM     23  C   UNL     1      29.873 -21.218 -28.158  1.00  0.00     0.010 C 
ATOM     24  C   UNL     1      31.720 -22.901 -27.854  1.00  0.00     0.012 C 
ATOM     25  C   UNL     1      29.220 -22.899 -25.701  1.00  0.00    -0.006 C 
ATOM     26  C   UNL     1      29.829 -20.625 -26.750  1.00  0.00     0.033 C 
ATOM     27  C   UNL     1      28.861 -21.389 -25.837  1.00  0.00     0.120 C 
ATOM     28  C   UNL     1      30.522 -23.090 -24.858  1.00  0.00     0.014 C 
ATOM     29  C   UNL     1      28.091 -23.569 -24.862  1.00  0.00     0.014 C 
ENDROOT
BRANCH   1  30
ATOM     30  C   UNL     1      29.716 -26.372 -34.814  1.00  0.00     0.048 C 
ATOM     31  O   UNL     1      29.445 -27.503 -35.302  1.00  0.00    -0.550 OA
ATOM     32  O   UNL     1      31.043 -26.086 -34.509  1.00  0.00    -0.550 OA
ENDBRANCH   1  30
BRANCH  27  33
ATOM     33  O   UNL     1      28.845 -20.781 -24.568  1.00  0.00    -0.393 OA
ATOM     34  H   UNL     1      29.607 -21.158 -24.055  1.00  0.00     0.210 HD
ENDBRANCH  27  33
TORSDOF 2
ENDMDL
MODEL 5
REMARK VINA RESULT:    -7.539      3.298      8.816
REMARK INTER + INTRA:          -8.399
REMARK INTER:                  -8.269
REMARK INTRA:                  -0.129
REMARK UNBOUND:                -0.198
REMARK SMILES C[C@H]1[C@H](C)CC[C@]2(C(=O)[O-])CC[C@@]3(C)C(=CC[C@H]4[C@@]5(C)CC[C@H](O)C(C)(C)[C@H]5CC[C@@]43C)[C@H]12
REMARK SMILES IDX 7 1 6 2 11 3 33 4 5 5 12 6 15 7 2 8 3 9 13 10 16 11 1 12
REMARK SMILES IDX 4 13 14 14 31 15 17 16 18 17 30 18 32 19 19 20 29 21 28 22
REMARK SMILES IDX 21 23 20 24 25 25 22 26 23 27 26 28 27 29 8 30 9 31 10 32
REMARK SMILES IDX 24 33
REMARK H PARENT 24 34
REMARK Flexibility Score: inf
ROOT
ATOM      1  C   UNL     1      25.214 -29.110 -36.006  1.00  0.00     0.017 C 
ATOM      2  C   UNL     1      24.132 -30.227 -35.827  1.00  0.00     0.014 C 
ATOM      3  C   UNL     1      26.381 -29.413 -34.992  1.00  0.00     0.014 C 
ATOM      4  C   UNL     1      24.563 -27.664 -35.816  1.00  0.00     0.030 C 
ATOM      5  C   UNL     1      22.765 -29.782 -36.330  1.00  0.00     0.004 C 
ATOM      6  C   UNL     1      26.708 -28.275 -34.018  1.00  0.00     0.013 C 
ATOM      7  C   UNL     1      25.589 -26.566 -35.439  1.00  0.00    -0.063 C 
ATOM      8  C   UNL     1      23.307 -27.707 -34.865  1.00  0.00    -0.003 C 
ATOM      9  C   UNL     1      22.198 -28.669 -35.424  1.00  0.00    -0.011 C 
ATOM     10  C   UNL     1      26.903 -26.896 -34.717  1.00  0.00    -0.006 C 
ATOM     11  C   UNL     1      25.315 -25.286 -35.783  1.00  0.00    -0.027 C 
ATOM     12  C   UNL     1      22.664 -26.323 -34.626  1.00  0.00     0.008 C 
ATOM     13  C   UNL     1      21.365 -29.281 -34.280  1.00  0.00     0.008 C 
ATOM     14  C   UNL     1      28.021 -27.072 -35.801  1.00  0.00     0.017 C 
ATOM     15  C   UNL     1      27.264 -25.726 -33.660  1.00  0.00    -0.020 C 
ATOM     16  C   UNL     1      25.884 -24.088 -35.064  1.00  0.00     0.032 C 
ATOM     17  C   UNL     1      27.268 -24.336 -34.415  1.00  0.00     0.006 C 
ATOM     18  C   UNL     1      28.671 -25.924 -33.052  1.00  0.00     0.008 C 
ATOM     19  C   UNL     1      26.225 -25.768 -32.492  1.00  0.00     0.012 C 
ATOM     20  C   UNL     1      27.922 -23.048 -33.706  1.00  0.00    -0.025 C 
ATOM     21  C   UNL     1      29.074 -24.781 -32.122  1.00  0.00     0.005 C 
ATOM     22  C   UNL     1      29.225 -23.425 -32.863  1.00  0.00     0.003 C 
ATOM     23  C   UNL     1      26.876 -22.276 -32.838  1.00  0.00     0.010 C 
ATOM     24  C   UNL     1      28.356 -22.089 -34.866  1.00  0.00     0.012 C 
ATOM     25  C   UNL     1      29.773 -22.272 -31.893  1.00  0.00    -0.006 C 
ATOM     26  C   UNL     1      27.457 -21.146 -31.989  1.00  0.00     0.033 C 
ATOM     27  C   UNL     1      28.600 -21.636 -31.090  1.00  0.00     0.120 C 
ATOM     28  C   UNL     1      30.564 -21.182 -32.686  1.00  0.00     0.014 C 
ATOM     29  C   UNL     1      30.791 -22.837 -30.856  1.00  0.00     0.014 C 
ENDROOT
BRANCH   1  30
ATOM     30  C   UNL     1      25.766 -29.247 -37.429  1.00  0.00     0.048 C 
ATOM     31  O   UNL     1      26.937 -29.679 -37.613  1.00  0.00    -0.550 OA
ATOM     32  O   UNL     1      25.021 -28.867 -38.541  1.00  0.00    -0.550 OA
ENDBRANCH   1  30
BRANCH  27  33
ATOM     33  O   UNL     1      29.073 -20.560 -30.316  1.00  0.00    -0.393 OA
ATOM     34  H   UNL     1      28.359 -19.869 -30.311  1.00  0.00     0.210 HD
ENDBRANCH  27  33
TORSDOF 2
ENDMDL
MODEL 6
REMARK VINA RESULT:    -7.497      2.571      4.943
REMARK INTER + INTRA:          -8.353
REMARK INTER:                  -8.099
REMARK INTRA:                  -0.254
REMARK UNBOUND:                -0.198
REMARK SMILES C[C@H]1[C@H](C)CC[C@]2(C(=O)[O-])CC[C@@]3(C)C(=CC[C@H]4[C@@]5(C)CC[C@H](O)C(C)(C)[C@H]5CC[C@@]43C)[C@H]12
REMARK SMILES IDX 7 1 6 2 11 3 33 4 5 5 12 6 15 7 2 8 3 9 13 10 16 11 1 12
REMARK SMILES IDX 4 13 14 14 31 15 17 16 18 17 30 18 32 19 19 20 29 21 28 22
REMARK SMILES IDX 21 23 20 24 25 25 22 26 23 27 26 28 27 29 8 30 9 31 10 32
REMARK SMILES IDX 24 33
REMARK H PARENT 24 34
REMARK Flexibility Score: inf
ROOT
ATOM      1  C   UNL     1      29.951 -23.056 -23.665  1.00  0.00     0.017 C 
ATOM      2  C   UNL     1      30.954 -23.049 -22.462  1.00  0.00     0.014 C 
ATOM      3  C   UNL     1      30.032 -24.476 -24.342  1.00  0.00     0.014 C 
ATOM      4  C   UNL     1      30.270 -21.852 -24.666  1.00  0.00     0.030 C 
ATOM      5  C   UNL     1      31.363 -21.635 -22.070  1.00  0.00     0.004 C 
ATOM      6  C   UNL     1      30.378 -24.466 -25.835  1.00  0.00     0.013 C 
ATOM      7  C   UNL     1      29.728 -22.078 -26.100  1.00  0.00    -0.063 C 
ATOM      8  C   UNL     1      31.791 -21.442 -24.624  1.00  0.00    -0.003 C 
ATOM      9  C   UNL     1      32.226 -21.000 -23.180  1.00  0.00    -0.011 C 
ATOM     10  C   UNL     1      29.500 -23.486 -26.669  1.00  0.00    -0.006 C 
ATOM     11  C   UNL     1      29.431 -20.993 -26.852  1.00  0.00    -0.027 C 
ATOM     12  C   UNL     1      32.152 -20.302 -25.603  1.00  0.00     0.008 C 
ATOM     13  C   UNL     1      33.718 -21.295 -22.934  1.00  0.00     0.008 C 
ATOM     14  C   UNL     1      28.000 -23.871 -26.422  1.00  0.00     0.017 C 
ATOM     15  C   UNL     1      29.880 -23.517 -28.241  1.00  0.00    -0.020 C 
ATOM     16  C   UNL     1      29.420 -21.000 -28.361  1.00  0.00     0.032 C 
ATOM     17  C   UNL     1      29.078 -22.375 -28.986  1.00  0.00     0.006 C 
ATOM     18  C   UNL     1      29.485 -24.860 -28.895  1.00  0.00     0.008 C 
ATOM     19  C   UNL     1      31.429 -23.349 -28.384  1.00  0.00     0.012 C 
ATOM     20  C   UNL     1      28.992 -22.383 -30.593  1.00  0.00    -0.025 C 
ATOM     21  C   UNL     1      29.748 -24.880 -30.399  1.00  0.00     0.005 C 
ATOM     22  C   UNL     1      28.870 -23.864 -31.179  1.00  0.00     0.003 C 
ATOM     23  C   UNL     1      30.184 -21.604 -31.237  1.00  0.00     0.010 C 
ATOM     24  C   UNL     1      27.682 -21.607 -30.960  1.00  0.00     0.012 C 
ATOM     25  C   UNL     1      29.070 -23.994 -32.764  1.00  0.00    -0.006 C 
ATOM     26  C   UNL     1      30.276 -21.717 -32.758  1.00  0.00     0.033 C 
ATOM     27  C   UNL     1      30.316 -23.179 -33.223  1.00  0.00     0.120 C 
ATOM     28  C   UNL     1      27.791 -23.547 -33.543  1.00  0.00     0.014 C 
ATOM     29  C   UNL     1      29.305 -25.476 -33.189  1.00  0.00     0.014 C 
ENDROOT
BRANCH   1  30
ATOM     30  C   UNL     1      28.546 -22.882 -23.077  1.00  0.00     0.048 C 
ATOM     31  O   UNL     1      27.995 -21.748 -23.084  1.00  0.00    -0.550 OA
ATOM     32  O   UNL     1      27.864 -23.944 -22.493  1.00  0.00    -0.550 OA
ENDBRANCH   1  30
BRANCH  27  33
ATOM     33  O   UNL     1      30.428 -23.216 -34.625  1.00  0.00    -0.393 OA
ATOM     34  H   UNL     1      30.172 -24.131 -34.913  1.00  0.00     0.210 HD
ENDBRANCH  27  33
TORSDOF 2
ENDMDL
MODEL 7
REMARK VINA RESULT:    -7.289      1.794      2.950
REMARK INTER + INTRA:          -8.127
REMARK INTER:                  -7.851
REMARK INTRA:                  -0.276
REMARK UNBOUND:                -0.198
REMARK SMILES C[C@H]1[C@H](C)CC[C@]2(C(=O)[O-])CC[C@@]3(C)C(=CC[C@H]4[C@@]5(C)CC[C@H](O)C(C)(C)[C@H]5CC[C@@]43C)[C@H]12
REMARK SMILES IDX 7 1 6 2 11 3 33 4 5 5 12 6 15 7 2 8 3 9 13 10 16 11 1 12
REMARK SMILES IDX 4 13 14 14 31 15 17 16 18 17 30 18 32 19 19 20 29 21 28 22
REMARK SMILES IDX 21 23 20 24 25 25 22 26 23 27 26 28 27 29 8 30 9 31 10 32
REMARK SMILES IDX 24 33
REMARK H PARENT 24 34
REMARK Flexibility Score: inf
ROOT
ATOM      1  C   UNL     1      31.743 -22.606 -25.225  1.00  0.00     0.017 C 
ATOM      2  C   UNL     1      31.720 -21.868 -23.844  1.00  0.00     0.014 C 
ATOM      3  C   UNL     1      32.260 -21.580 -26.303  1.00  0.00     0.014 C 
ATOM      4  C   UNL     1      30.305 -23.214 -25.559  1.00  0.00     0.030 C 
ATOM      5  C   UNL     1      30.772 -22.537 -22.857  1.00  0.00     0.004 C 
ATOM      6  C   UNL     1      31.318 -21.354 -27.490  1.00  0.00     0.013 C 
ATOM      7  C   UNL     1      30.076 -23.469 -27.070  1.00  0.00    -0.063 C 
ATOM      8  C   UNL     1      29.148 -22.390 -24.877  1.00  0.00    -0.003 C 
ATOM      9  C   UNL     1      29.310 -22.360 -23.314  1.00  0.00    -0.011 C 
ATOM     10  C   UNL     1      30.823 -22.675 -28.151  1.00  0.00    -0.006 C 
ATOM     11  C   UNL     1      29.204 -24.439 -27.432  1.00  0.00    -0.027 C 
ATOM     12  C   UNL     1      27.734 -22.922 -25.201  1.00  0.00     0.008 C 
ATOM     13  C   UNL     1      28.714 -21.070 -22.718  1.00  0.00     0.008 C 
ATOM     14  C   UNL     1      32.093 -23.497 -28.565  1.00  0.00     0.017 C 
ATOM     15  C   UNL     1      29.847 -22.396 -29.410  1.00  0.00    -0.020 C 
ATOM     16  C   UNL     1      28.480 -24.461 -28.755  1.00  0.00     0.032 C 
ATOM     17  C   UNL     1      29.249 -23.772 -29.910  1.00  0.00     0.006 C 
ATOM     18  C   UNL     1      30.614 -21.768 -30.595  1.00  0.00     0.008 C 
ATOM     19  C   UNL     1      28.736 -21.387 -28.968  1.00  0.00     0.012 C 
ATOM     20  C   UNL     1      28.522 -23.849 -31.344  1.00  0.00    -0.025 C 
ATOM     21  C   UNL     1      29.734 -21.582 -31.830  1.00  0.00     0.005 C 
ATOM     22  C   UNL     1      29.244 -22.927 -32.432  1.00  0.00     0.003 C 
ATOM     23  C   UNL     1      26.997 -23.525 -31.234  1.00  0.00     0.010 C 
ATOM     24  C   UNL     1      28.645 -25.338 -31.813  1.00  0.00     0.012 C 
ATOM     25  C   UNL     1      28.433 -22.711 -33.797  1.00  0.00    -0.006 C 
ATOM     26  C   UNL     1      26.271 -23.400 -32.574  1.00  0.00     0.033 C 
ATOM     27  C   UNL     1      26.942 -22.372 -33.495  1.00  0.00     0.120 C 
ATOM     28  C   UNL     1      28.544 -23.957 -34.734  1.00  0.00     0.014 C 
ATOM     29  C   UNL     1      29.018 -21.528 -34.626  1.00  0.00     0.014 C 
ENDROOT
BRANCH   1  30
ATOM     30  C   UNL     1      32.770 -23.739 -25.109  1.00  0.00     0.048 C 
ATOM     31  O   UNL     1      33.993 -23.506 -25.311  1.00  0.00    -0.550 OA
ATOM     32  O   UNL     1      32.386 -25.045 -24.822  1.00  0.00    -0.550 OA
ENDBRANCH   1  30
BRANCH  27  33
ATOM     33  O   UNL     1      26.215 -22.282 -34.696  1.00  0.00    -0.393 OA
ATOM     34  H   UNL     1      26.390 -23.116 -35.205  1.00  0.00     0.210 HD
ENDBRANCH  27  33
TORSDOF 2
ENDMDL
MODEL 8
REMARK VINA RESULT:    -7.273      2.157      8.165
REMARK INTER + INTRA:          -8.109
REMARK INTER:                  -7.862
REMARK INTRA:                  -0.247
REMARK UNBOUND:                -0.198
REMARK SMILES C[C@H]1[C@H](C)CC[C@]2(C(=O)[O-])CC[C@@]3(C)C(=CC[C@H]4[C@@]5(C)CC[C@H](O)C(C)(C)[C@H]5CC[C@@]43C)[C@H]12
REMARK SMILES IDX 7 1 6 2 11 3 33 4 5 5 12 6 15 7 2 8 3 9 13 10 16 11 1 12
REMARK SMILES IDX 4 13 14 14 31 15 17 16 18 17 30 18 32 19 19 20 29 21 28 22
REMARK SMILES IDX 21 23 20 24 25 25 22 26 23 27 26 28 27 29 8 30 9 31 10 32
REMARK SMILES IDX 24 33
REMARK H PARENT 24 34
REMARK Flexibility Score: inf
ROOT
ATOM      1  C   UNL     1      29.532 -24.900 -33.576  1.00  0.00     0.017 C 
ATOM      2  C   UNL     1      28.680 -25.062 -34.881  1.00  0.00     0.014 C 
ATOM      3  C   UNL     1      28.980 -25.930 -32.519  1.00  0.00     0.014 C 
ATOM      4  C   UNL     1      29.499 -23.386 -33.071  1.00  0.00     0.030 C 
ATOM      5  C   UNL     1      28.739 -23.818 -35.757  1.00  0.00     0.004 C 
ATOM      6  C   UNL     1      28.530 -25.317 -31.188  1.00  0.00     0.013 C 
ATOM      7  C   UNL     1      29.829 -23.227 -31.565  1.00  0.00    -0.063 C 
ATOM      8  C   UNL     1      28.175 -22.651 -33.507  1.00  0.00    -0.003 C 
ATOM      9  C   UNL     1      28.011 -22.644 -35.069  1.00  0.00    -0.011 C 
ATOM     10  C   UNL     1      29.584 -24.359 -30.556  1.00  0.00    -0.006 C 
ATOM     11  C   UNL     1      30.367 -22.059 -31.145  1.00  0.00    -0.027 C 
ATOM     12  C   UNL     1      28.084 -21.191 -33.010  1.00  0.00     0.008 C 
ATOM     13  C   UNL     1      26.524 -22.625 -35.473  1.00  0.00     0.008 C 
ATOM     14  C   UNL     1      30.919 -25.167 -30.402  1.00  0.00     0.017 C 
ATOM     15  C   UNL     1      29.081 -23.748 -29.147  1.00  0.00    -0.020 C 
ATOM     16  C   UNL     1      30.249 -21.545 -29.732  1.00  0.00     0.032 C 
ATOM     17  C   UNL     1      30.118 -22.657 -28.661  1.00  0.00     0.006 C 
ATOM     18  C   UNL     1      29.007 -24.833 -28.050  1.00  0.00     0.008 C 
ATOM     19  C   UNL     1      27.644 -23.161 -29.340  1.00  0.00     0.012 C 
ATOM     20  C   UNL     1      30.063 -22.127 -27.143  1.00  0.00    -0.025 C 
ATOM     21  C   UNL     1      28.626 -24.264 -26.685  1.00  0.00     0.005 C 
ATOM     22  C   UNL     1      29.696 -23.294 -26.114  1.00  0.00     0.003 C 
ATOM     23  C   UNL     1      29.104 -20.903 -26.994  1.00  0.00     0.010 C 
ATOM     24  C   UNL     1      31.508 -21.624 -26.807  1.00  0.00     0.012 C 
ATOM     25  C   UNL     1      29.334 -22.812 -24.629  1.00  0.00    -0.006 C 
ATOM     26  C   UNL     1      28.856 -20.454 -25.554  1.00  0.00     0.033 C 
ATOM     27  C   UNL     1      28.349 -21.605 -24.675  1.00  0.00     0.120 C 
ATOM     28  C   UNL     1      30.618 -22.455 -23.813  1.00  0.00     0.014 C 
ATOM     29  C   UNL     1      28.639 -23.945 -23.816  1.00  0.00     0.014 C 
ENDROOT
BRANCH   1  30
ATOM     30  C   UNL     1      30.970 -25.297 -33.929  1.00  0.00     0.048 C 
ATOM     31  O   UNL     1      31.240 -26.494 -34.226  1.00  0.00    -0.550 OA
ATOM     32  O   UNL     1      32.011 -24.375 -33.896  1.00  0.00    -0.550 OA
ENDBRANCH   1  30
BRANCH  27  33
ATOM     33  O   UNL     1      28.114 -21.124 -23.373  1.00  0.00    -0.393 OA
ATOM     34  H   UNL     1      27.713 -21.871 -22.855  1.00  0.00     0.210 HD
ENDBRANCH  27  33
TORSDOF 2
ENDMDL
MODEL 9
REMARK VINA RESULT:    -7.249      2.249      3.285
REMARK INTER + INTRA:          -8.083
REMARK INTER:                  -7.832
REMARK INTRA:                  -0.250
REMARK UNBOUND:                -0.198
REMARK SMILES C[C@H]1[C@H](C)CC[C@]2(C(=O)[O-])CC[C@@]3(C)C(=CC[C@H]4[C@@]5(C)CC[C@H](O)C(C)(C)[C@H]5CC[C@@]43C)[C@H]12
REMARK SMILES IDX 7 1 6 2 11 3 33 4 5 5 12 6 15 7 2 8 3 9 13 10 16 11 1 12
REMARK SMILES IDX 4 13 14 14 31 15 17 16 18 17 30 18 32 19 19 20 29 21 28 22
REMARK SMILES IDX 21 23 20 24 25 25 22 26 23 27 26 28 27 29 8 30 9 31 10 32
REMARK SMILES IDX 24 33
REMARK H PARENT 24 34
REMARK Flexibility Score: inf
ROOT
ATOM      1  C   UNL     1      29.524 -21.613 -24.511  1.00  0.00     0.017 C 
ATOM      2  C   UNL     1      28.509 -21.190 -23.395  1.00  0.00     0.014 C 
ATOM      3  C   UNL     1      29.515 -20.487 -25.612  1.00  0.00     0.014 C 
ATOM      4  C   UNL     1      29.163 -23.063 -25.075  1.00  0.00     0.030 C 
ATOM      5  C   UNL     1      28.032 -22.384 -22.577  1.00  0.00     0.004 C 
ATOM      6  C   UNL     1      29.186 -20.967 -27.030  1.00  0.00     0.013 C 
ATOM      7  C   UNL     1      29.731 -23.336 -26.491  1.00  0.00    -0.063 C 
ATOM      8  C   UNL     1      27.625 -23.377 -24.941  1.00  0.00    -0.003 C 
ATOM      9  C   UNL     1      27.154 -23.310 -23.444  1.00  0.00    -0.011 C 
ATOM     10  C   UNL     1      30.028 -22.199 -27.480  1.00  0.00    -0.006 C 
ATOM     11  C   UNL     1      29.986 -24.617 -26.845  1.00  0.00    -0.027 C 
ATOM     12  C   UNL     1      27.223 -24.758 -25.508  1.00  0.00     0.008 C 
ATOM     13  C   UNL     1      25.674 -22.893 -23.344  1.00  0.00     0.008 C 
ATOM     14  C   UNL     1      31.541 -21.813 -27.333  1.00  0.00     0.017 C 
ATOM     15  C   UNL     1      29.667 -22.664 -28.986  1.00  0.00    -0.020 C 
ATOM     16  C   UNL     1      30.014 -25.100 -28.273  1.00  0.00     0.032 C 
ATOM     17  C   UNL     1      30.425 -24.016 -29.301  1.00  0.00     0.006 C 
ATOM     18  C   UNL     1      30.130 -21.623 -30.029  1.00  0.00     0.008 C 
ATOM     19  C   UNL     1      28.114 -22.809 -29.106  1.00  0.00     0.012 C 
ATOM     20  C   UNL     1      30.529 -24.534 -30.821  1.00  0.00    -0.025 C 
ATOM     21  C   UNL     1      29.885 -22.082 -31.465  1.00  0.00     0.005 C 
ATOM     22  C   UNL     1      30.725 -23.329 -31.852  1.00  0.00     0.003 C 
ATOM     23  C   UNL     1      29.310 -25.432 -31.208  1.00  0.00     0.010 C 
ATOM     24  C   UNL     1      31.807 -25.438 -30.884  1.00  0.00     0.012 C 
ATOM     25  C   UNL     1      30.549 -23.712 -33.399  1.00  0.00    -0.006 C 
ATOM     26  C   UNL     1      29.241 -25.815 -32.686  1.00  0.00     0.033 C 
ATOM     27  C   UNL     1      29.272 -24.583 -33.600  1.00  0.00     0.120 C 
ATOM     28  C   UNL     1      31.815 -24.438 -33.958  1.00  0.00     0.014 C 
ATOM     29  C   UNL     1      30.385 -22.440 -34.285  1.00  0.00     0.014 C 
ENDROOT
BRANCH   1  30
ATOM     30  C   UNL     1      30.914 -21.641 -23.863  1.00  0.00     0.048 C 
ATOM     31  O   UNL     1      31.673 -20.638 -23.954  1.00  0.00    -0.550 OA
ATOM     32  O   UNL     1      31.387 -22.769 -23.201  1.00  0.00    -0.550 OA
ENDBRANCH   1  30
BRANCH  27  33
ATOM     33  O   UNL     1      29.178 -24.998 -34.941  1.00  0.00    -0.393 OA
ATOM     34  H   UNL     1      28.684 -24.290 -35.431  1.00  0.00     0.210 HD
ENDBRANCH  27  33
TORSDOF 2
ENDMDL
