MODEL 1
REMARK VINA RESULT:    -7.947      0.000      0.000
REMARK INTER + INTRA:         -11.384
REMARK INTER:                 -10.502
REMARK INTRA:                  -0.882
REMARK UNBOUND:                -0.882
REMARK SMILES CC[C@H](C=C[C@H](C)[C@@H]1CC[C@H]2C3=CC[C@H]4C[C@@H](O)CC[C@@]4(C)[C@@H]3CC[C@]21C)C(C)C
REMARK SMILES IDX 6 1 7 2 5 3 4 4 3 5 2 6 1 7 28 8 29 9 30 10 8 11 9 12 26 13
REMARK SMILES IDX 10 14 11 15 25 16 27 17 12 18 24 19 23 20 13 21 21 22 14 23
REMARK SMILES IDX 15 24 20 25 22 26 16 27 19 28 17 29 18 30
REMARK H PARENT 18 31
REMARK Flexibility Score: inf
ROOT
ATOM      1  C   UNL     1      -0.446  20.908  47.433  1.00  0.00     0.012 C 
ATOM      2  C   UNL     1       0.809  21.439  48.146  1.00  0.00     0.012 C 
ENDROOT
BRANCH   1   3
ATOM      3  C   UNL     1      -0.438  19.391  47.373  1.00  0.00    -0.028 C 
ATOM      4  C   UNL     1      -1.331  18.669  46.672  1.00  0.00    -0.027 C 
BRANCH   4   5
ATOM      5  C   UNL     1      -1.332  17.151  46.644  1.00  0.00     0.014 C 
BRANCH   5   6
ATOM      6  C   UNL     1      -1.647  16.585  48.055  1.00  0.00     0.004 C 
ATOM      7  C   UNL     1      -3.027  16.981  48.580  1.00  0.00     0.004 C 
ENDBRANCH   5   6
BRANCH   5   8
ATOM      8  C   UNL     1      -2.208  16.614  45.456  1.00  0.00    -0.011 C 
ATOM      9  C   UNL     1      -1.418  16.182  44.210  1.00  0.00     0.008 C 
ATOM     10  C   UNL     1      -3.312  17.607  45.059  1.00  0.00     0.008 C 
ENDBRANCH   5   8
ENDBRANCH   4   5
ENDBRANCH   1   3
BRANCH   1  11
ATOM     11  C   UNL     1      -1.752  21.546  48.013  1.00  0.00     0.002 C 
ATOM     12  C   UNL     1      -2.841  20.581  48.451  1.00  0.00     0.005 C 
ATOM     13  C   UNL     1      -2.486  22.614  47.138  1.00  0.00    -0.023 C 
ATOM     14  C   UNL     1      -4.020  21.488  48.737  1.00  0.00     0.009 C 
ATOM     15  C   UNL     1      -3.961  22.613  47.686  1.00  0.00     0.021 C 
ATOM     16  C   UNL     1      -1.770  23.987  47.290  1.00  0.00     0.008 C 
ATOM     17  C   UNL     1      -2.514  22.210  45.639  1.00  0.00     0.012 C 
ATOM     18  C   UNL     1      -4.479  23.946  48.234  1.00  0.00    -0.067 C 
ATOM     19  C   UNL     1      -2.675  25.145  46.891  1.00  0.00     0.009 C 
ATOM     20  C   UNL     1      -3.841  25.288  47.890  1.00  0.00     0.021 C 
ATOM     21  C   UNL     1      -5.619  23.978  48.953  1.00  0.00    -0.027 C 
ATOM     22  C   UNL     1      -4.948  26.321  47.441  1.00  0.00    -0.023 C 
ATOM     23  C   UNL     1      -6.086  25.262  49.573  1.00  0.00     0.031 C 
ATOM     24  C   UNL     1      -6.050  26.455  48.580  1.00  0.00     0.002 C 
ATOM     25  C   UNL     1      -4.278  27.703  47.149  1.00  0.00     0.010 C 
ATOM     26  C   UNL     1      -5.650  25.832  46.138  1.00  0.00     0.012 C 
ATOM     27  C   UNL     1      -5.913  27.767  49.381  1.00  0.00     0.036 C 
ATOM     28  C   UNL     1      -5.285  28.860  47.139  1.00  0.00     0.032 C 
ATOM     29  C   UNL     1      -6.041  29.010  48.479  1.00  0.00     0.114 C 
BRANCH  29  30
ATOM     30  O   UNL     1      -5.556  30.135  49.163  1.00  0.00    -0.393 OA
ATOM     31  H   UNL     1      -6.036  30.177  50.031  1.00  0.00     0.210 HD
ENDBRANCH  29  30
ENDBRANCH   1  11
TORSDOF 6
ENDMDL
MODEL 2
REMARK VINA RESULT:    -7.921      3.086      9.083
REMARK INTER + INTRA:         -11.349
REMARK INTER:                 -10.293
REMARK INTRA:                  -1.057
REMARK UNBOUND:                -0.882
REMARK SMILES CC[C@H](C=C[C@H](C)[C@@H]1CC[C@H]2C3=CC[C@H]4C[C@@H](O)CC[C@@]4(C)[C@@H]3CC[C@]21C)C(C)C
REMARK SMILES IDX 6 1 7 2 5 3 4 4 3 5 2 6 1 7 28 8 29 9 30 10 8 11 9 12 26 13
REMARK SMILES IDX 10 14 11 15 25 16 27 17 12 18 24 19 23 20 13 21 21 22 14 23
REMARK SMILES IDX 15 24 20 25 22 26 16 27 19 28 17 29 18 30
REMARK H PARENT 18 31
REMARK Flexibility Score: inf
ROOT
ATOM      1  C   UNL     1      -4.661  25.924  50.003  1.00  0.00     0.012 C 
ATOM      2  C   UNL     1      -4.402  26.197  51.494  1.00  0.00     0.012 C 
ENDROOT
BRANCH   1   3
ATOM      3  C   UNL     1      -4.997  27.207  49.264  1.00  0.00    -0.028 C 
ATOM      4  C   UNL     1      -6.253  27.585  48.961  1.00  0.00    -0.027 C 
BRANCH   4   5
ATOM      5  C   UNL     1      -6.575  28.855  48.195  1.00  0.00     0.014 C 
BRANCH   5   6
ATOM      6  C   UNL     1      -5.298  29.725  48.030  1.00  0.00     0.004 C 
ATOM      7  C   UNL     1      -5.280  30.962  48.928  1.00  0.00     0.004 C 
ENDBRANCH   5   6
BRANCH   5   8
ATOM      8  C   UNL     1      -7.382  28.531  46.888  1.00  0.00    -0.011 C 
ATOM      9  C   UNL     1      -8.874  28.230  47.104  1.00  0.00     0.008 C 
ATOM     10  C   UNL     1      -6.731  27.402  46.074  1.00  0.00     0.008 C 
ENDBRANCH   5   8
ENDBRANCH   4   5
ENDBRANCH   1   3
BRANCH   1  11
ATOM     11  C   UNL     1      -3.516  25.068  49.366  1.00  0.00     0.002 C 
ATOM     12  C   UNL     1      -2.437  25.831  48.616  1.00  0.00     0.005 C 
ATOM     13  C   UNL     1      -3.930  23.905  48.407  1.00  0.00    -0.023 C 
ATOM     14  C   UNL     1      -1.632  24.735  47.947  1.00  0.00     0.009 C 
ATOM     15  C   UNL     1      -2.647  23.651  47.533  1.00  0.00     0.021 C 
ATOM     16  C   UNL     1      -4.360  22.669  49.249  1.00  0.00     0.008 C 
ATOM     17  C   UNL     1      -5.094  24.319  47.468  1.00  0.00     0.012 C 
ATOM     18  C   UNL     1      -2.049  22.243  47.603  1.00  0.00    -0.067 C 
ATOM     19  C   UNL     1      -4.298  21.382  48.439  1.00  0.00     0.009 C 
ATOM     20  C   UNL     1      -2.836  21.031  48.092  1.00  0.00     0.021 C 
ATOM     21  C   UNL     1      -0.820  22.010  47.102  1.00  0.00    -0.027 C 
ATOM     22  C   UNL     1      -2.688  19.834  47.074  1.00  0.00    -0.023 C 
ATOM     23  C   UNL     1      -0.186  20.657  47.249  1.00  0.00     0.031 C 
ATOM     24  C   UNL     1      -1.147  19.501  46.858  1.00  0.00     0.002 C 
ATOM     25  C   UNL     1      -3.455  18.587  47.624  1.00  0.00     0.010 C 
ATOM     26  C   UNL     1      -3.301  20.217  45.693  1.00  0.00     0.012 C 
ATOM     27  C   UNL     1      -0.712  18.219  47.601  1.00  0.00     0.036 C 
ATOM     28  C   UNL     1      -3.017  17.278  46.955  1.00  0.00     0.032 C 
ATOM     29  C   UNL     1      -1.511  16.985  47.137  1.00  0.00     0.114 C 
BRANCH  29  30
ATOM     30  O   UNL     1      -1.348  15.947  48.068  1.00  0.00    -0.393 OA
ATOM     31  H   UNL     1      -2.126  15.339  47.964  1.00  0.00     0.210 HD
ENDBRANCH  29  30
ENDBRANCH   1  11
TORSDOF 6
ENDMDL
MODEL 3
REMARK VINA RESULT:    -7.723      1.456      2.187
REMARK INTER + INTRA:         -11.087
REMARK INTER:                 -10.038
REMARK INTRA:                  -1.049
REMARK UNBOUND:                -0.882
REMARK SMILES CC[C@H](C=C[C@H](C)[C@@H]1CC[C@H]2C3=CC[C@H]4C[C@@H](O)CC[C@@]4(C)[C@@H]3CC[C@]21C)C(C)C
REMARK SMILES IDX 6 1 7 2 5 3 4 4 3 5 2 6 1 7 28 8 29 9 30 10 8 11 9 12 26 13
REMARK SMILES IDX 10 14 11 15 25 16 27 17 12 18 24 19 23 20 13 21 21 22 14 23
REMARK SMILES IDX 15 24 20 25 22 26 16 27 19 28 17 29 18 30
REMARK H PARENT 18 31
REMARK Flexibility Score: inf
ROOT
ATOM      1  C   UNL     1      -2.930  21.134  46.720  1.00  0.00     0.012 C 
ATOM      2  C   UNL     1      -2.176  21.495  45.429  1.00  0.00     0.012 C 
ENDROOT
BRANCH   1   3
ATOM      3  C   UNL     1      -2.446  19.808  47.281  1.00  0.00    -0.028 C 
ATOM      4  C   UNL     1      -1.775  18.894  46.557  1.00  0.00    -0.027 C 
BRANCH   4   5
ATOM      5  C   UNL     1      -1.322  17.559  47.120  1.00  0.00     0.014 C 
BRANCH   5   6
ATOM      6  C   UNL     1      -1.912  17.344  48.541  1.00  0.00     0.004 C 
ATOM      7  C   UNL     1      -2.379  15.911  48.800  1.00  0.00     0.004 C 
ENDBRANCH   5   6
BRANCH   5   8
ATOM      8  C   UNL     1      -1.551  16.406  46.080  1.00  0.00    -0.011 C 
ATOM      9  C   UNL     1      -0.344  16.094  45.180  1.00  0.00     0.008 C 
ATOM     10  C   UNL     1      -2.800  16.647  45.217  1.00  0.00     0.008 C 
ENDBRANCH   5   8
ENDBRANCH   4   5
ENDBRANCH   1   3
BRANCH   1  11
ATOM     11  C   UNL     1      -2.938  22.325  47.736  1.00  0.00     0.002 C 
ATOM     12  C   UNL     1      -2.599  21.987  49.178  1.00  0.00     0.005 C 
ATOM     13  C   UNL     1      -4.234  23.196  47.818  1.00  0.00    -0.023 C 
ATOM     14  C   UNL     1      -2.911  23.270  49.922  1.00  0.00     0.009 C 
ATOM     15  C   UNL     1      -4.155  23.870  49.237  1.00  0.00     0.021 C 
ATOM     16  C   UNL     1      -4.243  24.220  46.646  1.00  0.00     0.008 C 
ATOM     17  C   UNL     1      -5.518  22.326  47.754  1.00  0.00     0.012 C 
ATOM     18  C   UNL     1      -4.146  25.401  49.259  1.00  0.00    -0.067 C 
ATOM     19  C   UNL     1      -5.173  25.392  46.926  1.00  0.00     0.009 C 
ATOM     20  C   UNL     1      -4.626  26.250  48.086  1.00  0.00     0.021 C 
ATOM     21  C   UNL     1      -3.821  26.054  50.392  1.00  0.00    -0.027 C 
ATOM     22  C   UNL     1      -5.629  27.361  48.590  1.00  0.00    -0.023 C 
ATOM     23  C   UNL     1      -3.718  27.551  50.400  1.00  0.00     0.031 C 
ATOM     24  C   UNL     1      -4.932  28.239  49.720  1.00  0.00     0.002 C 
ATOM     25  C   UNL     1      -6.063  28.253  47.381  1.00  0.00     0.010 C 
ATOM     26  C   UNL     1      -6.905  26.706  49.199  1.00  0.00     0.012 C 
ATOM     27  C   UNL     1      -4.495  29.626  49.202  1.00  0.00     0.036 C 
ATOM     28  C   UNL     1      -6.663  29.595  47.819  1.00  0.00     0.032 C 
ATOM     29  C   UNL     1      -5.686  30.443  48.665  1.00  0.00     0.114 C 
BRANCH  29  30
ATOM     30  O   UNL     1      -5.208  31.511  47.890  1.00  0.00    -0.393 OA
ATOM     31  H   UNL     1      -5.283  31.238  46.939  1.00  0.00     0.210 HD
ENDBRANCH  29  30
ENDBRANCH   1  11
TORSDOF 6
ENDMDL
MODEL 4
REMARK VINA RESULT:    -7.513      2.556      3.393
REMARK INTER + INTRA:         -10.810
REMARK INTER:                  -9.848
REMARK INTRA:                  -0.962
REMARK UNBOUND:                -0.882
REMARK SMILES CC[C@H](C=C[C@H](C)[C@@H]1CC[C@H]2C3=CC[C@H]4C[C@@H](O)CC[C@@]4(C)[C@@H]3CC[C@]21C)C(C)C
REMARK SMILES IDX 6 1 7 2 5 3 4 4 3 5 2 6 1 7 28 8 29 9 30 10 8 11 9 12 26 13
REMARK SMILES IDX 10 14 11 15 25 16 27 17 12 18 24 19 23 20 13 21 21 22 14 23
REMARK SMILES IDX 15 24 20 25 22 26 16 27 19 28 17 29 18 30
REMARK H PARENT 18 31
REMARK Flexibility Score: inf
ROOT
ATOM      1  C   UNL     1      -2.787  21.897  46.253  1.00  0.00     0.012 C 
ATOM      2  C   UNL     1      -1.300  22.052  45.892  1.00  0.00     0.012 C 
ENDROOT
BRANCH   1   3
ATOM      3  C   UNL     1      -3.248  20.463  46.060  1.00  0.00    -0.028 C 
ATOM      4  C   UNL     1      -2.541  19.393  46.466  1.00  0.00    -0.027 C 
BRANCH   4   5
ATOM      5  C   UNL     1      -2.999  17.963  46.242  1.00  0.00     0.014 C 
BRANCH   5   6
ATOM      6  C   UNL     1      -2.088  17.262  45.197  1.00  0.00     0.004 C 
ATOM      7  C   UNL     1      -2.834  16.277  44.298  1.00  0.00     0.004 C 
ENDBRANCH   5   6
BRANCH   5   8
ATOM      8  C   UNL     1      -3.204  17.220  47.610  1.00  0.00    -0.011 C 
ATOM      9  C   UNL     1      -3.433  18.140  48.821  1.00  0.00     0.008 C 
ATOM     10  C   UNL     1      -2.063  16.235  47.908  1.00  0.00     0.008 C 
ENDBRANCH   5   8
ENDBRANCH   4   5
ENDBRANCH   1   3
BRANCH   1  11
ATOM     11  C   UNL     1      -3.108  22.519  47.653  1.00  0.00     0.002 C 
ATOM     12  C   UNL     1      -4.149  21.797  48.492  1.00  0.00     0.005 C 
ATOM     13  C   UNL     1      -3.526  24.025  47.696  1.00  0.00    -0.023 C 
ATOM     14  C   UNL     1      -4.390  22.749  49.646  1.00  0.00     0.009 C 
ATOM     15  C   UNL     1      -4.303  24.170  49.056  1.00  0.00     0.021 C 
ATOM     16  C   UNL     1      -2.253  24.917  47.613  1.00  0.00     0.008 C 
ATOM     17  C   UNL     1      -4.488  24.390  46.535  1.00  0.00     0.012 C 
ATOM     18  C   UNL     1      -3.732  25.178  50.057  1.00  0.00    -0.067 C 
ATOM     19  C   UNL     1      -2.512  26.323  48.135  1.00  0.00     0.009 C 
ATOM     20  C   UNL     1      -2.775  26.296  49.655  1.00  0.00     0.021 C 
ATOM     21  C   UNL     1      -4.170  25.180  51.332  1.00  0.00    -0.027 C 
ATOM     22  C   UNL     1      -3.265  27.675  50.246  1.00  0.00    -0.023 C 
ATOM     23  C   UNL     1      -3.552  26.100  52.344  1.00  0.00     0.031 C 
ATOM     24  C   UNL     1      -3.418  27.558  51.825  1.00  0.00     0.002 C 
ATOM     25  C   UNL     1      -2.239  28.794  49.868  1.00  0.00     0.010 C 
ATOM     26  C   UNL     1      -4.652  28.060  49.649  1.00  0.00     0.012 C 
ATOM     27  C   UNL     1      -2.266  28.253  52.583  1.00  0.00     0.036 C 
ATOM     28  C   UNL     1      -2.379  30.047  50.743  1.00  0.00     0.032 C 
ATOM     29  C   UNL     1      -2.179  29.754  52.247  1.00  0.00     0.114 C 
BRANCH  29  30
ATOM     30  O   UNL     1      -0.932  30.252  52.656  1.00  0.00    -0.393 OA
ATOM     31  H   UNL     1      -1.096  31.137  53.075  1.00  0.00     0.210 HD
ENDBRANCH  29  30
ENDBRANCH   1  11
TORSDOF 6
ENDMDL
MODEL 5
REMARK VINA RESULT:    -7.465      2.123      2.390
REMARK INTER + INTRA:         -10.747
REMARK INTER:                  -9.594
REMARK INTRA:                  -1.153
REMARK UNBOUND:                -0.882
REMARK SMILES CC[C@H](C=C[C@H](C)[C@@H]1CC[C@H]2C3=CC[C@H]4C[C@@H](O)CC[C@@]4(C)[C@@H]3CC[C@]21C)C(C)C
REMARK SMILES IDX 6 1 7 2 5 3 4 4 3 5 2 6 1 7 28 8 29 9 30 10 8 11 9 12 26 13
REMARK SMILES IDX 10 14 11 15 25 16 27 17 12 18 24 19 23 20 13 21 21 22 14 23
REMARK SMILES IDX 15 24 20 25 22 26 16 27 19 28 17 29 18 30
REMARK H PARENT 18 31
REMARK Flexibility Score: inf
ROOT
ATOM      1  C   UNL     1      -0.943  20.760  46.939  1.00  0.00     0.012 C 
ATOM      2  C   UNL     1       0.518  20.680  47.415  1.00  0.00     0.012 C 
ENDROOT
BRANCH   1   3
ATOM      3  C   UNL     1      -1.440  19.403  46.474  1.00  0.00    -0.028 C 
ATOM      4  C   UNL     1      -1.030  18.237  47.006  1.00  0.00    -0.027 C 
BRANCH   4   5
ATOM      5  C   UNL     1      -1.512  16.885  46.513  1.00  0.00     0.014 C 
BRANCH   5   6
ATOM      6  C   UNL     1      -2.318  16.161  47.626  1.00  0.00     0.004 C 
ATOM      7  C   UNL     1      -2.843  17.100  48.712  1.00  0.00     0.004 C 
ENDBRANCH   5   6
BRANCH   5   8
ATOM      8  C   UNL     1      -2.205  17.016  45.110  1.00  0.00    -0.011 C 
ATOM      9  C   UNL     1      -3.712  16.716  45.100  1.00  0.00     0.008 C 
ATOM     10  C   UNL     1      -1.495  16.175  44.037  1.00  0.00     0.008 C 
ENDBRANCH   5   8
ENDBRANCH   4   5
ENDBRANCH   1   3
BRANCH   1  11
ATOM     11  C   UNL     1      -1.852  21.480  47.990  1.00  0.00     0.002 C 
ATOM     12  C   UNL     1      -3.169  20.800  48.325  1.00  0.00     0.005 C 
ATOM     13  C   UNL     1      -2.226  22.974  47.721  1.00  0.00    -0.023 C 
ATOM     14  C   UNL     1      -3.893  21.831  49.168  1.00  0.00     0.009 C 
ATOM     15  C   UNL     1      -3.530  23.204  48.569  1.00  0.00     0.021 C 
ATOM     16  C   UNL     1      -1.041  23.888  48.148  1.00  0.00     0.008 C 
ATOM     17  C   UNL     1      -2.557  23.225  46.225  1.00  0.00     0.012 C 
ATOM     18  C   UNL     1      -3.459  24.300  49.635  1.00  0.00    -0.067 C 
ATOM     19  C   UNL     1      -1.489  25.324  48.383  1.00  0.00     0.009 C 
ATOM     20  C   UNL     1      -2.409  25.407  49.619  1.00  0.00     0.021 C 
ATOM     21  C   UNL     1      -4.425  24.390  50.572  1.00  0.00    -0.027 C 
ATOM     22  C   UNL     1      -3.095  26.815  49.814  1.00  0.00    -0.023 C 
ATOM     23  C   UNL     1      -4.317  25.400  51.676  1.00  0.00     0.031 C 
ATOM     24  C   UNL     1      -3.945  26.816  51.159  1.00  0.00     0.002 C 
ATOM     25  C   UNL     1      -1.996  27.927  49.850  1.00  0.00     0.010 C 
ATOM     26  C   UNL     1      -4.060  27.119  48.627  1.00  0.00     0.012 C 
ATOM     27  C   UNL     1      -3.250  27.596  52.295  1.00  0.00     0.036 C 
ATOM     28  C   UNL     1      -2.499  29.239  50.465  1.00  0.00     0.032 C 
ATOM     29  C   UNL     1      -3.002  29.069  51.916  1.00  0.00     0.114 C 
BRANCH  29  30
ATOM     30  O   UNL     1      -2.067  29.628  52.801  1.00  0.00    -0.393 OA
ATOM     31  H   UNL     1      -1.219  29.126  52.683  1.00  0.00     0.210 HD
ENDBRANCH  29  30
ENDBRANCH   1  11
TORSDOF 6
ENDMDL
MODEL 6
REMARK VINA RESULT:    -7.454      3.105      9.690
REMARK INTER + INTRA:         -10.732
REMARK INTER:                  -9.756
REMARK INTRA:                  -0.977
REMARK UNBOUND:                -0.882
REMARK SMILES CC[C@H](C=C[C@H](C)[C@@H]1CC[C@H]2C3=CC[C@H]4C[C@@H](O)CC[C@@]4(C)[C@@H]3CC[C@]21C)C(C)C
REMARK SMILES IDX 6 1 7 2 5 3 4 4 3 5 2 6 1 7 28 8 29 9 30 10 8 11 9 12 26 13
REMARK SMILES IDX 10 14 11 15 25 16 27 17 12 18 24 19 23 20 13 21 21 22 14 23
REMARK SMILES IDX 15 24 20 25 22 26 16 27 19 28 17 29 18 30
REMARK H PARENT 18 31
REMARK Flexibility Score: inf
ROOT
ATOM      1  C   UNL     1      -5.798  27.072  48.890  1.00  0.00     0.012 C 
ATOM      2  C   UNL     1      -6.853  26.770  49.969  1.00  0.00     0.012 C 
ENDROOT
BRANCH   1   3
ATOM      3  C   UNL     1      -5.386  28.532  48.923  1.00  0.00    -0.028 C 
ATOM      4  C   UNL     1      -6.154  29.534  48.456  1.00  0.00    -0.027 C 
BRANCH   4   5
ATOM      5  C   UNL     1      -5.719  30.988  48.467  1.00  0.00     0.014 C 
BRANCH   5   6
ATOM      6  C   UNL     1      -4.189  31.096  48.222  1.00  0.00     0.004 C 
ATOM      7  C   UNL     1      -3.476  32.023  49.206  1.00  0.00     0.004 C 
ENDBRANCH   5   6
BRANCH   5   8
ATOM      8  C   UNL     1      -6.645  31.856  47.542  1.00  0.00    -0.011 C 
ATOM      9  C   UNL     1      -7.345  33.031  48.243  1.00  0.00     0.008 C 
ATOM     10  C   UNL     1      -7.679  30.999  46.794  1.00  0.00     0.008 C 
ENDBRANCH   5   8
ENDBRANCH   4   5
ENDBRANCH   1   3
BRANCH   1  11
ATOM     11  C   UNL     1      -4.618  26.045  48.935  1.00  0.00     0.002 C 
ATOM     12  C   UNL     1      -3.218  26.613  48.769  1.00  0.00     0.005 C 
ATOM     13  C   UNL     1      -4.680  24.828  47.955  1.00  0.00    -0.023 C 
ATOM     14  C   UNL     1      -2.352  25.378  48.632  1.00  0.00     0.009 C 
ATOM     15  C   UNL     1      -3.184  24.358  47.830  1.00  0.00     0.021 C 
ATOM     16  C   UNL     1      -5.625  23.740  48.541  1.00  0.00     0.008 C 
ATOM     17  C   UNL     1      -5.185  25.247  46.548  1.00  0.00     0.012 C 
ATOM     18  C   UNL     1      -2.892  22.915  48.252  1.00  0.00    -0.067 C 
ATOM     19  C   UNL     1      -5.361  22.372  47.927  1.00  0.00     0.009 C 
ATOM     20  C   UNL     1      -3.975  21.846  48.355  1.00  0.00     0.021 C 
ATOM     21  C   UNL     1      -1.618  22.511  48.426  1.00  0.00    -0.027 C 
ATOM     22  C   UNL     1      -3.525  20.535  47.598  1.00  0.00    -0.023 C 
ATOM     23  C   UNL     1      -1.324  21.128  48.929  1.00  0.00     0.031 C 
ATOM     24  C   UNL     1      -2.131  20.033  48.178  1.00  0.00     0.002 C 
ATOM     25  C   UNL     1      -4.625  19.436  47.766  1.00  0.00     0.010 C 
ATOM     26  C   UNL     1      -3.346  20.821  46.076  1.00  0.00     0.012 C 
ATOM     27  C   UNL     1      -2.284  18.805  49.100  1.00  0.00     0.036 C 
ATOM     28  C   UNL     1      -4.105  18.025  47.460  1.00  0.00     0.032 C 
ATOM     29  C   UNL     1      -2.925  17.611  48.368  1.00  0.00     0.114 C 
BRANCH  29  30
ATOM     30  O   UNL     1      -3.371  16.670  49.310  1.00  0.00    -0.393 OA
ATOM     31  H   UNL     1      -4.060  16.114  48.862  1.00  0.00     0.210 HD
ENDBRANCH  29  30
ENDBRANCH   1  11
TORSDOF 6
ENDMDL
MODEL 7
REMARK VINA RESULT:    -7.448      1.378      2.309
REMARK INTER + INTRA:         -10.725
REMARK INTER:                  -9.619
REMARK INTRA:                  -1.106
REMARK UNBOUND:                -0.882
REMARK SMILES CC[C@H](C=C[C@H](C)[C@@H]1CC[C@H]2C3=CC[C@H]4C[C@@H](O)CC[C@@]4(C)[C@@H]3CC[C@]21C)C(C)C
REMARK SMILES IDX 6 1 7 2 5 3 4 4 3 5 2 6 1 7 28 8 29 9 30 10 8 11 9 12 26 13
REMARK SMILES IDX 10 14 11 15 25 16 27 17 12 18 24 19 23 20 13 21 21 22 14 23
REMARK SMILES IDX 15 24 20 25 22 26 16 27 19 28 17 29 18 30
REMARK H PARENT 18 31
REMARK Flexibility Score: inf
ROOT
ATOM      1  C   UNL     1      -1.548  21.632  46.378  1.00  0.00     0.012 C 
ATOM      2  C   UNL     1      -0.114  21.857  45.868  1.00  0.00     0.012 C 
ENDROOT
BRANCH   1   3
ATOM      3  C   UNL     1      -1.769  20.179  46.760  1.00  0.00    -0.028 C 
ATOM      4  C   UNL     1      -2.577  19.345  46.080  1.00  0.00    -0.027 C 
BRANCH   4   5
ATOM      5  C   UNL     1      -2.815  17.903  46.488  1.00  0.00     0.014 C 
BRANCH   5   6
ATOM      6  C   UNL     1      -1.753  16.975  45.836  1.00  0.00     0.004 C 
ATOM      7  C   UNL     1      -2.090  16.576  44.399  1.00  0.00     0.004 C 
ENDBRANCH   5   6
BRANCH   5   8
ATOM      8  C   UNL     1      -2.995  17.784  48.044  1.00  0.00    -0.011 C 
ATOM      9  C   UNL     1      -2.731  16.385  48.623  1.00  0.00     0.008 C 
ATOM     10  C   UNL     1      -4.370  18.293  48.505  1.00  0.00     0.008 C 
ENDBRANCH   5   8
ENDBRANCH   4   5
ENDBRANCH   1   3
BRANCH   1  11
ATOM     11  C   UNL     1      -1.940  22.677  47.475  1.00  0.00     0.002 C 
ATOM     12  C   UNL     1      -1.890  22.198  48.917  1.00  0.00     0.005 C 
ATOM     13  C   UNL     1      -3.324  23.389  47.334  1.00  0.00    -0.023 C 
ATOM     14  C   UNL     1      -2.527  23.336  49.688  1.00  0.00     0.009 C 
ATOM     15  C   UNL     1      -3.655  23.883  48.790  1.00  0.00     0.021 C 
ATOM     16  C   UNL     1      -3.207  24.547  46.300  1.00  0.00     0.008 C 
ATOM     17  C   UNL     1      -4.436  22.404  46.881  1.00  0.00     0.012 C 
ATOM     18  C   UNL     1      -3.852  25.391  48.964  1.00  0.00    -0.067 C 
ATOM     19  C   UNL     1      -4.322  25.570  46.466  1.00  0.00     0.009 C 
ATOM     20  C   UNL     1      -4.166  26.326  47.801  1.00  0.00     0.021 C 
ATOM     21  C   UNL     1      -3.878  25.926  50.202  1.00  0.00    -0.027 C 
ATOM     22  C   UNL     1      -5.393  27.253  48.159  1.00  0.00    -0.023 C 
ATOM     23  C   UNL     1      -3.978  27.413  50.381  1.00  0.00     0.031 C 
ATOM     24  C   UNL     1      -5.089  28.049  49.503  1.00  0.00     0.002 C 
ATOM     25  C   UNL     1      -5.660  28.240  46.977  1.00  0.00     0.010 C 
ATOM     26  C   UNL     1      -6.676  26.395  48.381  1.00  0.00     0.012 C 
ATOM     27  C   UNL     1      -4.734  29.529  49.244  1.00  0.00     0.036 C 
ATOM     28  C   UNL     1      -6.515  29.445  47.390  1.00  0.00     0.032 C 
ATOM     29  C   UNL     1      -5.872  30.277  48.523  1.00  0.00     0.114 C 
BRANCH  29  30
ATOM     30  O   UNL     1      -5.378  31.480  47.993  1.00  0.00    -0.393 OA
ATOM     31  H   UNL     1      -6.092  32.160  48.101  1.00  0.00     0.210 HD
ENDBRANCH  29  30
ENDBRANCH   1  11
TORSDOF 6
ENDMDL
MODEL 8
REMARK VINA RESULT:    -7.381      3.306      9.276
REMARK INTER + INTRA:         -10.636
REMARK INTER:                  -9.794
REMARK INTRA:                  -0.843
REMARK UNBOUND:                -0.882
REMARK SMILES CC[C@H](C=C[C@H](C)[C@@H]1CC[C@H]2C3=CC[C@H]4C[C@@H](O)CC[C@@]4(C)[C@@H]3CC[C@]21C)C(C)C
REMARK SMILES IDX 6 1 7 2 5 3 4 4 3 5 2 6 1 7 28 8 29 9 30 10 8 11 9 12 26 13
REMARK SMILES IDX 10 14 11 15 25 16 27 17 12 18 24 19 23 20 13 21 21 22 14 23
REMARK SMILES IDX 15 24 20 25 22 26 16 27 19 28 17 29 18 30
REMARK H PARENT 18 31
REMARK Flexibility Score: inf
ROOT
ATOM      1  C   UNL     1      -5.334  28.054  47.263  1.00  0.00     0.012 C 
ATOM      2  C   UNL     1      -4.752  28.204  45.847  1.00  0.00     0.012 C 
ENDROOT
BRANCH   1   3
ATOM      3  C   UNL     1      -6.651  28.798  47.393  1.00  0.00    -0.028 C 
ATOM      4  C   UNL     1      -7.603  28.799  46.442  1.00  0.00    -0.027 C 
BRANCH   4   5
ATOM      5  C   UNL     1      -8.903  29.571  46.571  1.00  0.00     0.014 C 
BRANCH   5   6
ATOM      6  C   UNL     1      -8.900  30.796  45.615  1.00  0.00     0.004 C 
ATOM      7  C   UNL     1     -10.291  31.380  45.364  1.00  0.00     0.004 C 
ENDBRANCH   5   6
BRANCH   5   8
ATOM      8  C   UNL     1     -10.139  28.607  46.478  1.00  0.00    -0.011 C 
ATOM      9  C   UNL     1     -10.299  27.641  47.663  1.00  0.00     0.008 C 
ATOM     10  C   UNL     1     -10.160  27.824  45.155  1.00  0.00     0.008 C 
ENDBRANCH   5   8
ENDBRANCH   4   5
ENDBRANCH   1   3
BRANCH   1  11
ATOM     11  C   UNL     1      -5.367  26.556  47.716  1.00  0.00     0.002 C 
ATOM     12  C   UNL     1      -6.367  26.199  48.804  1.00  0.00     0.005 C 
ATOM     13  C   UNL     1      -4.020  25.909  48.176  1.00  0.00    -0.023 C 
ATOM     14  C   UNL     1      -5.998  24.775  49.166  1.00  0.00     0.009 C 
ATOM     15  C   UNL     1      -4.462  24.691  49.068  1.00  0.00     0.021 C 
ATOM     16  C   UNL     1      -3.193  25.493  46.925  1.00  0.00     0.008 C 
ATOM     17  C   UNL     1      -3.182  26.883  49.048  1.00  0.00     0.012 C 
ATOM     18  C   UNL     1      -3.986  23.310  48.609  1.00  0.00    -0.067 C 
ATOM     19  C   UNL     1      -2.143  24.445  47.264  1.00  0.00     0.009 C 
ATOM     20  C   UNL     1      -2.815  23.112  47.652  1.00  0.00     0.021 C 
ATOM     21  C   UNL     1      -4.524  22.200  49.152  1.00  0.00    -0.027 C 
ATOM     22  C   UNL     1      -1.815  22.033  48.226  1.00  0.00    -0.023 C 
ATOM     23  C   UNL     1      -4.133  20.843  48.645  1.00  0.00     0.031 C 
ATOM     24  C   UNL     1      -2.595  20.675  48.508  1.00  0.00     0.002 C 
ATOM     25  C   UNL     1      -0.654  21.806  47.204  1.00  0.00     0.010 C 
ATOM     26  C   UNL     1      -1.196  22.526  49.569  1.00  0.00     0.012 C 
ATOM     27  C   UNL     1      -2.305  19.596  47.442  1.00  0.00     0.036 C 
ATOM     28  C   UNL     1       0.105  20.496  47.449  1.00  0.00     0.032 C 
ATOM     29  C   UNL     1      -0.805  19.249  47.368  1.00  0.00     0.114 C 
BRANCH  29  30
ATOM     30  O   UNL     1      -0.544  18.560  46.173  1.00  0.00    -0.393 OA
ATOM     31  H   UNL     1      -1.408  18.478  45.691  1.00  0.00     0.210 HD
ENDBRANCH  29  30
ENDBRANCH   1  11
TORSDOF 6
ENDMDL
MODEL 9
REMARK VINA RESULT:    -7.304      2.036      4.497
REMARK INTER + INTRA:         -10.534
REMARK INTER:                  -9.534
REMARK INTRA:                  -1.000
REMARK UNBOUND:                -0.882
REMARK SMILES CC[C@H](C=C[C@H](C)[C@@H]1CC[C@H]2C3=CC[C@H]4C[C@@H](O)CC[C@@]4(C)[C@@H]3CC[C@]21C)C(C)C
REMARK SMILES IDX 6 1 7 2 5 3 4 4 3 5 2 6 1 7 28 8 29 9 30 10 8 11 9 12 26 13
REMARK SMILES IDX 10 14 11 15 25 16 27 17 12 18 24 19 23 20 13 21 21 22 14 23
REMARK SMILES IDX 15 24 20 25 22 26 16 27 19 28 17 29 18 30
REMARK H PARENT 18 31
REMARK Flexibility Score: inf
ROOT
ATOM      1  C   UNL     1      -4.008  23.706  49.729  1.00  0.00     0.012 C 
ATOM      2  C   UNL     1      -4.588  23.792  51.150  1.00  0.00     0.012 C 
ENDROOT
BRANCH   1   3
ATOM      3  C   UNL     1      -3.983  22.271  49.235  1.00  0.00    -0.028 C 
ATOM      4  C   UNL     1      -2.864  21.642  48.830  1.00  0.00    -0.027 C 
BRANCH   4   5
ATOM      5  C   UNL     1      -2.856  20.216  48.310  1.00  0.00     0.014 C 
BRANCH   5   6
ATOM      6  C   UNL     1      -4.301  19.647  48.271  1.00  0.00     0.004 C 
ATOM      7  C   UNL     1      -4.369  18.134  48.482  1.00  0.00     0.004 C 
ENDBRANCH   5   6
BRANCH   5   8
ATOM      8  C   UNL     1      -2.019  20.108  46.986  1.00  0.00    -0.011 C 
ATOM      9  C   UNL     1      -2.849  20.098  45.692  1.00  0.00     0.008 C 
ATOM     10  C   UNL     1      -1.062  18.906  47.006  1.00  0.00     0.008 C 
ENDBRANCH   5   8
ENDBRANCH   4   5
ENDBRANCH   1   3
BRANCH   1  11
ATOM     11  C   UNL     1      -4.693  24.731  48.764  1.00  0.00     0.002 C 
ATOM     12  C   UNL     1      -4.873  24.288  47.322  1.00  0.00     0.005 C 
ATOM     13  C   UNL     1      -4.073  26.164  48.673  1.00  0.00    -0.023 C 
ATOM     14  C   UNL     1      -5.337  25.550  46.622  1.00  0.00     0.009 C 
ATOM     15  C   UNL     1      -4.575  26.713  47.287  1.00  0.00     0.021 C 
ATOM     16  C   UNL     1      -4.553  27.013  49.886  1.00  0.00     0.008 C 
ATOM     17  C   UNL     1      -2.521  26.121  48.656  1.00  0.00     0.012 C 
ATOM     18  C   UNL     1      -5.406  27.999  47.331  1.00  0.00    -0.067 C 
ATOM     19  C   UNL     1      -4.414  28.505  49.623  1.00  0.00     0.009 C 
ATOM     20  C   UNL     1      -5.395  28.954  48.520  1.00  0.00     0.021 C 
ATOM     21  C   UNL     1      -6.088  28.394  46.237  1.00  0.00    -0.027 C 
ATOM     22  C   UNL     1      -5.173  30.438  48.029  1.00  0.00    -0.023 C 
ATOM     23  C   UNL     1      -6.979  29.600  46.296  1.00  0.00     0.031 C 
ATOM     24  C   UNL     1      -6.290  30.822  46.962  1.00  0.00     0.002 C 
ATOM     25  C   UNL     1      -5.223  31.403  49.258  1.00  0.00     0.010 C 
ATOM     26  C   UNL     1      -3.778  30.582  47.349  1.00  0.00     0.012 C 
ATOM     27  C   UNL     1      -7.376  31.747  47.552  1.00  0.00     0.036 C 
ATOM     28  C   UNL     1      -5.460  32.865  48.856  1.00  0.00     0.032 C 
ATOM     29  C   UNL     1      -6.782  33.067  48.082  1.00  0.00     0.114 C 
BRANCH  29  30
ATOM     30  O   UNL     1      -7.718  33.698  48.917  1.00  0.00    -0.393 OA
ATOM     31  H   UNL     1      -8.552  33.161  48.876  1.00  0.00     0.210 HD
ENDBRANCH  29  30
ENDBRANCH   1  11
TORSDOF 6
ENDMDL
