MODEL 1
REMARK VINA RESULT:    -4.081      0.000      0.000
REMARK INTER + INTRA:          -7.514
REMARK INTER:                  -6.468
REMARK INTRA:                  -1.047
REMARK UNBOUND:                -1.047
REMARK SMILES CCCCCCCCCCCC(=O)[O-]
REMARK SMILES IDX 7 1 8 2 9 3 10 4 11 5 12 6 13 7 14 8 6 9 5 10 4 11 3 12 2 13
REMARK SMILES IDX 1 14
REMARK H PARENT
REMARK Flexibility Score: inf
ROOT
ATOM      1  C   UNL     1      58.803  34.860  80.745  1.00  0.00     0.000 C 
ENDROOT
BRANCH   1   2
ATOM      2  C   UNL     1      59.006  33.837  79.620  1.00  0.00     0.000 C 
BRANCH   2   3
ATOM      3  C   UNL     1      57.738  33.697  78.768  1.00  0.00     0.000 C 
BRANCH   3   4
ATOM      4  C   UNL     1      58.076  33.207  77.355  1.00  0.00     0.006 C 
BRANCH   4   5
ATOM      5  C   UNL     1      58.327  31.696  77.342  1.00  0.00     0.053 C 
BRANCH   5   6
ATOM      6  C   UNL     1      57.880  31.101  76.045  1.00  0.00     0.041 C 
ATOM      7  O   UNL     1      57.422  31.839  75.134  1.00  0.00    -0.550 OA
ATOM      8  O   UNL     1      57.923  29.725  75.861  1.00  0.00    -0.550 OA
ENDBRANCH   5   6
ENDBRANCH   4   5
ENDBRANCH   3   4
ENDBRANCH   2   3
ENDBRANCH   1   2
BRANCH   1   9
ATOM      9  C   UNL     1      58.875  36.294  80.203  1.00  0.00     0.000 C 
BRANCH   9  10
ATOM     10  C   UNL     1      57.648  37.142  80.586  1.00  0.00    -0.000 C 
BRANCH  10  11
ATOM     11  C   UNL     1      56.662  37.418  79.436  1.00  0.00    -0.000 C 
BRANCH  11  12
ATOM     12  C   UNL     1      57.283  38.074  78.187  1.00  0.00    -0.000 C 
BRANCH  12  13
ATOM     13  C   UNL     1      57.318  37.149  76.951  1.00  0.00    -0.003 C 
ATOM     14  C   UNL     1      56.010  36.384  76.750  1.00  0.00     0.004 C 
ENDBRANCH  12  13
ENDBRANCH  11  12
ENDBRANCH  10  11
ENDBRANCH   9  10
ENDBRANCH   1   9
TORSDOF 10
ENDMDL
MODEL 2
REMARK VINA RESULT:    -4.022      3.091      6.030
REMARK INTER + INTRA:          -7.419
REMARK INTER:                  -6.792
REMARK INTRA:                  -0.627
REMARK UNBOUND:                -1.047
REMARK SMILES CCCCCCCCCCCC(=O)[O-]
REMARK SMILES IDX 7 1 8 2 9 3 10 4 11 5 12 6 13 7 14 8 6 9 5 10 4 11 3 12 2 13
REMARK SMILES IDX 1 14
REMARK H PARENT
REMARK Flexibility Score: inf
ROOT
ATOM      1  C   UNL     1      58.009  32.981  78.507  1.00  0.00     0.000 C 
ENDROOT
BRANCH   1   2
ATOM      2  C   UNL     1      57.830  33.571  79.911  1.00  0.00     0.000 C 
BRANCH   2   3
ATOM      3  C   UNL     1      59.117  34.254  80.390  1.00  0.00     0.000 C 
BRANCH   3   4
ATOM      4  C   UNL     1      58.819  35.640  80.974  1.00  0.00     0.006 C 
BRANCH   4   5
ATOM      5  C   UNL     1      58.664  36.682  79.863  1.00  0.00     0.053 C 
BRANCH   5   6
ATOM      6  C   UNL     1      57.244  37.142  79.770  1.00  0.00     0.041 C 
ATOM      7  O   UNL     1      56.597  37.417  80.814  1.00  0.00    -0.550 OA
ATOM      8  O   UNL     1      56.619  37.221  78.532  1.00  0.00    -0.550 OA
ENDBRANCH   5   6
ENDBRANCH   4   5
ENDBRANCH   3   4
ENDBRANCH   2   3
ENDBRANCH   1   2
BRANCH   1   9
ATOM      9  C   UNL     1      57.636  34.007  77.427  1.00  0.00     0.000 C 
BRANCH   9  10
ATOM     10  C   UNL     1      57.714  33.431  76.001  1.00  0.00    -0.000 C 
BRANCH  10  11
ATOM     11  C   UNL     1      58.116  31.947  75.918  1.00  0.00    -0.000 C 
BRANCH  11  12
ATOM     12  C   UNL     1      57.570  31.190  74.692  1.00  0.00    -0.000 C 
BRANCH  12  13
ATOM     13  C   UNL     1      56.909  29.839  75.038  1.00  0.00    -0.003 C 
ATOM     14  C   UNL     1      55.599  29.613  74.283  1.00  0.00     0.004 C 
ENDBRANCH  12  13
ENDBRANCH  11  12
ENDBRANCH  10  11
ENDBRANCH   9  10
ENDBRANCH   1   9
TORSDOF 10
ENDMDL
MODEL 3
REMARK VINA RESULT:    -4.020      0.900      1.495
REMARK INTER + INTRA:          -7.417
REMARK INTER:                  -6.362
REMARK INTRA:                  -1.055
REMARK UNBOUND:                -1.047
REMARK SMILES CCCCCCCCCCCC(=O)[O-]
REMARK SMILES IDX 7 1 8 2 9 3 10 4 11 5 12 6 13 7 14 8 6 9 5 10 4 11 3 12 2 13
REMARK SMILES IDX 1 14
REMARK H PARENT
REMARK Flexibility Score: inf
ROOT
ATOM      1  C   UNL     1      59.118  33.887  79.645  1.00  0.00     0.000 C 
ENDROOT
BRANCH   1   2
ATOM      2  C   UNL     1      57.823  33.314  79.057  1.00  0.00     0.000 C 
BRANCH   2   3
ATOM      3  C   UNL     1      57.967  33.059  77.552  1.00  0.00     0.000 C 
BRANCH   3   4
ATOM      4  C   UNL     1      58.479  31.639  77.281  1.00  0.00     0.006 C 
BRANCH   4   5
ATOM      5  C   UNL     1      58.802  31.445  75.796  1.00  0.00     0.053 C 
BRANCH   5   6
ATOM      6  C   UNL     1      57.543  31.311  74.999  1.00  0.00     0.041 C 
ATOM      7  O   UNL     1      57.201  32.218  74.197  1.00  0.00    -0.550 OA
ATOM      8  O   UNL     1      56.722  30.204  75.178  1.00  0.00    -0.550 OA
ENDBRANCH   5   6
ENDBRANCH   4   5
ENDBRANCH   3   4
ENDBRANCH   2   3
ENDBRANCH   1   2
BRANCH   1   9
ATOM      9  C   UNL     1      58.825  34.764  80.871  1.00  0.00     0.000 C 
BRANCH   9  10
ATOM     10  C   UNL     1      58.624  36.248  80.512  1.00  0.00    -0.000 C 
BRANCH  10  11
ATOM     11  C   UNL     1      59.210  36.674  79.152  1.00  0.00    -0.000 C 
BRANCH  11  12
ATOM     12  C   UNL     1      58.219  37.381  78.207  1.00  0.00    -0.000 C 
BRANCH  12  13
ATOM     13  C   UNL     1      56.773  36.852  78.312  1.00  0.00    -0.003 C 
ATOM     14  C   UNL     1      56.199  36.434  76.958  1.00  0.00     0.004 C 
ENDBRANCH  12  13
ENDBRANCH  11  12
ENDBRANCH  10  11
ENDBRANCH   9  10
ENDBRANCH   1   9
TORSDOF 10
ENDMDL
MODEL 4
REMARK VINA RESULT:    -3.965      1.571      2.816
REMARK INTER + INTRA:          -7.330
REMARK INTER:                  -6.477
REMARK INTRA:                  -0.852
REMARK UNBOUND:                -1.047
REMARK SMILES CCCCCCCCCCCC(=O)[O-]
REMARK SMILES IDX 7 1 8 2 9 3 10 4 11 5 12 6 13 7 14 8 6 9 5 10 4 11 3 12 2 13
REMARK SMILES IDX 1 14
REMARK H PARENT
REMARK Flexibility Score: inf
ROOT
ATOM      1  C   UNL     1      58.173  32.915  78.466  1.00  0.00     0.000 C 
ENDROOT
BRANCH   1   2
ATOM      2  C   UNL     1      58.002  33.883  77.289  1.00  0.00     0.000 C 
BRANCH   2   3
ATOM      3  C   UNL     1      57.652  33.128  76.001  1.00  0.00     0.000 C 
BRANCH   3   4
ATOM      4  C   UNL     1      57.969  31.635  76.135  1.00  0.00     0.006 C 
BRANCH   4   5
ATOM      5  C   UNL     1      57.673  30.891  74.830  1.00  0.00     0.053 C 
BRANCH   5   6
ATOM      6  C   UNL     1      56.795  29.708  75.088  1.00  0.00     0.041 C 
ATOM      7  O   UNL     1      57.166  28.805  75.883  1.00  0.00    -0.550 OA
ATOM      8  O   UNL     1      55.588  29.577  74.412  1.00  0.00    -0.550 OA
ENDBRANCH   5   6
ENDBRANCH   4   5
ENDBRANCH   3   4
ENDBRANCH   2   3
ENDBRANCH   1   2
BRANCH   1   9
ATOM      9  C   UNL     1      57.741  33.572  79.785  1.00  0.00     0.000 C 
BRANCH   9  10
ATOM     10  C   UNL     1      58.913  34.223  80.543  1.00  0.00    -0.000 C 
BRANCH  10  11
ATOM     11  C   UNL     1      58.782  35.742  80.763  1.00  0.00    -0.000 C 
BRANCH  11  12
ATOM     12  C   UNL     1      57.586  36.404  80.052  1.00  0.00    -0.000 C 
BRANCH  12  13
ATOM     13  C   UNL     1      57.993  37.414  78.958  1.00  0.00    -0.003 C 
ATOM     14  C   UNL     1      59.433  37.221  78.484  1.00  0.00     0.004 C 
ENDBRANCH  12  13
ENDBRANCH  11  12
ENDBRANCH  10  11
ENDBRANCH   9  10
ENDBRANCH   1   9
TORSDOF 10
ENDMDL
MODEL 5
REMARK VINA RESULT:    -3.945      3.415      6.549
REMARK INTER + INTRA:          -7.298
REMARK INTER:                  -6.367
REMARK INTRA:                  -0.932
REMARK UNBOUND:                -1.047
REMARK SMILES CCCCCCCCCCCC(=O)[O-]
REMARK SMILES IDX 7 1 8 2 9 3 10 4 11 5 12 6 13 7 14 8 6 9 5 10 4 11 3 12 2 13
REMARK SMILES IDX 1 14
REMARK H PARENT
REMARK Flexibility Score: inf
ROOT
ATOM      1  C   UNL     1      59.643  31.428  76.537  1.00  0.00     0.000 C 
ENDROOT
BRANCH   1   2
ATOM      2  C   UNL     1      58.370  31.650  77.362  1.00  0.00     0.000 C 
BRANCH   2   3
ATOM      3  C   UNL     1      57.984  33.134  77.391  1.00  0.00     0.000 C 
BRANCH   3   4
ATOM      4  C   UNL     1      57.697  33.600  78.824  1.00  0.00     0.006 C 
BRANCH   4   5
ATOM      5  C   UNL     1      58.999  33.886  79.579  1.00  0.00     0.053 C 
BRANCH   5   6
ATOM      6  C   UNL     1      58.964  35.253  80.185  1.00  0.00     0.041 C 
ATOM      7  O   UNL     1      58.952  36.273  79.448  1.00  0.00    -0.550 OA
ATOM      8  O   UNL     1      58.993  35.402  81.566  1.00  0.00    -0.550 OA
ENDBRANCH   5   6
ENDBRANCH   4   5
ENDBRANCH   3   4
ENDBRANCH   2   3
ENDBRANCH   1   2
BRANCH   1   9
ATOM      9  C   UNL     1      59.525  30.165  75.672  1.00  0.00     0.000 C 
BRANCH   9  10
ATOM     10  C   UNL     1      58.283  29.320  76.012  1.00  0.00    -0.000 C 
BRANCH  10  11
ATOM     11  C   UNL     1      57.381  28.975  74.812  1.00  0.00    -0.000 C 
BRANCH  11  12
ATOM     12  C   UNL     1      56.057  29.761  74.743  1.00  0.00    -0.000 C 
BRANCH  12  13
ATOM     13  C   UNL     1      55.967  30.723  73.540  1.00  0.00    -0.003 C 
ATOM     14  C   UNL     1      57.003  31.845  73.603  1.00  0.00     0.004 C 
ENDBRANCH  12  13
ENDBRANCH  11  12
ENDBRANCH  10  11
ENDBRANCH   9  10
ENDBRANCH   1   9
TORSDOF 10
ENDMDL
MODEL 6
REMARK VINA RESULT:    -3.937      3.295      6.311
REMARK INTER + INTRA:          -7.286
REMARK INTER:                  -6.687
REMARK INTRA:                  -0.598
REMARK UNBOUND:                -1.047
REMARK SMILES CCCCCCCCCCCC(=O)[O-]
REMARK SMILES IDX 7 1 8 2 9 3 10 4 11 5 12 6 13 7 14 8 6 9 5 10 4 11 3 12 2 13
REMARK SMILES IDX 1 14
REMARK H PARENT
REMARK Flexibility Score: inf
ROOT
ATOM      1  C   UNL     1      57.662  33.883  77.098  1.00  0.00     0.000 C 
ENDROOT
BRANCH   1   2
ATOM      2  C   UNL     1      57.978  32.851  78.188  1.00  0.00     0.000 C 
BRANCH   2   3
ATOM      3  C   UNL     1      58.932  33.434  79.239  1.00  0.00     0.000 C 
BRANCH   3   4
ATOM      4  C   UNL     1      58.153  34.054  80.404  1.00  0.00     0.006 C 
BRANCH   4   5
ATOM      5  C   UNL     1      58.971  35.154  81.088  1.00  0.00     0.053 C 
BRANCH   5   6
ATOM      6  C   UNL     1      58.641  36.492  80.507  1.00  0.00     0.041 C 
ATOM      7  O   UNL     1      57.860  37.271  81.113  1.00  0.00    -0.550 OA
ATOM      8  O   UNL     1      59.158  36.859  79.271  1.00  0.00    -0.550 OA
ENDBRANCH   5   6
ENDBRANCH   4   5
ENDBRANCH   3   4
ENDBRANCH   2   3
ENDBRANCH   1   2
BRANCH   1   9
ATOM      9  C   UNL     1      58.364  33.522  75.781  1.00  0.00     0.000 C 
BRANCH   9  10
ATOM     10  C   UNL     1      57.377  33.148  74.659  1.00  0.00    -0.000 C 
BRANCH  10  11
ATOM     11  C   UNL     1      57.502  31.705  74.135  1.00  0.00    -0.000 C 
BRANCH  11  12
ATOM     12  C   UNL     1      57.776  30.640  75.216  1.00  0.00    -0.000 C 
BRANCH  12  13
ATOM     13  C   UNL     1      56.920  29.365  75.064  1.00  0.00    -0.003 C 
ATOM     14  C   UNL     1      55.631  29.610  74.279  1.00  0.00     0.004 C 
ENDBRANCH  12  13
ENDBRANCH  11  12
ENDBRANCH  10  11
ENDBRANCH   9  10
ENDBRANCH   1   9
TORSDOF 10
ENDMDL
MODEL 7
REMARK VINA RESULT:    -3.877      2.088      4.828
REMARK INTER + INTRA:          -7.190
REMARK INTER:                  -6.143
REMARK INTRA:                  -1.047
REMARK UNBOUND:                -1.047
REMARK SMILES CCCCCCCCCCCC(=O)[O-]
REMARK SMILES IDX 7 1 8 2 9 3 10 4 11 5 12 6 13 7 14 8 6 9 5 10 4 11 3 12 2 13
REMARK SMILES IDX 1 14
REMARK H PARENT
REMARK Flexibility Score: inf
ROOT
ATOM      1  C   UNL     1      58.902  35.606  81.015  1.00  0.00     0.000 C 
ENDROOT
BRANCH   1   2
ATOM      2  C   UNL     1      58.225  36.976  80.891  1.00  0.00     0.000 C 
BRANCH   2   3
ATOM      3  C   UNL     1      57.001  36.904  79.971  1.00  0.00     0.000 C 
BRANCH   3   4
ATOM      4  C   UNL     1      57.251  37.660  78.661  1.00  0.00     0.006 C 
BRANCH   4   5
ATOM      5  C   UNL     1      57.208  36.710  77.461  1.00  0.00     0.053 C 
BRANCH   5   6
ATOM      6  C   UNL     1      58.592  36.398  76.989  1.00  0.00     0.041 C 
ATOM      7  O   UNL     1      59.589  36.897  77.573  1.00  0.00    -0.550 OA
ATOM      8  O   UNL     1      58.781  35.595  75.870  1.00  0.00    -0.550 OA
ENDBRANCH   5   6
ENDBRANCH   4   5
ENDBRANCH   3   4
ENDBRANCH   2   3
ENDBRANCH   1   2
BRANCH   1   9
ATOM      9  C   UNL     1      58.054  34.511  80.353  1.00  0.00     0.000 C 
BRANCH   9  10
ATOM     10  C   UNL     1      58.852  33.660  79.347  1.00  0.00    -0.000 C 
BRANCH  10  11
ATOM     11  C   UNL     1      57.999  32.915  78.304  1.00  0.00    -0.000 C 
BRANCH  11  12
ATOM     12  C   UNL     1      58.798  32.105  77.265  1.00  0.00    -0.000 C 
BRANCH  12  13
ATOM     13  C   UNL     1      58.000  30.947  76.629  1.00  0.00    -0.003 C 
ATOM     14  C   UNL     1      57.618  31.223  75.175  1.00  0.00     0.004 C 
ENDBRANCH  12  13
ENDBRANCH  11  12
ENDBRANCH  10  11
ENDBRANCH   9  10
ENDBRANCH   1   9
TORSDOF 10
ENDMDL
MODEL 8
REMARK VINA RESULT:    -3.792      1.625      2.557
REMARK INTER + INTRA:          -7.056
REMARK INTER:                  -6.103
REMARK INTRA:                  -0.953
REMARK UNBOUND:                -1.047
REMARK SMILES CCCCCCCCCCCC(=O)[O-]
REMARK SMILES IDX 7 1 8 2 9 3 10 4 11 5 12 6 13 7 14 8 6 9 5 10 4 11 3 12 2 13
REMARK SMILES IDX 1 14
REMARK H PARENT
REMARK Flexibility Score: inf
ROOT
ATOM      1  C   UNL     1      58.372  36.596  80.800  1.00  0.00     0.000 C 
ENDROOT
BRANCH   1   2
ATOM      2  C   UNL     1      59.094  35.263  81.030  1.00  0.00     0.000 C 
BRANCH   2   3
ATOM      3  C   UNL     1      58.299  34.095  80.434  1.00  0.00     0.000 C 
BRANCH   3   4
ATOM      4  C   UNL     1      59.007  33.520  79.201  1.00  0.00     0.006 C 
BRANCH   4   5
ATOM      5  C   UNL     1      58.020  32.768  78.303  1.00  0.00     0.053 C 
BRANCH   5   6
ATOM      6  C   UNL     1      57.915  33.434  76.968  1.00  0.00     0.041 C 
ATOM      7  O   UNL     1      57.636  32.759  75.942  1.00  0.00    -0.550 OA
ATOM      8  O   UNL     1      58.175  34.794  76.846  1.00  0.00    -0.550 OA
ENDBRANCH   5   6
ENDBRANCH   4   5
ENDBRANCH   3   4
ENDBRANCH   2   3
ENDBRANCH   1   2
BRANCH   1   9
ATOM      9  C   UNL     1      57.163  36.413  79.872  1.00  0.00     0.000 C 
BRANCH   9  10
ATOM     10  C   UNL     1      56.680  37.736  79.248  1.00  0.00    -0.000 C 
BRANCH  10  11
ATOM     11  C   UNL     1      57.201  38.014  77.826  1.00  0.00    -0.000 C 
BRANCH  11  12
ATOM     12  C   UNL     1      58.189  39.191  77.710  1.00  0.00    -0.000 C 
BRANCH  12  13
ATOM     13  C   UNL     1      59.553  38.802  77.102  1.00  0.00    -0.003 C 
ATOM     14  C   UNL     1      60.220  37.643  77.842  1.00  0.00     0.004 C 
ENDBRANCH  12  13
ENDBRANCH  11  12
ENDBRANCH  10  11
ENDBRANCH   9  10
ENDBRANCH   1   9
TORSDOF 10
ENDMDL
MODEL 9
REMARK VINA RESULT:    -3.778      2.015      3.919
REMARK INTER + INTRA:          -7.034
REMARK INTER:                  -5.640
REMARK INTRA:                  -1.394
REMARK UNBOUND:                -1.047
REMARK SMILES CCCCCCCCCCCC(=O)[O-]
REMARK SMILES IDX 7 1 8 2 9 3 10 4 11 5 12 6 13 7 14 8 6 9 5 10 4 11 3 12 2 13
REMARK SMILES IDX 1 14
REMARK H PARENT
REMARK Flexibility Score: inf
ROOT
ATOM      1  C   UNL     1      58.629  37.050  77.608  1.00  0.00     0.000 C 
ENDROOT
BRANCH   1   2
ATOM      2  C   UNL     1      57.195  37.428  77.999  1.00  0.00     0.000 C 
BRANCH   2   3
ATOM      3  C   UNL     1      56.179  36.479  77.353  1.00  0.00     0.000 C 
BRANCH   3   4
ATOM      4  C   UNL     1      56.330  36.466  75.828  1.00  0.00     0.006 C 
BRANCH   4   5
ATOM      5  C   UNL     1      56.438  35.033  75.299  1.00  0.00     0.053 C 
BRANCH   5   6
ATOM      6  C   UNL     1      57.678  34.868  74.479  1.00  0.00     0.041 C 
ATOM      7  O   UNL     1      58.796  34.731  75.042  1.00  0.00    -0.550 OA
ATOM      8  O   UNL     1      57.606  34.915  73.092  1.00  0.00    -0.550 OA
ENDBRANCH   5   6
ENDBRANCH   4   5
ENDBRANCH   3   4
ENDBRANCH   2   3
ENDBRANCH   1   2
BRANCH   1   9
ATOM      9  C   UNL     1      59.490  36.798  78.853  1.00  0.00     0.000 C 
BRANCH   9  10
ATOM     10  C   UNL     1      58.672  36.797  80.158  1.00  0.00    -0.000 C 
BRANCH  10  11
ATOM     11  C   UNL     1      58.760  35.499  80.982  1.00  0.00    -0.000 C 
BRANCH  11  12
ATOM     12  C   UNL     1      59.075  34.229  80.167  1.00  0.00    -0.000 C 
BRANCH  12  13
ATOM     13  C   UNL     1      57.821  33.500  79.641  1.00  0.00    -0.003 C 
ATOM     14  C   UNL     1      57.908  33.178  78.149  1.00  0.00     0.004 C 
ENDBRANCH  12  13
ENDBRANCH  11  12
ENDBRANCH  10  11
ENDBRANCH   9  10
ENDBRANCH   1   9
TORSDOF 10
ENDMDL
