MODEL 1
REMARK VINA RESULT:    -5.081      0.000      0.000
REMARK INTER + INTRA:          -6.426
REMARK INTER:                  -6.121
REMARK INTRA:                  -0.305
REMARK UNBOUND:                -0.305
REMARK SMILES O=c1c(O)c(-c2ccc(O)c(O)c2)oc2cc(O)cc(O)c12
REMARK SMILES IDX 5 1 3 2 2 3 1 4 22 5 20 6 19 7 17 8 16 9 15 10 14 11 6 12
REMARK SMILES IDX 7 13 8 14 9 15 13 16 11 17 10 18 12 20 4 22 21 24 18 26
REMARK H PARENT 10 19 12 21 4 23 21 25 18 27
REMARK Flexibility Score: inf
ROOT
ATOM      1  C   UNL     1       3.677   9.095   0.109  1.00  0.00     0.180 A 
ATOM      2  C   UNL     1       4.935   8.841  -0.464  1.00  0.00     0.208 A 
ATOM      3  C   UNL     1       5.083   8.944  -1.856  1.00  0.00     0.238 A 
ATOM      4  O   UNL     1       6.197   8.661  -2.368  1.00  0.00    -0.285 OA
ATOM      5  C   UNL     1       3.975   9.315  -2.657  1.00  0.00     0.111 A 
ATOM      6  C   UNL     1       4.020   9.489  -4.072  1.00  0.00     0.134 A 
ATOM      7  C   UNL     1       2.835   9.731  -4.777  1.00  0.00     0.093 A 
ATOM      8  C   UNL     1       1.617   9.869  -4.112  1.00  0.00     0.123 A 
ATOM      9  C   UNL     1       1.570   9.761  -2.721  1.00  0.00     0.094 A 
ATOM     10  C   UNL     1       2.731   9.484  -1.994  1.00  0.00     0.146 A 
ATOM     11  O   UNL     1       2.642   9.378  -0.674  1.00  0.00    -0.452 OA
ENDROOT
BRANCH   1  12
ATOM     12  C   UNL     1       3.449   9.032   1.571  1.00  0.00     0.025 A 
ATOM     13  C   UNL     1       3.811  10.125   2.374  1.00  0.00     0.016 A 
ATOM     14  C   UNL     1       3.625  10.080   3.758  1.00  0.00     0.051 A 
ATOM     15  C   UNL     1       3.089   8.938   4.362  1.00  0.00     0.157 A 
ATOM     16  C   UNL     1       2.930   7.877   2.183  1.00  0.00     0.062 A 
ATOM     17  C   UNL     1       2.743   7.828   3.572  1.00  0.00     0.158 A 
BRANCH  15  18
ATOM     18  O   UNL     1       2.912   8.922   5.745  1.00  0.00    -0.504 OA
ATOM     19  H   UNL     1       2.667   9.756   6.266  1.00  0.00     0.293 HD
ENDBRANCH  15  18
BRANCH  17  20
ATOM     20  O   UNL     1       2.223   6.682   4.169  1.00  0.00    -0.504 OA
ATOM     21  H   UNL     1       1.443   6.727   4.815  1.00  0.00     0.293 HD
ENDBRANCH  17  20
ENDBRANCH   1  12
BRANCH   2  22
ATOM     22  O   UNL     1       6.009   8.454   0.342  1.00  0.00    -0.502 OA
ATOM     23  H   UNL     1       6.194   8.880   1.242  1.00  0.00     0.293 HD
ENDBRANCH   2  22
BRANCH   6  24
ATOM     24  O   UNL     1       5.198   9.461  -4.825  1.00  0.00    -0.507 OA
ATOM     25  H   UNL     1       5.236   9.357  -5.828  1.00  0.00     0.293 HD
ENDBRANCH   6  24
BRANCH   8  26
ATOM     26  O   UNL     1       0.459  10.124  -4.843  1.00  0.00    -0.508 OA
ATOM     27  H   UNL     1      -0.354  10.550  -4.415  1.00  0.00     0.293 HD
ENDBRANCH   8  26
TORSDOF 6
ENDMDL
MODEL 2
REMARK VINA RESULT:    -5.077      1.865      7.355
REMARK INTER + INTRA:          -6.421
REMARK INTER:                  -6.735
REMARK INTRA:                   0.314
REMARK UNBOUND:                -0.305
REMARK SMILES O=c1c(O)c(-c2ccc(O)c(O)c2)oc2cc(O)cc(O)c12
REMARK SMILES IDX 5 1 3 2 2 3 1 4 22 5 20 6 19 7 17 8 16 9 15 10 14 11 6 12
REMARK SMILES IDX 7 13 8 14 9 15 13 16 11 17 10 18 12 20 4 22 21 24 18 26
REMARK H PARENT 10 19 12 21 4 23 21 25 18 27
REMARK Flexibility Score: inf
ROOT
ATOM      1  C   UNL     1       3.800   9.049  -2.077  1.00  0.00     0.180 A 
ATOM      2  C   UNL     1       2.554   9.480  -1.588  1.00  0.00     0.208 A 
ATOM      3  C   UNL     1       2.221   9.220  -0.249  1.00  0.00     0.238 A 
ATOM      4  O   UNL     1       1.083   9.561   0.167  1.00  0.00    -0.285 OA
ATOM      5  C   UNL     1       3.142   8.546   0.589  1.00  0.00     0.111 A 
ATOM      6  C   UNL     1       2.926   8.265   1.970  1.00  0.00     0.134 A 
ATOM      7  C   UNL     1       3.850   7.477   2.669  1.00  0.00     0.093 A 
ATOM      8  C   UNL     1       5.013   7.016   2.053  1.00  0.00     0.123 A 
ATOM      9  C   UNL     1       5.264   7.336   0.718  1.00  0.00     0.094 A 
ATOM     10  C   UNL     1       4.343   8.089  -0.014  1.00  0.00     0.146 A 
ATOM     11  O   UNL     1       4.614   8.362  -1.285  1.00  0.00    -0.452 OA
ENDROOT
BRANCH   1  12
ATOM     12  C   UNL     1       4.233   9.309  -3.469  1.00  0.00     0.025 A 
ATOM     13  C   UNL     1       5.598   9.469  -3.748  1.00  0.00     0.016 A 
ATOM     14  C   UNL     1       6.029   9.736  -5.050  1.00  0.00     0.051 A 
ATOM     15  C   UNL     1       5.101   9.861  -6.090  1.00  0.00     0.157 A 
ATOM     16  C   UNL     1       3.300   9.455  -4.511  1.00  0.00     0.062 A 
ATOM     17  C   UNL     1       3.729   9.724  -5.819  1.00  0.00     0.158 A 
BRANCH  15  18
ATOM     18  O   UNL     1       5.559  10.125  -7.379  1.00  0.00    -0.504 OA
ATOM     19  H   UNL     1       6.512   9.931  -7.662  1.00  0.00     0.293 HD
ENDBRANCH  15  18
BRANCH  17  20
ATOM     20  O   UNL     1       2.798   9.863  -6.847  1.00  0.00    -0.504 OA
ATOM     21  H   UNL     1       2.645   9.127  -7.527  1.00  0.00     0.293 HD
ENDBRANCH  17  20
ENDBRANCH   1  12
BRANCH   2  22
ATOM     22  O   UNL     1       1.651  10.125  -2.437  1.00  0.00    -0.502 OA
ATOM     23  H   UNL     1       0.700  10.335  -2.160  1.00  0.00     0.293 HD
ENDBRANCH   2  22
BRANCH   6  24
ATOM     24  O   UNL     1       1.842   8.753   2.706  1.00  0.00    -0.507 OA
ATOM     25  H   UNL     1       0.892   8.796   2.370  1.00  0.00     0.293 HD
ENDBRANCH   6  24
BRANCH   8  26
ATOM     26  O   UNL     1       5.918   6.248   2.782  1.00  0.00    -0.508 OA
ATOM     27  H   UNL     1       6.056   6.391   3.775  1.00  0.00     0.293 HD
ENDBRANCH   8  26
TORSDOF 6
ENDMDL
MODEL 3
REMARK VINA RESULT:    -4.534      1.713      7.334
REMARK INTER + INTRA:          -5.766
REMARK INTER:                  -6.288
REMARK INTRA:                   0.521
REMARK UNBOUND:                -0.305
REMARK SMILES O=c1c(O)c(-c2ccc(O)c(O)c2)oc2cc(O)cc(O)c12
REMARK SMILES IDX 5 1 3 2 2 3 1 4 22 5 20 6 19 7 17 8 16 9 15 10 14 11 6 12
REMARK SMILES IDX 7 13 8 14 9 15 13 16 11 17 10 18 12 20 4 22 21 24 18 26
REMARK H PARENT 10 19 12 21 4 23 21 25 18 27
REMARK Flexibility Score: inf
ROOT
ATOM      1  C   UNL     1       3.379   9.224  -1.801  1.00  0.00     0.180 A 
ATOM      2  C   UNL     1       2.244   9.577  -1.051  1.00  0.00     0.208 A 
ATOM      3  C   UNL     1       2.239   9.336   0.332  1.00  0.00     0.238 A 
ATOM      4  O   UNL     1       1.199   9.603   0.989  1.00  0.00    -0.285 OA
ATOM      5  C   UNL     1       3.376   8.760   0.951  1.00  0.00     0.111 A 
ATOM      6  C   UNL     1       3.496   8.508   2.350  1.00  0.00     0.134 A 
ATOM      7  C   UNL     1       4.613   7.816   2.834  1.00  0.00     0.093 A 
ATOM      8  C   UNL     1       5.643   7.424   1.979  1.00  0.00     0.123 A 
ATOM      9  C   UNL     1       5.563   7.718   0.616  1.00  0.00     0.094 A 
ATOM     10  C   UNL     1       4.444   8.375   0.100  1.00  0.00     0.146 A 
ATOM     11  O   UNL     1       4.402   8.626  -1.203  1.00  0.00    -0.452 OA
ENDROOT
BRANCH   1  12
ATOM     12  C   UNL     1       3.468   9.471  -3.259  1.00  0.00     0.025 A 
ATOM     13  C   UNL     1       2.319   9.855  -3.966  1.00  0.00     0.016 A 
ATOM     14  C   UNL     1       2.374  10.074  -5.344  1.00  0.00     0.051 A 
ATOM     15  C   UNL     1       3.575   9.898  -6.040  1.00  0.00     0.157 A 
ATOM     16  C   UNL     1       4.670   9.274  -3.963  1.00  0.00     0.062 A 
ATOM     17  C   UNL     1       4.728   9.491  -5.347  1.00  0.00     0.158 A 
BRANCH  15  18
ATOM     18  O   UNL     1       3.602  10.125  -7.415  1.00  0.00    -0.504 OA
ATOM     19  H   UNL     1       3.594  11.059  -7.806  1.00  0.00     0.293 HD
ENDBRANCH  15  18
BRANCH  17  20
ATOM     20  O   UNL     1       5.924   9.299  -6.037  1.00  0.00    -0.504 OA
ATOM     21  H   UNL     1       6.040   9.608  -6.996  1.00  0.00     0.293 HD
ENDBRANCH  17  20
ENDBRANCH   1  12
BRANCH   2  22
ATOM     22  O   UNL     1       1.124  10.124  -1.685  1.00  0.00    -0.502 OA
ATOM     23  H   UNL     1       0.437  10.680  -1.190  1.00  0.00     0.293 HD
ENDBRANCH   2  22
BRANCH   6  24
ATOM     24  O   UNL     1       2.569   8.938   3.303  1.00  0.00    -0.507 OA
ATOM     25  H   UNL     1       1.780   9.537   3.108  1.00  0.00     0.293 HD
ENDBRANCH   6  24
BRANCH   8  26
ATOM     26  O   UNL     1       6.747   6.750   2.496  1.00  0.00    -0.508 OA
ATOM     27  H   UNL     1       6.859   5.750   2.380  1.00  0.00     0.293 HD
ENDBRANCH   8  26
TORSDOF 6
ENDMDL
MODEL 4
REMARK VINA RESULT:    -3.714      1.669      6.933
REMARK INTER + INTRA:          -4.779
REMARK INTER:                  -5.065
REMARK INTRA:                   0.286
REMARK UNBOUND:                -0.305
REMARK SMILES O=c1c(O)c(-c2ccc(O)c(O)c2)oc2cc(O)cc(O)c12
REMARK SMILES IDX 5 1 3 2 2 3 1 4 22 5 20 6 19 7 17 8 16 9 15 10 14 11 6 12
REMARK SMILES IDX 7 13 8 14 9 15 13 16 11 17 10 18 12 20 4 22 21 24 18 26
REMARK H PARENT 10 19 12 21 4 23 21 25 18 27
REMARK Flexibility Score: inf
ROOT
ATOM      1  C   UNL     1       4.381   9.501  -2.025  1.00  0.00     0.180 A 
ATOM      2  C   UNL     1       5.681   9.694  -1.525  1.00  0.00     0.208 A 
ATOM      3  C   UNL     1       5.923   9.484  -0.158  1.00  0.00     0.238 A 
ATOM      4  O   UNL     1       7.076   9.711   0.293  1.00  0.00    -0.285 OA
ATOM      5  C   UNL     1       4.867   9.069   0.689  1.00  0.00     0.111 A 
ATOM      6  C   UNL     1       5.007   8.789   2.081  1.00  0.00     0.134 A 
ATOM      7  C   UNL     1       3.869   8.511   2.849  1.00  0.00     0.093 A 
ATOM      8  C   UNL     1       2.606   8.441   2.263  1.00  0.00     0.123 A 
ATOM      9  C   UNL     1       2.465   8.655   0.890  1.00  0.00     0.094 A 
ATOM     10  C   UNL     1       3.577   8.969   0.106  1.00  0.00     0.146 A 
ATOM     11  O   UNL     1       3.398   9.176  -1.193  1.00  0.00    -0.452 OA
ENDROOT
BRANCH   1  12
ATOM     12  C   UNL     1       4.053   9.678  -3.458  1.00  0.00     0.025 A 
ATOM     13  C   UNL     1       2.734   9.970  -3.834  1.00  0.00     0.016 A 
ATOM     14  C   UNL     1       2.397  10.121  -5.182  1.00  0.00     0.051 A 
ATOM     15  C   UNL     1       3.371   9.967  -6.174  1.00  0.00     0.157 A 
ATOM     16  C   UNL     1       5.026   9.503  -4.459  1.00  0.00     0.062 A 
ATOM     17  C   UNL     1       4.692   9.652  -5.813  1.00  0.00     0.158 A 
BRANCH  15  18
ATOM     18  O   UNL     1       3.007  10.125  -7.511  1.00  0.00    -0.504 OA
ATOM     19  H   UNL     1       2.268   9.578  -7.936  1.00  0.00     0.293 HD
ENDBRANCH  15  18
BRANCH  17  20
ATOM     20  O   UNL     1       5.663   9.482  -6.798  1.00  0.00    -0.504 OA
ATOM     21  H   UNL     1       5.505   9.777  -7.755  1.00  0.00     0.293 HD
ENDBRANCH  17  20
ENDBRANCH   1  12
BRANCH   2  22
ATOM     22  O   UNL     1       6.703  10.125  -2.374  1.00  0.00    -0.502 OA
ATOM     23  H   UNL     1       7.437  10.752  -2.067  1.00  0.00     0.293 HD
ENDBRANCH   2  22
BRANCH   6  24
ATOM     24  O   UNL     1       6.235   8.742   2.748  1.00  0.00    -0.507 OA
ATOM     25  H   UNL     1       6.373   8.994   3.716  1.00  0.00     0.293 HD
ENDBRANCH   6  24
BRANCH   8  26
ATOM     26  O   UNL     1       1.497   8.148   3.053  1.00  0.00    -0.508 OA
ATOM     27  H   UNL     1       1.593   7.697   3.955  1.00  0.00     0.293 HD
ENDBRANCH   8  26
TORSDOF 6
ENDMDL
