MODEL 1
REMARK VINA RESULT:    -6.926      0.000      0.000
REMARK INTER + INTRA:         -13.555
REMARK INTER:                 -12.595
REMARK INTRA:                  -0.960
REMARK UNBOUND:                -0.960
REMARK SMILES CCCCCCCCCCCCCCCC(=O)[O-]
REMARK SMILES IDX 9 1 10 2 11 3 12 4 13 5 14 6 15 7 16 8 17 9 18 10 8 11 7 12
REMARK SMILES IDX 6 13 5 14 4 15 3 16 2 17 1 18
REMARK H PARENT
REMARK Flexibility Score: inf
ROOT
ATOM      1  C   UNL     1       8.576  -6.780   3.539  1.00  0.00     0.000 C 
ENDROOT
BRANCH   1   2
ATOM      2  C   UNL     1       8.830  -6.090   4.890  1.00  0.00     0.000 C 
BRANCH   2   3
ATOM      3  C   UNL     1      10.032  -6.683   5.645  1.00  0.00     0.000 C 
BRANCH   3   4
ATOM      4  C   UNL     1       9.765  -7.037   7.121  1.00  0.00     0.000 C 
BRANCH   4   5
ATOM      5  C   UNL     1       9.702  -5.811   8.055  1.00  0.00     0.000 C 
BRANCH   5   6
ATOM      6  C   UNL     1       8.472  -5.846   8.979  1.00  0.00     0.006 C 
BRANCH   6   7
ATOM      7  C   UNL     1       7.156  -5.717   8.201  1.00  0.00     0.053 C 
BRANCH   7   8
ATOM      8  C   UNL     1       5.974  -5.635   9.118  1.00  0.00     0.041 C 
ATOM      9  O   UNL     1       5.650  -6.625   9.824  1.00  0.00    -0.550 OA
ATOM     10  O   UNL     1       5.211  -4.476   9.167  1.00  0.00    -0.550 OA
ENDBRANCH   7   8
ENDBRANCH   6   7
ENDBRANCH   5   6
ENDBRANCH   4   5
ENDBRANCH   3   4
ENDBRANCH   2   3
ENDBRANCH   1   2
BRANCH   1  11
ATOM     11  C   UNL     1       9.662  -6.456   2.500  1.00  0.00     0.000 C 
BRANCH  11  12
ATOM     12  C   UNL     1       9.078  -6.091   1.125  1.00  0.00    -0.000 C 
BRANCH  12  13
ATOM     13  C   UNL     1       7.910  -5.096   1.227  1.00  0.00    -0.000 C 
BRANCH  13  14
ATOM     14  C   UNL     1       7.989  -3.985   0.165  1.00  0.00    -0.000 C 
BRANCH  14  15
ATOM     15  C   UNL     1       8.950  -2.854   0.564  1.00  0.00    -0.000 C 
BRANCH  15  16
ATOM     16  C   UNL     1      10.075  -2.645  -0.459  1.00  0.00    -0.000 C 
BRANCH  16  17
ATOM     17  C   UNL     1       9.966  -3.655  -1.608  1.00  0.00    -0.003 C 
ATOM     18  C   UNL     1      10.851  -3.251  -2.784  1.00  0.00     0.004 C 
ENDBRANCH  16  17
ENDBRANCH  15  16
ENDBRANCH  14  15
ENDBRANCH  13  14
ENDBRANCH  12  13
ENDBRANCH  11  12
ENDBRANCH   1  11
TORSDOF 14
ENDMDL
MODEL 2
REMARK VINA RESULT:    -6.871      4.887      8.382
REMARK INTER + INTRA:         -13.455
REMARK INTER:                 -11.496
REMARK INTRA:                  -1.959
REMARK UNBOUND:                -0.960
REMARK SMILES CCCCCCCCCCCCCCCC(=O)[O-]
REMARK SMILES IDX 9 1 10 2 11 3 12 4 13 5 14 6 15 7 16 8 17 9 18 10 8 11 7 12
REMARK SMILES IDX 6 13 5 14 4 15 3 16 2 17 1 18
REMARK H PARENT
REMARK Flexibility Score: inf
ROOT
ATOM      1  C   UNL     1       7.455  -1.356   2.160  1.00  0.00     0.000 C 
ENDROOT
BRANCH   1   2
ATOM      2  C   UNL     1       8.857  -0.842   2.527  1.00  0.00     0.000 C 
BRANCH   2   3
ATOM      3  C   UNL     1       9.809  -0.797   1.319  1.00  0.00     0.000 C 
BRANCH   3   4
ATOM      4  C   UNL     1      10.160  -2.170   0.714  1.00  0.00     0.000 C 
BRANCH   4   5
ATOM      5  C   UNL     1       9.877  -2.276  -0.799  1.00  0.00     0.000 C 
BRANCH   5   6
ATOM      6  C   UNL     1      10.679  -3.408  -1.463  1.00  0.00     0.006 C 
BRANCH   6   7
ATOM      7  C   UNL     1      10.524  -3.414  -2.989  1.00  0.00     0.053 C 
BRANCH   7   8
ATOM      8  C   UNL     1       9.743  -4.601  -3.465  1.00  0.00     0.041 C 
ATOM      9  O   UNL     1       8.631  -4.878  -2.944  1.00  0.00    -0.550 OA
ATOM     10  O   UNL     1      10.260  -5.419  -4.460  1.00  0.00    -0.550 OA
ENDBRANCH   7   8
ENDBRANCH   6   7
ENDBRANCH   5   6
ENDBRANCH   4   5
ENDBRANCH   3   4
ENDBRANCH   2   3
ENDBRANCH   1   2
BRANCH   1  11
ATOM     11  C   UNL     1       7.070  -2.622   2.943  1.00  0.00     0.000 C 
BRANCH  11  12
ATOM     12  C   UNL     1       6.394  -3.685   2.059  1.00  0.00    -0.000 C 
BRANCH  12  13
ATOM     13  C   UNL     1       7.205  -3.999   0.792  1.00  0.00    -0.000 C 
BRANCH  13  14
ATOM     14  C   UNL     1       7.377  -5.512   0.563  1.00  0.00    -0.000 C 
BRANCH  14  15
ATOM     15  C   UNL     1       8.829  -5.976   0.754  1.00  0.00    -0.000 C 
BRANCH  15  16
ATOM     16  C   UNL     1       9.340  -5.745   2.184  1.00  0.00    -0.000 C 
BRANCH  16  17
ATOM     17  C   UNL     1       8.571  -6.610   3.188  1.00  0.00    -0.003 C 
ATOM     18  C   UNL     1       8.440  -5.907   4.536  1.00  0.00     0.004 C 
ENDBRANCH  16  17
ENDBRANCH  15  16
ENDBRANCH  14  15
ENDBRANCH  13  14
ENDBRANCH  12  13
ENDBRANCH  11  12
ENDBRANCH   1  11
TORSDOF 14
ENDMDL
MODEL 3
REMARK VINA RESULT:    -6.867      1.192      2.409
REMARK INTER + INTRA:         -13.448
REMARK INTER:                 -12.114
REMARK INTRA:                  -1.334
REMARK UNBOUND:                -0.960
REMARK SMILES CCCCCCCCCCCCCCCC(=O)[O-]
REMARK SMILES IDX 9 1 10 2 11 3 12 4 13 5 14 6 15 7 16 8 17 9 18 10 8 11 7 12
REMARK SMILES IDX 6 13 5 14 4 15 3 16 2 17 1 18
REMARK H PARENT
REMARK Flexibility Score: inf
ROOT
ATOM      1  C   UNL     1       9.774  -5.675   2.345  1.00  0.00     0.000 C 
ENDROOT
BRANCH   1   2
ATOM      2  C   UNL     1       8.609  -5.521   3.339  1.00  0.00     0.000 C 
BRANCH   2   3
ATOM      3  C   UNL     1       8.652  -6.561   4.472  1.00  0.00     0.000 C 
BRANCH   3   4
ATOM      4  C   UNL     1       9.973  -6.606   5.264  1.00  0.00     0.000 C 
BRANCH   4   5
ATOM      5  C   UNL     1       9.781  -6.686   6.793  1.00  0.00     0.000 C 
BRANCH   5   6
ATOM      6  C   UNL     1       8.333  -6.381   7.215  1.00  0.00     0.006 C 
BRANCH   6   7
ATOM      7  C   UNL     1       8.257  -5.723   8.598  1.00  0.00     0.053 C 
BRANCH   7   8
ATOM      8  C   UNL     1       6.841  -5.447   9.005  1.00  0.00     0.041 C 
ATOM      9  O   UNL     1       6.176  -4.553   8.421  1.00  0.00    -0.550 OA
ATOM     10  O   UNL     1       6.269  -6.157  10.052  1.00  0.00    -0.550 OA
ENDBRANCH   7   8
ENDBRANCH   6   7
ENDBRANCH   5   6
ENDBRANCH   4   5
ENDBRANCH   3   4
ENDBRANCH   2   3
ENDBRANCH   1   2
BRANCH   1  11
ATOM     11  C   UNL     1      10.599  -4.387   2.203  1.00  0.00     0.000 C 
BRANCH  11  12
ATOM     12  C   UNL     1       9.734  -3.162   1.857  1.00  0.00    -0.000 C 
BRANCH  12  13
ATOM     13  C   UNL     1      10.440  -2.196   0.892  1.00  0.00    -0.000 C 
BRANCH  13  14
ATOM     14  C   UNL     1       9.848  -2.244  -0.528  1.00  0.00    -0.000 C 
BRANCH  14  15
ATOM     15  C   UNL     1      10.461  -3.361  -1.386  1.00  0.00    -0.000 C 
BRANCH  15  16
ATOM     16  C   UNL     1       9.399  -4.209  -2.100  1.00  0.00    -0.000 C 
BRANCH  16  17
ATOM     17  C   UNL     1       8.834  -5.283  -1.163  1.00  0.00    -0.003 C 
ATOM     18  C   UNL     1       7.513  -4.835  -0.544  1.00  0.00     0.004 C 
ENDBRANCH  16  17
ENDBRANCH  15  16
ENDBRANCH  14  15
ENDBRANCH  13  14
ENDBRANCH  12  13
ENDBRANCH  11  12
ENDBRANCH   1  11
TORSDOF 14
ENDMDL
MODEL 4
REMARK VINA RESULT:    -6.786      6.546      9.336
REMARK INTER + INTRA:         -13.299
REMARK INTER:                 -11.850
REMARK INTRA:                  -1.450
REMARK UNBOUND:                -0.960
REMARK SMILES CCCCCCCCCCCCCCCC(=O)[O-]
REMARK SMILES IDX 9 1 10 2 11 3 12 4 13 5 14 6 15 7 16 8 17 9 18 10 8 11 7 12
REMARK SMILES IDX 6 13 5 14 4 15 3 16 2 17 1 18
REMARK H PARENT
REMARK Flexibility Score: inf
ROOT
ATOM      1  C   UNL     1       9.849   0.250   2.714  1.00  0.00     0.000 C 
ENDROOT
BRANCH   1   2
ATOM      2  C   UNL     1       8.632  -0.352   1.991  1.00  0.00     0.000 C 
BRANCH   2   3
ATOM      3  C   UNL     1       8.570  -1.885   2.104  1.00  0.00     0.000 C 
BRANCH   3   4
ATOM      4  C   UNL     1       8.664  -2.642   0.765  1.00  0.00     0.000 C 
BRANCH   4   5
ATOM      5  C   UNL     1      10.078  -2.645   0.148  1.00  0.00     0.000 C 
BRANCH   5   6
ATOM      6  C   UNL     1      10.069  -3.087  -1.326  1.00  0.00     0.006 C 
BRANCH   6   7
ATOM      7  C   UNL     1       9.145  -4.287  -1.568  1.00  0.00     0.053 C 
BRANCH   7   8
ATOM      8  C   UNL     1       9.346  -4.878  -2.930  1.00  0.00     0.041 C 
ATOM      9  O   UNL     1       9.048  -6.081  -3.149  1.00  0.00    -0.550 OA
ATOM     10  O   UNL     1       9.894  -4.108  -3.947  1.00  0.00    -0.550 OA
ENDBRANCH   7   8
ENDBRANCH   6   7
ENDBRANCH   5   6
ENDBRANCH   4   5
ENDBRANCH   3   4
ENDBRANCH   2   3
ENDBRANCH   1   2
BRANCH   1  11
ATOM     11  C   UNL     1      10.968   0.656   1.741  1.00  0.00     0.000 C 
BRANCH  11  12
ATOM     12  C   UNL     1      12.006   1.590   2.387  1.00  0.00    -0.000 C 
BRANCH  12  13
ATOM     13  C   UNL     1      11.758   1.796   3.891  1.00  0.00    -0.000 C 
BRANCH  13  14
ATOM     14  C   UNL     1      11.476   3.268   4.245  1.00  0.00    -0.000 C 
BRANCH  14  15
ATOM     15  C   UNL     1      10.138   3.453   4.977  1.00  0.00    -0.000 C 
BRANCH  15  16
ATOM     16  C   UNL     1       9.118   4.252   4.152  1.00  0.00    -0.000 C 
BRANCH  16  17
ATOM     17  C   UNL     1       9.387   4.099   2.650  1.00  0.00    -0.003 C 
ATOM     18  C   UNL     1       8.226   3.401   1.949  1.00  0.00     0.004 C 
ENDBRANCH  16  17
ENDBRANCH  15  16
ENDBRANCH  14  15
ENDBRANCH  13  14
ENDBRANCH  12  13
ENDBRANCH  11  12
ENDBRANCH   1  11
TORSDOF 14
ENDMDL
MODEL 5
REMARK VINA RESULT:    -6.735      3.066      4.956
REMARK INTER + INTRA:         -13.207
REMARK INTER:                 -11.653
REMARK INTRA:                  -1.554
REMARK UNBOUND:                -0.960
REMARK SMILES CCCCCCCCCCCCCCCC(=O)[O-]
REMARK SMILES IDX 9 1 10 2 11 3 12 4 13 5 14 6 15 7 16 8 17 9 18 10 8 11 7 12
REMARK SMILES IDX 6 13 5 14 4 15 3 16 2 17 1 18
REMARK H PARENT
REMARK Flexibility Score: inf
ROOT
ATOM      1  C   UNL     1       7.107  -1.755   1.897  1.00  0.00     0.000 C 
ENDROOT
BRANCH   1   2
ATOM      2  C   UNL     1       6.803  -3.228   2.222  1.00  0.00     0.000 C 
BRANCH   2   3
ATOM      3  C   UNL     1       7.131  -4.174   1.054  1.00  0.00     0.000 C 
BRANCH   3   4
ATOM      4  C   UNL     1       8.115  -5.311   1.393  1.00  0.00     0.000 C 
BRANCH   4   5
ATOM      5  C   UNL     1       8.671  -5.247   2.830  1.00  0.00     0.000 C 
BRANCH   5   6
ATOM      6  C   UNL     1       8.630  -6.615   3.533  1.00  0.00     0.006 C 
BRANCH   6   7
ATOM      7  C   UNL     1       9.027  -6.523   5.011  1.00  0.00     0.053 C 
BRANCH   7   8
ATOM      8  C   UNL     1      10.441  -6.964   5.236  1.00  0.00     0.041 C 
ATOM      9  O   UNL     1      10.744  -7.622   6.265  1.00  0.00    -0.550 OA
ATOM     10  O   UNL     1      11.430  -6.619   4.323  1.00  0.00    -0.550 OA
ENDBRANCH   7   8
ENDBRANCH   6   7
ENDBRANCH   5   6
ENDBRANCH   4   5
ENDBRANCH   3   4
ENDBRANCH   2   3
ENDBRANCH   1   2
BRANCH   1  11
ATOM     11  C   UNL     1       8.376  -1.248   2.601  1.00  0.00     0.000 C 
BRANCH  11  12
ATOM     12  C   UNL     1       9.495  -0.875   1.612  1.00  0.00    -0.000 C 
BRANCH  12  13
ATOM     13  C   UNL     1      10.113  -2.106   0.931  1.00  0.00    -0.000 C 
BRANCH  13  14
ATOM     14  C   UNL     1      10.016  -2.040  -0.604  1.00  0.00    -0.000 C 
BRANCH  14  15
ATOM     15  C   UNL     1      10.458  -3.347  -1.280  1.00  0.00    -0.000 C 
BRANCH  15  16
ATOM     16  C   UNL     1      10.667  -3.189  -2.793  1.00  0.00    -0.000 C 
BRANCH  16  17
ATOM     17  C   UNL     1      10.041  -4.361  -3.559  1.00  0.00    -0.003 C 
ATOM     18  C   UNL     1       8.949  -5.038  -2.736  1.00  0.00     0.004 C 
ENDBRANCH  16  17
ENDBRANCH  15  16
ENDBRANCH  14  15
ENDBRANCH  13  14
ENDBRANCH  12  13
ENDBRANCH  11  12
ENDBRANCH   1  11
TORSDOF 14
ENDMDL
MODEL 6
REMARK VINA RESULT:    -6.724      4.294      7.084
REMARK INTER + INTRA:         -13.187
REMARK INTER:                 -11.840
REMARK INTRA:                  -1.347
REMARK UNBOUND:                -0.960
REMARK SMILES CCCCCCCCCCCCCCCC(=O)[O-]
REMARK SMILES IDX 9 1 10 2 11 3 12 4 13 5 14 6 15 7 16 8 17 9 18 10 8 11 7 12
REMARK SMILES IDX 6 13 5 14 4 15 3 16 2 17 1 18
REMARK H PARENT
REMARK Flexibility Score: inf
ROOT
ATOM      1  C   UNL     1      10.478  -2.920  -0.021  1.00  0.00     0.000 C 
ENDROOT
BRANCH   1   2
ATOM      2  C   UNL     1      10.388  -3.284  -1.513  1.00  0.00     0.000 C 
BRANCH   2   3
ATOM      3  C   UNL     1       9.201  -4.210  -1.829  1.00  0.00     0.000 C 
BRANCH   3   4
ATOM      4  C   UNL     1       8.861  -5.233  -0.728  1.00  0.00     0.000 C 
BRANCH   4   5
ATOM      5  C   UNL     1       7.449  -5.062  -0.132  1.00  0.00     0.000 C 
BRANCH   5   6
ATOM      6  C   UNL     1       7.473  -4.979   1.405  1.00  0.00     0.006 C 
BRANCH   6   7
ATOM      7  C   UNL     1       8.813  -5.439   1.992  1.00  0.00     0.053 C 
BRANCH   7   8
ATOM      8  C   UNL     1       8.712  -6.801   2.608  1.00  0.00     0.041 C 
ATOM      9  O   UNL     1       9.417  -7.097   3.608  1.00  0.00    -0.550 OA
ATOM     10  O   UNL     1       7.864  -7.751   2.058  1.00  0.00    -0.550 OA
ENDBRANCH   7   8
ENDBRANCH   6   7
ENDBRANCH   5   6
ENDBRANCH   4   5
ENDBRANCH   3   4
ENDBRANCH   2   3
ENDBRANCH   1   2
BRANCH   1  11
ATOM     11  C   UNL     1       9.722  -1.624   0.314  1.00  0.00     0.000 C 
BRANCH  11  12
ATOM     12  C   UNL     1       9.385  -1.504   1.811  1.00  0.00    -0.000 C 
BRANCH  12  13
ATOM     13  C   UNL     1       8.445  -0.324   2.108  1.00  0.00    -0.000 C 
BRANCH  13  14
ATOM     14  C   UNL     1       8.935   0.993   1.480  1.00  0.00    -0.000 C 
BRANCH  14  15
ATOM     15  C   UNL     1       7.814   2.034   1.342  1.00  0.00    -0.000 C 
BRANCH  15  16
ATOM     16  C   UNL     1       8.242   3.431   1.813  1.00  0.00    -0.000 C 
BRANCH  16  17
ATOM     17  C   UNL     1       9.394   3.341   2.820  1.00  0.00    -0.003 C 
ATOM     18  C   UNL     1       9.157   4.261   4.014  1.00  0.00     0.004 C 
ENDBRANCH  16  17
ENDBRANCH  15  16
ENDBRANCH  14  15
ENDBRANCH  13  14
ENDBRANCH  12  13
ENDBRANCH  11  12
ENDBRANCH   1  11
TORSDOF 14
ENDMDL
MODEL 7
REMARK VINA RESULT:    -6.716      4.262      5.856
REMARK INTER + INTRA:         -13.173
REMARK INTER:                 -11.288
REMARK INTRA:                  -1.885
REMARK UNBOUND:                -0.960
REMARK SMILES CCCCCCCCCCCCCCCC(=O)[O-]
REMARK SMILES IDX 9 1 10 2 11 3 12 4 13 5 14 6 15 7 16 8 17 9 18 10 8 11 7 12
REMARK SMILES IDX 6 13 5 14 4 15 3 16 2 17 1 18
REMARK H PARENT
REMARK Flexibility Score: inf
ROOT
ATOM      1  C   UNL     1       8.257  -0.735   2.604  1.00  0.00     0.000 C 
ENDROOT
BRANCH   1   2
ATOM      2  C   UNL     1       6.820  -0.913   2.086  1.00  0.00     0.000 C 
BRANCH   2   3
ATOM      3  C   UNL     1       6.056  -2.028   2.821  1.00  0.00     0.000 C 
BRANCH   3   4
ATOM      4  C   UNL     1       6.793  -3.378   2.902  1.00  0.00     0.000 C 
BRANCH   4   5
ATOM      5  C   UNL     1       6.815  -4.159   1.572  1.00  0.00     0.000 C 
BRANCH   5   6
ATOM      6  C   UNL     1       7.876  -5.274   1.569  1.00  0.00     0.006 C 
BRANCH   6   7
ATOM      7  C   UNL     1       8.665  -5.330   2.883  1.00  0.00     0.053 C 
BRANCH   7   8
ATOM      8  C   UNL     1       9.844  -6.249   2.785  1.00  0.00     0.041 C 
ATOM      9  O   UNL     1      10.949  -5.918   3.288  1.00  0.00    -0.550 OA
ATOM     10  O   UNL     1       9.729  -7.456   2.109  1.00  0.00    -0.550 OA
ENDBRANCH   7   8
ENDBRANCH   6   7
ENDBRANCH   5   6
ENDBRANCH   4   5
ENDBRANCH   3   4
ENDBRANCH   2   3
ENDBRANCH   1   2
BRANCH   1  11
ATOM     11  C   UNL     1       9.129   0.092   1.646  1.00  0.00     0.000 C 
BRANCH  11  12
ATOM     12  C   UNL     1       9.987  -0.785   0.717  1.00  0.00    -0.000 C 
BRANCH  12  13
ATOM     13  C   UNL     1      10.429  -2.096   1.388  1.00  0.00    -0.000 C 
BRANCH  13  14
ATOM     14  C   UNL     1      10.530  -3.263   0.389  1.00  0.00    -0.000 C 
BRANCH  14  15
ATOM     15  C   UNL     1       9.730  -3.009  -0.898  1.00  0.00    -0.000 C 
BRANCH  15  16
ATOM     16  C   UNL     1      10.615  -2.995  -2.152  1.00  0.00    -0.000 C 
BRANCH  16  17
ATOM     17  C   UNL     1      10.125  -4.020  -3.181  1.00  0.00    -0.003 C 
ATOM     18  C   UNL     1       9.025  -4.904  -2.600  1.00  0.00     0.004 C 
ENDBRANCH  16  17
ENDBRANCH  15  16
ENDBRANCH  14  15
ENDBRANCH  13  14
ENDBRANCH  12  13
ENDBRANCH  11  12
ENDBRANCH   1  11
TORSDOF 14
ENDMDL
MODEL 8
REMARK VINA RESULT:    -6.652      6.786      9.577
REMARK INTER + INTRA:         -13.057
REMARK INTER:                 -12.030
REMARK INTRA:                  -1.027
REMARK UNBOUND:                -0.960
REMARK SMILES CCCCCCCCCCCCCCCC(=O)[O-]
REMARK SMILES IDX 9 1 10 2 11 3 12 4 13 5 14 6 15 7 16 8 17 9 18 10 8 11 7 12
REMARK SMILES IDX 6 13 5 14 4 15 3 16 2 17 1 18
REMARK H PARENT
REMARK Flexibility Score: inf
ROOT
ATOM      1  C   UNL     1       7.995   0.478   1.891  1.00  0.00     0.000 C 
ENDROOT
BRANCH   1   2
ATOM      2  C   UNL     1       8.728  -0.802   2.328  1.00  0.00     0.000 C 
BRANCH   2   3
ATOM      3  C   UNL     1       8.027  -2.084   1.846  1.00  0.00     0.000 C 
BRANCH   3   4
ATOM      4  C   UNL     1       8.864  -2.968   0.901  1.00  0.00     0.000 C 
BRANCH   4   5
ATOM      5  C   UNL     1       9.801  -2.172  -0.032  1.00  0.00     0.000 C 
BRANCH   5   6
ATOM      6  C   UNL     1      10.163  -2.960  -1.303  1.00  0.00     0.006 C 
BRANCH   6   7
ATOM      7  C   UNL     1       9.259  -4.182  -1.507  1.00  0.00     0.053 C 
BRANCH   7   8
ATOM      8  C   UNL     1       9.405  -4.757  -2.883  1.00  0.00     0.041 C 
ATOM      9  O   UNL     1       9.015  -5.929  -3.125  1.00  0.00    -0.550 OA
ATOM     10  O   UNL     1      10.001  -4.009  -3.889  1.00  0.00    -0.550 OA
ENDBRANCH   7   8
ENDBRANCH   6   7
ENDBRANCH   5   6
ENDBRANCH   4   5
ENDBRANCH   3   4
ENDBRANCH   2   3
ENDBRANCH   1   2
BRANCH   1  11
ATOM     11  C   UNL     1       8.956   1.655   1.659  1.00  0.00     0.000 C 
BRANCH  11  12
ATOM     12  C   UNL     1       8.290   3.021   1.897  1.00  0.00    -0.000 C 
BRANCH  12  13
ATOM     13  C   UNL     1       9.094   3.908   2.861  1.00  0.00    -0.000 C 
BRANCH  13  14
ATOM     14  C   UNL     1       9.968   3.087   3.826  1.00  0.00    -0.000 C 
BRANCH  14  15
ATOM     15  C   UNL     1      11.426   3.570   3.858  1.00  0.00    -0.000 C 
BRANCH  15  16
ATOM     16  C   UNL     1      12.001   3.808   2.454  1.00  0.00    -0.000 C 
BRANCH  16  17
ATOM     17  C   UNL     1      13.030   4.944   2.468  1.00  0.00    -0.003 C 
ATOM     18  C   UNL     1      12.355   6.300   2.653  1.00  0.00     0.004 C 
ENDBRANCH  16  17
ENDBRANCH  15  16
ENDBRANCH  14  15
ENDBRANCH  13  14
ENDBRANCH  12  13
ENDBRANCH  11  12
ENDBRANCH   1  11
TORSDOF 14
ENDMDL
MODEL 9
REMARK VINA RESULT:    -6.627      3.581      7.442
REMARK INTER + INTRA:         -13.011
REMARK INTER:                 -11.293
REMARK INTRA:                  -1.717
REMARK UNBOUND:                -0.960
REMARK SMILES CCCCCCCCCCCCCCCC(=O)[O-]
REMARK SMILES IDX 9 1 10 2 11 3 12 4 13 5 14 6 15 7 16 8 17 9 18 10 8 11 7 12
REMARK SMILES IDX 6 13 5 14 4 15 3 16 2 17 1 18
REMARK H PARENT
REMARK Flexibility Score: inf
ROOT
ATOM      1  C   UNL     1       7.539  -4.866  -0.354  1.00  0.00     0.000 C 
ENDROOT
BRANCH   1   2
ATOM      2  C   UNL     1       8.814  -5.167  -1.160  1.00  0.00     0.000 C 
BRANCH   2   3
ATOM      3  C   UNL     1       9.496  -3.895  -1.693  1.00  0.00     0.000 C 
BRANCH   3   4
ATOM      4  C   UNL     1      10.448  -3.201  -0.701  1.00  0.00     0.000 C 
BRANCH   4   5
ATOM      5  C   UNL     1       9.839  -1.962  -0.014  1.00  0.00     0.000 C 
BRANCH   5   6
ATOM      6  C   UNL     1       9.491  -2.226   1.462  1.00  0.00     0.006 C 
BRANCH   6   7
ATOM      7  C   UNL     1       8.319  -1.363   1.946  1.00  0.00     0.053 C 
BRANCH   7   8
ATOM      8  C   UNL     1       8.741   0.049   2.215  1.00  0.00     0.041 C 
ATOM      9  O   UNL     1       8.271   0.992   1.526  1.00  0.00    -0.550 OA
ATOM     10  O   UNL     1       9.677   0.318   3.204  1.00  0.00    -0.550 OA
ENDBRANCH   7   8
ENDBRANCH   6   7
ENDBRANCH   5   6
ENDBRANCH   4   5
ENDBRANCH   3   4
ENDBRANCH   2   3
ENDBRANCH   1   2
BRANCH   1  11
ATOM     11  C   UNL     1       7.508  -5.603   0.995  1.00  0.00     0.000 C 
BRANCH  11  12
ATOM     12  C   UNL     1       8.870  -6.213   1.369  1.00  0.00    -0.000 C 
BRANCH  12  13
ATOM     13  C   UNL     1       9.508  -5.525   2.587  1.00  0.00    -0.000 C 
BRANCH  13  14
ATOM     14  C   UNL     1       8.565  -5.488   3.803  1.00  0.00    -0.000 C 
BRANCH  14  15
ATOM     15  C   UNL     1       8.852  -6.615   4.807  1.00  0.00    -0.000 C 
BRANCH  15  16
ATOM     16  C   UNL     1      10.346  -6.960   4.897  1.00  0.00    -0.000 C 
BRANCH  16  17
ATOM     17  C   UNL     1      10.866  -6.779   6.328  1.00  0.00    -0.003 C 
ATOM     18  C   UNL     1       9.788  -6.196   7.238  1.00  0.00     0.004 C 
ENDBRANCH  16  17
ENDBRANCH  15  16
ENDBRANCH  14  15
ENDBRANCH  13  14
ENDBRANCH  12  13
ENDBRANCH  11  12
ENDBRANCH   1  11
TORSDOF 14
ENDMDL
