MODEL 1
REMARK VINA RESULT:    -5.022      0.000      0.000
REMARK INTER + INTRA:          -6.384
REMARK INTER:                  -6.049
REMARK INTRA:                  -0.335
REMARK UNBOUND:                -0.335
REMARK SMILES O=c1c(O)c(-c2ccc(O)c(O)c2)oc2cc(O)cc(O)c12
REMARK SMILES IDX 5 1 3 2 2 3 1 4 22 5 20 6 19 7 17 8 16 9 15 10 14 11 6 12
REMARK SMILES IDX 7 13 8 14 9 15 13 16 11 17 10 18 12 20 4 22 21 24 18 26
REMARK H PARENT 10 19 12 21 4 23 21 25 18 27
REMARK Flexibility Score: inf
ROOT
ATOM      1  C   UNL     1      45.672  42.685 101.130  1.00  0.00     0.180 A 
ATOM      2  C   UNL     1      46.655  43.686 101.215  1.00  0.00     0.208 A 
ATOM      3  C   UNL     1      46.256  45.032 101.234  1.00  0.00     0.238 A 
ATOM      4  O   UNL     1      47.137  45.922 101.365  1.00  0.00    -0.285 OA
ATOM      5  C   UNL     1      44.882  45.361 101.152  1.00  0.00     0.111 A 
ATOM      6  C   UNL     1      44.367  46.692 101.123  1.00  0.00     0.134 A 
ATOM      7  C   UNL     1      42.983  46.899 101.172  1.00  0.00     0.093 A 
ATOM      8  C   UNL     1      42.094  45.821 101.182  1.00  0.00     0.123 A 
ATOM      9  C   UNL     1      42.585  44.518 101.151  1.00  0.00     0.094 A 
ATOM     10  C   UNL     1      43.961  44.280 101.138  1.00  0.00     0.146 A 
ATOM     11  O   UNL     1      44.388  43.023 101.120  1.00  0.00    -0.452 OA
ENDROOT
BRANCH   1  12
ATOM     12  C   UNL     1      46.016  41.246 101.079  1.00  0.00     0.025 A 
ATOM     13  C   UNL     1      46.259  40.595  99.859  1.00  0.00     0.016 A 
ATOM     14  C   UNL     1      46.557  39.230  99.835  1.00  0.00     0.051 A 
ATOM     15  C   UNL     1      46.606  38.488 101.020  1.00  0.00     0.157 A 
ATOM     16  C   UNL     1      46.043  40.499 102.268  1.00  0.00     0.062 A 
ATOM     17  C   UNL     1      46.342  39.130 102.253  1.00  0.00     0.158 A 
BRANCH  15  18
ATOM     18  O   UNL     1      46.915  37.129 100.927  1.00  0.00    -0.504 OA
ATOM     19  H   UNL     1      46.229  36.403 100.784  1.00  0.00     0.293 HD
ENDBRANCH  15  18
BRANCH  17  20
ATOM     20  O   UNL     1      46.364  38.455 103.475  1.00  0.00    -0.504 OA
ATOM     21  H   UNL     1      46.999  38.674 104.229  1.00  0.00     0.293 HD
ENDBRANCH  17  20
ENDBRANCH   1  12
BRANCH   2  22
ATOM     22  O   UNL     1      48.005  43.338 101.317  1.00  0.00    -0.502 OA
ATOM     23  H   UNL     1      48.309  42.437 101.666  1.00  0.00     0.293 HD
ENDBRANCH   2  22
BRANCH   6  24
ATOM     24  O   UNL     1      45.165  47.835 101.019  1.00  0.00    -0.507 OA
ATOM     25  H   UNL     1      45.805  48.023 100.262  1.00  0.00     0.293 HD
ENDBRANCH   6  24
BRANCH   8  26
ATOM     26  O   UNL     1      40.717  46.035 101.215  1.00  0.00    -0.508 OA
ATOM     27  H   UNL     1      40.061  45.264 101.177  1.00  0.00     0.293 HD
ENDBRANCH   8  26
TORSDOF 6
ENDMDL
MODEL 2
REMARK VINA RESULT:    -4.920      2.034      2.982
REMARK INTER + INTRA:          -6.262
REMARK INTER:                  -6.065
REMARK INTRA:                  -0.196
REMARK UNBOUND:                -0.335
REMARK SMILES O=c1c(O)c(-c2ccc(O)c(O)c2)oc2cc(O)cc(O)c12
REMARK SMILES IDX 5 1 3 2 2 3 1 4 22 5 20 6 19 7 17 8 16 9 15 10 14 11 6 12
REMARK SMILES IDX 7 13 8 14 9 15 13 16 11 17 10 18 12 20 4 22 21 24 18 26
REMARK H PARENT 10 19 12 21 4 23 21 25 18 27
REMARK Flexibility Score: inf
ROOT
ATOM      1  C   UNL     1      45.787  45.330 101.628  1.00  0.00     0.180 A 
ATOM      2  C   UNL     1      46.612  46.331 101.086  1.00  0.00     0.208 A 
ATOM      3  C   UNL     1      46.061  47.592 100.811  1.00  0.00     0.238 A 
ATOM      4  O   UNL     1      46.815  48.501 100.376  1.00  0.00    -0.285 OA
ATOM      5  C   UNL     1      44.688  47.832 101.066  1.00  0.00     0.111 A 
ATOM      6  C   UNL     1      44.015  49.060 100.788  1.00  0.00     0.134 A 
ATOM      7  C   UNL     1      42.687  49.228 101.201  1.00  0.00     0.093 A 
ATOM      8  C   UNL     1      41.990  48.190 101.824  1.00  0.00     0.123 A 
ATOM      9  C   UNL     1      42.621  46.968 102.046  1.00  0.00     0.094 A 
ATOM     10  C   UNL     1      43.955  46.782 101.677  1.00  0.00     0.146 A 
ATOM     11  O   UNL     1      44.521  45.605 101.917  1.00  0.00    -0.452 OA
ENDROOT
BRANCH   1  12
ATOM     12  C   UNL     1      46.291  43.969 101.922  1.00  0.00     0.025 A 
ATOM     13  C   UNL     1      47.228  43.740 102.942  1.00  0.00     0.016 A 
ATOM     14  C   UNL     1      47.706  42.451 103.185  1.00  0.00     0.051 A 
ATOM     15  C   UNL     1      47.272  41.370 102.410  1.00  0.00     0.157 A 
ATOM     16  C   UNL     1      45.870  42.890 101.129  1.00  0.00     0.062 A 
ATOM     17  C   UNL     1      46.344  41.593 101.365  1.00  0.00     0.158 A 
BRANCH  15  18
ATOM     18  O   UNL     1      47.785  40.105 102.707  1.00  0.00    -0.504 OA
ATOM     19  H   UNL     1      47.288  39.242 102.544  1.00  0.00     0.293 HD
ENDBRANCH  15  18
BRANCH  17  20
ATOM     20  O   UNL     1      45.871  40.566 100.545  1.00  0.00    -0.504 OA
ATOM     21  H   UNL     1      44.966  40.130 100.651  1.00  0.00     0.293 HD
ENDBRANCH  17  20
ENDBRANCH   1  12
BRANCH   2  22
ATOM     22  O   UNL     1      47.968  46.079 100.863  1.00  0.00    -0.502 OA
ATOM     23  H   UNL     1      48.318  45.159 100.622  1.00  0.00     0.293 HD
ENDBRANCH   2  22
BRANCH   6  24
ATOM     24  O   UNL     1      44.591  50.125 100.090  1.00  0.00    -0.507 OA
ATOM     25  H   UNL     1      44.446  50.316  99.110  1.00  0.00     0.293 HD
ENDBRANCH   6  24
BRANCH   8  26
ATOM     26  O   UNL     1      40.664  48.361 102.218  1.00  0.00    -0.508 OA
ATOM     27  H   UNL     1      39.926  48.513 101.540  1.00  0.00     0.293 HD
ENDBRANCH   8  26
TORSDOF 6
ENDMDL
MODEL 3
REMARK VINA RESULT:    -4.919      1.270      1.481
REMARK INTER + INTRA:          -6.260
REMARK INTER:                  -6.039
REMARK INTRA:                  -0.221
REMARK UNBOUND:                -0.335
REMARK SMILES O=c1c(O)c(-c2ccc(O)c(O)c2)oc2cc(O)cc(O)c12
REMARK SMILES IDX 5 1 3 2 2 3 1 4 22 5 20 6 19 7 17 8 16 9 15 10 14 11 6 12
REMARK SMILES IDX 7 13 8 14 9 15 13 16 11 17 10 18 12 20 4 22 21 24 18 26
REMARK H PARENT 10 19 12 21 4 23 21 25 18 27
REMARK Flexibility Score: inf
ROOT
ATOM      1  C   UNL     1      45.536  43.914 101.278  1.00  0.00     0.180 A 
ATOM      2  C   UNL     1      46.351  45.030 101.023  1.00  0.00     0.208 A 
ATOM      3  C   UNL     1      45.759  46.300 100.935  1.00  0.00     0.238 A 
ATOM      4  O   UNL     1      46.500  47.302 100.759  1.00  0.00    -0.285 OA
ATOM      5  C   UNL     1      44.358  46.436 101.088  1.00  0.00     0.111 A 
ATOM      6  C   UNL     1      43.647  47.669 100.979  1.00  0.00     0.134 A 
ATOM      7  C   UNL     1      42.279  47.706 101.278  1.00  0.00     0.093 A 
ATOM      8  C   UNL     1      41.585  46.543 101.618  1.00  0.00     0.123 A 
ATOM      9  C   UNL     1      42.258  45.325 101.670  1.00  0.00     0.094 A 
ATOM     10  C   UNL     1      43.629  45.262 101.412  1.00  0.00     0.146 A 
ATOM     11  O   UNL     1      44.235  44.082 101.482  1.00  0.00    -0.452 OA
ENDROOT
BRANCH   1  12
ATOM     12  C   UNL     1      46.084  42.541 101.360  1.00  0.00     0.025 A 
ATOM     13  C   UNL     1      45.807  41.583 100.372  1.00  0.00     0.016 A 
ATOM     14  C   UNL     1      46.315  40.287 100.483  1.00  0.00     0.051 A 
ATOM     15  C   UNL     1      47.095  39.917 101.584  1.00  0.00     0.157 A 
ATOM     16  C   UNL     1      46.848  42.166 102.477  1.00  0.00     0.062 A 
ATOM     17  C   UNL     1      47.362  40.868 102.597  1.00  0.00     0.158 A 
BRANCH  15  18
ATOM     18  O   UNL     1      47.576  38.607 101.632  1.00  0.00    -0.504 OA
ATOM     19  H   UNL     1      48.317  38.300 102.246  1.00  0.00     0.293 HD
ENDBRANCH  15  18
BRANCH  17  20
ATOM     20  O   UNL     1      48.125  40.571 103.728  1.00  0.00    -0.504 OA
ATOM     21  H   UNL     1      49.097  40.300 103.698  1.00  0.00     0.293 HD
ENDBRANCH  17  20
ENDBRANCH   1  12
BRANCH   2  22
ATOM     22  O   UNL     1      47.735  44.876 100.896  1.00  0.00    -0.502 OA
ATOM     23  H   UNL     1      48.154  44.052 100.482  1.00  0.00     0.293 HD
ENDBRANCH   2  22
BRANCH   6  24
ATOM     24  O   UNL     1      44.226  48.869 100.557  1.00  0.00    -0.507 OA
ATOM     25  H   UNL     1      44.238  49.722 101.094  1.00  0.00     0.293 HD
ENDBRANCH   6  24
BRANCH   8  26
ATOM     26  O   UNL     1      40.221  46.585 101.899  1.00  0.00    -0.508 OA
ATOM     27  H   UNL     1      39.544  46.116 101.309  1.00  0.00     0.293 HD
ENDBRANCH   8  26
TORSDOF 6
ENDMDL
MODEL 4
REMARK VINA RESULT:    -4.587      1.801      6.910
REMARK INTER + INTRA:          -5.860
REMARK INTER:                  -5.541
REMARK INTRA:                  -0.319
REMARK UNBOUND:                -0.335
REMARK SMILES O=c1c(O)c(-c2ccc(O)c(O)c2)oc2cc(O)cc(O)c12
REMARK SMILES IDX 5 1 3 2 2 3 1 4 22 5 20 6 19 7 17 8 16 9 15 10 14 11 6 12
REMARK SMILES IDX 7 13 8 14 9 15 13 16 11 17 10 18 12 20 4 22 21 24 18 26
REMARK H PARENT 10 19 12 21 4 23 21 25 18 27
REMARK Flexibility Score: inf
ROOT
ATOM      1  C   UNL     1      45.612  44.848 101.848  1.00  0.00     0.180 A 
ATOM      2  C   UNL     1      46.519  44.768 102.918  1.00  0.00     0.208 A 
ATOM      3  C   UNL     1      47.131  43.537 103.200  1.00  0.00     0.238 A 
ATOM      4  O   UNL     1      47.984  43.482 104.125  1.00  0.00    -0.285 OA
ATOM      5  C   UNL     1      46.817  42.398 102.420  1.00  0.00     0.111 A 
ATOM      6  C   UNL     1      47.347  41.091 102.642  1.00  0.00     0.134 A 
ATOM      7  C   UNL     1      47.067  40.067 101.728  1.00  0.00     0.093 A 
ATOM      8  C   UNL     1      46.222  40.288 100.637  1.00  0.00     0.123 A 
ATOM      9  C   UNL     1      45.653  41.544 100.445  1.00  0.00     0.094 A 
ATOM     10  C   UNL     1      45.942  42.594 101.319  1.00  0.00     0.146 A 
ATOM     11  O   UNL     1      45.387  43.779 101.093  1.00  0.00    -0.452 OA
ENDROOT
BRANCH   1  12
ATOM     12  C   UNL     1      44.908  46.105 101.504  1.00  0.00     0.025 A 
ATOM     13  C   UNL     1      45.491  47.061 100.657  1.00  0.00     0.016 A 
ATOM     14  C   UNL     1      44.819  48.251 100.367  1.00  0.00     0.051 A 
ATOM     15  C   UNL     1      43.563  48.516 100.924  1.00  0.00     0.157 A 
ATOM     16  C   UNL     1      43.658  46.378 102.081  1.00  0.00     0.062 A 
ATOM     17  C   UNL     1      42.976  47.568 101.796  1.00  0.00     0.158 A 
BRANCH  15  18
ATOM     18  O   UNL     1      42.942  49.721 100.590  1.00  0.00    -0.504 OA
ATOM     19  H   UNL     1      42.242  50.173 101.161  1.00  0.00     0.293 HD
ENDBRANCH  15  18
BRANCH  17  20
ATOM     20  O   UNL     1      41.730  47.766 102.396  1.00  0.00    -0.504 OA
ATOM     21  H   UNL     1      41.341  48.674 102.603  1.00  0.00     0.293 HD
ENDBRANCH  17  20
ENDBRANCH   1  12
BRANCH   2  22
ATOM     22  O   UNL     1      46.832  45.909 103.661  1.00  0.00    -0.502 OA
ATOM     23  H   UNL     1      46.427  46.816 103.461  1.00  0.00     0.293 HD
ENDBRANCH   2  22
BRANCH   6  24
ATOM     24  O   UNL     1      48.124  40.743 103.751  1.00  0.00    -0.507 OA
ATOM     25  H   UNL     1      48.954  41.233 104.048  1.00  0.00     0.293 HD
ENDBRANCH   6  24
BRANCH   8  26
ATOM     26  O   UNL     1      45.936  39.259  99.741  1.00  0.00    -0.508 OA
ATOM     27  H   UNL     1      45.134  38.652  99.871  1.00  0.00     0.293 HD
ENDBRANCH   8  26
TORSDOF 6
ENDMDL
MODEL 5
REMARK VINA RESULT:    -4.389      5.127      9.848
REMARK INTER + INTRA:          -5.622
REMARK INTER:                  -5.923
REMARK INTRA:                   0.302
REMARK UNBOUND:                -0.335
REMARK SMILES O=c1c(O)c(-c2ccc(O)c(O)c2)oc2cc(O)cc(O)c12
REMARK SMILES IDX 5 1 3 2 2 3 1 4 22 5 20 6 19 7 17 8 16 9 15 10 14 11 6 12
REMARK SMILES IDX 7 13 8 14 9 15 13 16 11 17 10 18 12 20 4 22 21 24 18 26
REMARK H PARENT 10 19 12 21 4 23 21 25 18 27
REMARK Flexibility Score: inf
ROOT
ATOM      1  C   UNL     1      47.003  35.828 100.609  1.00  0.00     0.180 A 
ATOM      2  C   UNL     1      46.969  34.505 101.082  1.00  0.00     0.208 A 
ATOM      3  C   UNL     1      46.737  33.462 100.171  1.00  0.00     0.238 A 
ATOM      4  O   UNL     1      46.761  32.275 100.590  1.00  0.00    -0.285 OA
ATOM      5  C   UNL     1      46.525  33.756  98.802  1.00  0.00     0.111 A 
ATOM      6  C   UNL     1      46.242  32.782  97.798  1.00  0.00     0.134 A 
ATOM      7  C   UNL     1      46.179  33.173  96.454  1.00  0.00     0.093 A 
ATOM      8  C   UNL     1      46.326  34.513  96.087  1.00  0.00     0.123 A 
ATOM      9  C   UNL     1      46.544  35.479  97.066  1.00  0.00     0.094 A 
ATOM     10  C   UNL     1      46.646  35.115  98.410  1.00  0.00     0.146 A 
ATOM     11  O   UNL     1      46.866  36.067  99.310  1.00  0.00    -0.452 OA
ENDROOT
BRANCH   1  12
ATOM     12  C   UNL     1      47.218  36.982 101.512  1.00  0.00     0.025 A 
ATOM     13  C   UNL     1      47.953  36.852 102.701  1.00  0.00     0.016 A 
ATOM     14  C   UNL     1      48.122  37.949 103.549  1.00  0.00     0.051 A 
ATOM     15  C   UNL     1      47.552  39.188 103.237  1.00  0.00     0.157 A 
ATOM     16  C   UNL     1      46.627  38.218 101.207  1.00  0.00     0.062 A 
ATOM     17  C   UNL     1      46.790  39.324 102.052  1.00  0.00     0.158 A 
BRANCH  15  18
ATOM     18  O   UNL     1      47.762  40.245 104.125  1.00  0.00    -0.504 OA
ATOM     19  H   UNL     1      48.114  41.151 103.850  1.00  0.00     0.293 HD
ENDBRANCH  15  18
BRANCH  17  20
ATOM     20  O   UNL     1      46.185  40.525 101.678  1.00  0.00    -0.504 OA
ATOM     21  H   UNL     1      46.346  40.987 100.795  1.00  0.00     0.293 HD
ENDBRANCH  17  20
ENDBRANCH   1  12
BRANCH   2  22
ATOM     22  O   UNL     1      47.202  34.235 102.433  1.00  0.00    -0.502 OA
ATOM     23  H   UNL     1      47.084  33.311 102.831  1.00  0.00     0.293 HD
ENDBRANCH   2  22
BRANCH   6  24
ATOM     24  O   UNL     1      45.987  31.434  98.068  1.00  0.00    -0.507 OA
ATOM     25  H   UNL     1      45.646  30.767  97.394  1.00  0.00     0.293 HD
ENDBRANCH   6  24
BRANCH   8  26
ATOM     26  O   UNL     1      46.247  34.895  94.749  1.00  0.00    -0.508 OA
ATOM     27  H   UNL     1      46.315  34.217  94.000  1.00  0.00     0.293 HD
ENDBRANCH   8  26
TORSDOF 6
ENDMDL
MODEL 6
REMARK VINA RESULT:    -4.360      6.452      9.824
REMARK INTER + INTRA:          -5.587
REMARK INTER:                  -6.058
REMARK INTRA:                   0.471
REMARK UNBOUND:                -0.335
REMARK SMILES O=c1c(O)c(-c2ccc(O)c(O)c2)oc2cc(O)cc(O)c12
REMARK SMILES IDX 5 1 3 2 2 3 1 4 22 5 20 6 19 7 17 8 16 9 15 10 14 11 6 12
REMARK SMILES IDX 7 13 8 14 9 15 13 16 11 17 10 18 12 20 4 22 21 24 18 26
REMARK H PARENT 10 19 12 21 4 23 21 25 18 27
REMARK Flexibility Score: inf
ROOT
ATOM      1  C   UNL     1      46.785  34.359  99.135  1.00  0.00     0.180 A 
ATOM      2  C   UNL     1      46.992  33.331 100.071  1.00  0.00     0.208 A 
ATOM      3  C   UNL     1      47.283  33.672 101.401  1.00  0.00     0.238 A 
ATOM      4  O   UNL     1      47.414  32.749 102.247  1.00  0.00    -0.285 OA
ATOM      5  C   UNL     1      47.379  35.034 101.776  1.00  0.00     0.111 A 
ATOM      6  C   UNL     1      47.708  35.493 103.086  1.00  0.00     0.134 A 
ATOM      7  C   UNL     1      47.647  36.863 103.374  1.00  0.00     0.093 A 
ATOM      8  C   UNL     1      47.332  37.794 102.381  1.00  0.00     0.123 A 
ATOM      9  C   UNL     1      47.067  37.360 101.084  1.00  0.00     0.094 A 
ATOM     10  C   UNL     1      47.086  35.998 100.775  1.00  0.00     0.146 A 
ATOM     11  O   UNL     1      46.817  35.626  99.529  1.00  0.00    -0.452 OA
ENDROOT
BRANCH   1  12
ATOM     12  C   UNL     1      46.498  34.079  97.709  1.00  0.00     0.025 A 
ATOM     13  C   UNL     1      46.288  32.769  97.249  1.00  0.00     0.016 A 
ATOM     14  C   UNL     1      46.044  32.527  95.895  1.00  0.00     0.051 A 
ATOM     15  C   UNL     1      46.017  33.580  94.974  1.00  0.00     0.157 A 
ATOM     16  C   UNL     1      46.493  35.135  96.784  1.00  0.00     0.062 A 
ATOM     17  C   UNL     1      46.249  34.902  95.424  1.00  0.00     0.158 A 
BRANCH  15  18
ATOM     18  O   UNL     1      45.762  33.271  93.636  1.00  0.00    -0.504 OA
ATOM     19  H   UNL     1      46.061  33.842  92.859  1.00  0.00     0.293 HD
ENDBRANCH  15  18
BRANCH  17  20
ATOM     20  O   UNL     1      46.246  36.002  94.564  1.00  0.00    -0.504 OA
ATOM     21  H   UNL     1      46.538  35.964  93.598  1.00  0.00     0.293 HD
ENDBRANCH  17  20
ENDBRANCH   1  12
BRANCH   2  22
ATOM     22  O   UNL     1      46.871  31.994  99.685  1.00  0.00    -0.502 OA
ATOM     23  H   UNL     1      47.668  31.371  99.627  1.00  0.00     0.293 HD
ENDBRANCH   2  22
BRANCH   6  24
ATOM     24  O   UNL     1      48.125  34.655 104.125  1.00  0.00    -0.507 OA
ATOM     25  H   UNL     1      47.519  34.277 104.837  1.00  0.00     0.293 HD
ENDBRANCH   6  24
BRANCH   8  26
ATOM     26  O   UNL     1      47.288  39.156 102.672  1.00  0.00    -0.508 OA
ATOM     27  H   UNL     1      46.436  39.602 102.990  1.00  0.00     0.293 HD
ENDBRANCH   8  26
TORSDOF 6
ENDMDL
MODEL 7
REMARK VINA RESULT:    -4.318      3.681      6.771
REMARK INTER + INTRA:          -5.537
REMARK INTER:                  -5.384
REMARK INTRA:                  -0.153
REMARK UNBOUND:                -0.335
REMARK SMILES O=c1c(O)c(-c2ccc(O)c(O)c2)oc2cc(O)cc(O)c12
REMARK SMILES IDX 5 1 3 2 2 3 1 4 22 5 20 6 19 7 17 8 16 9 15 10 14 11 6 12
REMARK SMILES IDX 7 13 8 14 9 15 13 16 11 17 10 18 12 20 4 22 21 24 18 26
REMARK H PARENT 10 19 12 21 4 23 21 25 18 27
REMARK Flexibility Score: inf
ROOT
ATOM      1  C   UNL     1      47.003  36.601 100.791  1.00  0.00     0.180 A 
ATOM      2  C   UNL     1      47.516  36.526 102.098  1.00  0.00     0.208 A 
ATOM      3  C   UNL     1      47.669  37.709 102.837  1.00  0.00     0.238 A 
ATOM      4  O   UNL     1      48.078  37.632 104.025  1.00  0.00    -0.285 OA
ATOM      5  C   UNL     1      47.323  38.953 102.256  1.00  0.00     0.111 A 
ATOM      6  C   UNL     1      47.475  40.219 102.899  1.00  0.00     0.134 A 
ATOM      7  C   UNL     1      46.978  41.372 102.280  1.00  0.00     0.093 A 
ATOM      8  C   UNL     1      46.394  41.314 101.012  1.00  0.00     0.123 A 
ATOM      9  C   UNL     1      46.296  40.092 100.351  1.00  0.00     0.094 A 
ATOM     10  C   UNL     1      46.749  38.919 100.958  1.00  0.00     0.146 A 
ATOM     11  O   UNL     1      46.626  37.774 100.298  1.00  0.00    -0.452 OA
ENDROOT
BRANCH   1  12
ATOM     12  C   UNL     1      46.836  35.399  99.941  1.00  0.00     0.025 A 
ATOM     13  C   UNL     1      47.550  35.248  98.742  1.00  0.00     0.016 A 
ATOM     14  C   UNL     1      47.358  34.118  97.944  1.00  0.00     0.051 A 
ATOM     15  C   UNL     1      46.444  33.126  98.318  1.00  0.00     0.157 A 
ATOM     16  C   UNL     1      45.903  34.417 100.307  1.00  0.00     0.062 A 
ATOM     17  C   UNL     1      45.704  33.280  99.513  1.00  0.00     0.158 A 
BRANCH  15  18
ATOM     18  O   UNL     1      46.303  32.019  97.478  1.00  0.00    -0.504 OA
ATOM     19  H   UNL     1      46.351  31.061  97.795  1.00  0.00     0.293 HD
ENDBRANCH  15  18
BRANCH  17  20
ATOM     20  O   UNL     1      44.769  32.337  99.948  1.00  0.00    -0.504 OA
ATOM     21  H   UNL     1      44.999  31.385 100.193  1.00  0.00     0.293 HD
ENDBRANCH  17  20
ENDBRANCH   1  12
BRANCH   2  22
ATOM     22  O   UNL     1      47.831  35.286 102.659  1.00  0.00    -0.502 OA
ATOM     23  H   UNL     1      48.422  35.194 103.477  1.00  0.00     0.293 HD
ENDBRANCH   2  22
BRANCH   6  24
ATOM     24  O   UNL     1      48.125  40.399 104.124  1.00  0.00    -0.507 OA
ATOM     25  H   UNL     1      48.290  39.669 104.800  1.00  0.00     0.293 HD
ENDBRANCH   6  24
BRANCH   8  26
ATOM     26  O   UNL     1      45.917  42.469 100.395  1.00  0.00    -0.508 OA
ATOM     27  H   UNL     1      45.633  43.278 100.935  1.00  0.00     0.293 HD
ENDBRANCH   8  26
TORSDOF 6
ENDMDL
MODEL 8
REMARK VINA RESULT:    -4.141      2.024      3.791
REMARK INTER + INTRA:          -5.323
REMARK INTER:                  -5.354
REMARK INTRA:                   0.030
REMARK UNBOUND:                -0.335
REMARK SMILES O=c1c(O)c(-c2ccc(O)c(O)c2)oc2cc(O)cc(O)c12
REMARK SMILES IDX 5 1 3 2 2 3 1 4 22 5 20 6 19 7 17 8 16 9 15 10 14 11 6 12
REMARK SMILES IDX 7 13 8 14 9 15 13 16 11 17 10 18 12 20 4 22 21 24 18 26
REMARK H PARENT 10 19 12 21 4 23 21 25 18 27
REMARK Flexibility Score: inf
ROOT
ATOM      1  C   UNL     1      45.885  44.541 101.338  1.00  0.00     0.180 A 
ATOM      2  C   UNL     1      44.514  44.764 101.122  1.00  0.00     0.208 A 
ATOM      3  C   UNL     1      44.066  46.073 100.886  1.00  0.00     0.238 A 
ATOM      4  O   UNL     1      42.845  46.259 100.640  1.00  0.00    -0.285 OA
ATOM      5  C   UNL     1      44.991  47.145 100.884  1.00  0.00     0.111 A 
ATOM      6  C   UNL     1      44.642  48.516 100.695  1.00  0.00     0.134 A 
ATOM      7  C   UNL     1      45.654  49.477 100.582  1.00  0.00     0.093 A 
ATOM      8  C   UNL     1      47.000  49.125 100.717  1.00  0.00     0.123 A 
ATOM      9  C   UNL     1      47.346  47.798 100.961  1.00  0.00     0.094 A 
ATOM     10  C   UNL     1      46.362  46.812 101.043  1.00  0.00     0.146 A 
ATOM     11  O   UNL     1      46.736  45.558 101.265  1.00  0.00    -0.452 OA
ENDROOT
BRANCH   1  12
ATOM     12  C   UNL     1      46.430  43.193 101.618  1.00  0.00     0.025 A 
ATOM     13  C   UNL     1      47.302  42.966 102.694  1.00  0.00     0.016 A 
ATOM     14  C   UNL     1      47.822  41.691 102.925  1.00  0.00     0.051 A 
ATOM     15  C   UNL     1      47.496  40.623 102.081  1.00  0.00     0.157 A 
ATOM     16  C   UNL     1      46.117  42.128 100.758  1.00  0.00     0.062 A 
ATOM     17  C   UNL     1      46.635  40.845 100.981  1.00  0.00     0.158 A 
BRANCH  15  18
ATOM     18  O   UNL     1      48.046  39.372 102.369  1.00  0.00    -0.504 OA
ATOM     19  H   UNL     1      49.025  39.149 102.264  1.00  0.00     0.293 HD
ENDBRANCH  15  18
BRANCH  17  20
ATOM     20  O   UNL     1      46.270  39.832 100.092  1.00  0.00    -0.504 OA
ATOM     21  H   UNL     1      46.914  39.372  99.465  1.00  0.00     0.293 HD
ENDBRANCH  17  20
ENDBRANCH   1  12
BRANCH   2  22
ATOM     22  O   UNL     1      43.622  43.688 101.106  1.00  0.00    -0.502 OA
ATOM     23  H   UNL     1      43.132  43.377 101.937  1.00  0.00     0.293 HD
ENDBRANCH   2  22
BRANCH   6  24
ATOM     24  O   UNL     1      43.326  48.986 100.640  1.00  0.00    -0.507 OA
ATOM     25  H   UNL     1      42.609  48.617 100.035  1.00  0.00     0.293 HD
ENDBRANCH   6  24
BRANCH   8  26
ATOM     26  O   UNL     1      48.000  50.090 100.620  1.00  0.00    -0.508 OA
ATOM     27  H   UNL     1      48.284  50.641 101.422  1.00  0.00     0.293 HD
ENDBRANCH   8  26
TORSDOF 6
ENDMDL
MODEL 9
REMARK VINA RESULT:    -4.068      4.886      8.520
REMARK INTER + INTRA:          -5.235
REMARK INTER:                  -5.679
REMARK INTRA:                   0.444
REMARK UNBOUND:                -0.335
REMARK SMILES O=c1c(O)c(-c2ccc(O)c(O)c2)oc2cc(O)cc(O)c12
REMARK SMILES IDX 5 1 3 2 2 3 1 4 22 5 20 6 19 7 17 8 16 9 15 10 14 11 6 12
REMARK SMILES IDX 7 13 8 14 9 15 13 16 11 17 10 18 12 20 4 22 21 24 18 26
REMARK H PARENT 10 19 12 21 4 23 21 25 18 27
REMARK Flexibility Score: inf
ROOT
ATOM      1  C   UNL     1      46.802  35.445  99.409  1.00  0.00     0.180 A 
ATOM      2  C   UNL     1      47.190  34.714 100.545  1.00  0.00     0.208 A 
ATOM      3  C   UNL     1      47.432  35.400 101.745  1.00  0.00     0.238 A 
ATOM      4  O   UNL     1      47.727  34.735 102.773  1.00  0.00    -0.285 OA
ATOM      5  C   UNL     1      47.299  36.809 101.791  1.00  0.00     0.111 A 
ATOM      6  C   UNL     1      47.559  37.610 102.944  1.00  0.00     0.134 A 
ATOM      7  C   UNL     1      47.268  38.980 102.912  1.00  0.00     0.093 A 
ATOM      8  C   UNL     1      46.790  39.588 101.748  1.00  0.00     0.123 A 
ATOM      9  C   UNL     1      46.590  38.824 100.601  1.00  0.00     0.094 A 
ATOM     10  C   UNL     1      46.837  37.450 100.612  1.00  0.00     0.146 A 
ATOM     11  O   UNL     1      46.622  36.757  99.500  1.00  0.00    -0.452 OA
ENDROOT
BRANCH   1  12
ATOM     12  C   UNL     1      46.553  34.795  98.101  1.00  0.00     0.025 A 
ATOM     13  C   UNL     1      46.439  33.401  97.988  1.00  0.00     0.016 A 
ATOM     14  C   UNL     1      46.229  32.809  96.741  1.00  0.00     0.051 A 
ATOM     15  C   UNL     1      46.141  33.591  95.584  1.00  0.00     0.157 A 
ATOM     16  C   UNL     1      46.488  35.581  96.940  1.00  0.00     0.062 A 
ATOM     17  C   UNL     1      46.277  34.996  95.684  1.00  0.00     0.158 A 
BRANCH  15  18
ATOM     18  O   UNL     1      45.925  32.938  94.369  1.00  0.00    -0.504 OA
ATOM     19  H   UNL     1      46.662  32.672  93.732  1.00  0.00     0.293 HD
ENDBRANCH  15  18
BRANCH  17  20
ATOM     20  O   UNL     1      46.209  35.842  94.575  1.00  0.00    -0.504 OA
ATOM     21  H   UNL     1      47.014  36.274  94.144  1.00  0.00     0.293 HD
ENDBRANCH  17  20
ENDBRANCH   1  12
BRANCH   2  22
ATOM     22  O   UNL     1      47.295  33.322 100.482  1.00  0.00    -0.502 OA
ATOM     23  H   UNL     1      47.354  32.820  99.604  1.00  0.00     0.293 HD
ENDBRANCH   2  22
BRANCH   6  24
ATOM     24  O   UNL     1      48.122  37.119 104.125  1.00  0.00    -0.507 OA
ATOM     25  H   UNL     1      49.112  37.024 104.294  1.00  0.00     0.293 HD
ENDBRANCH   6  24
BRANCH   8  26
ATOM     26  O   UNL     1      46.519  40.954 101.720  1.00  0.00    -0.508 OA
ATOM     27  H   UNL     1      45.909  41.359 101.018  1.00  0.00     0.293 HD
ENDBRANCH   8  26
TORSDOF 6
ENDMDL
