MODEL 1
REMARK VINA RESULT:    -3.042      0.000      0.000
REMARK INTER + INTRA:          -3.369
REMARK INTER:                  -3.309
REMARK INTRA:                  -0.061
REMARK UNBOUND:                -0.061
REMARK SMILES COc1cc2ccc(=O)oc2cc1O
REMARK SMILES IDX 3 1 13 2 12 3 11 4 5 5 4 6 6 7 7 8 8 9 9 10 10 11 2 12 1 13
REMARK SMILES IDX 14 14
REMARK H PARENT 14 15
REMARK Flexibility Score: inf
ROOT
ATOM      1  C   UNL     1     -46.472 -25.021  41.072  1.00  0.00     0.161 A 
ATOM      2  C   UNL     1     -45.919 -23.732  40.942  1.00  0.00     0.161 A 
ATOM      3  C   UNL     1     -45.261 -23.134  42.023  1.00  0.00     0.098 A 
ATOM      4  C   UNL     1     -45.145 -23.808  43.241  1.00  0.00     0.142 A 
ATOM      5  C   UNL     1     -45.694 -25.100  43.382  1.00  0.00     0.022 A 
ATOM      6  C   UNL     1     -46.353 -25.702  42.302  1.00  0.00     0.062 A 
ATOM      7  C   UNL     1     -45.561 -25.749  44.614  1.00  0.00     0.019 A 
ATOM      8  C   UNL     1     -44.896 -25.108  45.658  1.00  0.00     0.094 A 
ATOM      9  C   UNL     1     -44.377 -23.827  45.444  1.00  0.00     0.336 A 
ATOM     10  O   UNL     1     -43.772 -23.231  46.374  1.00  0.00    -0.246 OA
ATOM     11  O   UNL     1     -44.516 -23.231  44.263  1.00  0.00    -0.423 OA
ENDROOT
BRANCH   1  12
ATOM     12  O   UNL     1     -47.125 -25.592  39.969  1.00  0.00    -0.493 OA
ATOM     13  C   UNL     1     -46.668 -26.741  39.263  1.00  0.00     0.278 C 
ENDBRANCH   1  12
BRANCH   2  14
ATOM     14  O   UNL     1     -46.014 -23.028  39.742  1.00  0.00    -0.504 OA
ATOM     15  H   UNL     1     -45.418 -23.229  38.948  1.00  0.00     0.293 HD
ENDBRANCH   2  14
TORSDOF 2
ENDMDL
MODEL 2
REMARK VINA RESULT:    -2.967     16.243     17.729
REMARK INTER + INTRA:          -3.287
REMARK INTER:                  -3.243
REMARK INTRA:                  -0.044
REMARK UNBOUND:                -0.061
REMARK SMILES COc1cc2ccc(=O)oc2cc1O
REMARK SMILES IDX 3 1 13 2 12 3 11 4 5 5 4 6 6 7 7 8 8 9 9 10 10 11 2 12 1 13
REMARK SMILES IDX 14 14
REMARK H PARENT 14 15
REMARK Flexibility Score: inf
ROOT
ATOM      1  C   UNL     1     -28.462 -25.140  44.517  1.00  0.00     0.161 A 
ATOM      2  C   UNL     1     -29.601 -24.326  44.355  1.00  0.00     0.161 A 
ATOM      3  C   UNL     1     -29.867 -23.723  43.121  1.00  0.00     0.098 A 
ATOM      4  C   UNL     1     -29.008 -23.921  42.037  1.00  0.00     0.142 A 
ATOM      5  C   UNL     1     -27.865 -24.734  42.188  1.00  0.00     0.022 A 
ATOM      6  C   UNL     1     -27.595 -25.340  43.422  1.00  0.00     0.062 A 
ATOM      7  C   UNL     1     -27.025 -24.913  41.085  1.00  0.00     0.019 A 
ATOM      8  C   UNL     1     -27.336 -24.289  39.877  1.00  0.00     0.094 A 
ATOM      9  C   UNL     1     -28.487 -23.497  39.802  1.00  0.00     0.336 A 
ATOM     10  O   UNL     1     -28.786 -22.926  38.721  1.00  0.00    -0.246 OA
ATOM     11  O   UNL     1     -29.270 -23.343  40.866  1.00  0.00    -0.423 OA
ENDROOT
BRANCH   1  12
ATOM     12  O   UNL     1     -28.224 -25.730  45.769  1.00  0.00    -0.493 OA
ATOM     13  C   UNL     1     -26.962 -26.224  46.204  1.00  0.00     0.278 C 
ENDBRANCH   1  12
BRANCH   2  14
ATOM     14  O   UNL     1     -30.482 -24.106  45.413  1.00  0.00    -0.504 OA
ATOM     15  H   UNL     1     -30.196 -23.642  46.267  1.00  0.00     0.293 HD
ENDBRANCH   2  14
TORSDOF 2
ENDMDL
MODEL 3
REMARK VINA RESULT:    -2.905      1.454      5.371
REMARK INTER + INTRA:          -3.221
REMARK INTER:                  -3.177
REMARK INTRA:                  -0.043
REMARK UNBOUND:                -0.061
REMARK SMILES COc1cc2ccc(=O)oc2cc1O
REMARK SMILES IDX 3 1 13 2 12 3 11 4 5 5 4 6 6 7 7 8 8 9 9 10 10 11 2 12 1 13
REMARK SMILES IDX 14 14
REMARK H PARENT 14 15
REMARK Flexibility Score: inf
ROOT
ATOM      1  C   UNL     1     -44.877 -24.387  44.111  1.00  0.00     0.161 A 
ATOM      2  C   UNL     1     -45.757 -25.485  44.047  1.00  0.00     0.161 A 
ATOM      3  C   UNL     1     -46.362 -25.835  42.834  1.00  0.00     0.098 A 
ATOM      4  C   UNL     1     -46.101 -25.100  41.676  1.00  0.00     0.142 A 
ATOM      5  C   UNL     1     -45.221 -23.998  41.728  1.00  0.00     0.022 A 
ATOM      6  C   UNL     1     -44.613 -23.645  42.940  1.00  0.00     0.062 A 
ATOM      7  C   UNL     1     -44.980 -23.282  40.551  1.00  0.00     0.019 A 
ATOM      8  C   UNL     1     -45.608 -23.673  39.370  1.00  0.00     0.094 A 
ATOM      9  C   UNL     1     -46.468 -24.776  39.394  1.00  0.00     0.336 A 
ATOM     10  O   UNL     1     -47.045 -25.146  38.337  1.00  0.00    -0.246 OA
ATOM     11  O   UNL     1     -46.680 -25.440  40.527  1.00  0.00    -0.423 OA
ENDROOT
BRANCH   1  12
ATOM     12  O   UNL     1     -44.287 -24.063  45.342  1.00  0.00    -0.493 OA
ATOM     13  C   UNL     1     -43.361 -23.000  45.542  1.00  0.00     0.278 C 
ENDBRANCH   1  12
BRANCH   2  14
ATOM     14  O   UNL     1     -46.042 -26.244  45.182  1.00  0.00    -0.504 OA
ATOM     15  H   UNL     1     -46.867 -26.827  45.249  1.00  0.00     0.293 HD
ENDBRANCH   2  14
TORSDOF 2
ENDMDL
MODEL 4
REMARK VINA RESULT:    -2.876     16.465     18.120
REMARK INTER + INTRA:          -3.188
REMARK INTER:                  -3.145
REMARK INTRA:                  -0.043
REMARK UNBOUND:                -0.061
REMARK SMILES COc1cc2ccc(=O)oc2cc1O
REMARK SMILES IDX 3 1 13 2 12 3 11 4 5 5 4 6 6 7 7 8 8 9 9 10 10 11 2 12 1 13
REMARK SMILES IDX 14 14
REMARK H PARENT 14 15
REMARK Flexibility Score: inf
ROOT
ATOM      1  C   UNL     1     -45.465 -41.325  44.595  1.00  0.00     0.161 A 
ATOM      2  C   UNL     1     -44.317 -42.105  44.351  1.00  0.00     0.161 A 
ATOM      3  C   UNL     1     -44.070 -42.615  43.072  1.00  0.00     0.098 A 
ATOM      4  C   UNL     1     -44.956 -42.359  42.024  1.00  0.00     0.142 A 
ATOM      5  C   UNL     1     -46.109 -41.579  42.257  1.00  0.00     0.022 A 
ATOM      6  C   UNL     1     -46.360 -41.065  43.536  1.00  0.00     0.062 A 
ATOM      7  C   UNL     1     -46.978 -41.339  41.187  1.00  0.00     0.019 A 
ATOM      8  C   UNL     1     -46.684 -41.872  39.933  1.00  0.00     0.094 A 
ATOM      9  C   UNL     1     -45.522 -42.635  39.777  1.00  0.00     0.336 A 
ATOM     10  O   UNL     1     -45.238 -43.125  38.652  1.00  0.00    -0.246 OA
ATOM     11  O   UNL     1     -44.712 -42.848  40.811  1.00  0.00    -0.423 OA
ENDROOT
BRANCH   1  12
ATOM     12  O   UNL     1     -45.684 -40.828  45.889  1.00  0.00    -0.493 OA
ATOM     13  C   UNL     1     -46.870 -40.164  46.311  1.00  0.00     0.278 C 
ENDBRANCH   1  12
BRANCH   2  14
ATOM     14  O   UNL     1     -43.408 -42.382  45.372  1.00  0.00    -0.504 OA
ATOM     15  H   UNL     1     -42.736 -43.137  45.307  1.00  0.00     0.293 HD
ENDBRANCH   2  14
TORSDOF 2
ENDMDL
MODEL 5
REMARK VINA RESULT:    -2.845      1.596      2.945
REMARK INTER + INTRA:          -3.156
REMARK INTER:                  -3.110
REMARK INTRA:                  -0.046
REMARK UNBOUND:                -0.061
REMARK SMILES COc1cc2ccc(=O)oc2cc1O
REMARK SMILES IDX 3 1 13 2 12 3 11 4 5 5 4 6 6 7 7 8 8 9 9 10 10 11 2 12 1 13
REMARK SMILES IDX 14 14
REMARK H PARENT 14 15
REMARK Flexibility Score: inf
ROOT
ATOM      1  C   UNL     1     -45.998 -24.854  42.712  1.00  0.00     0.161 A 
ATOM      2  C   UNL     1     -46.241 -25.939  43.577  1.00  0.00     0.161 A 
ATOM      3  C   UNL     1     -45.624 -25.993  44.832  1.00  0.00     0.098 A 
ATOM      4  C   UNL     1     -44.761 -24.974  45.240  1.00  0.00     0.142 A 
ATOM      5  C   UNL     1     -44.511 -23.882  44.382  1.00  0.00     0.022 A 
ATOM      6  C   UNL     1     -45.128 -23.824  43.125  1.00  0.00     0.062 A 
ATOM      7  C   UNL     1     -43.643 -22.876  44.819  1.00  0.00     0.019 A 
ATOM      8  C   UNL     1     -43.054 -22.979  46.079  1.00  0.00     0.094 A 
ATOM      9  C   UNL     1     -43.349 -24.091  46.875  1.00  0.00     0.336 A 
ATOM     10  O   UNL     1     -42.828 -24.202  48.016  1.00  0.00    -0.246 OA
ATOM     11  O   UNL     1     -44.178 -25.033  46.436  1.00  0.00    -0.423 OA
ENDROOT
BRANCH   1  12
ATOM     12  O   UNL     1     -46.634 -24.831  41.461  1.00  0.00    -0.493 OA
ATOM     13  C   UNL     1     -46.086 -24.241  40.286  1.00  0.00     0.278 C 
ENDBRANCH   1  12
BRANCH   2  14
ATOM     14  O   UNL     1     -47.096 -26.977  43.205  1.00  0.00    -0.504 OA
ATOM     15  H   UNL     1     -47.257 -27.224  42.237  1.00  0.00     0.293 HD
ENDBRANCH   2  14
TORSDOF 2
ENDMDL
MODEL 6
REMARK VINA RESULT:    -2.788      1.264      4.980
REMARK INTER + INTRA:          -3.093
REMARK INTER:                  -3.029
REMARK INTRA:                  -0.065
REMARK UNBOUND:                -0.061
REMARK SMILES COc1cc2ccc(=O)oc2cc1O
REMARK SMILES IDX 3 1 13 2 12 3 11 4 5 5 4 6 6 7 7 8 8 9 9 10 10 11 2 12 1 13
REMARK SMILES IDX 14 14
REMARK H PARENT 14 15
REMARK Flexibility Score: inf
ROOT
ATOM      1  C   UNL     1     -44.832 -25.017  45.678  1.00  0.00     0.161 A 
ATOM      2  C   UNL     1     -44.335 -23.830  45.105  1.00  0.00     0.161 A 
ATOM      3  C   UNL     1     -44.646 -23.501  43.781  1.00  0.00     0.098 A 
ATOM      4  C   UNL     1     -45.452 -24.344  43.014  1.00  0.00     0.142 A 
ATOM      5  C   UNL     1     -45.957 -25.535  43.577  1.00  0.00     0.022 A 
ATOM      6  C   UNL     1     -45.648 -25.869  44.903  1.00  0.00     0.062 A 
ATOM      7  C   UNL     1     -46.761 -26.359  42.783  1.00  0.00     0.019 A 
ATOM      8  C   UNL     1     -47.041 -25.984  41.470  1.00  0.00     0.094 A 
ATOM      9  C   UNL     1     -46.506 -24.788  40.979  1.00  0.00     0.336 A 
ATOM     10  O   UNL     1     -46.746 -24.431  39.796  1.00  0.00    -0.246 OA
ATOM     11  O   UNL     1     -45.743 -24.023  41.755  1.00  0.00    -0.423 OA
ENDROOT
BRANCH   1  12
ATOM     12  O   UNL     1     -44.502 -25.318  47.008  1.00  0.00    -0.493 OA
ATOM     13  C   UNL     1     -43.512 -26.263  47.403  1.00  0.00     0.278 C 
ENDBRANCH   1  12
BRANCH   2  14
ATOM     14  O   UNL     1     -43.527 -22.963  45.840  1.00  0.00    -0.504 OA
ATOM     15  H   UNL     1     -42.615 -23.236  46.186  1.00  0.00     0.293 HD
ENDBRANCH   2  14
TORSDOF 2
ENDMDL
MODEL 7
REMARK VINA RESULT:    -2.751     16.104     17.200
REMARK INTER + INTRA:          -3.053
REMARK INTER:                  -2.988
REMARK INTRA:                  -0.065
REMARK UNBOUND:                -0.061
REMARK SMILES COc1cc2ccc(=O)oc2cc1O
REMARK SMILES IDX 3 1 13 2 12 3 11 4 5 5 4 6 6 7 7 8 8 9 9 10 10 11 2 12 1 13
REMARK SMILES IDX 14 14
REMARK H PARENT 14 15
REMARK Flexibility Score: inf
ROOT
ATOM      1  C   UNL     1     -28.252 -23.993  41.798  1.00  0.00     0.161 A 
ATOM      2  C   UNL     1     -29.508 -23.611  42.311  1.00  0.00     0.161 A 
ATOM      3  C   UNL     1     -29.875 -23.967  43.613  1.00  0.00     0.098 A 
ATOM      4  C   UNL     1     -29.004 -24.704  44.418  1.00  0.00     0.142 A 
ATOM      5  C   UNL     1     -27.744 -25.091  43.915  1.00  0.00     0.022 A 
ATOM      6  C   UNL     1     -27.371 -24.736  42.611  1.00  0.00     0.062 A 
ATOM      7  C   UNL     1     -26.893 -25.828  44.745  1.00  0.00     0.019 A 
ATOM      8  C   UNL     1     -27.308 -26.156  46.035  1.00  0.00     0.094 A 
ATOM      9  C   UNL     1     -28.572 -25.737  46.465  1.00  0.00     0.336 A 
ATOM     10  O   UNL     1     -28.966 -26.023  47.627  1.00  0.00    -0.246 OA
ATOM     11  O   UNL     1     -29.362 -25.037  45.656  1.00  0.00    -0.423 OA
ENDROOT
BRANCH   1  12
ATOM     12  O   UNL     1     -27.915 -23.620  40.488  1.00  0.00    -0.493 OA
ATOM     13  C   UNL     1     -27.998 -24.478  39.355  1.00  0.00     0.278 C 
ENDBRANCH   1  12
BRANCH   2  14
ATOM     14  O   UNL     1     -30.405 -22.875  41.538  1.00  0.00    -0.504 OA
ATOM     15  H   UNL     1     -30.103 -22.289  40.769  1.00  0.00     0.293 HD
ENDBRANCH   2  14
TORSDOF 2
ENDMDL
MODEL 8
REMARK VINA RESULT:    -2.747     23.619     24.606
REMARK INTER + INTRA:          -3.049
REMARK INTER:                  -2.997
REMARK INTRA:                  -0.052
REMARK UNBOUND:                -0.061
REMARK SMILES COc1cc2ccc(=O)oc2cc1O
REMARK SMILES IDX 3 1 13 2 12 3 11 4 5 5 4 6 6 7 7 8 8 9 9 10 10 11 2 12 1 13
REMARK SMILES IDX 14 14
REMARK H PARENT 14 15
REMARK Flexibility Score: inf
ROOT
ATOM      1  C   UNL     1     -28.751 -40.922  45.318  1.00  0.00     0.161 A 
ATOM      2  C   UNL     1     -27.998 -39.809  44.894  1.00  0.00     0.161 A 
ATOM      3  C   UNL     1     -27.476 -39.762  43.597  1.00  0.00     0.098 A 
ATOM      4  C   UNL     1     -27.695 -40.817  42.708  1.00  0.00     0.142 A 
ATOM      5  C   UNL     1     -28.448 -41.936  43.121  1.00  0.00     0.022 A 
ATOM      6  C   UNL     1     -28.973 -41.987  44.419  1.00  0.00     0.062 A 
ATOM      7  C   UNL     1     -28.650 -42.977  42.208  1.00  0.00     0.019 A 
ATOM      8  C   UNL     1     -28.108 -42.880  40.927  1.00  0.00     0.094 A 
ATOM      9  C   UNL     1     -27.373 -41.739  40.588  1.00  0.00     0.336 A 
ATOM     10  O   UNL     1     -26.875 -41.632  39.436  1.00  0.00    -0.246 OA
ATOM     11  O   UNL     1     -27.195 -40.764  41.475  1.00  0.00    -0.423 OA
ENDROOT
BRANCH   1  12
ATOM     12  O   UNL     1     -29.260 -40.937  46.625  1.00  0.00    -0.493 OA
ATOM     13  C   UNL     1     -29.127 -42.025  47.533  1.00  0.00     0.278 C 
ENDBRANCH   1  12
BRANCH   2  14
ATOM     14  O   UNL     1     -27.758 -38.735  45.752  1.00  0.00    -0.504 OA
ATOM     15  H   UNL     1     -27.173 -38.821  46.574  1.00  0.00     0.293 HD
ENDBRANCH   2  14
TORSDOF 2
ENDMDL
MODEL 9
REMARK VINA RESULT:    -2.747     16.006     17.428
REMARK INTER + INTRA:          -3.048
REMARK INTER:                  -2.983
REMARK INTRA:                  -0.065
REMARK UNBOUND:                -0.061
REMARK SMILES COc1cc2ccc(=O)oc2cc1O
REMARK SMILES IDX 3 1 13 2 12 3 11 4 5 5 4 6 6 7 7 8 8 9 9 10 10 11 2 12 1 13
REMARK SMILES IDX 14 14
REMARK H PARENT 14 15
REMARK Flexibility Score: inf
ROOT
ATOM      1  C   UNL     1     -28.677 -24.768  43.660  1.00  0.00     0.161 A 
ATOM      2  C   UNL     1     -29.784 -24.350  44.424  1.00  0.00     0.161 A 
ATOM      3  C   UNL     1     -29.911 -24.747  45.759  1.00  0.00     0.098 A 
ATOM      4  C   UNL     1     -28.942 -25.561  46.350  1.00  0.00     0.142 A 
ATOM      5  C   UNL     1     -27.828 -25.986  45.595  1.00  0.00     0.022 A 
ATOM      6  C   UNL     1     -27.697 -25.590  44.257  1.00  0.00     0.062 A 
ATOM      7  C   UNL     1     -26.875 -26.800  46.214  1.00  0.00     0.019 A 
ATOM      8  C   UNL     1     -27.049 -27.167  47.548  1.00  0.00     0.094 A 
ATOM      9  C   UNL     1     -28.178 -26.707  48.234  1.00  0.00     0.336 A 
ATOM     10  O   UNL     1     -28.354 -27.027  49.439  1.00  0.00    -0.246 OA
ATOM     11  O   UNL     1     -29.070 -25.933  47.622  1.00  0.00    -0.423 OA
ENDROOT
BRANCH   1  12
ATOM     12  O   UNL     1     -28.580 -24.352  42.323  1.00  0.00    -0.493 OA
ATOM     13  C   UNL     1     -27.794 -23.254  41.872  1.00  0.00     0.278 C 
ENDBRANCH   1  12
BRANCH   2  14
ATOM     14  O   UNL     1     -30.772 -23.536  43.869  1.00  0.00    -0.504 OA
ATOM     15  H   UNL     1     -30.558 -22.803  43.205  1.00  0.00     0.293 HD
ENDBRANCH   2  14
TORSDOF 2
ENDMDL
