MODEL 1
REMARK VINA RESULT:     2.572      0.000      0.000
REMARK INTER + INTRA:           3.441
REMARK INTER:                   4.075
REMARK INTRA:                  -0.634
REMARK UNBOUND:                -0.634
REMARK SMILES CCCCCCCCCCCC(=O)[O-]
REMARK SMILES IDX 7 1 8 2 9 3 10 4 11 5 12 6 13 7 14 8 6 9 5 10 4 11 3 12 2 13
REMARK SMILES IDX 1 14
REMARK H PARENT
REMARK Flexibility Score: inf
ROOT
ATOM      1  C   UNL     1     -15.856  24.267 -18.168  1.00  0.00     0.000 C 
ENDROOT
BRANCH   1   2
ATOM      2  C   UNL     1     -16.308  23.421 -19.372  1.00  0.00     0.000 C 
BRANCH   2   3
ATOM      3  C   UNL     1     -15.675  23.879 -20.697  1.00  0.00     0.000 C 
BRANCH   3   4
ATOM      4  C   UNL     1     -14.644  22.875 -21.237  1.00  0.00     0.006 C 
BRANCH   4   5
ATOM      5  C   UNL     1     -14.386  23.048 -22.740  1.00  0.00     0.053 C 
BRANCH   5   6
ATOM      6  C   UNL     1     -13.068  23.718 -22.970  1.00  0.00     0.041 C 
ATOM      7  O   UNL     1     -13.010  24.966 -23.125  1.00  0.00    -0.550 OA
ATOM      8  O   UNL     1     -11.897  22.971 -22.963  1.00  0.00    -0.550 OA
ENDBRANCH   5   6
ENDBRANCH   4   5
ENDBRANCH   3   4
ENDBRANCH   2   3
ENDBRANCH   1   2
BRANCH   1   9
ATOM      9  C   UNL     1     -16.944  25.168 -17.557  1.00  0.00     0.000 C 
BRANCH   9  10
ATOM     10  C   UNL     1     -17.595  26.106 -18.588  1.00  0.00    -0.000 C 
BRANCH  10  11
ATOM     11  C   UNL     1     -16.647  27.219 -19.068  1.00  0.00    -0.000 C 
BRANCH  11  12
ATOM     12  C   UNL     1     -16.915  27.746 -20.492  1.00  0.00    -0.000 C 
BRANCH  12  13
ATOM     13  C   UNL     1     -18.365  28.182 -20.763  1.00  0.00    -0.003 C 
ATOM     14  C   UNL     1     -18.486  29.147 -21.942  1.00  0.00     0.004 C 
ENDBRANCH  12  13
ENDBRANCH  11  12
ENDBRANCH  10  11
ENDBRANCH   9  10
ENDBRANCH   1   9
TORSDOF 10
ENDMDL
MODEL 2
REMARK VINA RESULT:     3.243      2.981      5.879
REMARK INTER + INTRA:           4.505
REMARK INTER:                   5.047
REMARK INTRA:                  -0.542
REMARK UNBOUND:                -0.634
REMARK SMILES CCCCCCCCCCCC(=O)[O-]
REMARK SMILES IDX 7 1 8 2 9 3 10 4 11 5 12 6 13 7 14 8 6 9 5 10 4 11 3 12 2 13
REMARK SMILES IDX 1 14
REMARK H PARENT
REMARK Flexibility Score: inf
ROOT
ATOM      1  C   UNL     1     -15.762  24.242 -18.358  1.00  0.00     0.000 C 
ENDROOT
BRANCH   1   2
ATOM      2  C   UNL     1     -16.804  24.949 -17.474  1.00  0.00     0.000 C 
BRANCH   2   3
ATOM      3  C   UNL     1     -17.172  26.352 -17.986  1.00  0.00     0.000 C 
BRANCH   3   4
ATOM      4  C   UNL     1     -16.937  26.510 -19.497  1.00  0.00     0.006 C 
BRANCH   4   5
ATOM      5  C   UNL     1     -16.955  27.977 -19.945  1.00  0.00     0.053 C 
BRANCH   5   6
ATOM      6  C   UNL     1     -18.271  28.315 -20.572  1.00  0.00     0.041 C 
ATOM      7  O   UNL     1     -18.331  28.631 -21.789  1.00  0.00    -0.550 OA
ATOM      8  O   UNL     1     -19.439  28.232 -19.824  1.00  0.00    -0.550 OA
ENDBRANCH   5   6
ENDBRANCH   4   5
ENDBRANCH   3   4
ENDBRANCH   2   3
ENDBRANCH   1   2
BRANCH   1   9
ATOM      9  C   UNL     1     -16.256  22.961 -19.055  1.00  0.00     0.000 C 
BRANCH   9  10
ATOM     10  C   UNL     1     -16.219  23.061 -20.590  1.00  0.00    -0.000 C 
BRANCH  10  11
ATOM     11  C   UNL     1     -14.806  22.875 -21.169  1.00  0.00    -0.000 C 
BRANCH  11  12
ATOM     12  C   UNL     1     -14.658  23.203 -22.669  1.00  0.00    -0.000 C 
BRANCH  12  13
ATOM     13  C   UNL     1     -13.312  23.830 -23.070  1.00  0.00    -0.003 C 
ATOM     14  C   UNL     1     -12.121  22.915 -22.784  1.00  0.00     0.004 C 
ENDBRANCH  12  13
ENDBRANCH  11  12
ENDBRANCH  10  11
ENDBRANCH   9  10
ENDBRANCH   1   9
TORSDOF 10
ENDMDL
