MODEL 1
REMARK VINA RESULT:    -5.585      0.000      0.000
REMARK INTER + INTRA:         -14.899
REMARK INTER:                 -12.115
REMARK INTRA:                  -2.784
REMARK UNBOUND:                -2.784
REMARK SMILES CCCCCCCCCCCCCCCCCCCCCC(=O)[O-]
REMARK SMILES IDX 12 1 11 2 10 3 9 4 8 5 7 6 6 7 5 8 4 9 3 10 2 11 1 12 13 13
REMARK SMILES IDX 14 14 15 15 16 16 17 17 18 18 19 19 20 20 21 21 22 22 23 23
REMARK SMILES IDX 24 24
REMARK H PARENT
REMARK Flexibility Score: inf
ROOT
ATOM      1  C   UNL     1      -7.420 -14.048  28.747  1.00  0.00     0.000 C 
ENDROOT
BRANCH   1   2
ATOM      2  C   UNL     1      -7.856 -15.207  29.661  1.00  0.00     0.000 C 
BRANCH   2   3
ATOM      3  C   UNL     1      -7.314 -15.041  31.091  1.00  0.00     0.000 C 
BRANCH   3   4
ATOM      4  C   UNL     1      -7.056 -13.562  31.451  1.00  0.00    -0.000 C 
BRANCH   4   5
ATOM      5  C   UNL     1      -6.038 -13.368  32.591  1.00  0.00    -0.000 C 
BRANCH   5   6
ATOM      6  C   UNL     1      -5.358 -11.988  32.614  1.00  0.00    -0.000 C 
BRANCH   6   7
ATOM      7  C   UNL     1      -5.788 -11.094  31.439  1.00  0.00    -0.000 C 
BRANCH   7   8
ATOM      8  C   UNL     1      -4.643 -10.857  30.437  1.00  0.00    -0.000 C 
BRANCH   8   9
ATOM      9  C   UNL     1      -4.558 -11.918  29.322  1.00  0.00    -0.000 C 
BRANCH   9  10
ATOM     10  C   UNL     1      -3.407 -12.925  29.510  1.00  0.00    -0.000 C 
BRANCH  10  11
ATOM     11  C   UNL     1      -3.911 -14.371  29.649  1.00  0.00    -0.003 C 
ATOM     12  C   UNL     1      -2.755 -15.341  29.882  1.00  0.00     0.004 C 
ENDBRANCH  10  11
ENDBRANCH   9  10
ENDBRANCH   8   9
ENDBRANCH   7   8
ENDBRANCH   6   7
ENDBRANCH   5   6
ENDBRANCH   4   5
ENDBRANCH   3   4
ENDBRANCH   2   3
ENDBRANCH   1   2
BRANCH   1  13
ATOM     13  C   UNL     1      -7.041 -14.534  27.337  1.00  0.00     0.000 C 
BRANCH  13  14
ATOM     14  C   UNL     1      -8.187 -15.301  26.646  1.00  0.00     0.000 C 
BRANCH  14  15
ATOM     15  C   UNL     1      -9.350 -14.398  26.187  1.00  0.00     0.000 C 
BRANCH  15  16
ATOM     16  C   UNL     1     -10.684 -15.160  26.076  1.00  0.00     0.000 C 
BRANCH  16  17
ATOM     17  C   UNL     1     -10.996 -15.994  27.330  1.00  0.00     0.000 C 
BRANCH  17  18
ATOM     18  C   UNL     1     -12.506 -16.187  27.549  1.00  0.00     0.000 C 
BRANCH  18  19
ATOM     19  C   UNL     1     -12.803 -16.644  28.982  1.00  0.00     0.000 C 
BRANCH  19  20
ATOM     20  C   UNL     1     -11.615 -16.391  29.925  1.00  0.00     0.006 C 
BRANCH  20  21
ATOM     21  C   UNL     1     -11.444 -17.511  30.963  1.00  0.00     0.053 C 
BRANCH  21  22
ATOM     22  C   UNL     1     -10.405 -18.495  30.517  1.00  0.00     0.041 C 
ATOM     23  O   UNL     1      -9.477 -18.839  31.300  1.00  0.00    -0.550 OA
ATOM     24  O   UNL     1     -10.440 -19.007  29.227  1.00  0.00    -0.550 OA
ENDBRANCH  21  22
ENDBRANCH  20  21
ENDBRANCH  19  20
ENDBRANCH  18  19
ENDBRANCH  17  18
ENDBRANCH  16  17
ENDBRANCH  15  16
ENDBRANCH  14  15
ENDBRANCH  13  14
ENDBRANCH   1  13
TORSDOF 20
ENDMDL
MODEL 2
REMARK VINA RESULT:    -5.499      0.943      1.559
REMARK INTER + INTRA:         -14.713
REMARK INTER:                 -11.841
REMARK INTRA:                  -2.872
REMARK UNBOUND:                -2.784
REMARK SMILES CCCCCCCCCCCCCCCCCCCCCC(=O)[O-]
REMARK SMILES IDX 12 1 11 2 10 3 9 4 8 5 7 6 6 7 5 8 4 9 3 10 2 11 1 12 13 13
REMARK SMILES IDX 14 14 15 15 16 16 17 17 18 18 19 19 20 20 21 21 22 22 23 23
REMARK SMILES IDX 24 24
REMARK H PARENT
REMARK Flexibility Score: inf
ROOT
ATOM      1  C   UNL     1      -7.766 -14.911  29.724  1.00  0.00     0.000 C 
ENDROOT
BRANCH   1   2
ATOM      2  C   UNL     1      -7.114 -15.198  31.088  1.00  0.00     0.000 C 
BRANCH   2   3
ATOM      3  C   UNL     1      -5.752 -14.494  31.228  1.00  0.00     0.000 C 
BRANCH   3   4
ATOM      4  C   UNL     1      -5.589 -13.805  32.601  1.00  0.00    -0.000 C 
BRANCH   4   5
ATOM      5  C   UNL     1      -5.118 -12.341  32.509  1.00  0.00    -0.000 C 
BRANCH   5   6
ATOM      6  C   UNL     1      -6.185 -11.357  31.999  1.00  0.00    -0.000 C 
BRANCH   6   7
ATOM      7  C   UNL     1      -5.856 -10.793  30.606  1.00  0.00    -0.000 C 
BRANCH   7   8
ATOM      8  C   UNL     1      -4.341 -10.626  30.387  1.00  0.00    -0.000 C 
BRANCH   8   9
ATOM      9  C   UNL     1      -3.793 -11.414  29.181  1.00  0.00    -0.000 C 
BRANCH   9  10
ATOM     10  C   UNL     1      -2.462 -12.137  29.465  1.00  0.00    -0.000 C 
BRANCH  10  11
ATOM     11  C   UNL     1      -2.651 -13.646  29.688  1.00  0.00    -0.003 C 
ATOM     12  C   UNL     1      -2.089 -14.083  31.039  1.00  0.00     0.004 C 
ENDBRANCH  10  11
ENDBRANCH   9  10
ENDBRANCH   8   9
ENDBRANCH   7   8
ENDBRANCH   6   7
ENDBRANCH   5   6
ENDBRANCH   4   5
ENDBRANCH   3   4
ENDBRANCH   2   3
ENDBRANCH   1   2
BRANCH   1  13
ATOM     13  C   UNL     1      -6.912 -13.963  28.862  1.00  0.00     0.000 C 
BRANCH  13  14
ATOM     14  C   UNL     1      -6.644 -14.526  27.452  1.00  0.00     0.000 C 
BRANCH  14  15
ATOM     15  C   UNL     1      -7.855 -15.253  26.832  1.00  0.00     0.000 C 
BRANCH  15  16
ATOM     16  C   UNL     1      -8.899 -14.280  26.253  1.00  0.00     0.000 C 
BRANCH  16  17
ATOM     17  C   UNL     1     -10.330 -14.839  26.318  1.00  0.00     0.000 C 
BRANCH  17  18
ATOM     18  C   UNL     1     -10.498 -15.905  27.413  1.00  0.00     0.000 C 
BRANCH  18  19
ATOM     19  C   UNL     1     -11.961 -16.348  27.535  1.00  0.00     0.000 C 
BRANCH  19  20
ATOM     20  C   UNL     1     -12.448 -16.330  28.994  1.00  0.00     0.006 C 
BRANCH  20  21
ATOM     21  C   UNL     1     -11.321 -16.642  29.990  1.00  0.00     0.053 C 
BRANCH  21  22
ATOM     22  C   UNL     1     -11.274 -18.107  30.299  1.00  0.00     0.041 C 
ATOM     23  O   UNL     1     -12.163 -18.634  31.024  1.00  0.00    -0.550 OA
ATOM     24  O   UNL     1     -10.230 -18.887  29.816  1.00  0.00    -0.550 OA
ENDBRANCH  21  22
ENDBRANCH  20  21
ENDBRANCH  19  20
ENDBRANCH  18  19
ENDBRANCH  17  18
ENDBRANCH  16  17
ENDBRANCH  15  16
ENDBRANCH  14  15
ENDBRANCH  13  14
ENDBRANCH   1  13
TORSDOF 20
ENDMDL
MODEL 3
REMARK VINA RESULT:    -5.429      1.113      1.888
REMARK INTER + INTRA:         -14.560
REMARK INTER:                 -12.405
REMARK INTRA:                  -2.155
REMARK UNBOUND:                -2.784
REMARK SMILES CCCCCCCCCCCCCCCCCCCCCC(=O)[O-]
REMARK SMILES IDX 12 1 11 2 10 3 9 4 8 5 7 6 6 7 5 8 4 9 3 10 2 11 1 12 13 13
REMARK SMILES IDX 14 14 15 15 16 16 17 17 18 18 19 19 20 20 21 21 22 22 23 23
REMARK SMILES IDX 24 24
REMARK H PARENT
REMARK Flexibility Score: inf
ROOT
ATOM      1  C   UNL     1      -6.731 -14.510  26.762  1.00  0.00     0.000 C 
ENDROOT
BRANCH   1   2
ATOM      2  C   UNL     1      -6.093 -14.173  28.122  1.00  0.00     0.000 C 
BRANCH   2   3
ATOM      3  C   UNL     1      -7.137 -14.139  29.250  1.00  0.00     0.000 C 
BRANCH   3   4
ATOM      4  C   UNL     1      -6.641 -13.352  30.483  1.00  0.00    -0.000 C 
BRANCH   4   5
ATOM      5  C   UNL     1      -5.658 -14.141  31.369  1.00  0.00    -0.000 C 
BRANCH   5   6
ATOM      6  C   UNL     1      -5.362 -13.491  32.732  1.00  0.00    -0.000 C 
BRANCH   6   7
ATOM      7  C   UNL     1      -5.231 -11.961  32.645  1.00  0.00    -0.000 C 
BRANCH   7   8
ATOM      8  C   UNL     1      -3.771 -11.492  32.791  1.00  0.00    -0.000 C 
BRANCH   8   9
ATOM      9  C   UNL     1      -2.957 -11.565  31.483  1.00  0.00    -0.000 C 
BRANCH   9  10
ATOM     10  C   UNL     1      -3.693 -10.980  30.262  1.00  0.00    -0.000 C 
BRANCH  10  11
ATOM     11  C   UNL     1      -3.037 -11.387  28.932  1.00  0.00    -0.003 C 
ATOM     12  C   UNL     1      -2.743 -12.885  28.894  1.00  0.00     0.004 C 
ENDBRANCH  10  11
ENDBRANCH   9  10
ENDBRANCH   8   9
ENDBRANCH   7   8
ENDBRANCH   6   7
ENDBRANCH   5   6
ENDBRANCH   4   5
ENDBRANCH   3   4
ENDBRANCH   2   3
ENDBRANCH   1   2
BRANCH   1  13
ATOM     13  C   UNL     1      -8.101 -15.195  26.921  1.00  0.00     0.000 C 
BRANCH  13  14
ATOM     14  C   UNL     1      -9.224 -14.455  26.166  1.00  0.00     0.000 C 
BRANCH  14  15
ATOM     15  C   UNL     1     -10.594 -15.159  26.247  1.00  0.00     0.000 C 
BRANCH  15  16
ATOM     16  C   UNL     1     -10.753 -16.005  27.524  1.00  0.00     0.000 C 
BRANCH  16  17
ATOM     17  C   UNL     1     -12.084 -16.774  27.564  1.00  0.00     0.000 C 
BRANCH  17  18
ATOM     18  C   UNL     1     -13.070 -16.194  28.591  1.00  0.00     0.000 C 
BRANCH  18  19
ATOM     19  C   UNL     1     -13.271 -17.155  29.769  1.00  0.00     0.000 C 
BRANCH  19  20
ATOM     20  C   UNL     1     -12.157 -17.018  30.820  1.00  0.00     0.006 C 
BRANCH  20  21
ATOM     21  C   UNL     1     -11.616 -18.380  31.280  1.00  0.00     0.053 C 
BRANCH  21  22
ATOM     22  C   UNL     1     -10.271 -18.650  30.676  1.00  0.00     0.041 C 
ATOM     23  O   UNL     1     -10.173 -18.989  29.465  1.00  0.00    -0.550 OA
ATOM     24  O   UNL     1      -9.127 -18.560  31.459  1.00  0.00    -0.550 OA
ENDBRANCH  21  22
ENDBRANCH  20  21
ENDBRANCH  19  20
ENDBRANCH  18  19
ENDBRANCH  17  18
ENDBRANCH  16  17
ENDBRANCH  15  16
ENDBRANCH  14  15
ENDBRANCH  13  14
ENDBRANCH   1  13
TORSDOF 20
ENDMDL
MODEL 4
REMARK VINA RESULT:    -5.412      3.125      7.966
REMARK INTER + INTRA:         -14.523
REMARK INTER:                 -12.030
REMARK INTRA:                  -2.493
REMARK UNBOUND:                -2.784
REMARK SMILES CCCCCCCCCCCCCCCCCCCCCC(=O)[O-]
REMARK SMILES IDX 12 1 11 2 10 3 9 4 8 5 7 6 6 7 5 8 4 9 3 10 2 11 1 12 13 13
REMARK SMILES IDX 14 14 15 15 16 16 17 17 18 18 19 19 20 20 21 21 22 22 23 23
REMARK SMILES IDX 24 24
REMARK H PARENT
REMARK Flexibility Score: inf
ROOT
ATOM      1  C   UNL     1      -7.972 -15.183  26.860  1.00  0.00     0.000 C 
ENDROOT
BRANCH   1   2
ATOM      2  C   UNL     1      -9.219 -14.580  26.192  1.00  0.00     0.000 C 
BRANCH   2   3
ATOM      3  C   UNL     1     -10.426 -15.530  26.273  1.00  0.00     0.000 C 
BRANCH   3   4
ATOM      4  C   UNL     1     -11.052 -15.562  27.684  1.00  0.00    -0.000 C 
BRANCH   4   5
ATOM      5  C   UNL     1     -11.916 -16.809  27.953  1.00  0.00    -0.000 C 
BRANCH   5   6
ATOM      6  C   UNL     1     -13.155 -16.552  28.829  1.00  0.00    -0.000 C 
BRANCH   6   7
ATOM      7  C   UNL     1     -13.296 -17.571  29.972  1.00  0.00    -0.000 C 
BRANCH   7   8
ATOM      8  C   UNL     1     -12.244 -17.357  31.076  1.00  0.00    -0.000 C 
BRANCH   8   9
ATOM      9  C   UNL     1     -11.295 -18.556  31.276  1.00  0.00    -0.000 C 
BRANCH   9  10
ATOM     10  C   UNL     1      -9.880 -18.327  30.711  1.00  0.00    -0.000 C 
BRANCH  10  11
ATOM     11  C   UNL     1      -9.460 -16.848  30.764  1.00  0.00    -0.003 C 
ATOM     12  C   UNL     1      -8.220 -16.654  31.633  1.00  0.00     0.004 C 
ENDBRANCH  10  11
ENDBRANCH   9  10
ENDBRANCH   8   9
ENDBRANCH   7   8
ENDBRANCH   6   7
ENDBRANCH   5   6
ENDBRANCH   4   5
ENDBRANCH   3   4
ENDBRANCH   2   3
ENDBRANCH   1   2
BRANCH   1  13
ATOM     13  C   UNL     1      -7.642 -14.495  28.198  1.00  0.00     0.000 C 
BRANCH  13  14
ATOM     14  C   UNL     1      -6.132 -14.495  28.508  1.00  0.00     0.000 C 
BRANCH  14  15
ATOM     15  C   UNL     1      -5.796 -14.111  29.963  1.00  0.00     0.000 C 
BRANCH  15  16
ATOM     16  C   UNL     1      -6.983 -13.452  30.692  1.00  0.00     0.000 C 
BRANCH  16  17
ATOM     17  C   UNL     1      -6.611 -12.951  32.097  1.00  0.00     0.000 C 
BRANCH  17  18
ATOM     18  C   UNL     1      -5.273 -13.524  32.593  1.00  0.00     0.000 C 
BRANCH  18  19
ATOM     19  C   UNL     1      -4.289 -12.404  32.948  1.00  0.00     0.000 C 
BRANCH  19  20
ATOM     20  C   UNL     1      -3.236 -12.192  31.848  1.00  0.00     0.006 C 
BRANCH  20  21
ATOM     21  C   UNL     1      -3.209 -10.744  31.335  1.00  0.00     0.053 C 
BRANCH  21  22
ATOM     22  C   UNL     1      -4.079 -10.593  30.124  1.00  0.00     0.041 C 
ATOM     23  O   UNL     1      -3.579 -10.664  28.968  1.00  0.00    -0.550 OA
ATOM     24  O   UNL     1      -5.436 -10.338  30.272  1.00  0.00    -0.550 OA
ENDBRANCH  21  22
ENDBRANCH  20  21
ENDBRANCH  19  20
ENDBRANCH  18  19
ENDBRANCH  17  18
ENDBRANCH  16  17
ENDBRANCH  15  16
ENDBRANCH  14  15
ENDBRANCH  13  14
ENDBRANCH   1  13
TORSDOF 20
ENDMDL
MODEL 5
REMARK VINA RESULT:    -5.362      2.671      4.690
REMARK INTER + INTRA:         -14.415
REMARK INTER:                 -12.145
REMARK INTRA:                  -2.270
REMARK UNBOUND:                -2.784
REMARK SMILES CCCCCCCCCCCCCCCCCCCCCC(=O)[O-]
REMARK SMILES IDX 12 1 11 2 10 3 9 4 8 5 7 6 6 7 5 8 4 9 3 10 2 11 1 12 13 13
REMARK SMILES IDX 14 14 15 15 16 16 17 17 18 18 19 19 20 20 21 21 22 22 23 23
REMARK SMILES IDX 24 24
REMARK H PARENT
REMARK Flexibility Score: inf
ROOT
ATOM      1  C   UNL     1      -9.210 -14.443  25.927  1.00  0.00     0.000 C 
ENDROOT
BRANCH   1   2
ATOM      2  C   UNL     1      -8.240 -14.398  27.121  1.00  0.00     0.000 C 
BRANCH   2   3
ATOM      3  C   UNL     1      -6.776 -14.288  26.663  1.00  0.00     0.000 C 
BRANCH   3   4
ATOM      4  C   UNL     1      -5.788 -14.800  27.734  1.00  0.00    -0.000 C 
BRANCH   4   5
ATOM      5  C   UNL     1      -4.925 -13.691  28.365  1.00  0.00    -0.000 C 
BRANCH   5   6
ATOM      6  C   UNL     1      -5.063 -13.565  29.892  1.00  0.00    -0.000 C 
BRANCH   6   7
ATOM      7  C   UNL     1      -6.475 -13.139  30.329  1.00  0.00    -0.000 C 
BRANCH   7   8
ATOM      8  C   UNL     1      -7.120 -14.156  31.288  1.00  0.00    -0.000 C 
BRANCH   8   9
ATOM      9  C   UNL     1      -8.033 -15.184  30.588  1.00  0.00    -0.000 C 
BRANCH   9  10
ATOM     10  C   UNL     1      -8.232 -16.483  31.391  1.00  0.00    -0.000 C 
BRANCH  10  11
ATOM     11  C   UNL     1      -9.572 -17.168  31.074  1.00  0.00    -0.003 C 
ATOM     12  C   UNL     1      -9.454 -18.688  31.165  1.00  0.00     0.004 C 
ENDBRANCH  10  11
ENDBRANCH   9  10
ENDBRANCH   8   9
ENDBRANCH   7   8
ENDBRANCH   6   7
ENDBRANCH   5   6
ENDBRANCH   4   5
ENDBRANCH   3   4
ENDBRANCH   2   3
ENDBRANCH   1   2
BRANCH   1  13
ATOM     13  C   UNL     1     -10.490 -15.235  26.251  1.00  0.00     0.000 C 
BRANCH  13  14
ATOM     14  C   UNL     1     -10.416 -15.948  27.616  1.00  0.00     0.000 C 
BRANCH  14  15
ATOM     15  C   UNL     1     -11.672 -16.777  27.953  1.00  0.00     0.000 C 
BRANCH  15  16
ATOM     16  C   UNL     1     -12.491 -16.170  29.107  1.00  0.00     0.000 C 
BRANCH  16  17
ATOM     17  C   UNL     1     -13.530 -17.151  29.677  1.00  0.00     0.000 C 
BRANCH  17  18
ATOM     18  C   UNL     1     -12.881 -18.342  30.400  1.00  0.00     0.000 C 
BRANCH  18  19
ATOM     19  C   UNL     1     -13.358 -18.433  31.855  1.00  0.00     0.000 C 
BRANCH  19  20
ATOM     20  C   UNL     1     -12.929 -19.751  32.521  1.00  0.00     0.006 C 
BRANCH  20  21
ATOM     21  C   UNL     1     -12.898 -19.649  34.053  1.00  0.00     0.053 C 
BRANCH  21  22
ATOM     22  C   UNL     1     -14.285 -19.717  34.619  1.00  0.00     0.041 C 
ATOM     23  O   UNL     1     -15.050 -20.673  34.315  1.00  0.00    -0.550 OA
ATOM     24  O   UNL     1     -14.745 -18.708  35.454  1.00  0.00    -0.550 OA
ENDBRANCH  21  22
ENDBRANCH  20  21
ENDBRANCH  19  20
ENDBRANCH  18  19
ENDBRANCH  17  18
ENDBRANCH  16  17
ENDBRANCH  15  16
ENDBRANCH  14  15
ENDBRANCH  13  14
ENDBRANCH   1  13
TORSDOF 20
ENDMDL
MODEL 6
REMARK VINA RESULT:    -5.359      3.555      8.416
REMARK INTER + INTRA:         -14.408
REMARK INTER:                 -12.849
REMARK INTRA:                  -1.559
REMARK UNBOUND:                -2.784
REMARK SMILES CCCCCCCCCCCCCCCCCCCCCC(=O)[O-]
REMARK SMILES IDX 12 1 11 2 10 3 9 4 8 5 7 6 6 7 5 8 4 9 3 10 2 11 1 12 13 13
REMARK SMILES IDX 14 14 15 15 16 16 17 17 18 18 19 19 20 20 21 21 22 22 23 23
REMARK SMILES IDX 24 24
REMARK H PARENT
REMARK Flexibility Score: inf
ROOT
ATOM      1  C   UNL     1     -10.534 -16.012  27.677  1.00  0.00     0.000 C 
ENDROOT
BRANCH   1   2
ATOM      2  C   UNL     1     -11.827 -16.846  27.734  1.00  0.00     0.000 C 
BRANCH   2   3
ATOM      3  C   UNL     1     -11.651 -18.114  28.588  1.00  0.00     0.000 C 
BRANCH   3   4
ATOM      4  C   UNL     1     -10.572 -17.939  29.679  1.00  0.00    -0.000 C 
BRANCH   4   5
ATOM      5  C   UNL     1     -11.128 -17.986  31.115  1.00  0.00    -0.000 C 
BRANCH   5   6
ATOM      6  C   UNL     1     -12.612 -17.602  31.240  1.00  0.00    -0.000 C 
BRANCH   6   7
ATOM      7  C   UNL     1     -13.196 -17.927  32.625  1.00  0.00    -0.000 C 
BRANCH   7   8
ATOM      8  C   UNL     1     -12.743 -19.306  33.139  1.00  0.00    -0.000 C 
BRANCH   8   9
ATOM      9  C   UNL     1     -13.570 -20.483  32.585  1.00  0.00    -0.000 C 
BRANCH   9  10
ATOM     10  C   UNL     1     -14.647 -20.996  33.560  1.00  0.00    -0.000 C 
BRANCH  10  11
ATOM     11  C   UNL     1     -14.063 -21.382  34.929  1.00  0.00    -0.003 C 
ATOM     12  C   UNL     1     -13.179 -22.623  34.826  1.00  0.00     0.004 C 
ENDBRANCH  10  11
ENDBRANCH   9  10
ENDBRANCH   8   9
ENDBRANCH   7   8
ENDBRANCH   6   7
ENDBRANCH   5   6
ENDBRANCH   4   5
ENDBRANCH   3   4
ENDBRANCH   2   3
ENDBRANCH   1   2
BRANCH   1  13
ATOM     13  C   UNL     1     -10.436 -15.185  26.382  1.00  0.00     0.000 C 
BRANCH  13  14
ATOM     14  C   UNL     1      -9.080 -14.465  26.240  1.00  0.00     0.000 C 
BRANCH  14  15
ATOM     15  C   UNL     1      -7.949 -15.101  27.073  1.00  0.00     0.000 C 
BRANCH  15  16
ATOM     16  C   UNL     1      -6.635 -14.301  26.999  1.00  0.00     0.000 C 
BRANCH  16  17
ATOM     17  C   UNL     1      -6.073 -13.954  28.388  1.00  0.00     0.000 C 
BRANCH  17  18
ATOM     18  C   UNL     1      -7.140 -14.034  29.492  1.00  0.00     0.000 C 
BRANCH  18  19
ATOM     19  C   UNL     1      -6.644 -14.866  30.681  1.00  0.00     0.000 C 
BRANCH  19  20
ATOM     20  C   UNL     1      -6.780 -14.108  32.011  1.00  0.00     0.006 C 
BRANCH  20  21
ATOM     21  C   UNL     1      -5.436 -13.560  32.513  1.00  0.00     0.053 C 
BRANCH  21  22
ATOM     22  C   UNL     1      -5.224 -12.154  32.038  1.00  0.00     0.041 C 
ATOM     23  O   UNL     1      -6.211 -11.401  31.818  1.00  0.00    -0.550 OA
ATOM     24  O   UNL     1      -3.937 -11.686  31.807  1.00  0.00    -0.550 OA
ENDBRANCH  21  22
ENDBRANCH  20  21
ENDBRANCH  19  20
ENDBRANCH  18  19
ENDBRANCH  17  18
ENDBRANCH  16  17
ENDBRANCH  15  16
ENDBRANCH  14  15
ENDBRANCH  13  14
ENDBRANCH   1  13
TORSDOF 20
ENDMDL
MODEL 7
REMARK VINA RESULT:    -5.296      1.539      2.309
REMARK INTER + INTRA:         -14.273
REMARK INTER:                 -11.839
REMARK INTRA:                  -2.435
REMARK UNBOUND:                -2.784
REMARK SMILES CCCCCCCCCCCCCCCCCCCCCC(=O)[O-]
REMARK SMILES IDX 12 1 11 2 10 3 9 4 8 5 7 6 6 7 5 8 4 9 3 10 2 11 1 12 13 13
REMARK SMILES IDX 14 14 15 15 16 16 17 17 18 18 19 19 20 20 21 21 22 22 23 23
REMARK SMILES IDX 24 24
REMARK H PARENT
REMARK Flexibility Score: inf
ROOT
ATOM      1  C   UNL     1      -7.583 -14.889  29.426  1.00  0.00     0.000 C 
ENDROOT
BRANCH   1   2
ATOM      2  C   UNL     1      -7.129 -14.850  30.896  1.00  0.00     0.000 C 
BRANCH   2   3
ATOM      3  C   UNL     1      -6.830 -13.415  31.363  1.00  0.00     0.000 C 
BRANCH   3   4
ATOM      4  C   UNL     1      -6.105 -13.383  32.726  1.00  0.00    -0.000 C 
BRANCH   4   5
ATOM      5  C   UNL     1      -4.627 -12.959  32.633  1.00  0.00    -0.000 C 
BRANCH   5   6
ATOM      6  C   UNL     1      -4.205 -12.402  31.262  1.00  0.00    -0.000 C 
BRANCH   6   7
ATOM      7  C   UNL     1      -2.965 -13.108  30.689  1.00  0.00    -0.000 C 
BRANCH   7   8
ATOM      8  C   UNL     1      -3.336 -14.206  29.674  1.00  0.00    -0.000 C 
BRANCH   8   9
ATOM      9  C   UNL     1      -3.049 -13.825  28.208  1.00  0.00    -0.000 C 
BRANCH   9  10
ATOM     10  C   UNL     1      -2.978 -15.035  27.257  1.00  0.00    -0.000 C 
BRANCH  10  11
ATOM     11  C   UNL     1      -2.266 -14.700  25.936  1.00  0.00    -0.003 C 
ATOM     12  C   UNL     1      -1.820 -13.240  25.900  1.00  0.00     0.004 C 
ENDBRANCH  10  11
ENDBRANCH   9  10
ENDBRANCH   8   9
ENDBRANCH   7   8
ENDBRANCH   6   7
ENDBRANCH   5   6
ENDBRANCH   4   5
ENDBRANCH   3   4
ENDBRANCH   2   3
ENDBRANCH   1   2
BRANCH   1  13
ATOM     13  C   UNL     1      -6.754 -13.942  28.539  1.00  0.00     0.000 C 
BRANCH  13  14
ATOM     14  C   UNL     1      -6.690 -14.409  27.071  1.00  0.00     0.000 C 
BRANCH  14  15
ATOM     15  C   UNL     1      -7.920 -15.225  26.624  1.00  0.00     0.000 C 
BRANCH  15  16
ATOM     16  C   UNL     1      -9.078 -14.333  26.138  1.00  0.00     0.000 C 
BRANCH  16  17
ATOM     17  C   UNL     1     -10.451 -15.011  26.289  1.00  0.00     0.000 C 
BRANCH  17  18
ATOM     18  C   UNL     1     -10.485 -16.023  27.446  1.00  0.00     0.000 C 
BRANCH  18  19
ATOM     19  C   UNL     1     -11.926 -16.404  27.805  1.00  0.00     0.000 C 
BRANCH  19  20
ATOM     20  C   UNL     1     -12.207 -16.243  29.308  1.00  0.00     0.006 C 
BRANCH  20  21
ATOM     21  C   UNL     1     -10.972 -16.549  30.170  1.00  0.00     0.053 C 
BRANCH  21  22
ATOM     22  C   UNL     1     -10.918 -18.004  30.524  1.00  0.00     0.041 C 
ATOM     23  O   UNL     1     -11.981 -18.676  30.623  1.00  0.00    -0.550 OA
ATOM     24  O   UNL     1      -9.695 -18.612  30.779  1.00  0.00    -0.550 OA
ENDBRANCH  21  22
ENDBRANCH  20  21
ENDBRANCH  19  20
ENDBRANCH  18  19
ENDBRANCH  17  18
ENDBRANCH  16  17
ENDBRANCH  15  16
ENDBRANCH  14  15
ENDBRANCH  13  14
ENDBRANCH   1  13
TORSDOF 20
ENDMDL
MODEL 8
REMARK VINA RESULT:    -5.262      3.283      8.212
REMARK INTER + INTRA:         -14.198
REMARK INTER:                 -12.124
REMARK INTRA:                  -2.074
REMARK UNBOUND:                -2.784
REMARK SMILES CCCCCCCCCCCCCCCCCCCCCC(=O)[O-]
REMARK SMILES IDX 12 1 11 2 10 3 9 4 8 5 7 6 6 7 5 8 4 9 3 10 2 11 1 12 13 13
REMARK SMILES IDX 14 14 15 15 16 16 17 17 18 18 19 19 20 20 21 21 22 22 23 23
REMARK SMILES IDX 24 24
REMARK H PARENT
REMARK Flexibility Score: inf
ROOT
ATOM      1  C   UNL     1     -10.520 -16.684  29.245  1.00  0.00     0.000 C 
ENDROOT
BRANCH   1   2
ATOM      2  C   UNL     1     -11.217 -16.975  30.586  1.00  0.00     0.000 C 
BRANCH   2   3
ATOM      3  C   UNL     1     -11.058 -18.447  31.004  1.00  0.00     0.000 C 
BRANCH   3   4
ATOM      4  C   UNL     1     -12.293 -18.975  31.765  1.00  0.00    -0.000 C 
BRANCH   4   5
ATOM      5  C   UNL     1     -13.255 -17.866  32.234  1.00  0.00    -0.000 C 
BRANCH   5   6
ATOM      6  C   UNL     1     -13.480 -17.816  33.755  1.00  0.00    -0.000 C 
BRANCH   6   7
ATOM      7  C   UNL     1     -14.970 -17.794  34.135  1.00  0.00    -0.000 C 
BRANCH   7   8
ATOM      8  C   UNL     1     -15.485 -19.184  34.552  1.00  0.00    -0.000 C 
BRANCH   8   9
ATOM      9  C   UNL     1     -14.404 -20.092  35.171  1.00  0.00    -0.000 C 
BRANCH   9  10
ATOM     10  C   UNL     1     -14.515 -21.568  34.744  1.00  0.00    -0.000 C 
BRANCH  10  11
ATOM     11  C   UNL     1     -13.139 -22.230  34.558  1.00  0.00    -0.003 C 
ATOM     12  C   UNL     1     -12.020 -21.191  34.550  1.00  0.00     0.004 C 
ENDBRANCH  10  11
ENDBRANCH   9  10
ENDBRANCH   8   9
ENDBRANCH   7   8
ENDBRANCH   6   7
ENDBRANCH   5   6
ENDBRANCH   4   5
ENDBRANCH   3   4
ENDBRANCH   2   3
ENDBRANCH   1   2
BRANCH   1  13
ATOM     13  C   UNL     1     -11.470 -16.872  28.047  1.00  0.00     0.000 C 
BRANCH  13  14
ATOM     14  C   UNL     1     -11.519 -15.634  27.130  1.00  0.00     0.000 C 
BRANCH  14  15
ATOM     15  C   UNL     1     -10.352 -15.559  26.125  1.00  0.00     0.000 C 
BRANCH  15  16
ATOM     16  C   UNL     1      -9.805 -14.129  25.956  1.00  0.00     0.000 C 
BRANCH  16  17
ATOM     17  C   UNL     1      -8.278 -14.054  26.126  1.00  0.00     0.000 C 
BRANCH  17  18
ATOM     18  C   UNL     1      -7.767 -14.952  27.265  1.00  0.00     0.000 C 
BRANCH  18  19
ATOM     19  C   UNL     1      -6.378 -14.508  27.738  1.00  0.00     0.000 C 
BRANCH  19  20
ATOM     20  C   UNL     1      -6.278 -14.466  29.272  1.00  0.00     0.006 C 
BRANCH  20  21
ATOM     21  C   UNL     1      -7.630 -14.725  29.953  1.00  0.00     0.053 C 
BRANCH  21  22
ATOM     22  C   UNL     1      -7.434 -15.245  31.345  1.00  0.00     0.041 C 
ATOM     23  O   UNL     1      -7.906 -16.366  31.679  1.00  0.00    -0.550 OA
ATOM     24  O   UNL     1      -6.760 -14.476  32.285  1.00  0.00    -0.550 OA
ENDBRANCH  21  22
ENDBRANCH  20  21
ENDBRANCH  19  20
ENDBRANCH  18  19
ENDBRANCH  17  18
ENDBRANCH  16  17
ENDBRANCH  15  16
ENDBRANCH  14  15
ENDBRANCH  13  14
ENDBRANCH   1  13
TORSDOF 20
ENDMDL
MODEL 9
REMARK VINA RESULT:    -5.210      1.186      2.580
REMARK INTER + INTRA:         -14.085
REMARK INTER:                 -11.206
REMARK INTRA:                  -2.879
REMARK UNBOUND:                -2.784
REMARK SMILES CCCCCCCCCCCCCCCCCCCCCC(=O)[O-]
REMARK SMILES IDX 12 1 11 2 10 3 9 4 8 5 7 6 6 7 5 8 4 9 3 10 2 11 1 12 13 13
REMARK SMILES IDX 14 14 15 15 16 16 17 17 18 18 19 19 20 20 21 21 22 22 23 23
REMARK SMILES IDX 24 24
REMARK H PARENT
REMARK Flexibility Score: inf
ROOT
ATOM      1  C   UNL     1      -6.993 -14.993  30.720  1.00  0.00     0.000 C 
ENDROOT
BRANCH   1   2
ATOM      2  C   UNL     1      -6.691 -14.540  32.159  1.00  0.00     0.000 C 
BRANCH   2   3
ATOM      3  C   UNL     1      -6.411 -13.029  32.236  1.00  0.00     0.000 C 
BRANCH   3   4
ATOM      4  C   UNL     1      -4.950 -12.724  32.632  1.00  0.00    -0.000 C 
BRANCH   4   5
ATOM      5  C   UNL     1      -4.445 -11.355  32.138  1.00  0.00    -0.000 C 
BRANCH   5   6
ATOM      6  C   UNL     1      -5.281 -10.736  31.005  1.00  0.00    -0.000 C 
BRANCH   6   7
ATOM      7  C   UNL     1      -4.533 -10.708  29.661  1.00  0.00    -0.000 C 
BRANCH   7   8
ATOM      8  C   UNL     1      -3.061 -11.139  29.805  1.00  0.00    -0.000 C 
BRANCH   8   9
ATOM      9  C   UNL     1      -2.490 -11.840  28.556  1.00  0.00    -0.000 C 
BRANCH   9  10
ATOM     10  C   UNL     1      -2.059 -13.298  28.806  1.00  0.00    -0.000 C 
BRANCH  10  11
ATOM     11  C   UNL     1      -2.320 -13.746  30.254  1.00  0.00    -0.003 C 
ATOM     12  C   UNL     1      -2.867 -15.171  30.304  1.00  0.00     0.004 C 
ENDBRANCH  10  11
ENDBRANCH   9  10
ENDBRANCH   8   9
ENDBRANCH   7   8
ENDBRANCH   6   7
ENDBRANCH   5   6
ENDBRANCH   4   5
ENDBRANCH   3   4
ENDBRANCH   2   3
ENDBRANCH   1   2
BRANCH   1  13
ATOM     13  C   UNL     1      -7.018 -13.810  29.735  1.00  0.00     0.000 C 
BRANCH  13  14
ATOM     14  C   UNL     1      -5.811 -13.813  28.775  1.00  0.00     0.000 C 
BRANCH  14  15
ATOM     15  C   UNL     1      -6.057 -14.596  27.470  1.00  0.00     0.000 C 
BRANCH  15  16
ATOM     16  C   UNL     1      -7.313 -14.116  26.718  1.00  0.00     0.000 C 
BRANCH  16  17
ATOM     17  C   UNL     1      -8.391 -15.207  26.607  1.00  0.00     0.000 C 
BRANCH  17  18
ATOM     18  C   UNL     1      -9.741 -14.655  26.121  1.00  0.00     0.000 C 
BRANCH  18  19
ATOM     19  C   UNL     1     -10.901 -15.542  26.588  1.00  0.00     0.000 C 
BRANCH  19  20
ATOM     20  C   UNL     1     -10.562 -16.300  27.882  1.00  0.00     0.006 C 
BRANCH  20  21
ATOM     21  C   UNL     1     -11.806 -16.574  28.742  1.00  0.00     0.053 C 
BRANCH  21  22
ATOM     22  C   UNL     1     -11.792 -17.979  29.263  1.00  0.00     0.041 C 
ATOM     23  O   UNL     1     -12.872 -18.552  29.578  1.00  0.00    -0.550 OA
ATOM     24  O   UNL     1     -10.586 -18.645  29.436  1.00  0.00    -0.550 OA
ENDBRANCH  21  22
ENDBRANCH  20  21
ENDBRANCH  19  20
ENDBRANCH  18  19
ENDBRANCH  17  18
ENDBRANCH  16  17
ENDBRANCH  15  16
ENDBRANCH  14  15
ENDBRANCH  13  14
ENDBRANCH   1  13
TORSDOF 20
ENDMDL
