MODEL 1
REMARK VINA RESULT:    -4.429      0.000      0.000
REMARK INTER + INTRA:          -9.321
REMARK INTER:                  -7.536
REMARK INTRA:                  -1.785
REMARK UNBOUND:                -1.785
REMARK SMILES CCCCCCCCCCCCCC(=O)[O-]
REMARK SMILES IDX 8 1 9 2 10 3 11 4 12 5 13 6 14 7 15 8 16 9 7 10 6 11 5 12
REMARK SMILES IDX 4 13 3 14 2 15 1 16
REMARK H PARENT
REMARK Flexibility Score: inf
ROOT
ATOM      1  C   UNL     1       5.402  -5.671  32.266  1.00  0.00     0.000 C 
ENDROOT
BRANCH   1   2
ATOM      2  C   UNL     1       4.927  -7.127  32.398  1.00  0.00     0.000 C 
BRANCH   2   3
ATOM      3  C   UNL     1       4.610  -7.772  31.040  1.00  0.00     0.000 C 
BRANCH   3   4
ATOM      4  C   UNL     1       5.791  -8.615  30.544  1.00  0.00     0.000 C 
BRANCH   4   5
ATOM      5  C   UNL     1       5.760  -8.763  29.016  1.00  0.00     0.006 C 
BRANCH   5   6
ATOM      6  C   UNL     1       5.301  -7.477  28.317  1.00  0.00     0.053 C 
BRANCH   6   7
ATOM      7  C   UNL     1       5.521  -7.542  26.837  1.00  0.00     0.041 C 
ATOM      8  O   UNL     1       6.642  -7.881  26.376  1.00  0.00    -0.550 OA
ATOM      9  O   UNL     1       4.496  -7.193  25.966  1.00  0.00    -0.550 OA
ENDBRANCH   6   7
ENDBRANCH   5   6
ENDBRANCH   4   5
ENDBRANCH   3   4
ENDBRANCH   2   3
ENDBRANCH   1   2
BRANCH   1  10
ATOM     10  C   UNL     1       6.792  -5.445  32.882  1.00  0.00     0.000 C 
BRANCH  10  11
ATOM     11  C   UNL     1       7.894  -5.974  31.957  1.00  0.00    -0.000 C 
BRANCH  11  12
ATOM     12  C   UNL     1       7.643  -5.548  30.502  1.00  0.00    -0.000 C 
BRANCH  12  13
ATOM     13  C   UNL     1       8.573  -6.259  29.506  1.00  0.00    -0.000 C 
BRANCH  13  14
ATOM     14  C   UNL     1       8.575  -5.589  28.120  1.00  0.00    -0.000 C 
BRANCH  14  15
ATOM     15  C   UNL     1       7.717  -4.315  28.081  1.00  0.00    -0.003 C 
ATOM     16  C   UNL     1       7.006  -4.119  26.743  1.00  0.00     0.004 C 
ENDBRANCH  14  15
ENDBRANCH  13  14
ENDBRANCH  12  13
ENDBRANCH  11  12
ENDBRANCH  10  11
ENDBRANCH   1  10
TORSDOF 12
ENDMDL
MODEL 2
REMARK VINA RESULT:    -4.424      1.740      4.702
REMARK INTER + INTRA:          -9.313
REMARK INTER:                  -7.270
REMARK INTRA:                  -2.044
REMARK UNBOUND:                -1.785
REMARK SMILES CCCCCCCCCCCCCC(=O)[O-]
REMARK SMILES IDX 8 1 9 2 10 3 11 4 12 5 13 6 14 7 15 8 16 9 7 10 6 11 5 12
REMARK SMILES IDX 4 13 3 14 2 15 1 16
REMARK H PARENT
REMARK Flexibility Score: inf
ROOT
ATOM      1  C   UNL     1       7.327  -8.906  27.719  1.00  0.00     0.000 C 
ENDROOT
BRANCH   1   2
ATOM      2  C   UNL     1       8.464  -7.895  27.498  1.00  0.00     0.000 C 
BRANCH   2   3
ATOM      3  C   UNL     1       8.652  -6.946  28.691  1.00  0.00     0.000 C 
BRANCH   3   4
ATOM      4  C   UNL     1       8.972  -5.524  28.215  1.00  0.00     0.000 C 
BRANCH   4   5
ATOM      5  C   UNL     1       7.838  -4.554  28.573  1.00  0.00     0.006 C 
BRANCH   5   6
ATOM      6  C   UNL     1       6.580  -4.792  27.728  1.00  0.00     0.053 C 
BRANCH   6   7
ATOM      7  C   UNL     1       6.824  -4.510  26.278  1.00  0.00     0.041 C 
ATOM      8  O   UNL     1       6.363  -5.281  25.395  1.00  0.00    -0.550 OA
ATOM      9  O   UNL     1       7.591  -3.414  25.902  1.00  0.00    -0.550 OA
ENDBRANCH   6   7
ENDBRANCH   5   6
ENDBRANCH   4   5
ENDBRANCH   3   4
ENDBRANCH   2   3
ENDBRANCH   1   2
BRANCH   1  10
ATOM     10  C   UNL     1       5.944  -8.322  27.392  1.00  0.00     0.000 C 
BRANCH  10  11
ATOM     11  C   UNL     1       5.145  -8.054  28.673  1.00  0.00    -0.000 C 
BRANCH  11  12
ATOM     12  C   UNL     1       5.651  -8.927  29.830  1.00  0.00    -0.000 C 
BRANCH  12  13
ATOM     13  C   UNL     1       6.019  -8.108  31.077  1.00  0.00    -0.000 C 
BRANCH  13  14
ATOM     14  C   UNL     1       5.733  -6.606  30.902  1.00  0.00    -0.000 C 
BRANCH  14  15
ATOM     15  C   UNL     1       6.137  -5.783  32.135  1.00  0.00    -0.003 C 
ATOM     16  C   UNL     1       7.635  -5.480  32.182  1.00  0.00     0.004 C 
ENDBRANCH  14  15
ENDBRANCH  13  14
ENDBRANCH  12  13
ENDBRANCH  11  12
ENDBRANCH  10  11
ENDBRANCH   1  10
TORSDOF 12
ENDMDL
MODEL 3
REMARK VINA RESULT:    -4.371      1.654      4.671
REMARK INTER + INTRA:          -9.223
REMARK INTER:                  -7.788
REMARK INTRA:                  -1.434
REMARK UNBOUND:                -1.785
REMARK SMILES CCCCCCCCCCCCCC(=O)[O-]
REMARK SMILES IDX 8 1 9 2 10 3 11 4 12 5 13 6 14 7 15 8 16 9 7 10 6 11 5 12
REMARK SMILES IDX 4 13 3 14 2 15 1 16
REMARK H PARENT
REMARK Flexibility Score: inf
ROOT
ATOM      1  C   UNL     1       7.096  -9.777  27.894  1.00  0.00     0.000 C 
ENDROOT
BRANCH   1   2
ATOM      2  C   UNL     1       7.204  -8.319  27.419  1.00  0.00     0.000 C 
BRANCH   2   3
ATOM      3  C   UNL     1       8.628  -7.758  27.546  1.00  0.00     0.000 C 
BRANCH   3   4
ATOM      4  C   UNL     1       8.739  -6.806  28.743  1.00  0.00     0.000 C 
BRANCH   4   5
ATOM      5  C   UNL     1       8.775  -5.342  28.282  1.00  0.00     0.006 C 
BRANCH   5   6
ATOM      6  C   UNL     1       7.382  -4.699  28.277  1.00  0.00     0.053 C 
BRANCH   6   7
ATOM      7  C   UNL     1       6.865  -4.506  26.886  1.00  0.00     0.041 C 
ATOM      8  O   UNL     1       7.400  -3.661  26.121  1.00  0.00    -0.550 OA
ATOM      9  O   UNL     1       5.768  -5.235  26.444  1.00  0.00    -0.550 OA
ENDBRANCH   6   7
ENDBRANCH   5   6
ENDBRANCH   4   5
ENDBRANCH   3   4
ENDBRANCH   2   3
ENDBRANCH   1   2
BRANCH   1  10
ATOM     10  C   UNL     1       6.099  -9.949  29.051  1.00  0.00     0.000 C 
BRANCH  10  11
ATOM     11  C   UNL     1       5.550  -8.593  29.509  1.00  0.00    -0.000 C 
BRANCH  11  12
ATOM     12  C   UNL     1       5.995  -8.275  30.944  1.00  0.00    -0.000 C 
BRANCH  12  13
ATOM     13  C   UNL     1       4.902  -7.570  31.763  1.00  0.00    -0.000 C 
BRANCH  13  14
ATOM     14  C   UNL     1       5.376  -6.228  32.347  1.00  0.00    -0.000 C 
BRANCH  14  15
ATOM     15  C   UNL     1       6.750  -5.803  31.806  1.00  0.00    -0.003 C 
ATOM     16  C   UNL     1       7.490  -4.852  32.745  1.00  0.00     0.004 C 
ENDBRANCH  14  15
ENDBRANCH  13  14
ENDBRANCH  12  13
ENDBRANCH  11  12
ENDBRANCH  10  11
ENDBRANCH   1  10
TORSDOF 12
ENDMDL
MODEL 4
REMARK VINA RESULT:    -4.286      1.183      3.897
REMARK INTER + INTRA:          -9.078
REMARK INTER:                  -7.619
REMARK INTRA:                  -1.459
REMARK UNBOUND:                -1.785
REMARK SMILES CCCCCCCCCCCCCC(=O)[O-]
REMARK SMILES IDX 8 1 9 2 10 3 11 4 12 5 13 6 14 7 15 8 16 9 7 10 6 11 5 12
REMARK SMILES IDX 4 13 3 14 2 15 1 16
REMARK H PARENT
REMARK Flexibility Score: inf
ROOT
ATOM      1  C   UNL     1       7.403  -5.307  32.231  1.00  0.00     0.000 C 
ENDROOT
BRANCH   1   2
ATOM      2  C   UNL     1       8.237  -6.368  31.494  1.00  0.00     0.000 C 
BRANCH   2   3
ATOM      3  C   UNL     1       7.728  -6.636  30.070  1.00  0.00     0.000 C 
BRANCH   3   4
ATOM      4  C   UNL     1       8.277  -5.597  29.085  1.00  0.00     0.000 C 
BRANCH   4   5
ATOM      5  C   UNL     1       7.143  -4.755  28.483  1.00  0.00     0.006 C 
BRANCH   5   6
ATOM      6  C   UNL     1       5.911  -5.601  28.135  1.00  0.00     0.053 C 
BRANCH   6   7
ATOM      7  C   UNL     1       5.989  -6.149  26.744  1.00  0.00     0.041 C 
ATOM      8  O   UNL     1       5.557  -5.476  25.772  1.00  0.00    -0.550 OA
ATOM      9  O   UNL     1       6.508  -7.419  26.525  1.00  0.00    -0.550 OA
ENDBRANCH   6   7
ENDBRANCH   5   6
ENDBRANCH   4   5
ENDBRANCH   3   4
ENDBRANCH   2   3
ENDBRANCH   1   2
BRANCH   1  10
ATOM     10  C   UNL     1       5.895  -5.454  31.972  1.00  0.00     0.000 C 
BRANCH  10  11
ATOM     11  C   UNL     1       5.241  -6.347  33.032  1.00  0.00    -0.000 C 
BRANCH  11  12
ATOM     12  C   UNL     1       4.379  -7.438  32.377  1.00  0.00    -0.000 C 
BRANCH  12  13
ATOM     13  C   UNL     1       4.883  -7.835  30.980  1.00  0.00    -0.000 C 
BRANCH  13  14
ATOM     14  C   UNL     1       3.761  -8.387  30.083  1.00  0.00    -0.000 C 
BRANCH  14  15
ATOM     15  C   UNL     1       4.218  -9.591  29.245  1.00  0.00    -0.003 C 
ATOM     16  C   UNL     1       5.739  -9.714  29.162  1.00  0.00     0.004 C 
ENDBRANCH  14  15
ENDBRANCH  13  14
ENDBRANCH  12  13
ENDBRANCH  11  12
ENDBRANCH  10  11
ENDBRANCH   1  10
TORSDOF 12
ENDMDL
MODEL 5
REMARK VINA RESULT:    -4.231     12.397     14.904
REMARK INTER + INTRA:          -8.985
REMARK INTER:                  -7.211
REMARK INTRA:                  -1.774
REMARK UNBOUND:                -1.785
REMARK SMILES CCCCCCCCCCCCCC(=O)[O-]
REMARK SMILES IDX 8 1 9 2 10 3 11 4 12 5 13 6 14 7 15 8 16 9 7 10 6 11 5 12
REMARK SMILES IDX 4 13 3 14 2 15 1 16
REMARK H PARENT
REMARK Flexibility Score: inf
ROOT
ATOM      1  C   UNL     1      12.352  -8.576  18.106  1.00  0.00     0.000 C 
ENDROOT
BRANCH   1   2
ATOM      2  C   UNL     1      12.033  -7.557  17.000  1.00  0.00     0.000 C 
BRANCH   2   3
ATOM      3  C   UNL     1      12.473  -6.131  17.363  1.00  0.00     0.000 C 
BRANCH   3   4
ATOM      4  C   UNL     1      13.967  -5.929  17.081  1.00  0.00     0.000 C 
BRANCH   4   5
ATOM      5  C   UNL     1      14.766  -5.827  18.388  1.00  0.00     0.006 C 
BRANCH   5   6
ATOM      6  C   UNL     1      14.399  -4.578  19.198  1.00  0.00     0.053 C 
BRANCH   6   7
ATOM      7  C   UNL     1      14.007  -4.922  20.602  1.00  0.00     0.041 C 
ATOM      8  O   UNL     1      14.401  -5.997  21.125  1.00  0.00    -0.550 OA
ATOM      9  O   UNL     1      13.177  -4.070  21.321  1.00  0.00    -0.550 OA
ENDBRANCH   6   7
ENDBRANCH   5   6
ENDBRANCH   4   5
ENDBRANCH   3   4
ENDBRANCH   2   3
ENDBRANCH   1   2
BRANCH   1  10
ATOM     10  C   UNL     1      13.184  -9.763  17.595  1.00  0.00     0.000 C 
BRANCH  10  11
ATOM     11  C   UNL     1      14.682  -9.511  17.800  1.00  0.00    -0.000 C 
BRANCH  11  12
ATOM     12  C   UNL     1      15.415  -9.427  16.452  1.00  0.00    -0.000 C 
BRANCH  12  13
ATOM     13  C   UNL     1      14.502  -9.743  15.257  1.00  0.00    -0.000 C 
BRANCH  13  14
ATOM     14  C   UNL     1      14.945  -9.026  13.970  1.00  0.00    -0.000 C 
BRANCH  14  15
ATOM     15  C   UNL     1      14.826  -7.498  14.078  1.00  0.00    -0.003 C 
ATOM     16  C   UNL     1      13.501  -6.966  13.531  1.00  0.00     0.004 C 
ENDBRANCH  14  15
ENDBRANCH  13  14
ENDBRANCH  12  13
ENDBRANCH  11  12
ENDBRANCH  10  11
ENDBRANCH   1  10
TORSDOF 12
ENDMDL
MODEL 6
REMARK VINA RESULT:    -4.208      1.731      2.287
REMARK INTER + INTRA:          -8.945
REMARK INTER:                  -7.361
REMARK INTRA:                  -1.584
REMARK UNBOUND:                -1.785
REMARK SMILES CCCCCCCCCCCCCC(=O)[O-]
REMARK SMILES IDX 8 1 9 2 10 3 11 4 12 5 13 6 14 7 15 8 16 9 7 10 6 11 5 12
REMARK SMILES IDX 4 13 3 14 2 15 1 16
REMARK H PARENT
REMARK Flexibility Score: inf
ROOT
ATOM      1  C   UNL     1       5.736  -8.051  31.185  1.00  0.00     0.000 C 
ENDROOT
BRANCH   1   2
ATOM      2  C   UNL     1       4.512  -8.180  30.263  1.00  0.00     0.000 C 
BRANCH   2   3
ATOM      3  C   UNL     1       4.572  -9.429  29.370  1.00  0.00     0.000 C 
BRANCH   3   4
ATOM      4  C   UNL     1       6.020  -9.764  28.993  1.00  0.00     0.000 C 
BRANCH   4   5
ATOM      5  C   UNL     1       6.385  -9.173  27.624  1.00  0.00     0.006 C 
BRANCH   5   6
ATOM      6  C   UNL     1       7.871  -8.803  27.527  1.00  0.00     0.053 C 
BRANCH   6   7
ATOM      7  C   UNL     1       8.393  -8.965  26.133  1.00  0.00     0.041 C 
ATOM      8  O   UNL     1       9.578  -9.345  25.939  1.00  0.00    -0.550 OA
ATOM      9  O   UNL     1       7.581  -8.663  25.046  1.00  0.00    -0.550 OA
ENDBRANCH   6   7
ENDBRANCH   5   6
ENDBRANCH   4   5
ENDBRANCH   3   4
ENDBRANCH   2   3
ENDBRANCH   1   2
BRANCH   1  10
ATOM     10  C   UNL     1       5.693  -6.783  32.052  1.00  0.00     0.000 C 
BRANCH  10  11
ATOM     11  C   UNL     1       6.779  -5.789  31.625  1.00  0.00    -0.000 C 
BRANCH  11  12
ATOM     12  C   UNL     1       7.613  -6.351  30.463  1.00  0.00    -0.000 C 
BRANCH  12  13
ATOM     13  C   UNL     1       7.658  -5.405  29.252  1.00  0.00    -0.000 C 
BRANCH  13  14
ATOM     14  C   UNL     1       6.357  -5.432  28.432  1.00  0.00    -0.000 C 
BRANCH  14  15
ATOM     15  C   UNL     1       6.509  -4.750  27.064  1.00  0.00    -0.003 C 
ATOM     16  C   UNL     1       7.089  -3.340  27.166  1.00  0.00     0.004 C 
ENDBRANCH  14  15
ENDBRANCH  13  14
ENDBRANCH  12  13
ENDBRANCH  11  12
ENDBRANCH  10  11
ENDBRANCH   1  10
TORSDOF 12
ENDMDL
MODEL 7
REMARK VINA RESULT:    -4.188      2.630      4.196
REMARK INTER + INTRA:          -8.911
REMARK INTER:                  -7.061
REMARK INTRA:                  -1.850
REMARK UNBOUND:                -1.785
REMARK SMILES CCCCCCCCCCCCCC(=O)[O-]
REMARK SMILES IDX 8 1 9 2 10 3 11 4 12 5 13 6 14 7 15 8 16 9 7 10 6 11 5 12
REMARK SMILES IDX 4 13 3 14 2 15 1 16
REMARK H PARENT
REMARK Flexibility Score: inf
ROOT
ATOM      1  C   UNL     1       7.138  -8.129  27.298  1.00  0.00     0.000 C 
ENDROOT
BRANCH   1   2
ATOM      2  C   UNL     1       6.630  -9.480  27.827  1.00  0.00     0.000 C 
BRANCH   2   3
ATOM      3  C   UNL     1       6.215  -9.418  29.305  1.00  0.00     0.000 C 
BRANCH   3   4
ATOM      4  C   UNL     1       4.905  -8.640  29.476  1.00  0.00     0.000 C 
BRANCH   4   5
ATOM      5  C   UNL     1       5.067  -7.504  30.496  1.00  0.00     0.006 C 
BRANCH   5   6
ATOM      6  C   UNL     1       6.372  -7.621  31.295  1.00  0.00     0.053 C 
BRANCH   6   7
ATOM      7  C   UNL     1       6.705  -6.345  32.003  1.00  0.00     0.041 C 
ATOM      8  O   UNL     1       7.883  -5.901  31.993  1.00  0.00    -0.550 OA
ATOM      9  O   UNL     1       5.719  -5.662  32.705  1.00  0.00    -0.550 OA
ENDBRANCH   6   7
ENDBRANCH   5   6
ENDBRANCH   4   5
ENDBRANCH   3   4
ENDBRANCH   2   3
ENDBRANCH   1   2
BRANCH   1  10
ATOM     10  C   UNL     1       8.627  -7.897  27.600  1.00  0.00     0.000 C 
BRANCH  10  11
ATOM     11  C   UNL     1       8.807  -6.810  28.667  1.00  0.00    -0.000 C 
BRANCH  11  12
ATOM     12  C   UNL     1       8.473  -5.422  28.100  1.00  0.00    -0.000 C 
BRANCH  12  13
ATOM     13  C   UNL     1       7.141  -4.868  28.630  1.00  0.00    -0.000 C 
BRANCH  13  14
ATOM     14  C   UNL     1       6.093  -4.685  27.518  1.00  0.00    -0.000 C 
BRANCH  14  15
ATOM     15  C   UNL     1       6.732  -4.515  26.131  1.00  0.00    -0.003 C 
ATOM     16  C   UNL     1       5.985  -5.276  25.036  1.00  0.00     0.004 C 
ENDBRANCH  14  15
ENDBRANCH  13  14
ENDBRANCH  12  13
ENDBRANCH  11  12
ENDBRANCH  10  11
ENDBRANCH   1  10
TORSDOF 12
ENDMDL
MODEL 8
REMARK VINA RESULT:    -4.176      1.332      2.036
REMARK INTER + INTRA:          -8.891
REMARK INTER:                  -7.437
REMARK INTRA:                  -1.454
REMARK UNBOUND:                -1.785
REMARK SMILES CCCCCCCCCCCCCC(=O)[O-]
REMARK SMILES IDX 8 1 9 2 10 3 11 4 12 5 13 6 14 7 15 8 16 9 7 10 6 11 5 12
REMARK SMILES IDX 4 13 3 14 2 15 1 16
REMARK H PARENT
REMARK Flexibility Score: inf
ROOT
ATOM      1  C   UNL     1       6.352  -6.052  32.393  1.00  0.00     0.000 C 
ENDROOT
BRANCH   1   2
ATOM      2  C   UNL     1       5.170  -6.916  31.924  1.00  0.00     0.000 C 
BRANCH   2   3
ATOM      3  C   UNL     1       5.609  -8.088  31.033  1.00  0.00     0.000 C 
BRANCH   3   4
ATOM      4  C   UNL     1       4.689  -8.225  29.814  1.00  0.00     0.000 C 
BRANCH   4   5
ATOM      5  C   UNL     1       4.833  -9.610  29.167  1.00  0.00     0.006 C 
BRANCH   5   6
ATOM      6  C   UNL     1       6.301 -10.027  29.006  1.00  0.00     0.053 C 
BRANCH   6   7
ATOM      7  C   UNL     1       6.820  -9.713  27.637  1.00  0.00     0.041 C 
ATOM      8  O   UNL     1       6.021  -9.440  26.703  1.00  0.00    -0.550 OA
ATOM      9  O   UNL     1       8.186  -9.757  27.384  1.00  0.00    -0.550 OA
ENDBRANCH   6   7
ENDBRANCH   5   6
ENDBRANCH   4   5
ENDBRANCH   3   4
ENDBRANCH   2   3
ENDBRANCH   1   2
BRANCH   1  10
ATOM     10  C   UNL     1       7.657  -6.384  31.653  1.00  0.00     0.000 C 
BRANCH  10  11
ATOM     11  C   UNL     1       7.723  -5.657  30.305  1.00  0.00    -0.000 C 
BRANCH  11  12
ATOM     12  C   UNL     1       8.598  -6.429  29.306  1.00  0.00    -0.000 C 
BRANCH  12  13
ATOM     13  C   UNL     1       8.141  -6.248  27.850  1.00  0.00    -0.000 C 
BRANCH  13  14
ATOM     14  C   UNL     1       6.662  -5.836  27.743  1.00  0.00    -0.000 C 
BRANCH  14  15
ATOM     15  C   UNL     1       6.439  -4.704  26.729  1.00  0.00    -0.003 C 
ATOM     16  C   UNL     1       7.115  -3.397  27.140  1.00  0.00     0.004 C 
ENDBRANCH  14  15
ENDBRANCH  13  14
ENDBRANCH  12  13
ENDBRANCH  11  12
ENDBRANCH  10  11
ENDBRANCH   1  10
TORSDOF 12
ENDMDL
MODEL 9
REMARK VINA RESULT:    -4.151      2.684      4.819
REMARK INTER + INTRA:          -8.848
REMARK INTER:                  -6.927
REMARK INTRA:                  -1.922
REMARK UNBOUND:                -1.785
REMARK SMILES CCCCCCCCCCCCCC(=O)[O-]
REMARK SMILES IDX 8 1 9 2 10 3 11 4 12 5 13 6 14 7 15 8 16 9 7 10 6 11 5 12
REMARK SMILES IDX 4 13 3 14 2 15 1 16
REMARK H PARENT
REMARK Flexibility Score: inf
ROOT
ATOM      1  C   UNL     1       6.638  -8.846  27.129  1.00  0.00     0.000 C 
ENDROOT
BRANCH   1   2
ATOM      2  C   UNL     1       6.013  -9.722  28.227  1.00  0.00     0.000 C 
BRANCH   2   3
ATOM      3  C   UNL     1       6.120  -9.090  29.622  1.00  0.00     0.000 C 
BRANCH   3   4
ATOM      4  C   UNL     1       4.876  -8.252  29.943  1.00  0.00     0.000 C 
BRANCH   4   5
ATOM      5  C   UNL     1       5.014  -7.558  31.305  1.00  0.00     0.006 C 
BRANCH   5   6
ATOM      6  C   UNL     1       6.469  -7.190  31.626  1.00  0.00     0.053 C 
BRANCH   6   7
ATOM      7  C   UNL     1       6.570  -5.849  32.283  1.00  0.00     0.041 C 
ATOM      8  O   UNL     1       5.538  -5.281  32.730  1.00  0.00    -0.550 OA
ATOM      9  O   UNL     1       7.800  -5.209  32.373  1.00  0.00    -0.550 OA
ENDBRANCH   6   7
ENDBRANCH   5   6
ENDBRANCH   4   5
ENDBRANCH   3   4
ENDBRANCH   2   3
ENDBRANCH   1   2
BRANCH   1  10
ATOM     10  C   UNL     1       5.622  -7.892  26.483  1.00  0.00     0.000 C 
BRANCH  10  11
ATOM     11  C   UNL     1       6.320  -6.894  25.552  1.00  0.00    -0.000 C 
BRANCH  11  12
ATOM     12  C   UNL     1       6.373  -5.495  26.184  1.00  0.00    -0.000 C 
BRANCH  12  13
ATOM     13  C   UNL     1       5.776  -5.460  27.600  1.00  0.00    -0.000 C 
BRANCH  13  14
ATOM     14  C   UNL     1       6.793  -4.996  28.658  1.00  0.00    -0.000 C 
BRANCH  14  15
ATOM     15  C   UNL     1       8.247  -5.209  28.209  1.00  0.00    -0.003 C 
ATOM     16  C   UNL     1       8.910  -6.404  28.893  1.00  0.00     0.004 C 
ENDBRANCH  14  15
ENDBRANCH  13  14
ENDBRANCH  12  13
ENDBRANCH  11  12
ENDBRANCH  10  11
ENDBRANCH   1  10
TORSDOF 12
ENDMDL
