MODEL 1
REMARK VINA RESULT:    13.497      0.000      0.000
REMARK INTER + INTRA:          14.523
REMARK INTER:                  14.681
REMARK INTRA:                  -0.157
REMARK UNBOUND:                -0.157
REMARK SMILES C[C@@H]1[C@H](C)CC[C@]2(C(=O)[O-])CC[C@@]3(C)C(=CC[C@H]4[C@@]5(C)CC[C@H](O)C(C)(C)[C@@H]5CC[C@@]43C)[C@H]12
REMARK SMILES IDX 7 1 6 2 11 3 33 4 5 5 12 6 15 7 2 8 3 9 13 10 16 11 1 12
REMARK SMILES IDX 4 13 14 14 31 15 17 16 18 17 30 18 32 19 19 20 29 21 28 22
REMARK SMILES IDX 21 23 20 24 25 25 22 26 23 27 26 28 27 29 8 30 9 31 10 32
REMARK SMILES IDX 24 33
REMARK H PARENT 24 34
REMARK Flexibility Score: inf
ROOT
ATOM      1  C   UNL     1      44.227  28.724   8.819  1.00  0.00     0.017 C 
ATOM      2  C   UNL     1      44.751  30.123   9.248  1.00  0.00     0.014 C 
ATOM      3  C   UNL     1      42.871  28.924   8.065  1.00  0.00     0.014 C 
ATOM      4  C   UNL     1      44.056  27.823  10.100  1.00  0.00     0.030 C 
ATOM      5  C   UNL     1      46.091  30.058   9.994  1.00  0.00     0.004 C 
ATOM      6  C   UNL     1      41.869  27.770   8.270  1.00  0.00     0.013 C 
ATOM      7  C   UNL     1      42.637  27.958  10.688  1.00  0.00    -0.063 C 
ATOM      8  C   UNL     1      45.331  27.846  11.023  1.00  0.00    -0.003 C 
ATOM      9  C   UNL     1      45.993  29.236  11.291  1.00  0.00    -0.011 C 
ATOM     10  C   UNL     1      41.479  27.482   9.776  1.00  0.00    -0.006 C 
ATOM     11  C   UNL     1      42.396  28.483  11.915  1.00  0.00    -0.027 C 
ATOM     12  C   UNL     1      45.260  26.915  12.250  1.00  0.00     0.008 C 
ATOM     13  C   UNL     1      45.407  30.084  12.433  1.00  0.00     0.008 C 
ATOM     14  C   UNL     1      41.407  25.920   9.899  1.00  0.00     0.017 C 
ATOM     15  C   UNL     1      40.088  28.189  10.205  1.00  0.00    -0.020 C 
ATOM     16  C   UNL     1      41.030  28.786  12.485  1.00  0.00     0.032 C 
ATOM     17  C   UNL     1      39.898  28.035  11.762  1.00  0.00     0.006 C 
ATOM     18  C   UNL     1      38.865  27.516   9.526  1.00  0.00     0.008 C 
ATOM     19  C   UNL     1      40.151  29.696   9.786  1.00  0.00     0.012 C 
ATOM     20  C   UNL     1      38.391  28.142  12.361  1.00  0.00    -0.025 C 
ATOM     21  C   UNL     1      37.507  28.147   9.872  1.00  0.00     0.005 C 
ATOM     22  C   UNL     1      37.377  28.737  11.309  1.00  0.00     0.003 C 
ATOM     23  C   UNL     1      38.319  29.011  13.685  1.00  0.00     0.010 C 
ATOM     24  C   UNL     1      37.952  26.691  12.738  1.00  0.00     0.012 C 
ATOM     25  C   UNL     1      35.866  28.928  11.795  1.00  0.00    -0.006 C 
ATOM     26  C   UNL     1      37.087  29.925  13.831  1.00  0.00     0.033 C 
ATOM     27  C   UNL     1      35.789  29.285  13.330  1.00  0.00     0.120 C 
ATOM     28  C   UNL     1      35.256  30.125  11.010  1.00  0.00     0.014 C 
ATOM     29  C   UNL     1      34.950  27.707  11.490  1.00  0.00     0.014 C 
ENDROOT
BRANCH   1  30
ATOM     30  C   UNL     1      45.204  28.089   7.827  1.00  0.00     0.048 C 
ATOM     31  O   UNL     1      45.428  26.849   7.837  1.00  0.00    -0.550 OA
ATOM     32  O   UNL     1      45.771  28.855   6.814  1.00  0.00    -0.550 OA
ENDBRANCH   1  30
BRANCH  27  33
ATOM     33  O   UNL     1      35.471  28.169  14.124  1.00  0.00    -0.393 OA
ATOM     34  H   UNL     1      35.542  28.450  15.074  1.00  0.00     0.210 HD
ENDBRANCH  27  33
TORSDOF 2
ENDMDL
