MODEL 1
REMARK VINA RESULT:    23.481      0.000      0.000
REMARK INTER + INTRA:          28.662
REMARK INTER:                  28.286
REMARK INTRA:                   0.377
REMARK UNBOUND:                 0.377
REMARK SMILES Oc1cc(O)c2cc(O)c(-c3ccc(O)c(O)c3)[o+]c2c1
REMARK SMILES IDX 10 1 19 2 20 3 21 4 2 5 3 6 4 7 6 8 7 9 8 10 11 11 12 12
REMARK SMILES IDX 13 13 14 14 18 15 16 16 15 17 17 19 9 21 1 23 5 25
REMARK H PARENT 15 18 17 20 9 22 1 24 5 26
REMARK Flexibility Score: inf
ROOT
ATOM      1  C   UNL     1     -10.360   8.409  19.312  1.00  0.00     0.402 A 
ATOM      2  O   UNL     1     -11.032   9.356  18.663  1.00  0.00    -0.202 OA
ATOM      3  C   UNL     1     -10.484  10.499  18.266  1.00  0.00     0.368 A 
ATOM      4  C   UNL     1     -11.273  11.432  17.588  1.00  0.00     0.162 A 
ATOM      5  C   UNL     1     -10.723  12.639  17.156  1.00  0.00     0.128 A 
ATOM      6  C   UNL     1      -9.374  12.918  17.402  1.00  0.00     0.093 A 
ATOM      7  C   UNL     1      -8.562  11.999  18.079  1.00  0.00     0.136 A 
ATOM      8  C   UNL     1      -9.119  10.772  18.523  1.00  0.00     0.125 A 
ATOM      9  C   UNL     1      -8.386   9.798  19.220  1.00  0.00     0.078 A 
ATOM     10  C   UNL     1      -9.005   8.613  19.629  1.00  0.00     0.223 A 
ENDROOT
BRANCH   1  11
ATOM     11  C   UNL     1     -11.082   7.173  19.694  1.00  0.00     0.087 A 
ATOM     12  C   UNL     1     -12.269   6.790  19.046  1.00  0.00     0.022 A 
ATOM     13  C   UNL     1     -12.946   5.632  19.438  1.00  0.00     0.051 A 
ATOM     14  C   UNL     1     -12.454   4.849  20.491  1.00  0.00     0.157 A 
ATOM     15  C   UNL     1     -10.604   6.395  20.761  1.00  0.00     0.068 A 
ATOM     16  C   UNL     1     -11.282   5.233  21.155  1.00  0.00     0.158 A 
BRANCH  14  17
ATOM     17  O   UNL     1     -13.125   3.693  20.883  1.00  0.00    -0.504 OA
ATOM     18  H   UNL     1     -13.077   3.350  21.836  1.00  0.00     0.293 HD
ENDBRANCH  14  17
BRANCH  16  19
ATOM     19  O   UNL     1     -10.798   4.456  22.205  1.00  0.00    -0.504 OA
ATOM     20  H   UNL     1      -9.832   4.512  22.506  1.00  0.00     0.293 HD
ENDBRANCH  16  19
ENDBRANCH   1  11
BRANCH  10  21
ATOM     21  O   UNL     1      -8.288   7.669  20.365  1.00  0.00    -0.500 OA
ATOM     22  H   UNL     1      -8.753   6.968  20.930  1.00  0.00     0.294 HD
ENDBRANCH  10  21
BRANCH   5  23
ATOM     23  O   UNL     1     -11.526  13.558  16.482  1.00  0.00    -0.507 OA
ATOM     24  H   UNL     1     -12.490  13.350  16.252  1.00  0.00     0.293 HD
ENDBRANCH   5  23
BRANCH   7  25
ATOM     25  O   UNL     1      -7.224  12.350  18.283  1.00  0.00    -0.507 OA
ATOM     26  H   UNL     1      -6.742  12.270  19.166  1.00  0.00     0.293 HD
ENDBRANCH   7  25
TORSDOF 6
ENDMDL
MODEL 2
REMARK VINA RESULT:    25.439      5.214      8.461
REMARK INTER + INTRA:          31.021
REMARK INTER:                  31.312
REMARK INTRA:                  -0.291
REMARK UNBOUND:                 0.377
REMARK SMILES Oc1cc(O)c2cc(O)c(-c3ccc(O)c(O)c3)[o+]c2c1
REMARK SMILES IDX 10 1 19 2 20 3 21 4 2 5 3 6 4 7 6 8 7 9 8 10 11 11 12 12
REMARK SMILES IDX 13 13 14 14 18 15 16 16 15 17 17 19 9 21 1 23 5 25
REMARK H PARENT 15 18 17 20 9 22 1 24 5 26
REMARK Flexibility Score: inf
ROOT
ATOM      1  C   UNL     1      -5.821   7.574  16.675  1.00  0.00     0.402 A 
ATOM      2  O   UNL     1      -6.456   7.101  15.606  1.00  0.00    -0.202 OA
ATOM      3  C   UNL     1      -6.704   5.809  15.415  1.00  0.00     0.368 A 
ATOM      4  C   UNL     1      -7.380   5.410  14.260  1.00  0.00     0.162 A 
ATOM      5  C   UNL     1      -7.658   4.061  14.036  1.00  0.00     0.128 A 
ATOM      6  C   UNL     1      -7.258   3.103  14.973  1.00  0.00     0.093 A 
ATOM      7  C   UNL     1      -6.579   3.477  16.140  1.00  0.00     0.136 A 
ATOM      8  C   UNL     1      -6.292   4.848  16.369  1.00  0.00     0.125 A 
ATOM      9  C   UNL     1      -5.606   5.314  17.502  1.00  0.00     0.078 A 
ATOM     10  C   UNL     1      -5.356   6.681  17.658  1.00  0.00     0.223 A 
ENDROOT
BRANCH   1  11
ATOM     11  C   UNL     1      -5.613   9.037  16.776  1.00  0.00     0.087 A 
ATOM     12  C   UNL     1      -4.355   9.615  16.535  1.00  0.00     0.022 A 
ATOM     13  C   UNL     1      -4.176  10.996  16.659  1.00  0.00     0.051 A 
ATOM     14  C   UNL     1      -5.248  11.815  17.038  1.00  0.00     0.157 A 
ATOM     15  C   UNL     1      -6.678   9.860  17.175  1.00  0.00     0.068 A 
ATOM     16  C   UNL     1      -6.501  11.246  17.299  1.00  0.00     0.158 A 
BRANCH  14  17
ATOM     17  O   UNL     1      -5.074  13.192  17.160  1.00  0.00    -0.504 OA
ATOM     18  H   UNL     1      -5.794  13.784  17.558  1.00  0.00     0.293 HD
ENDBRANCH  14  17
BRANCH  16  19
ATOM     19  O   UNL     1      -7.563  12.062  17.682  1.00  0.00    -0.504 OA
ATOM     20  H   UNL     1      -7.412  12.922  18.196  1.00  0.00     0.293 HD
ENDBRANCH  16  19
ENDBRANCH   1  11
BRANCH  10  21
ATOM     21  O   UNL     1      -4.630   7.138  18.758  1.00  0.00    -0.500 OA
ATOM     22  H   UNL     1      -4.873   6.873  19.705  1.00  0.00     0.294 HD
ENDBRANCH  10  21
BRANCH   5  23
ATOM     23  O   UNL     1      -8.333   3.682  12.877  1.00  0.00    -0.507 OA
ATOM     24  H   UNL     1      -8.981   4.307  12.413  1.00  0.00     0.293 HD
ENDBRANCH   5  23
BRANCH   7  25
ATOM     25  O   UNL     1      -6.216   2.461  17.028  1.00  0.00    -0.507 OA
ATOM     26  H   UNL     1      -5.369   2.459  17.577  1.00  0.00     0.293 HD
ENDBRANCH   7  25
TORSDOF 6
ENDMDL
MODEL 3
REMARK VINA RESULT:    26.135      5.432      8.852
REMARK INTER + INTRA:          31.859
REMARK INTER:                  32.197
REMARK INTRA:                  -0.338
REMARK UNBOUND:                 0.377
REMARK SMILES Oc1cc(O)c2cc(O)c(-c3ccc(O)c(O)c3)[o+]c2c1
REMARK SMILES IDX 10 1 19 2 20 3 21 4 2 5 3 6 4 7 6 8 7 9 8 10 11 11 12 12
REMARK SMILES IDX 13 13 14 14 18 15 16 16 15 17 17 19 9 21 1 23 5 25
REMARK H PARENT 15 18 17 20 9 22 1 24 5 26
REMARK Flexibility Score: inf
ROOT
ATOM      1  C   UNL     1      -6.167   7.348  15.945  1.00  0.00     0.402 A 
ATOM      2  O   UNL     1      -5.938   6.359  16.805  1.00  0.00    -0.202 OA
ATOM      3  C   UNL     1      -6.118   5.076  16.509  1.00  0.00     0.368 A 
ATOM      4  C   UNL     1      -5.847   4.110  17.481  1.00  0.00     0.162 A 
ATOM      5  C   UNL     1      -6.024   2.755  17.196  1.00  0.00     0.128 A 
ATOM      6  C   UNL     1      -6.474   2.362  15.932  1.00  0.00     0.093 A 
ATOM      7  C   UNL     1      -6.753   3.311  14.940  1.00  0.00     0.136 A 
ATOM      8  C   UNL     1      -6.577   4.690  15.227  1.00  0.00     0.125 A 
ATOM      9  C   UNL     1      -6.843   5.712  14.301  1.00  0.00     0.078 A 
ATOM     10  C   UNL     1      -6.649   7.050  14.658  1.00  0.00     0.223 A 
ENDROOT
BRANCH   1  11
ATOM     11  C   UNL     1      -5.919   8.738  16.392  1.00  0.00     0.087 A 
ATOM     12  C   UNL     1      -4.633   9.303  16.345  1.00  0.00     0.022 A 
ATOM     13  C   UNL     1      -4.418  10.609  16.794  1.00  0.00     0.051 A 
ATOM     14  C   UNL     1      -5.481  11.362  17.308  1.00  0.00     0.157 A 
ATOM     15  C   UNL     1      -6.977   9.490  16.927  1.00  0.00     0.068 A 
ATOM     16  C   UNL     1      -6.763  10.801  17.378  1.00  0.00     0.158 A 
BRANCH  14  17
ATOM     17  O   UNL     1      -5.271  12.665  17.755  1.00  0.00    -0.504 OA
ATOM     18  H   UNL     1      -4.609  12.872  18.494  1.00  0.00     0.293 HD
ENDBRANCH  14  17
BRANCH  16  19
ATOM     19  O   UNL     1      -7.817  11.550  17.896  1.00  0.00    -0.504 OA
ATOM     20  H   UNL     1      -7.698  12.138  18.713  1.00  0.00     0.293 HD
ENDBRANCH  16  19
ENDBRANCH   1  11
BRANCH  10  21
ATOM     21  O   UNL     1      -6.962   8.066  13.754  1.00  0.00    -0.500 OA
ATOM     22  H   UNL     1      -6.250   8.674  13.368  1.00  0.00     0.294 HD
ENDBRANCH  10  21
BRANCH   5  23
ATOM     23  O   UNL     1      -5.749   1.806  18.179  1.00  0.00    -0.507 OA
ATOM     24  H   UNL     1      -4.856   1.780  18.656  1.00  0.00     0.293 HD
ENDBRANCH   5  23
BRANCH   7  25
ATOM     25  O   UNL     1      -7.195   2.838  13.701  1.00  0.00    -0.507 OA
ATOM     26  H   UNL     1      -6.606   2.383  13.021  1.00  0.00     0.293 HD
ENDBRANCH   7  25
TORSDOF 6
ENDMDL
MODEL 4
REMARK VINA RESULT:    26.243      5.024      7.869
REMARK INTER + INTRA:          31.989
REMARK INTER:                  32.186
REMARK INTRA:                  -0.197
REMARK UNBOUND:                 0.377
REMARK SMILES Oc1cc(O)c2cc(O)c(-c3ccc(O)c(O)c3)[o+]c2c1
REMARK SMILES IDX 10 1 19 2 20 3 21 4 2 5 3 6 4 7 6 8 7 9 8 10 11 11 12 12
REMARK SMILES IDX 13 13 14 14 18 15 16 16 15 17 17 19 9 21 1 23 5 25
REMARK H PARENT 15 18 17 20 9 22 1 24 5 26
REMARK Flexibility Score: inf
ROOT
ATOM      1  C   UNL     1      -6.440   7.711  16.840  1.00  0.00     0.402 A 
ATOM      2  O   UNL     1      -7.017   7.095  15.810  1.00  0.00    -0.202 OA
ATOM      3  C   UNL     1      -6.771   5.830  15.486  1.00  0.00     0.368 A 
ATOM      4  C   UNL     1      -7.428   5.270  14.387  1.00  0.00     0.162 A 
ATOM      5  C   UNL     1      -7.192   3.944  14.025  1.00  0.00     0.128 A 
ATOM      6  C   UNL     1      -6.294   3.169  14.767  1.00  0.00     0.093 A 
ATOM      7  C   UNL     1      -5.623   3.706  15.872  1.00  0.00     0.136 A 
ATOM      8  C   UNL     1      -5.857   5.056  16.241  1.00  0.00     0.125 A 
ATOM      9  C   UNL     1      -5.222   5.683  17.325  1.00  0.00     0.078 A 
ATOM     10  C   UNL     1      -5.501   7.019  17.625  1.00  0.00     0.223 A 
ENDROOT
BRANCH   1  11
ATOM     11  C   UNL     1      -6.805   9.122  17.105  1.00  0.00     0.087 A 
ATOM     12  C   UNL     1      -5.862  10.157  16.979  1.00  0.00     0.022 A 
ATOM     13  C   UNL     1      -6.222  11.478  17.256  1.00  0.00     0.051 A 
ATOM     14  C   UNL     1      -7.524  11.782  17.676  1.00  0.00     0.157 A 
ATOM     15  C   UNL     1      -8.102   9.429  17.545  1.00  0.00     0.068 A 
ATOM     16  C   UNL     1      -8.465  10.755  17.823  1.00  0.00     0.158 A 
BRANCH  14  17
ATOM     17  O   UNL     1      -7.888  13.098  17.952  1.00  0.00    -0.504 OA
ATOM     18  H   UNL     1      -7.855  13.471  18.893  1.00  0.00     0.293 HD
ENDBRANCH  14  17
BRANCH  16  19
ATOM     19  O   UNL     1      -9.757  11.059  18.247  1.00  0.00    -0.504 OA
ATOM     20  H   UNL     1     -10.515  10.392  18.157  1.00  0.00     0.293 HD
ENDBRANCH  16  19
ENDBRANCH   1  11
BRANCH  10  21
ATOM     21  O   UNL     1      -4.831   7.655  18.671  1.00  0.00    -0.500 OA
ATOM     22  H   UNL     1      -5.329   8.071  19.449  1.00  0.00     0.294 HD
ENDBRANCH  10  21
BRANCH   5  23
ATOM     23  O   UNL     1      -7.857   3.403  12.926  1.00  0.00    -0.507 OA
ATOM     24  H   UNL     1      -8.452   3.971  12.335  1.00  0.00     0.293 HD
ENDBRANCH   5  23
BRANCH   7  25
ATOM     25  O   UNL     1      -4.743   2.867  16.563  1.00  0.00    -0.507 OA
ATOM     26  H   UNL     1      -4.910   1.887  16.740  1.00  0.00     0.293 HD
ENDBRANCH   7  25
TORSDOF 6
ENDMDL
