MODEL 1
REMARK VINA RESULT:    -4.914      0.000      0.000
REMARK INTER + INTRA:         -18.603
REMARK INTER:                 -12.958
REMARK INTRA:                  -5.644
REMARK UNBOUND:                -5.644
REMARK SMILES CCCCCCCCCCCCCCCCCCCCCCCCCCCCCC(=O)[O-]
REMARK SMILES IDX 16 1 17 2 18 3 19 4 20 5 21 6 22 7 23 8 24 9 25 10 26 11
REMARK SMILES IDX 27 12 28 13 29 14 30 15 31 16 32 17 15 18 14 19 13 20 12 21
REMARK SMILES IDX 11 22 10 23 9 24 8 25 7 26 6 27 5 28 4 29 3 30 2 31 1 32
REMARK H PARENT
REMARK Flexibility Score: inf
ROOT
ATOM      1  C   UNL     1       6.188 -13.319  -3.824  1.00  0.00     0.000 C 
ENDROOT
BRANCH   1   2
ATOM      2  C   UNL     1       5.770 -12.444  -5.015  1.00  0.00     0.000 C 
BRANCH   2   3
ATOM      3  C   UNL     1       4.327 -12.708  -5.489  1.00  0.00     0.000 C 
BRANCH   3   4
ATOM      4  C   UNL     1       3.596 -11.502  -6.109  1.00  0.00     0.000 C 
BRANCH   4   5
ATOM      5  C   UNL     1       4.496 -10.266  -6.276  1.00  0.00     0.000 C 
BRANCH   5   6
ATOM      6  C   UNL     1       3.958  -9.274  -7.323  1.00  0.00     0.000 C 
BRANCH   6   7
ATOM      7  C   UNL     1       2.615  -9.666  -7.974  1.00  0.00     0.000 C 
BRANCH   7   8
ATOM      8  C   UNL     1       1.607  -8.515  -8.148  1.00  0.00     0.000 C 
BRANCH   8   9
ATOM      9  C   UNL     1       0.213  -8.855  -7.594  1.00  0.00     0.000 C 
BRANCH   9  10
ATOM     10  C   UNL     1       0.260  -9.843  -6.414  1.00  0.00     0.000 C 
BRANCH  10  11
ATOM     11  C   UNL     1       0.134  -9.205  -5.017  1.00  0.00     0.000 C 
BRANCH  11  12
ATOM     12  C   UNL     1       1.496  -8.861  -4.390  1.00  0.00     0.000 C 
BRANCH  12  13
ATOM     13  C   UNL     1       1.943  -7.421  -4.701  1.00  0.00     0.006 C 
BRANCH  13  14
ATOM     14  C   UNL     1       3.405  -7.126  -4.328  1.00  0.00     0.053 C 
BRANCH  14  15
ATOM     15  C   UNL     1       4.041  -6.164  -5.283  1.00  0.00     0.041 C 
ATOM     16  O   UNL     1       5.296  -6.062  -5.343  1.00  0.00    -0.550 OA
ATOM     17  O   UNL     1       3.248  -5.396  -6.127  1.00  0.00    -0.550 OA
ENDBRANCH  14  15
ENDBRANCH  13  14
ENDBRANCH  12  13
ENDBRANCH  11  12
ENDBRANCH  10  11
ENDBRANCH   9  10
ENDBRANCH   8   9
ENDBRANCH   7   8
ENDBRANCH   6   7
ENDBRANCH   5   6
ENDBRANCH   4   5
ENDBRANCH   3   4
ENDBRANCH   2   3
ENDBRANCH   1   2
BRANCH   1  18
ATOM     18  C   UNL     1       7.245 -12.647  -2.932  1.00  0.00     0.000 C 
BRANCH  18  19
ATOM     19  C   UNL     1       7.658 -13.489  -1.703  1.00  0.00     0.000 C 
BRANCH  19  20
ATOM     20  C   UNL     1       8.169 -12.629  -0.533  1.00  0.00     0.000 C 
BRANCH  20  21
ATOM     21  C   UNL     1       8.315 -11.140  -0.896  1.00  0.00     0.000 C 
BRANCH  21  22
ATOM     22  C   UNL     1       7.837 -10.169   0.203  1.00  0.00     0.000 C 
BRANCH  22  23
ATOM     23  C   UNL     1       7.129  -8.922  -0.362  1.00  0.00     0.000 C 
BRANCH  23  24
ATOM     24  C   UNL     1       6.187  -9.274  -1.533  1.00  0.00    -0.000 C 
BRANCH  24  25
ATOM     25  C   UNL     1       4.933 -10.063  -1.109  1.00  0.00    -0.000 C 
BRANCH  25  26
ATOM     26  C   UNL     1       4.086 -10.599  -2.283  1.00  0.00    -0.000 C 
BRANCH  26  27
ATOM     27  C   UNL     1       3.243 -11.859  -1.984  1.00  0.00    -0.000 C 
BRANCH  27  28
ATOM     28  C   UNL     1       3.802 -12.800  -0.897  1.00  0.00    -0.000 C 
BRANCH  28  29
ATOM     29  C   UNL     1       3.860 -14.287  -1.286  1.00  0.00    -0.000 C 
BRANCH  29  30
ATOM     30  C   UNL     1       3.038 -14.605  -2.544  1.00  0.00    -0.000 C 
BRANCH  30  31
ATOM     31  C   UNL     1       2.374 -15.982  -2.431  1.00  0.00    -0.003 C 
ATOM     32  C   UNL     1       2.010 -16.300  -0.984  1.00  0.00     0.004 C 
ENDBRANCH  30  31
ENDBRANCH  29  30
ENDBRANCH  28  29
ENDBRANCH  27  28
ENDBRANCH  26  27
ENDBRANCH  25  26
ENDBRANCH  24  25
ENDBRANCH  23  24
ENDBRANCH  22  23
ENDBRANCH  21  22
ENDBRANCH  20  21
ENDBRANCH  19  20
ENDBRANCH  18  19
ENDBRANCH   1  18
TORSDOF 28
ENDMDL
MODEL 2
REMARK VINA RESULT:    -4.867      3.090      7.433
REMARK INTER + INTRA:         -18.477
REMARK INTER:                 -13.110
REMARK INTRA:                  -5.368
REMARK UNBOUND:                -5.644
REMARK SMILES CCCCCCCCCCCCCCCCCCCCCCCCCCCCCC(=O)[O-]
REMARK SMILES IDX 16 1 17 2 18 3 19 4 20 5 21 6 22 7 23 8 24 9 25 10 26 11
REMARK SMILES IDX 27 12 28 13 29 14 30 15 31 16 32 17 15 18 14 19 13 20 12 21
REMARK SMILES IDX 11 22 10 23 9 24 8 25 7 26 6 27 5 28 4 29 3 30 2 31 1 32
REMARK H PARENT
REMARK Flexibility Score: inf
ROOT
ATOM      1  C   UNL     1       5.968 -12.372  -4.079  1.00  0.00     0.000 C 
ENDROOT
BRANCH   1   2
ATOM      2  C   UNL     1       7.353 -13.033  -4.001  1.00  0.00     0.000 C 
BRANCH   2   3
ATOM      3  C   UNL     1       7.613 -13.745  -2.660  1.00  0.00     0.000 C 
BRANCH   3   4
ATOM      4  C   UNL     1       7.203 -12.964  -1.397  1.00  0.00     0.000 C 
BRANCH   4   5
ATOM      5  C   UNL     1       8.396 -12.568  -0.513  1.00  0.00     0.000 C 
BRANCH   5   6
ATOM      6  C   UNL     1       8.362 -11.086  -0.095  1.00  0.00     0.000 C 
BRANCH   6   7
ATOM      7  C   UNL     1       7.723 -10.126  -1.120  1.00  0.00     0.000 C 
BRANCH   7   8
ATOM      8  C   UNL     1       6.374  -9.515  -0.697  1.00  0.00     0.000 C 
BRANCH   8   9
ATOM      9  C   UNL     1       5.258  -9.766  -1.723  1.00  0.00     0.000 C 
BRANCH   9  10
ATOM     10  C   UNL     1       3.922 -10.166  -1.070  1.00  0.00     0.000 C 
BRANCH  10  11
ATOM     11  C   UNL     1       3.818 -11.640  -0.633  1.00  0.00     0.000 C 
BRANCH  11  12
ATOM     12  C   UNL     1       3.173 -12.539  -1.701  1.00  0.00     0.000 C 
BRANCH  12  13
ATOM     13  C   UNL     1       3.763 -13.961  -1.713  1.00  0.00     0.006 C 
BRANCH  13  14
ATOM     14  C   UNL     1       2.970 -14.960  -2.569  1.00  0.00     0.053 C 
BRANCH  14  15
ATOM     15  C   UNL     1       2.317 -16.017  -1.733  1.00  0.00     0.041 C 
ATOM     16  O   UNL     1       1.990 -15.774  -0.540  1.00  0.00    -0.550 OA
ATOM     17  O   UNL     1       2.047 -17.267  -2.278  1.00  0.00    -0.550 OA
ENDBRANCH  14  15
ENDBRANCH  13  14
ENDBRANCH  12  13
ENDBRANCH  11  12
ENDBRANCH  10  11
ENDBRANCH   9  10
ENDBRANCH   8   9
ENDBRANCH   7   8
ENDBRANCH   6   7
ENDBRANCH   5   6
ENDBRANCH   4   5
ENDBRANCH   3   4
ENDBRANCH   2   3
ENDBRANCH   1   2
BRANCH   1  18
ATOM     18  C   UNL     1       5.047 -13.035  -5.118  1.00  0.00     0.000 C 
BRANCH  18  19
ATOM     19  C   UNL     1       3.929 -12.111  -5.649  1.00  0.00     0.000 C 
BRANCH  19  20
ATOM     20  C   UNL     1       3.911 -10.736  -4.957  1.00  0.00     0.000 C 
BRANCH  20  21
ATOM     21  C   UNL     1       4.494  -9.612  -5.831  1.00  0.00     0.000 C 
BRANCH  21  22
ATOM     22  C   UNL     1       4.334  -9.840  -7.349  1.00  0.00     0.000 C 
BRANCH  22  23
ATOM     23  C   UNL     1       3.743  -8.619  -8.081  1.00  0.00     0.000 C 
BRANCH  23  24
ATOM     24  C   UNL     1       2.287  -8.865  -8.530  1.00  0.00    -0.000 C 
BRANCH  24  25
ATOM     25  C   UNL     1       1.231  -8.270  -7.578  1.00  0.00    -0.000 C 
BRANCH  25  26
ATOM     26  C   UNL     1      -0.224  -8.675  -7.901  1.00  0.00    -0.000 C 
BRANCH  26  27
ATOM     27  C   UNL     1      -0.904  -9.609  -6.876  1.00  0.00    -0.000 C 
BRANCH  27  28
ATOM     28  C   UNL     1      -0.118 -10.882  -6.499  1.00  0.00    -0.000 C 
BRANCH  28  29
ATOM     29  C   UNL     1       0.318 -10.970  -5.026  1.00  0.00    -0.000 C 
BRANCH  29  30
ATOM     30  C   UNL     1      -0.093  -9.737  -4.210  1.00  0.00    -0.000 C 
BRANCH  30  31
ATOM     31  C   UNL     1       1.098  -9.175  -3.427  1.00  0.00    -0.003 C 
ATOM     32  C   UNL     1       1.497  -7.797  -3.946  1.00  0.00     0.004 C 
ENDBRANCH  30  31
ENDBRANCH  29  30
ENDBRANCH  28  29
ENDBRANCH  27  28
ENDBRANCH  26  27
ENDBRANCH  25  26
ENDBRANCH  24  25
ENDBRANCH  23  24
ENDBRANCH  22  23
ENDBRANCH  21  22
ENDBRANCH  20  21
ENDBRANCH  19  20
ENDBRANCH  18  19
ENDBRANCH   1  18
TORSDOF 28
ENDMDL
MODEL 3
REMARK VINA RESULT:    -4.784      1.245      2.093
REMARK INTER + INTRA:         -18.259
REMARK INTER:                 -12.735
REMARK INTRA:                  -5.524
REMARK UNBOUND:                -5.644
REMARK SMILES CCCCCCCCCCCCCCCCCCCCCCCCCCCCCC(=O)[O-]
REMARK SMILES IDX 16 1 17 2 18 3 19 4 20 5 21 6 22 7 23 8 24 9 25 10 26 11
REMARK SMILES IDX 27 12 28 13 29 14 30 15 31 16 32 17 15 18 14 19 13 20 12 21
REMARK SMILES IDX 11 22 10 23 9 24 8 25 7 26 6 27 5 28 4 29 3 30 2 31 1 32
REMARK H PARENT
REMARK Flexibility Score: inf
ROOT
ATOM      1  C   UNL     1       6.180 -12.224  -3.991  1.00  0.00     0.000 C 
ENDROOT
BRANCH   1   2
ATOM      2  C   UNL     1       5.279 -12.578  -5.184  1.00  0.00     0.000 C 
BRANCH   2   3
ATOM      3  C   UNL     1       4.997 -11.380  -6.111  1.00  0.00     0.000 C 
BRANCH   3   4
ATOM      4  C   UNL     1       3.510 -11.076  -6.377  1.00  0.00     0.000 C 
BRANCH   4   5
ATOM      5  C   UNL     1       2.588 -11.502  -5.224  1.00  0.00     0.000 C 
BRANCH   5   6
ATOM      6  C   UNL     1       1.409 -12.373  -5.694  1.00  0.00     0.000 C 
BRANCH   6   7
ATOM      7  C   UNL     1       0.547 -11.766  -6.821  1.00  0.00     0.000 C 
BRANCH   7   8
ATOM      8  C   UNL     1      -0.126 -10.423  -6.484  1.00  0.00     0.000 C 
BRANCH   8   9
ATOM      9  C   UNL     1       0.150  -9.336  -7.535  1.00  0.00     0.000 C 
BRANCH   9  10
ATOM     10  C   UNL     1       1.013  -8.182  -6.993  1.00  0.00     0.000 C 
BRANCH  10  11
ATOM     11  C   UNL     1       1.321  -8.243  -5.485  1.00  0.00     0.000 C 
BRANCH  11  12
ATOM     12  C   UNL     1       2.319  -7.163  -5.032  1.00  0.00     0.000 C 
BRANCH  12  13
ATOM     13  C   UNL     1       3.742  -7.718  -4.839  1.00  0.00     0.006 C 
BRANCH  13  14
ATOM     14  C   UNL     1       4.855  -6.731  -5.225  1.00  0.00     0.053 C 
BRANCH  14  15
ATOM     15  C   UNL     1       5.098  -6.715  -6.703  1.00  0.00     0.041 C 
ATOM     16  O   UNL     1       4.898  -5.664  -7.370  1.00  0.00    -0.550 OA
ATOM     17  O   UNL     1       5.569  -7.855  -7.342  1.00  0.00    -0.550 OA
ENDBRANCH  14  15
ENDBRANCH  13  14
ENDBRANCH  12  13
ENDBRANCH  11  12
ENDBRANCH  10  11
ENDBRANCH   9  10
ENDBRANCH   8   9
ENDBRANCH   7   8
ENDBRANCH   6   7
ENDBRANCH   5   6
ENDBRANCH   4   5
ENDBRANCH   3   4
ENDBRANCH   2   3
ENDBRANCH   1   2
BRANCH   1  18
ATOM     18  C   UNL     1       7.270 -13.279  -3.733  1.00  0.00     0.000 C 
BRANCH  18  19
ATOM     19  C   UNL     1       7.362 -13.742  -2.262  1.00  0.00     0.000 C 
BRANCH  19  20
ATOM     20  C   UNL     1       7.201 -12.585  -1.260  1.00  0.00     0.000 C 
BRANCH  20  21
ATOM     21  C   UNL     1       8.497 -12.267  -0.492  1.00  0.00     0.000 C 
BRANCH  21  22
ATOM     22  C   UNL     1       8.638 -10.789  -0.072  1.00  0.00     0.000 C 
BRANCH  22  23
ATOM     23  C   UNL     1       7.296 -10.148   0.334  1.00  0.00     0.000 C 
BRANCH  23  24
ATOM     24  C   UNL     1       7.212  -8.667  -0.094  1.00  0.00    -0.000 C 
BRANCH  24  25
ATOM     25  C   UNL     1       5.959  -8.328  -0.925  1.00  0.00    -0.000 C 
BRANCH  25  26
ATOM     26  C   UNL     1       5.669  -9.313  -2.078  1.00  0.00    -0.000 C 
BRANCH  26  27
ATOM     27  C   UNL     1       4.318 -10.058  -2.001  1.00  0.00    -0.000 C 
BRANCH  27  28
ATOM     28  C   UNL     1       3.865 -10.487  -0.590  1.00  0.00    -0.000 C 
BRANCH  28  29
ATOM     29  C   UNL     1       3.505 -11.976  -0.443  1.00  0.00    -0.000 C 
BRANCH  29  30
ATOM     30  C   UNL     1       3.097 -12.623  -1.774  1.00  0.00    -0.000 C 
BRANCH  30  31
ATOM     31  C   UNL     1       3.686 -14.031  -1.903  1.00  0.00    -0.003 C 
ATOM     32  C   UNL     1       3.095 -14.768  -3.102  1.00  0.00     0.004 C 
ENDBRANCH  30  31
ENDBRANCH  29  30
ENDBRANCH  28  29
ENDBRANCH  27  28
ENDBRANCH  26  27
ENDBRANCH  25  26
ENDBRANCH  24  25
ENDBRANCH  23  24
ENDBRANCH  22  23
ENDBRANCH  21  22
ENDBRANCH  20  21
ENDBRANCH  19  20
ENDBRANCH  18  19
ENDBRANCH   1  18
TORSDOF 28
ENDMDL
MODEL 4
REMARK VINA RESULT:    -4.762      1.145      3.448
REMARK INTER + INTRA:         -18.200
REMARK INTER:                 -12.878
REMARK INTRA:                  -5.322
REMARK UNBOUND:                -5.644
REMARK SMILES CCCCCCCCCCCCCCCCCCCCCCCCCCCCCC(=O)[O-]
REMARK SMILES IDX 16 1 17 2 18 3 19 4 20 5 21 6 22 7 23 8 24 9 25 10 26 11
REMARK SMILES IDX 27 12 28 13 29 14 30 15 31 16 32 17 15 18 14 19 13 20 12 21
REMARK SMILES IDX 11 22 10 23 9 24 8 25 7 26 6 27 5 28 4 29 3 30 2 31 1 32
REMARK H PARENT
REMARK Flexibility Score: inf
ROOT
ATOM      1  C   UNL     1       7.241  -8.920  -0.422  1.00  0.00     0.000 C 
ENDROOT
BRANCH   1   2
ATOM      2  C   UNL     1       6.178  -8.938  -1.531  1.00  0.00     0.000 C 
BRANCH   2   3
ATOM      3  C   UNL     1       4.975  -9.844  -1.207  1.00  0.00     0.000 C 
BRANCH   3   4
ATOM      4  C   UNL     1       3.812  -9.798  -2.217  1.00  0.00     0.000 C 
BRANCH   4   5
ATOM      5  C   UNL     1       4.087  -8.878  -3.417  1.00  0.00     0.000 C 
BRANCH   5   6
ATOM      6  C   UNL     1       2.806  -8.504  -4.187  1.00  0.00     0.000 C 
BRANCH   6   7
ATOM      7  C   UNL     1       1.764  -9.633  -4.321  1.00  0.00     0.000 C 
BRANCH   7   8
ATOM      8  C   UNL     1       0.717  -9.434  -5.432  1.00  0.00     0.000 C 
BRANCH   8   9
ATOM      9  C   UNL     1       0.718 -10.573  -6.464  1.00  0.00     0.000 C 
BRANCH   9  10
ATOM     10  C   UNL     1       2.095 -10.787  -7.119  1.00  0.00     0.000 C 
BRANCH  10  11
ATOM     11  C   UNL     1       2.571  -9.645  -8.038  1.00  0.00     0.000 C 
BRANCH  11  12
ATOM     12  C   UNL     1       3.968  -9.118  -7.665  1.00  0.00     0.000 C 
BRANCH  12  13
ATOM     13  C   UNL     1       4.013  -7.583  -7.562  1.00  0.00     0.006 C 
BRANCH  13  14
ATOM     14  C   UNL     1       5.272  -7.040  -6.867  1.00  0.00     0.053 C 
BRANCH  14  15
ATOM     15  C   UNL     1       4.947  -5.939  -5.905  1.00  0.00     0.041 C 
ATOM     16  O   UNL     1       3.961  -5.181  -6.113  1.00  0.00    -0.550 OA
ATOM     17  O   UNL     1       5.720  -5.763  -4.764  1.00  0.00    -0.550 OA
ENDBRANCH  14  15
ENDBRANCH  13  14
ENDBRANCH  12  13
ENDBRANCH  11  12
ENDBRANCH  10  11
ENDBRANCH   9  10
ENDBRANCH   8   9
ENDBRANCH   7   8
ENDBRANCH   6   7
ENDBRANCH   5   6
ENDBRANCH   4   5
ENDBRANCH   3   4
ENDBRANCH   2   3
ENDBRANCH   1   2
BRANCH   1  18
ATOM     18  C   UNL     1       7.359 -10.265   0.315  1.00  0.00     0.000 C 
BRANCH  18  19
ATOM     19  C   UNL     1       8.764 -10.903   0.237  1.00  0.00     0.000 C 
BRANCH  19  20
ATOM     20  C   UNL     1       8.753 -12.300  -0.408  1.00  0.00     0.000 C 
BRANCH  20  21
ATOM     21  C   UNL     1       7.428 -12.624  -1.122  1.00  0.00     0.000 C 
BRANCH  21  22
ATOM     22  C   UNL     1       7.506 -13.824  -2.089  1.00  0.00     0.000 C 
BRANCH  22  23
ATOM     23  C   UNL     1       7.288 -13.424  -3.562  1.00  0.00     0.000 C 
BRANCH  23  24
ATOM     24  C   UNL     1       6.683 -12.009  -3.692  1.00  0.00    -0.000 C 
BRANCH  24  25
ATOM     25  C   UNL     1       5.577 -11.899  -4.759  1.00  0.00    -0.000 C 
BRANCH  25  26
ATOM     26  C   UNL     1       4.807 -13.212  -5.021  1.00  0.00    -0.000 C 
BRANCH  26  27
ATOM     27  C   UNL     1       3.280 -13.151  -4.795  1.00  0.00    -0.000 C 
BRANCH  27  28
ATOM     28  C   UNL     1       2.817 -13.139  -3.323  1.00  0.00    -0.000 C 
BRANCH  28  29
ATOM     29  C   UNL     1       3.727 -13.902  -2.345  1.00  0.00    -0.000 C 
BRANCH  29  30
ATOM     30  C   UNL     1       3.124 -15.239  -1.891  1.00  0.00    -0.000 C 
BRANCH  30  31
ATOM     31  C   UNL     1       2.730 -15.188  -0.411  1.00  0.00    -0.003 C 
ATOM     32  C   UNL     1       3.187 -13.883   0.235  1.00  0.00     0.004 C 
ENDBRANCH  30  31
ENDBRANCH  29  30
ENDBRANCH  28  29
ENDBRANCH  27  28
ENDBRANCH  26  27
ENDBRANCH  25  26
ENDBRANCH  24  25
ENDBRANCH  23  24
ENDBRANCH  22  23
ENDBRANCH  21  22
ENDBRANCH  20  21
ENDBRANCH  19  20
ENDBRANCH  18  19
ENDBRANCH   1  18
TORSDOF 28
ENDMDL
MODEL 5
REMARK VINA RESULT:    -4.759      2.832      6.806
REMARK INTER + INTRA:         -18.194
REMARK INTER:                 -12.876
REMARK INTRA:                  -5.319
REMARK UNBOUND:                -5.644
REMARK SMILES CCCCCCCCCCCCCCCCCCCCCCCCCCCCCC(=O)[O-]
REMARK SMILES IDX 16 1 17 2 18 3 19 4 20 5 21 6 22 7 23 8 24 9 25 10 26 11
REMARK SMILES IDX 27 12 28 13 29 14 30 15 31 16 32 17 15 18 14 19 13 20 12 21
REMARK SMILES IDX 11 22 10 23 9 24 8 25 7 26 6 27 5 28 4 29 3 30 2 31 1 32
REMARK H PARENT
REMARK Flexibility Score: inf
ROOT
ATOM      1  C   UNL     1       7.532 -13.693  -2.515  1.00  0.00     0.000 C 
ENDROOT
BRANCH   1   2
ATOM      2  C   UNL     1       7.211 -13.001  -1.182  1.00  0.00     0.000 C 
BRANCH   2   3
ATOM      3  C   UNL     1       8.468 -12.602  -0.384  1.00  0.00     0.000 C 
BRANCH   3   4
ATOM      4  C   UNL     1       8.556 -11.120   0.028  1.00  0.00     0.000 C 
BRANCH   4   5
ATOM      5  C   UNL     1       8.033 -10.157  -1.051  1.00  0.00     0.000 C 
BRANCH   5   6
ATOM      6  C   UNL     1       6.773  -9.392  -0.606  1.00  0.00     0.000 C 
BRANCH   6   7
ATOM      7  C   UNL     1       5.876  -8.875  -1.750  1.00  0.00     0.000 C 
BRANCH   7   8
ATOM      8  C   UNL     1       5.246  -9.965  -2.636  1.00  0.00     0.000 C 
BRANCH   8   9
ATOM      9  C   UNL     1       3.759 -10.200  -2.324  1.00  0.00     0.000 C 
BRANCH   9  10
ATOM     10  C   UNL     1       3.446 -11.662  -1.956  1.00  0.00     0.000 C 
BRANCH  10  11
ATOM     11  C   UNL     1       3.629 -12.018  -0.468  1.00  0.00     0.000 C 
BRANCH  11  12
ATOM     12  C   UNL     1       3.411 -13.514  -0.178  1.00  0.00     0.000 C 
BRANCH  12  13
ATOM     13  C   UNL     1       3.751 -14.405  -1.386  1.00  0.00     0.006 C 
BRANCH  13  14
ATOM     14  C   UNL     1       2.776 -15.576  -1.592  1.00  0.00     0.053 C 
BRANCH  14  15
ATOM     15  C   UNL     1       2.155 -15.551  -2.955  1.00  0.00     0.041 C 
ATOM     16  O   UNL     1       1.816 -14.456  -3.480  1.00  0.00    -0.550 OA
ATOM     17  O   UNL     1       1.971 -16.736  -3.657  1.00  0.00    -0.550 OA
ENDBRANCH  14  15
ENDBRANCH  13  14
ENDBRANCH  12  13
ENDBRANCH  11  12
ENDBRANCH  10  11
ENDBRANCH   9  10
ENDBRANCH   8   9
ENDBRANCH   7   8
ENDBRANCH   6   7
ENDBRANCH   5   6
ENDBRANCH   4   5
ENDBRANCH   3   4
ENDBRANCH   2   3
ENDBRANCH   1   2
BRANCH   1  18
ATOM     18  C   UNL     1       7.455 -12.738  -3.718  1.00  0.00     0.000 C 
BRANCH  18  19
ATOM     19  C   UNL     1       6.568 -13.253  -4.874  1.00  0.00     0.000 C 
BRANCH  19  20
ATOM     20  C   UNL     1       5.076 -13.310  -4.504  1.00  0.00     0.000 C 
BRANCH  20  21
ATOM     21  C   UNL     1       4.174 -12.580  -5.515  1.00  0.00     0.000 C 
BRANCH  21  22
ATOM     22  C   UNL     1       4.842 -11.371  -6.204  1.00  0.00     0.000 C 
BRANCH  22  23
ATOM     23  C   UNL     1       4.017 -10.075  -6.075  1.00  0.00     0.000 C 
BRANCH  23  24
ATOM     24  C   UNL     1       3.897  -9.332  -7.423  1.00  0.00    -0.000 C 
BRANCH  24  25
ATOM     25  C   UNL     1       2.551  -9.555  -8.140  1.00  0.00    -0.000 C 
BRANCH  25  26
ATOM     26  C   UNL     1       1.452  -8.533  -7.771  1.00  0.00    -0.000 C 
BRANCH  26  27
ATOM     27  C   UNL     1       0.244  -9.098  -6.991  1.00  0.00    -0.000 C 
BRANCH  27  28
ATOM     28  C   UNL     1       0.383  -9.116  -5.455  1.00  0.00    -0.000 C 
BRANCH  28  29
ATOM     29  C   UNL     1       0.654 -10.499  -4.839  1.00  0.00    -0.000 C 
BRANCH  29  30
ATOM     30  C   UNL     1      -0.104 -11.627  -5.553  1.00  0.00    -0.000 C 
BRANCH  30  31
ATOM     31  C   UNL     1       0.859 -12.519  -6.345  1.00  0.00    -0.003 C 
ATOM     32  C   UNL     1       0.116 -13.318  -7.412  1.00  0.00     0.004 C 
ENDBRANCH  30  31
ENDBRANCH  29  30
ENDBRANCH  28  29
ENDBRANCH  27  28
ENDBRANCH  26  27
ENDBRANCH  25  26
ENDBRANCH  24  25
ENDBRANCH  23  24
ENDBRANCH  22  23
ENDBRANCH  21  22
ENDBRANCH  20  21
ENDBRANCH  19  20
ENDBRANCH  18  19
ENDBRANCH   1  18
TORSDOF 28
ENDMDL
MODEL 6
REMARK VINA RESULT:    -4.734      3.293      7.000
REMARK INTER + INTRA:         -18.126
REMARK INTER:                 -12.014
REMARK INTRA:                  -6.112
REMARK UNBOUND:                -5.644
REMARK SMILES CCCCCCCCCCCCCCCCCCCCCCCCCCCCCC(=O)[O-]
REMARK SMILES IDX 16 1 17 2 18 3 19 4 20 5 21 6 22 7 23 8 24 9 25 10 26 11
REMARK SMILES IDX 27 12 28 13 29 14 30 15 31 16 32 17 15 18 14 19 13 20 12 21
REMARK SMILES IDX 11 22 10 23 9 24 8 25 7 26 6 27 5 28 4 29 3 30 2 31 1 32
REMARK H PARENT
REMARK Flexibility Score: inf
ROOT
ATOM      1  C   UNL     1       7.165 -13.385  -1.625  1.00  0.00     0.000 C 
ENDROOT
BRANCH   1   2
ATOM      2  C   UNL     1       8.459 -12.986  -0.901  1.00  0.00     0.000 C 
BRANCH   2   3
ATOM      3  C   UNL     1       8.362 -11.625  -0.185  1.00  0.00     0.000 C 
BRANCH   3   4
ATOM      4  C   UNL     1       8.019 -10.420  -1.083  1.00  0.00     0.000 C 
BRANCH   4   5
ATOM      5  C   UNL     1       6.712  -9.717  -0.682  1.00  0.00     0.000 C 
BRANCH   5   6
ATOM      6  C   UNL     1       5.756  -9.512  -1.872  1.00  0.00     0.000 C 
BRANCH   6   7
ATOM      7  C   UNL     1       4.397 -10.234  -1.759  1.00  0.00     0.000 C 
BRANCH   7   8
ATOM      8  C   UNL     1       4.415 -11.549  -0.960  1.00  0.00     0.000 C 
BRANCH   8   9
ATOM      9  C   UNL     1       3.299 -12.519  -1.382  1.00  0.00     0.000 C 
BRANCH   9  10
ATOM     10  C   UNL     1       3.694 -13.998  -1.215  1.00  0.00     0.000 C 
BRANCH  10  11
ATOM     11  C   UNL     1       3.141 -14.952  -2.291  1.00  0.00     0.000 C 
BRANCH  11  12
ATOM     12  C   UNL     1       2.217 -14.248  -3.300  1.00  0.00     0.000 C 
BRANCH  12  13
ATOM     13  C   UNL     1       2.164 -14.973  -4.657  1.00  0.00     0.006 C 
BRANCH  13  14
ATOM     14  C   UNL     1       1.852 -16.474  -4.552  1.00  0.00     0.053 C 
BRANCH  14  15
ATOM     15  C   UNL     1       0.721 -16.873  -5.450  1.00  0.00     0.041 C 
ATOM     16  O   UNL     1       0.815 -17.899  -6.176  1.00  0.00    -0.550 OA
ATOM     17  O   UNL     1      -0.449 -16.124  -5.468  1.00  0.00    -0.550 OA
ENDBRANCH  14  15
ENDBRANCH  13  14
ENDBRANCH  12  13
ENDBRANCH  11  12
ENDBRANCH  10  11
ENDBRANCH   9  10
ENDBRANCH   8   9
ENDBRANCH   7   8
ENDBRANCH   6   7
ENDBRANCH   5   6
ENDBRANCH   4   5
ENDBRANCH   3   4
ENDBRANCH   2   3
ENDBRANCH   1   2
BRANCH   1  18
ATOM     18  C   UNL     1       7.336 -13.471  -3.151  1.00  0.00     0.000 C 
BRANCH  18  19
ATOM     19  C   UNL     1       6.581 -12.372  -3.932  1.00  0.00     0.000 C 
BRANCH  19  20
ATOM     20  C   UNL     1       5.381 -12.919  -4.724  1.00  0.00     0.000 C 
BRANCH  20  21
ATOM     21  C   UNL     1       4.371 -11.827  -5.123  1.00  0.00     0.000 C 
BRANCH  21  22
ATOM     22  C   UNL     1       4.644 -11.182  -6.498  1.00  0.00     0.000 C 
BRANCH  22  23
ATOM     23  C   UNL     1       4.624  -9.642  -6.453  1.00  0.00     0.000 C 
BRANCH  23  24
ATOM     24  C   UNL     1       3.861  -9.110  -5.221  1.00  0.00    -0.000 C 
BRANCH  24  25
ATOM     25  C   UNL     1       2.764  -8.083  -5.562  1.00  0.00    -0.000 C 
BRANCH  25  26
ATOM     26  C   UNL     1       2.577  -7.822  -7.072  1.00  0.00    -0.000 C 
BRANCH  26  27
ATOM     27  C   UNL     1       1.290  -8.400  -7.700  1.00  0.00    -0.000 C 
BRANCH  27  28
ATOM     28  C   UNL     1       0.514  -9.413  -6.833  1.00  0.00    -0.000 C 
BRANCH  28  29
ATOM     29  C   UNL     1       0.983 -10.874  -6.955  1.00  0.00    -0.000 C 
BRANCH  29  30
ATOM     30  C   UNL     1       0.633 -11.716  -5.720  1.00  0.00    -0.000 C 
BRANCH  30  31
ATOM     31  C   UNL     1       0.047 -10.840  -4.607  1.00  0.00    -0.003 C 
ATOM     32  C   UNL     1       1.025 -10.702  -3.444  1.00  0.00     0.004 C 
ENDBRANCH  30  31
ENDBRANCH  29  30
ENDBRANCH  28  29
ENDBRANCH  27  28
ENDBRANCH  26  27
ENDBRANCH  25  26
ENDBRANCH  24  25
ENDBRANCH  23  24
ENDBRANCH  22  23
ENDBRANCH  21  22
ENDBRANCH  20  21
ENDBRANCH  19  20
ENDBRANCH  18  19
ENDBRANCH   1  18
TORSDOF 28
ENDMDL
MODEL 7
REMARK VINA RESULT:    -4.713      3.073      3.928
REMARK INTER + INTRA:         -18.071
REMARK INTER:                 -13.731
REMARK INTRA:                  -4.340
REMARK UNBOUND:                -5.644
REMARK SMILES CCCCCCCCCCCCCCCCCCCCCCCCCCCCCC(=O)[O-]
REMARK SMILES IDX 16 1 17 2 18 3 19 4 20 5 21 6 22 7 23 8 24 9 25 10 26 11
REMARK SMILES IDX 27 12 28 13 29 14 30 15 31 16 32 17 15 18 14 19 13 20 12 21
REMARK SMILES IDX 11 22 10 23 9 24 8 25 7 26 6 27 5 28 4 29 3 30 2 31 1 32
REMARK H PARENT
REMARK Flexibility Score: inf
ROOT
ATOM      1  C   UNL     1       7.128 -12.961  -3.767  1.00  0.00     0.000 C 
ENDROOT
BRANCH   1   2
ATOM      2  C   UNL     1       5.642 -13.234  -4.041  1.00  0.00     0.000 C 
BRANCH   2   3
ATOM      3  C   UNL     1       5.090 -12.448  -5.247  1.00  0.00     0.000 C 
BRANCH   3   4
ATOM      4  C   UNL     1       3.991 -11.417  -4.927  1.00  0.00     0.000 C 
BRANCH   4   5
ATOM      5  C   UNL     1       4.286 -10.019  -5.495  1.00  0.00     0.000 C 
BRANCH   5   6
ATOM      6  C   UNL     1       4.374 -10.007  -7.032  1.00  0.00     0.000 C 
BRANCH   6   7
ATOM      7  C   UNL     1       3.770  -8.765  -7.718  1.00  0.00     0.000 C 
BRANCH   7   8
ATOM      8  C   UNL     1       2.476  -9.016  -8.513  1.00  0.00     0.000 C 
BRANCH   8   9
ATOM      9  C   UNL     1       1.225  -8.472  -7.804  1.00  0.00     0.000 C 
BRANCH   9  10
ATOM     10  C   UNL     1       0.831  -9.298  -6.565  1.00  0.00     0.000 C 
BRANCH  10  11
ATOM     11  C   UNL     1       0.080 -10.610  -6.861  1.00  0.00     0.000 C 
BRANCH  11  12
ATOM     12  C   UNL     1       0.952 -11.861  -6.656  1.00  0.00     0.000 C 
BRANCH  12  13
ATOM     13  C   UNL     1       0.288 -13.140  -7.195  1.00  0.00     0.006 C 
BRANCH  13  14
ATOM     14  C   UNL     1      -0.149 -14.127  -6.100  1.00  0.00     0.053 C 
BRANCH  14  15
ATOM     15  C   UNL     1       0.630 -15.405  -6.158  1.00  0.00     0.041 C 
ATOM     16  O   UNL     1       0.049 -16.513  -6.001  1.00  0.00    -0.550 OA
ATOM     17  O   UNL     1       1.996 -15.376  -6.410  1.00  0.00    -0.550 OA
ENDBRANCH  14  15
ENDBRANCH  13  14
ENDBRANCH  12  13
ENDBRANCH  11  12
ENDBRANCH  10  11
ENDBRANCH   9  10
ENDBRANCH   8   9
ENDBRANCH   7   8
ENDBRANCH   6   7
ENDBRANCH   5   6
ENDBRANCH   4   5
ENDBRANCH   3   4
ENDBRANCH   2   3
ENDBRANCH   1   2
BRANCH   1  18
ATOM     18  C   UNL     1       7.665 -13.741  -2.555  1.00  0.00     0.000 C 
BRANCH  18  19
ATOM     19  C   UNL     1       7.444 -13.030  -1.201  1.00  0.00     0.000 C 
BRANCH  19  20
ATOM     20  C   UNL     1       8.761 -12.693  -0.481  1.00  0.00     0.000 C 
BRANCH  20  21
ATOM     21  C   UNL     1       9.009 -11.179  -0.352  1.00  0.00     0.000 C 
BRANCH  21  22
ATOM     22  C   UNL     1       8.031 -10.453   0.595  1.00  0.00     0.000 C 
BRANCH  22  23
ATOM     23  C   UNL     1       7.232  -9.337  -0.107  1.00  0.00     0.000 C 
BRANCH  23  24
ATOM     24  C   UNL     1       7.055  -9.615  -1.614  1.00  0.00    -0.000 C 
BRANCH  24  25
ATOM     25  C   UNL     1       5.599  -9.907  -2.028  1.00  0.00    -0.000 C 
BRANCH  25  26
ATOM     26  C   UNL     1       4.633 -10.143  -0.847  1.00  0.00    -0.000 C 
BRANCH  26  27
ATOM     27  C   UNL     1       3.601 -11.276  -1.040  1.00  0.00    -0.000 C 
BRANCH  27  28
ATOM     28  C   UNL     1       4.122 -12.709  -0.802  1.00  0.00    -0.000 C 
BRANCH  28  29
ATOM     29  C   UNL     1       3.061 -13.722  -0.339  1.00  0.00    -0.000 C 
BRANCH  29  30
ATOM     30  C   UNL     1       3.199 -15.086  -1.032  1.00  0.00    -0.000 C 
BRANCH  30  31
ATOM     31  C   UNL     1       2.743 -15.007  -2.493  1.00  0.00    -0.003 C 
ATOM     32  C   UNL     1       2.297 -16.374  -3.005  1.00  0.00     0.004 C 
ENDBRANCH  30  31
ENDBRANCH  29  30
ENDBRANCH  28  29
ENDBRANCH  27  28
ENDBRANCH  26  27
ENDBRANCH  25  26
ENDBRANCH  24  25
ENDBRANCH  23  24
ENDBRANCH  22  23
ENDBRANCH  21  22
ENDBRANCH  20  21
ENDBRANCH  19  20
ENDBRANCH  18  19
ENDBRANCH   1  18
TORSDOF 28
ENDMDL
MODEL 8
REMARK VINA RESULT:    -4.702      2.666      6.769
REMARK INTER + INTRA:         -18.042
REMARK INTER:                 -12.454
REMARK INTRA:                  -5.588
REMARK UNBOUND:                -5.644
REMARK SMILES CCCCCCCCCCCCCCCCCCCCCCCCCCCCCC(=O)[O-]
REMARK SMILES IDX 16 1 17 2 18 3 19 4 20 5 21 6 22 7 23 8 24 9 25 10 26 11
REMARK SMILES IDX 27 12 28 13 29 14 30 15 31 16 32 17 15 18 14 19 13 20 12 21
REMARK SMILES IDX 11 22 10 23 9 24 8 25 7 26 6 27 5 28 4 29 3 30 2 31 1 32
REMARK H PARENT
REMARK Flexibility Score: inf
ROOT
ATOM      1  C   UNL     1       3.015  -9.585  -8.679  1.00  0.00     0.000 C 
ENDROOT
BRANCH   1   2
ATOM      2  C   UNL     1       4.453  -9.045  -8.658  1.00  0.00     0.000 C 
BRANCH   2   3
ATOM      3  C   UNL     1       4.548  -7.550  -9.019  1.00  0.00     0.000 C 
BRANCH   3   4
ATOM      4  C   UNL     1       4.979  -6.612  -7.875  1.00  0.00     0.000 C 
BRANCH   4   5
ATOM      5  C   UNL     1       5.089  -7.323  -6.516  1.00  0.00     0.000 C 
BRANCH   5   6
ATOM      6  C   UNL     1       3.968  -6.920  -5.541  1.00  0.00     0.000 C 
BRANCH   6   7
ATOM      7  C   UNL     1       3.409  -8.064  -4.669  1.00  0.00     0.000 C 
BRANCH   7   8
ATOM      8  C   UNL     1       4.325  -9.293  -4.529  1.00  0.00     0.000 C 
BRANCH   8   9
ATOM      9  C   UNL     1       3.673 -10.585  -5.047  1.00  0.00     0.000 C 
BRANCH   9  10
ATOM     10  C   UNL     1       4.609 -11.406  -5.954  1.00  0.00     0.000 C 
BRANCH  10  11
ATOM     11  C   UNL     1       4.606 -12.926  -5.697  1.00  0.00     0.000 C 
BRANCH  11  12
ATOM     12  C   UNL     1       5.217 -13.305  -4.337  1.00  0.00     0.000 C 
BRANCH  12  13
ATOM     13  C   UNL     1       6.748 -13.151  -4.313  1.00  0.00     0.006 C 
BRANCH  13  14
ATOM     14  C   UNL     1       7.261 -12.164  -3.252  1.00  0.00     0.053 C 
BRANCH  14  15
ATOM     15  C   UNL     1       7.195 -12.743  -1.873  1.00  0.00     0.041 C 
ATOM     16  O   UNL     1       6.519 -12.174  -0.974  1.00  0.00    -0.550 OA
ATOM     17  O   UNL     1       7.863 -13.927  -1.584  1.00  0.00    -0.550 OA
ENDBRANCH  14  15
ENDBRANCH  13  14
ENDBRANCH  12  13
ENDBRANCH  11  12
ENDBRANCH  10  11
ENDBRANCH   9  10
ENDBRANCH   8   9
ENDBRANCH   7   8
ENDBRANCH   6   7
ENDBRANCH   5   6
ENDBRANCH   4   5
ENDBRANCH   3   4
ENDBRANCH   2   3
ENDBRANCH   1   2
BRANCH   1  18
ATOM     18  C   UNL     1       1.966  -8.481  -8.890  1.00  0.00     0.000 C 
BRANCH  18  19
ATOM     19  C   UNL     1       1.172  -8.115  -7.615  1.00  0.00     0.000 C 
BRANCH  19  20
ATOM     20  C   UNL     1      -0.030  -9.044  -7.372  1.00  0.00     0.000 C 
BRANCH  20  21
ATOM     21  C   UNL     1       0.178 -10.004  -6.187  1.00  0.00     0.000 C 
BRANCH  21  22
ATOM     22  C   UNL     1      -0.189 -11.472  -6.487  1.00  0.00     0.000 C 
BRANCH  22  23
ATOM     23  C   UNL     1       1.034 -12.332  -6.864  1.00  0.00     0.000 C 
BRANCH  23  24
ATOM     24  C   UNL     1       1.081 -13.650  -6.062  1.00  0.00    -0.000 C 
BRANCH  24  25
ATOM     25  C   UNL     1       0.065 -13.713  -4.905  1.00  0.00    -0.000 C 
BRANCH  25  26
ATOM     26  C   UNL     1       0.514 -14.576  -3.705  1.00  0.00    -0.000 C 
BRANCH  26  27
ATOM     27  C   UNL     1       1.965 -15.102  -3.762  1.00  0.00    -0.000 C 
BRANCH  27  28
ATOM     28  C   UNL     1       2.338 -16.167  -2.709  1.00  0.00    -0.000 C 
BRANCH  28  29
ATOM     29  C   UNL     1       2.770 -15.611  -1.341  1.00  0.00    -0.000 C 
BRANCH  29  30
ATOM     30  C   UNL     1       3.747 -14.432  -1.459  1.00  0.00    -0.000 C 
BRANCH  30  31
ATOM     31  C   UNL     1       3.198 -13.192  -0.746  1.00  0.00    -0.003 C 
ATOM     32  C   UNL     1       2.740 -12.138  -1.751  1.00  0.00     0.004 C 
ENDBRANCH  30  31
ENDBRANCH  29  30
ENDBRANCH  28  29
ENDBRANCH  27  28
ENDBRANCH  26  27
ENDBRANCH  25  26
ENDBRANCH  24  25
ENDBRANCH  23  24
ENDBRANCH  22  23
ENDBRANCH  21  22
ENDBRANCH  20  21
ENDBRANCH  19  20
ENDBRANCH  18  19
ENDBRANCH   1  18
TORSDOF 28
ENDMDL
MODEL 9
REMARK VINA RESULT:    -4.660      2.586      3.720
REMARK INTER + INTRA:         -17.933
REMARK INTER:                 -12.052
REMARK INTRA:                  -5.880
REMARK UNBOUND:                -5.644
REMARK SMILES CCCCCCCCCCCCCCCCCCCCCCCCCCCCCC(=O)[O-]
REMARK SMILES IDX 16 1 17 2 18 3 19 4 20 5 21 6 22 7 23 8 24 9 25 10 26 11
REMARK SMILES IDX 27 12 28 13 29 14 30 15 31 16 32 17 15 18 14 19 13 20 12 21
REMARK SMILES IDX 11 22 10 23 9 24 8 25 7 26 6 27 5 28 4 29 3 30 2 31 1 32
REMARK H PARENT
REMARK Flexibility Score: inf
ROOT
ATOM      1  C   UNL     1       5.184 -11.502  -4.932  1.00  0.00     0.000 C 
ENDROOT
BRANCH   1   2
ATOM      2  C   UNL     1       4.727 -11.182  -6.364  1.00  0.00     0.000 C 
BRANCH   2   3
ATOM      3  C   UNL     1       4.600  -9.671  -6.640  1.00  0.00     0.000 C 
BRANCH   3   4
ATOM      4  C   UNL     1       3.968  -9.290  -7.993  1.00  0.00     0.000 C 
BRANCH   4   5
ATOM      5  C   UNL     1       2.790  -8.312  -7.859  1.00  0.00     0.000 C 
BRANCH   5   6
ATOM      6  C   UNL     1       2.315  -8.147  -6.404  1.00  0.00     0.000 C 
BRANCH   6   7
ATOM      7  C   UNL     1       0.855  -8.569  -6.135  1.00  0.00     0.000 C 
BRANCH   7   8
ATOM      8  C   UNL     1       0.254  -9.550  -7.157  1.00  0.00     0.000 C 
BRANCH   8   9
ATOM      9  C   UNL     1      -0.112 -10.908  -6.536  1.00  0.00     0.000 C 
BRANCH   9  10
ATOM     10  C   UNL     1       0.935 -12.000  -6.820  1.00  0.00     0.000 C 
BRANCH  10  11
ATOM     11  C   UNL     1       1.554 -12.659  -5.573  1.00  0.00     0.000 C 
BRANCH  11  12
ATOM     12  C   UNL     1       1.554 -11.734  -4.343  1.00  0.00     0.000 C 
BRANCH  12  13
ATOM     13  C   UNL     1       0.689 -12.280  -3.193  1.00  0.00     0.006 C 
BRANCH  13  14
ATOM     14  C   UNL     1      -0.238 -11.232  -2.557  1.00  0.00     0.053 C 
BRANCH  14  15
ATOM     15  C   UNL     1      -1.617 -11.279  -3.140  1.00  0.00     0.041 C 
ATOM     16  O   UNL     1      -2.430 -10.339  -2.929  1.00  0.00    -0.550 OA
ATOM     17  O   UNL     1      -1.998 -12.352  -3.937  1.00  0.00    -0.550 OA
ENDBRANCH  14  15
ENDBRANCH  13  14
ENDBRANCH  12  13
ENDBRANCH  11  12
ENDBRANCH  10  11
ENDBRANCH   9  10
ENDBRANCH   8   9
ENDBRANCH   7   8
ENDBRANCH   6   7
ENDBRANCH   5   6
ENDBRANCH   4   5
ENDBRANCH   3   4
ENDBRANCH   2   3
ENDBRANCH   1   2
BRANCH   1  18
ATOM     18  C   UNL     1       5.396 -13.006  -4.695  1.00  0.00     0.000 C 
BRANCH  18  19
ATOM     19  C   UNL     1       6.810 -13.371  -4.191  1.00  0.00     0.000 C 
BRANCH  19  20
ATOM     20  C   UNL     1       7.257 -12.517  -2.991  1.00  0.00     0.000 C 
BRANCH  20  21
ATOM     21  C   UNL     1       7.613 -13.356  -1.751  1.00  0.00     0.000 C 
BRANCH  21  22
ATOM     22  C   UNL     1       7.975 -12.524  -0.504  1.00  0.00     0.000 C 
BRANCH  22  23
ATOM     23  C   UNL     1       8.504 -11.118  -0.852  1.00  0.00     0.000 C 
BRANCH  23  24
ATOM     24  C   UNL     1       7.537 -10.008  -0.388  1.00  0.00    -0.000 C 
BRANCH  24  25
ATOM     25  C   UNL     1       6.741  -9.354  -1.534  1.00  0.00    -0.000 C 
BRANCH  25  26
ATOM     26  C   UNL     1       5.218  -9.606  -1.481  1.00  0.00    -0.000 C 
BRANCH  26  27
ATOM     27  C   UNL     1       4.770 -10.846  -0.676  1.00  0.00    -0.000 C 
BRANCH  27  28
ATOM     28  C   UNL     1       3.917 -11.876  -1.444  1.00  0.00    -0.000 C 
BRANCH  28  29
ATOM     29  C   UNL     1       3.735 -13.231  -0.738  1.00  0.00    -0.000 C 
BRANCH  29  30
ATOM     30  C   UNL     1       3.950 -14.425  -1.679  1.00  0.00    -0.000 C 
BRANCH  30  31
ATOM     31  C   UNL     1       2.644 -15.197  -1.894  1.00  0.00    -0.003 C 
ATOM     32  C   UNL     1       2.440 -15.533  -3.368  1.00  0.00     0.004 C 
ENDBRANCH  30  31
ENDBRANCH  29  30
ENDBRANCH  28  29
ENDBRANCH  27  28
ENDBRANCH  26  27
ENDBRANCH  25  26
ENDBRANCH  24  25
ENDBRANCH  23  24
ENDBRANCH  22  23
ENDBRANCH  21  22
ENDBRANCH  20  21
ENDBRANCH  19  20
ENDBRANCH  18  19
ENDBRANCH   1  18
TORSDOF 28
ENDMDL
