MODEL 1
REMARK VINA RESULT:    -3.520      0.000      0.000
REMARK INTER + INTRA:          -8.758
REMARK INTER:                  -6.400
REMARK INTRA:                  -2.358
REMARK UNBOUND:                -2.358
REMARK SMILES CCCCCCCCCCCCCCCC(=O)[O-]
REMARK SMILES IDX 9 1 10 2 11 3 12 4 13 5 14 6 15 7 16 8 17 9 18 10 8 11 7 12
REMARK SMILES IDX 6 13 5 14 4 15 3 16 2 17 1 18
REMARK H PARENT
REMARK Flexibility Score: inf
ROOT
ATOM      1  C   UNL     1      20.350  11.361  35.851  1.00  0.00     0.000 C 
ENDROOT
BRANCH   1   2
ATOM      2  C   UNL     1      20.797  12.725  35.296  1.00  0.00     0.000 C 
BRANCH   2   3
ATOM      3  C   UNL     1      19.637  13.730  35.198  1.00  0.00     0.000 C 
BRANCH   3   4
ATOM      4  C   UNL     1      19.557  14.400  33.814  1.00  0.00     0.000 C 
BRANCH   4   5
ATOM      5  C   UNL     1      20.885  14.331  33.045  1.00  0.00     0.000 C 
BRANCH   5   6
ATOM      6  C   UNL     1      20.723  14.645  31.549  1.00  0.00     0.006 C 
BRANCH   6   7
ATOM      7  C   UNL     1      19.489  15.519  31.305  1.00  0.00     0.053 C 
BRANCH   7   8
ATOM      8  C   UNL     1      19.890  16.940  31.063  1.00  0.00     0.041 C 
ATOM      9  O   UNL     1      19.265  17.641  30.223  1.00  0.00    -0.550 OA
ATOM     10  O   UNL     1      20.981  17.478  31.735  1.00  0.00    -0.550 OA
ENDBRANCH   7   8
ENDBRANCH   6   7
ENDBRANCH   5   6
ENDBRANCH   4   5
ENDBRANCH   3   4
ENDBRANCH   2   3
ENDBRANCH   1   2
BRANCH   1  11
ATOM     11  C   UNL     1      18.954  11.410  36.500  1.00  0.00     0.000 C 
BRANCH  11  12
ATOM     12  C   UNL     1      17.891  10.509  35.839  1.00  0.00    -0.000 C 
BRANCH  12  13
ATOM     13  C   UNL     1      18.449   9.419  34.905  1.00  0.00    -0.000 C 
BRANCH  13  14
ATOM     14  C   UNL     1      17.992   9.594  33.446  1.00  0.00    -0.000 C 
BRANCH  14  15
ATOM     15  C   UNL     1      18.108  11.050  32.968  1.00  0.00    -0.000 C 
BRANCH  15  16
ATOM     16  C   UNL     1      19.070  11.200  31.775  1.00  0.00    -0.000 C 
BRANCH  16  17
ATOM     17  C   UNL     1      20.506  10.776  32.119  1.00  0.00    -0.003 C 
ATOM     18  C   UNL     1      21.175   9.996  30.986  1.00  0.00     0.004 C 
ENDBRANCH  16  17
ENDBRANCH  15  16
ENDBRANCH  14  15
ENDBRANCH  13  14
ENDBRANCH  12  13
ENDBRANCH  11  12
ENDBRANCH   1  11
TORSDOF 14
ENDMDL
MODEL 2
REMARK VINA RESULT:    -3.511     18.867     20.858
REMARK INTER + INTRA:          -8.743
REMARK INTER:                  -7.154
REMARK INTRA:                  -1.589
REMARK UNBOUND:                -2.358
REMARK SMILES CCCCCCCCCCCCCCCC(=O)[O-]
REMARK SMILES IDX 9 1 10 2 11 3 12 4 13 5 14 6 15 7 16 8 17 9 18 10 8 11 7 12
REMARK SMILES IDX 6 13 5 14 4 15 3 16 2 17 1 18
REMARK H PARENT
REMARK Flexibility Score: inf
ROOT
ATOM      1  C   UNL     1      31.991  10.270  48.960  1.00  0.00     0.000 C 
ENDROOT
BRANCH   1   2
ATOM      2  C   UNL     1      31.727   9.049  49.858  1.00  0.00     0.000 C 
BRANCH   2   3
ATOM      3  C   UNL     1      32.525   7.811  49.417  1.00  0.00     0.000 C 
BRANCH   3   4
ATOM      4  C   UNL     1      32.757   7.774  47.895  1.00  0.00     0.000 C 
BRANCH   4   5
ATOM      5  C   UNL     1      32.655   6.356  47.313  1.00  0.00     0.000 C 
BRANCH   5   6
ATOM      6  C   UNL     1      31.431   5.586  47.834  1.00  0.00     0.006 C 
BRANCH   6   7
ATOM      7  C   UNL     1      30.133   6.310  47.464  1.00  0.00     0.053 C 
BRANCH   7   8
ATOM      8  C   UNL     1      29.017   5.880  48.363  1.00  0.00     0.041 C 
ATOM      9  O   UNL     1      29.144   5.959  49.614  1.00  0.00    -0.550 OA
ATOM     10  O   UNL     1      27.850   5.353  47.820  1.00  0.00    -0.550 OA
ENDBRANCH   7   8
ENDBRANCH   6   7
ENDBRANCH   5   6
ENDBRANCH   4   5
ENDBRANCH   3   4
ENDBRANCH   2   3
ENDBRANCH   1   2
BRANCH   1  11
ATOM     11  C   UNL     1      32.496  11.492  49.750  1.00  0.00     0.000 C 
BRANCH  11  12
ATOM     12  C   UNL     1      33.971  11.869  49.503  1.00  0.00    -0.000 C 
BRANCH  12  13
ATOM     13  C   UNL     1      34.824  10.768  48.847  1.00  0.00    -0.000 C 
BRANCH  13  14
ATOM     14  C   UNL     1      35.934  11.333  47.943  1.00  0.00    -0.000 C 
BRANCH  14  15
ATOM     15  C   UNL     1      35.509  11.399  46.468  1.00  0.00    -0.000 C 
BRANCH  15  16
ATOM     16  C   UNL     1      34.472  10.319  46.109  1.00  0.00    -0.000 C 
BRANCH  16  17
ATOM     17  C   UNL     1      35.064   9.200  45.238  1.00  0.00    -0.003 C 
ATOM     18  C   UNL     1      34.461   9.167  43.833  1.00  0.00     0.004 C 
ENDBRANCH  16  17
ENDBRANCH  15  16
ENDBRANCH  14  15
ENDBRANCH  13  14
ENDBRANCH  12  13
ENDBRANCH  11  12
ENDBRANCH   1  11
TORSDOF 14
ENDMDL
MODEL 3
REMARK VINA RESULT:    -3.471     19.022     20.998
REMARK INTER + INTRA:          -8.670
REMARK INTER:                  -7.241
REMARK INTRA:                  -1.429
REMARK UNBOUND:                -2.358
REMARK SMILES CCCCCCCCCCCCCCCC(=O)[O-]
REMARK SMILES IDX 9 1 10 2 11 3 12 4 13 5 14 6 15 7 16 8 17 9 18 10 8 11 7 12
REMARK SMILES IDX 6 13 5 14 4 15 3 16 2 17 1 18
REMARK H PARENT
REMARK Flexibility Score: inf
ROOT
ATOM      1  C   UNL     1      32.888   9.812  48.575  1.00  0.00     0.000 C 
ENDROOT
BRANCH   1   2
ATOM      2  C   UNL     1      31.368   9.581  48.617  1.00  0.00     0.000 C 
BRANCH   2   3
ATOM      3  C   UNL     1      30.945   8.657  49.772  1.00  0.00     0.000 C 
BRANCH   3   4
ATOM      4  C   UNL     1      29.531   8.081  49.573  1.00  0.00     0.000 C 
BRANCH   4   5
ATOM      5  C   UNL     1      29.541   6.572  49.278  1.00  0.00     0.000 C 
BRANCH   5   6
ATOM      6  C   UNL     1      30.014   6.248  47.852  1.00  0.00     0.006 C 
BRANCH   6   7
ATOM      7  C   UNL     1      31.215   5.298  47.879  1.00  0.00     0.053 C 
BRANCH   7   8
ATOM      8  C   UNL     1      32.496   6.065  47.785  1.00  0.00     0.041 C 
ATOM      9  O   UNL     1      33.203   6.247  48.811  1.00  0.00    -0.550 OA
ATOM     10  O   UNL     1      32.888   6.617  46.570  1.00  0.00    -0.550 OA
ENDBRANCH   7   8
ENDBRANCH   6   7
ENDBRANCH   5   6
ENDBRANCH   4   5
ENDBRANCH   3   4
ENDBRANCH   2   3
ENDBRANCH   1   2
BRANCH   1  11
ATOM     11  C   UNL     1      33.442  10.379  49.895  1.00  0.00     0.000 C 
BRANCH  11  12
ATOM     12  C   UNL     1      34.951  10.703  49.888  1.00  0.00    -0.000 C 
BRANCH  12  13
ATOM     13  C   UNL     1      35.660  10.475  48.540  1.00  0.00    -0.000 C 
BRANCH  13  14
ATOM     14  C   UNL     1      35.956  11.788  47.794  1.00  0.00    -0.000 C 
BRANCH  14  15
ATOM     15  C   UNL     1      35.438  11.769  46.348  1.00  0.00    -0.000 C 
BRANCH  15  16
ATOM     16  C   UNL     1      35.129  10.343  45.855  1.00  0.00    -0.000 C 
BRANCH  16  17
ATOM     17  C   UNL     1      34.307  10.333  44.558  1.00  0.00    -0.003 C 
ATOM     18  C   UNL     1      34.431   9.014  43.793  1.00  0.00     0.004 C 
ENDBRANCH  16  17
ENDBRANCH  15  16
ENDBRANCH  14  15
ENDBRANCH  13  14
ENDBRANCH  12  13
ENDBRANCH  11  12
ENDBRANCH   1  11
TORSDOF 14
ENDMDL
MODEL 4
REMARK VINA RESULT:    -3.468      1.805      4.040
REMARK INTER + INTRA:          -8.664
REMARK INTER:                  -6.873
REMARK INTRA:                  -1.791
REMARK UNBOUND:                -2.358
REMARK SMILES CCCCCCCCCCCCCCCC(=O)[O-]
REMARK SMILES IDX 9 1 10 2 11 3 12 4 13 5 14 6 15 7 16 8 17 9 18 10 8 11 7 12
REMARK SMILES IDX 6 13 5 14 4 15 3 16 2 17 1 18
REMARK H PARENT
REMARK Flexibility Score: inf
ROOT
ATOM      1  C   UNL     1      19.153  10.858  31.881  1.00  0.00     0.000 C 
ENDROOT
BRANCH   1   2
ATOM      2  C   UNL     1      20.550  10.323  31.521  1.00  0.00     0.000 C 
BRANCH   2   3
ATOM      3  C   UNL     1      21.263  11.195  30.475  1.00  0.00     0.000 C 
BRANCH   3   4
ATOM      4  C   UNL     1      20.693  12.624  30.416  1.00  0.00     0.000 C 
BRANCH   4   5
ATOM      5  C   UNL     1      21.522  13.628  31.233  1.00  0.00     0.000 C 
BRANCH   5   6
ATOM      6  C   UNL     1      20.915  13.915  32.616  1.00  0.00     0.006 C 
BRANCH   6   7
ATOM      7  C   UNL     1      20.223  15.282  32.635  1.00  0.00     0.053 C 
BRANCH   7   8
ATOM      8  C   UNL     1      18.753  15.130  32.407  1.00  0.00     0.041 C 
ATOM      9  O   UNL     1      18.161  15.865  31.571  1.00  0.00    -0.550 OA
ATOM     10  O   UNL     1      18.026  14.205  33.149  1.00  0.00    -0.550 OA
ENDBRANCH   7   8
ENDBRANCH   6   7
ENDBRANCH   5   6
ENDBRANCH   4   5
ENDBRANCH   3   4
ENDBRANCH   2   3
ENDBRANCH   1   2
BRANCH   1  11
ATOM     11  C   UNL     1      18.909  10.914  33.400  1.00  0.00     0.000 C 
BRANCH  11  12
ATOM     12  C   UNL     1      20.117  10.516  34.274  1.00  0.00    -0.000 C 
BRANCH  12  13
ATOM     13  C   UNL     1      20.480  11.522  35.381  1.00  0.00    -0.000 C 
BRANCH  13  14
ATOM     14  C   UNL     1      19.290  12.405  35.796  1.00  0.00    -0.000 C 
BRANCH  14  15
ATOM     15  C   UNL     1      18.607  11.902  37.077  1.00  0.00    -0.000 C 
BRANCH  15  16
ATOM     16  C   UNL     1      17.875  10.564  36.863  1.00  0.00    -0.000 C 
BRANCH  16  17
ATOM     17  C   UNL     1      18.580   9.389  37.558  1.00  0.00    -0.003 C 
ATOM     18  C   UNL     1      18.442   8.078  36.782  1.00  0.00     0.004 C 
ENDBRANCH  16  17
ENDBRANCH  15  16
ENDBRANCH  14  15
ENDBRANCH  13  14
ENDBRANCH  12  13
ENDBRANCH  11  12
ENDBRANCH   1  11
TORSDOF 14
ENDMDL
MODEL 5
REMARK VINA RESULT:    -3.423      2.783      5.242
REMARK INTER + INTRA:          -8.582
REMARK INTER:                  -6.430
REMARK INTRA:                  -2.152
REMARK UNBOUND:                -2.358
REMARK SMILES CCCCCCCCCCCCCCCC(=O)[O-]
REMARK SMILES IDX 9 1 10 2 11 3 12 4 13 5 14 6 15 7 16 8 17 9 18 10 8 11 7 12
REMARK SMILES IDX 6 13 5 14 4 15 3 16 2 17 1 18
REMARK H PARENT
REMARK Flexibility Score: inf
ROOT
ATOM      1  C   UNL     1      18.988  12.623  36.280  1.00  0.00     0.000 C 
ENDROOT
BRANCH   1   2
ATOM      2  C   UNL     1      18.389  11.245  36.611  1.00  0.00     0.000 C 
BRANCH   2   3
ATOM      3  C   UNL     1      18.858  10.150  35.638  1.00  0.00     0.000 C 
BRANCH   3   4
ATOM      4  C   UNL     1      20.282  10.407  35.109  1.00  0.00     0.000 C 
BRANCH   4   5
ATOM      5  C   UNL     1      20.351  10.420  33.574  1.00  0.00     0.000 C 
BRANCH   5   6
ATOM      6  C   UNL     1      18.976  10.618  32.918  1.00  0.00     0.006 C 
BRANCH   6   7
ATOM      7  C   UNL     1      18.712   9.536  31.866  1.00  0.00     0.053 C 
BRANCH   7   8
ATOM      8  C   UNL     1      19.398   9.874  30.581  1.00  0.00     0.041 C 
ATOM      9  O   UNL     1      20.174   9.043  30.038  1.00  0.00    -0.550 OA
ATOM     10  O   UNL     1      19.214  11.125  30.002  1.00  0.00    -0.550 OA
ENDBRANCH   7   8
ENDBRANCH   6   7
ENDBRANCH   5   6
ENDBRANCH   4   5
ENDBRANCH   3   4
ENDBRANCH   2   3
ENDBRANCH   1   2
BRANCH   1  11
ATOM     11  C   UNL     1      18.146  13.409  35.258  1.00  0.00     0.000 C 
BRANCH  11  12
ATOM     12  C   UNL     1      18.953  14.115  34.148  1.00  0.00    -0.000 C 
BRANCH  12  13
ATOM     13  C   UNL     1      20.481  14.090  34.337  1.00  0.00    -0.000 C 
BRANCH  13  14
ATOM     14  C   UNL     1      21.240  13.885  33.015  1.00  0.00    -0.000 C 
BRANCH  14  15
ATOM     15  C   UNL     1      20.312  13.947  31.792  1.00  0.00    -0.000 C 
BRANCH  15  16
ATOM     16  C   UNL     1      20.577  15.187  30.918  1.00  0.00    -0.000 C 
BRANCH  16  17
ATOM     17  C   UNL     1      20.125  16.491  31.593  1.00  0.00    -0.003 C 
ATOM     18  C   UNL     1      21.060  17.664  31.291  1.00  0.00     0.004 C 
ENDBRANCH  16  17
ENDBRANCH  15  16
ENDBRANCH  14  15
ENDBRANCH  13  14
ENDBRANCH  12  13
ENDBRANCH  11  12
ENDBRANCH   1  11
TORSDOF 14
ENDMDL
MODEL 6
REMARK VINA RESULT:    -3.353     19.392     20.326
REMARK INTER + INTRA:          -8.455
REMARK INTER:                  -7.090
REMARK INTRA:                  -1.366
REMARK UNBOUND:                -2.358
REMARK SMILES CCCCCCCCCCCCCCCC(=O)[O-]
REMARK SMILES IDX 9 1 10 2 11 3 12 4 13 5 14 6 15 7 16 8 17 9 18 10 8 11 7 12
REMARK SMILES IDX 6 13 5 14 4 15 3 16 2 17 1 18
REMARK H PARENT
REMARK Flexibility Score: inf
ROOT
ATOM      1  C   UNL     1      34.010   8.879  46.533  1.00  0.00     0.000 C 
ENDROOT
BRANCH   1   2
ATOM      2  C   UNL     1      34.910   9.952  45.897  1.00  0.00     0.000 C 
BRANCH   2   3
ATOM      3  C   UNL     1      36.259  10.095  46.621  1.00  0.00     0.000 C 
BRANCH   3   4
ATOM      4  C   UNL     1      36.746  11.554  46.671  1.00  0.00     0.000 C 
BRANCH   4   5
ATOM      5  C   UNL     1      35.591  12.563  46.773  1.00  0.00     0.000 C 
BRANCH   5   6
ATOM      6  C   UNL     1      35.531  13.523  45.575  1.00  0.00     0.006 C 
BRANCH   6   7
ATOM      7  C   UNL     1      36.630  14.585  45.672  1.00  0.00     0.053 C 
BRANCH   7   8
ATOM      8  C   UNL     1      36.037  15.934  45.932  1.00  0.00     0.041 C 
ATOM      9  O   UNL     1      35.118  16.069  46.782  1.00  0.00    -0.550 OA
ATOM     10  O   UNL     1      36.472  17.036  45.204  1.00  0.00    -0.550 OA
ENDBRANCH   7   8
ENDBRANCH   6   7
ENDBRANCH   5   6
ENDBRANCH   4   5
ENDBRANCH   3   4
ENDBRANCH   2   3
ENDBRANCH   1   2
BRANCH   1  11
ATOM     11  C   UNL     1      33.832   9.072  48.050  1.00  0.00     0.000 C 
BRANCH  11  12
ATOM     12  C   UNL     1      33.017  10.315  48.462  1.00  0.00    -0.000 C 
BRANCH  12  13
ATOM     13  C   UNL     1      31.546  10.040  48.823  1.00  0.00    -0.000 C 
BRANCH  13  14
ATOM     14  C   UNL     1      31.328   8.629  49.395  1.00  0.00    -0.000 C 
BRANCH  14  15
ATOM     15  C   UNL     1      29.944   8.063  49.042  1.00  0.00    -0.000 C 
BRANCH  15  16
ATOM     16  C   UNL     1      30.003   6.578  48.639  1.00  0.00    -0.000 C 
BRANCH  16  17
ATOM     17  C   UNL     1      30.888   6.337  47.407  1.00  0.00    -0.003 C 
ATOM     18  C   UNL     1      32.212   5.656  47.758  1.00  0.00     0.004 C 
ENDBRANCH  16  17
ENDBRANCH  15  16
ENDBRANCH  14  15
ENDBRANCH  13  14
ENDBRANCH  12  13
ENDBRANCH  11  12
ENDBRANCH   1  11
TORSDOF 14
ENDMDL
MODEL 7
REMARK VINA RESULT:    -3.337     19.383     20.519
REMARK INTER + INTRA:          -8.426
REMARK INTER:                  -6.958
REMARK INTRA:                  -1.468
REMARK UNBOUND:                -2.358
REMARK SMILES CCCCCCCCCCCCCCCC(=O)[O-]
REMARK SMILES IDX 9 1 10 2 11 3 12 4 13 5 14 6 15 7 16 8 17 9 18 10 8 11 7 12
REMARK SMILES IDX 6 13 5 14 4 15 3 16 2 17 1 18
REMARK H PARENT
REMARK Flexibility Score: inf
ROOT
ATOM      1  C   UNL     1      33.749   9.135  47.011  1.00  0.00     0.000 C 
ENDROOT
BRANCH   1   2
ATOM      2  C   UNL     1      34.631  10.165  46.285  1.00  0.00     0.000 C 
BRANCH   2   3
ATOM      3  C   UNL     1      36.117   9.770  46.284  1.00  0.00     0.000 C 
BRANCH   3   4
ATOM      4  C   UNL     1      36.905  10.446  47.421  1.00  0.00     0.000 C 
BRANCH   4   5
ATOM      5  C   UNL     1      36.256  11.756  47.895  1.00  0.00     0.000 C 
BRANCH   5   6
ATOM      6  C   UNL     1      37.140  12.986  47.635  1.00  0.00     0.006 C 
BRANCH   6   7
ATOM      7  C   UNL     1      37.106  13.381  46.155  1.00  0.00     0.053 C 
BRANCH   7   8
ATOM      8  C   UNL     1      35.771  13.952  45.794  1.00  0.00     0.041 C 
ATOM      9  O   UNL     1      35.077  13.419  44.888  1.00  0.00    -0.550 OA
ATOM     10  O   UNL     1      35.312  15.100  46.430  1.00  0.00    -0.550 OA
ENDBRANCH   7   8
ENDBRANCH   6   7
ENDBRANCH   5   6
ENDBRANCH   4   5
ENDBRANCH   3   4
ENDBRANCH   2   3
ENDBRANCH   1   2
BRANCH   1  11
ATOM     11  C   UNL     1      33.306   9.607  48.408  1.00  0.00     0.000 C 
BRANCH  11  12
ATOM     12  C   UNL     1      31.782   9.754  48.599  1.00  0.00    -0.000 C 
BRANCH  12  13
ATOM     13  C   UNL     1      31.173   8.860  49.694  1.00  0.00    -0.000 C 
BRANCH  13  14
ATOM     14  C   UNL     1      29.855   8.198  49.257  1.00  0.00    -0.000 C 
BRANCH  14  15
ATOM     15  C   UNL     1      29.854   6.681  49.499  1.00  0.00    -0.000 C 
BRANCH  15  16
ATOM     16  C   UNL     1      29.886   5.878  48.186  1.00  0.00    -0.000 C 
BRANCH  16  17
ATOM     17  C   UNL     1      31.115   6.204  47.325  1.00  0.00    -0.003 C 
ATOM     18  C   UNL     1      32.396   5.565  47.863  1.00  0.00     0.004 C 
ENDBRANCH  16  17
ENDBRANCH  15  16
ENDBRANCH  14  15
ENDBRANCH  13  14
ENDBRANCH  12  13
ENDBRANCH  11  12
ENDBRANCH   1  11
TORSDOF 14
ENDMDL
MODEL 8
REMARK VINA RESULT:    -3.276     19.342     21.082
REMARK INTER + INTRA:          -8.315
REMARK INTER:                  -7.209
REMARK INTRA:                  -1.106
REMARK UNBOUND:                -2.358
REMARK SMILES CCCCCCCCCCCCCCCC(=O)[O-]
REMARK SMILES IDX 9 1 10 2 11 3 12 4 13 5 14 6 15 7 16 8 17 9 18 10 8 11 7 12
REMARK SMILES IDX 6 13 5 14 4 15 3 16 2 17 1 18
REMARK H PARENT
REMARK Flexibility Score: inf
ROOT
ATOM      1  C   UNL     1      31.363   9.460  48.617  1.00  0.00     0.000 C 
ENDROOT
BRANCH   1   2
ATOM      2  C   UNL     1      31.128   8.654  49.906  1.00  0.00     0.000 C 
BRANCH   2   3
ATOM      3  C   UNL     1      29.680   8.151  50.031  1.00  0.00     0.000 C 
BRANCH   3   4
ATOM      4  C   UNL     1      29.592   6.614  50.039  1.00  0.00     0.000 C 
BRANCH   4   5
ATOM      5  C   UNL     1      28.992   6.048  48.742  1.00  0.00     0.000 C 
BRANCH   5   6
ATOM      6  C   UNL     1      29.991   6.045  47.575  1.00  0.00     0.006 C 
BRANCH   6   7
ATOM      7  C   UNL     1      31.230   5.212  47.919  1.00  0.00     0.053 C 
BRANCH   7   8
ATOM      8  C   UNL     1      32.475   6.019  47.732  1.00  0.00     0.041 C 
ATOM      9  O   UNL     1      32.808   6.414  46.583  1.00  0.00    -0.550 OA
ATOM     10  O   UNL     1      33.291   6.301  48.822  1.00  0.00    -0.550 OA
ENDBRANCH   7   8
ENDBRANCH   6   7
ENDBRANCH   5   6
ENDBRANCH   4   5
ENDBRANCH   3   4
ENDBRANCH   2   3
ENDBRANCH   1   2
BRANCH   1  11
ATOM     11  C   UNL     1      32.726  10.176  48.601  1.00  0.00     0.000 C 
BRANCH  11  12
ATOM     12  C   UNL     1      33.751   9.614  47.594  1.00  0.00    -0.000 C 
BRANCH  12  13
ATOM     13  C   UNL     1      35.161  10.223  47.691  1.00  0.00    -0.000 C 
BRANCH  13  14
ATOM     14  C   UNL     1      35.144  11.762  47.730  1.00  0.00    -0.000 C 
BRANCH  14  15
ATOM     15  C   UNL     1      36.170  12.383  46.770  1.00  0.00    -0.000 C 
BRANCH  15  16
ATOM     16  C   UNL     1      35.503  13.186  45.639  1.00  0.00    -0.000 C 
BRANCH  16  17
ATOM     17  C   UNL     1      35.715  14.700  45.787  1.00  0.00    -0.003 C 
ATOM     18  C   UNL     1      37.117  15.142  45.363  1.00  0.00     0.004 C 
ENDBRANCH  16  17
ENDBRANCH  15  16
ENDBRANCH  14  15
ENDBRANCH  13  14
ENDBRANCH  12  13
ENDBRANCH  11  12
ENDBRANCH   1  11
TORSDOF 14
ENDMDL
MODEL 9
REMARK VINA RESULT:    -3.241      2.293      5.019
REMARK INTER + INTRA:          -8.251
REMARK INTER:                  -5.942
REMARK INTRA:                  -2.309
REMARK UNBOUND:                -2.358
REMARK SMILES CCCCCCCCCCCCCCCC(=O)[O-]
REMARK SMILES IDX 9 1 10 2 11 3 12 4 13 5 14 6 15 7 16 8 17 9 18 10 8 11 7 12
REMARK SMILES IDX 6 13 5 14 4 15 3 16 2 17 1 18
REMARK H PARENT
REMARK Flexibility Score: inf
ROOT
ATOM      1  C   UNL     1      21.049  13.555  34.476  1.00  0.00     0.000 C 
ENDROOT
BRANCH   1   2
ATOM      2  C   UNL     1      20.097  12.825  35.441  1.00  0.00     0.000 C 
BRANCH   2   3
ATOM      3  C   UNL     1      20.632  11.447  35.864  1.00  0.00     0.000 C 
BRANCH   3   4
ATOM      4  C   UNL     1      20.285  10.346  34.846  1.00  0.00     0.000 C 
BRANCH   4   5
ATOM      5  C   UNL     1      19.018  10.664  34.036  1.00  0.00     0.000 C 
BRANCH   5   6
ATOM      6  C   UNL     1      19.249  10.594  32.518  1.00  0.00     0.006 C 
BRANCH   6   7
ATOM      7  C   UNL     1      20.731  10.787  32.182  1.00  0.00     0.053 C 
BRANCH   7   8
ATOM      8  C   UNL     1      20.886  11.475  30.863  1.00  0.00     0.041 C 
ATOM      9  O   UNL     1      20.185  11.121  29.877  1.00  0.00    -0.550 OA
ATOM     10  O   UNL     1      21.835  12.480  30.710  1.00  0.00    -0.550 OA
ENDBRANCH   7   8
ENDBRANCH   6   7
ENDBRANCH   5   6
ENDBRANCH   4   5
ENDBRANCH   3   4
ENDBRANCH   2   3
ENDBRANCH   1   2
BRANCH   1  11
ATOM     11  C   UNL     1      20.302  14.379  33.411  1.00  0.00     0.000 C 
BRANCH  11  12
ATOM     12  C   UNL     1      18.774  14.469  33.603  1.00  0.00    -0.000 C 
BRANCH  12  13
ATOM     13  C   UNL     1      17.978  14.838  32.338  1.00  0.00    -0.000 C 
BRANCH  13  14
ATOM     14  C   UNL     1      18.413  14.028  31.104  1.00  0.00    -0.000 C 
BRANCH  14  15
ATOM     15  C   UNL     1      18.935  14.925  29.970  1.00  0.00    -0.000 C 
BRANCH  15  16
ATOM     16  C   UNL     1      18.884  16.420  30.335  1.00  0.00    -0.000 C 
BRANCH  16  17
ATOM     17  C   UNL     1      20.250  17.108  30.196  1.00  0.00    -0.003 C 
ATOM     18  C   UNL     1      20.851  17.499  31.547  1.00  0.00     0.004 C 
ENDBRANCH  16  17
ENDBRANCH  15  16
ENDBRANCH  14  15
ENDBRANCH  13  14
ENDBRANCH  12  13
ENDBRANCH  11  12
ENDBRANCH   1  11
TORSDOF 14
ENDMDL
