MODEL 1
REMARK VINA RESULT:    -7.358      0.000      0.000
REMARK INTER + INTRA:          -7.572
REMARK INTER:                  -8.003
REMARK INTRA:                   0.431
REMARK UNBOUND:                 0.431
REMARK SMILES C[C@H]1[C@@H](C)CC[C@]2(C(=O)[O-])CC[C@@]3(C)C(=CC[C@H]4[C@@]5(C)CC[C@@H](O)C(C)(C)[C@@H]5CC[C@]43C)[C@@H]12
REMARK SMILES IDX 7 1 6 2 11 3 33 4 5 5 12 6 15 7 2 8 3 9 13 10 16 11 1 12
REMARK SMILES IDX 4 13 14 14 31 15 17 16 18 17 30 18 32 19 19 20 29 21 28 22
REMARK SMILES IDX 21 23 20 24 25 25 22 26 23 27 26 28 27 29 8 30 9 31 10 32
REMARK SMILES IDX 24 33
REMARK H PARENT 24 34
REMARK Flexibility Score: inf
ROOT
ATOM      1  C   UNL     1      -4.897  26.738  31.612  1.00  0.00     0.017 C 
ATOM      2  C   UNL     1      -4.996  26.803  33.169  1.00  0.00     0.014 C 
ATOM      3  C   UNL     1      -5.064  25.245  31.167  1.00  0.00     0.014 C 
ATOM      4  C   UNL     1      -3.488  27.294  31.202  1.00  0.00     0.030 C 
ATOM      5  C   UNL     1      -4.747  28.209  33.734  1.00  0.00     0.004 C 
ATOM      6  C   UNL     1      -3.877  24.654  30.379  1.00  0.00     0.013 C 
ATOM      7  C   UNL     1      -3.135  26.980  29.735  1.00  0.00    -0.063 C 
ATOM      8  C   UNL     1      -3.204  28.739  31.753  1.00  0.00    -0.003 C 
ATOM      9  C   UNL     1      -3.371  28.748  33.301  1.00  0.00    -0.011 C 
ATOM     10  C   UNL     1      -3.349  25.557  29.207  1.00  0.00    -0.006 C 
ATOM     11  C   UNL     1      -2.384  27.823  29.003  1.00  0.00    -0.027 C 
ATOM     12  C   UNL     1      -4.003  29.873  31.067  1.00  0.00     0.008 C 
ATOM     13  C   UNL     1      -3.102  30.125  33.927  1.00  0.00     0.008 C 
ATOM     14  C   UNL     1      -4.468  25.603  28.121  1.00  0.00     0.017 C 
ATOM     15  C   UNL     1      -1.959  25.015  28.582  1.00  0.00    -0.020 C 
ATOM     16  C   UNL     1      -1.771  27.475  27.677  1.00  0.00     0.032 C 
ATOM     17  C   UNL     1      -1.526  25.949  27.360  1.00  0.00     0.006 C 
ATOM     18  C   UNL     1      -0.813  25.028  29.653  1.00  0.00     0.008 C 
ATOM     19  C   UNL     1      -2.163  23.534  28.121  1.00  0.00     0.012 C 
ATOM     20  C   UNL     1      -0.063  25.672  26.761  1.00  0.00    -0.025 C 
ATOM     21  C   UNL     1       0.605  24.793  29.097  1.00  0.00     0.005 C 
ATOM     22  C   UNL     1       0.962  25.779  27.952  1.00  0.00     0.003 C 
ATOM     23  C   UNL     1       0.302  26.714  25.637  1.00  0.00     0.010 C 
ATOM     24  C   UNL     1      -0.036  24.276  26.045  1.00  0.00     0.012 C 
ATOM     25  C   UNL     1       2.491  25.803  27.547  1.00  0.00    -0.006 C 
ATOM     26  C   UNL     1       1.786  26.692  25.230  1.00  0.00     0.033 C 
ATOM     27  C   UNL     1       2.718  26.879  26.435  1.00  0.00     0.120 C 
ATOM     28  C   UNL     1       3.024  24.426  27.068  1.00  0.00     0.014 C 
ATOM     29  C   UNL     1       3.360  26.201  28.775  1.00  0.00     0.014 C 
ENDROOT
BRANCH   1  30
ATOM     30  C   UNL     1      -6.039  27.535  30.985  1.00  0.00     0.048 C 
ATOM     31  O   UNL     1      -7.029  27.891  31.681  1.00  0.00    -0.550 OA
ATOM     32  O   UNL     1      -6.070  27.785  29.618  1.00  0.00    -0.550 OA
ENDBRANCH   1  30
BRANCH  27  33
ATOM     33  O   UNL     1       2.516  28.176  26.949  1.00  0.00    -0.393 OA
ATOM     34  H   UNL     1       3.047  28.251  27.785  1.00  0.00     0.210 HD
ENDBRANCH  27  33
TORSDOF 2
ENDMDL
MODEL 2
REMARK VINA RESULT:    -7.347      2.089      7.508
REMARK INTER + INTRA:          -7.561
REMARK INTER:                  -8.573
REMARK INTRA:                   1.012
REMARK UNBOUND:                 0.431
REMARK SMILES C[C@H]1[C@@H](C)CC[C@]2(C(=O)[O-])CC[C@@]3(C)C(=CC[C@H]4[C@@]5(C)CC[C@@H](O)C(C)(C)[C@@H]5CC[C@]43C)[C@@H]12
REMARK SMILES IDX 7 1 6 2 11 3 33 4 5 5 12 6 15 7 2 8 3 9 13 10 16 11 1 12
REMARK SMILES IDX 4 13 14 14 31 15 17 16 18 17 30 18 32 19 19 20 29 21 28 22
REMARK SMILES IDX 21 23 20 24 25 25 22 26 23 27 26 28 27 29 8 30 9 31 10 32
REMARK SMILES IDX 24 33
REMARK H PARENT 24 34
REMARK Flexibility Score: inf
ROOT
ATOM      1  C   UNL     1       1.316  25.653  26.425  1.00  0.00     0.017 C 
ATOM      2  C   UNL     1       1.312  26.520  25.126  1.00  0.00     0.014 C 
ATOM      3  C   UNL     1       0.680  24.260  26.092  1.00  0.00     0.014 C 
ATOM      4  C   UNL     1       0.471  26.415  27.506  1.00  0.00     0.030 C 
ATOM      5  C   UNL     1       1.823  27.951  25.351  1.00  0.00     0.004 C 
ATOM      6  C   UNL     1      -0.572  23.893  26.914  1.00  0.00     0.013 C 
ATOM      7  C   UNL     1       0.120  25.524  28.714  1.00  0.00    -0.063 C 
ATOM      8  C   UNL     1       0.975  27.880  27.771  1.00  0.00    -0.003 C 
ATOM      9  C   UNL     1       0.999  28.673  26.432  1.00  0.00    -0.011 C 
ATOM     10  C   UNL     1      -0.432  24.116  28.463  1.00  0.00    -0.006 C 
ATOM     11  C   UNL     1       0.007  26.040  29.951  1.00  0.00    -0.027 C 
ATOM     12  C   UNL     1       2.313  27.986  28.544  1.00  0.00     0.008 C 
ATOM     13  C   UNL     1       1.472  30.125  26.601  1.00  0.00     0.008 C 
ATOM     14  C   UNL     1       0.613  23.083  28.985  1.00  0.00     0.017 C 
ATOM     15  C   UNL     1      -1.840  23.958  29.244  1.00  0.00    -0.020 C 
ATOM     16  C   UNL     1      -0.592  25.311  31.120  1.00  0.00     0.032 C 
ATOM     17  C   UNL     1      -1.599  24.137  30.814  1.00  0.00     0.006 C 
ATOM     18  C   UNL     1      -2.874  25.038  28.770  1.00  0.00     0.008 C 
ATOM     19  C   UNL     1      -2.437  22.551  28.917  1.00  0.00     0.012 C 
ATOM     20  C   UNL     1      -2.926  24.215  31.713  1.00  0.00    -0.025 C 
ATOM     21  C   UNL     1      -4.145  25.151  29.636  1.00  0.00     0.005 C 
ATOM     22  C   UNL     1      -3.819  25.378  31.137  1.00  0.00     0.003 C 
ATOM     23  C   UNL     1      -2.578  24.498  33.224  1.00  0.00     0.010 C 
ATOM     24  C   UNL     1      -3.651  22.823  31.717  1.00  0.00     0.012 C 
ATOM     25  C   UNL     1      -5.053  25.809  32.028  1.00  0.00    -0.006 C 
ATOM     26  C   UNL     1      -3.800  24.875  34.081  1.00  0.00     0.033 C 
ATOM     27  C   UNL     1      -4.571  26.065  33.494  1.00  0.00     0.120 C 
ATOM     28  C   UNL     1      -6.208  24.773  32.024  1.00  0.00     0.014 C 
ATOM     29  C   UNL     1      -5.659  27.136  31.491  1.00  0.00     0.014 C 
ENDROOT
BRANCH   1  30
ATOM     30  C   UNL     1       2.753  25.406  26.880  1.00  0.00     0.048 C 
ATOM     31  O   UNL     1       3.625  26.308  26.763  1.00  0.00    -0.550 OA
ATOM     32  O   UNL     1       3.155  24.151  27.322  1.00  0.00    -0.550 OA
ENDBRANCH   1  30
BRANCH  27  33
ATOM     33  O   UNL     1      -3.739  27.200  33.554  1.00  0.00    -0.393 OA
ATOM     34  H   UNL     1      -3.136  27.088  34.335  1.00  0.00     0.210 HD
ENDBRANCH  27  33
TORSDOF 2
ENDMDL
MODEL 3
REMARK VINA RESULT:    -6.968      1.933      2.910
REMARK INTER + INTRA:          -7.149
REMARK INTER:                  -7.585
REMARK INTRA:                   0.436
REMARK UNBOUND:                 0.431
REMARK SMILES C[C@H]1[C@@H](C)CC[C@]2(C(=O)[O-])CC[C@@]3(C)C(=CC[C@H]4[C@@]5(C)CC[C@@H](O)C(C)(C)[C@@H]5CC[C@]43C)[C@@H]12
REMARK SMILES IDX 7 1 6 2 11 3 33 4 5 5 12 6 15 7 2 8 3 9 13 10 16 11 1 12
REMARK SMILES IDX 4 13 14 14 31 15 17 16 18 17 30 18 32 19 19 20 29 21 28 22
REMARK SMILES IDX 21 23 20 24 25 25 22 26 23 27 26 28 27 29 8 30 9 31 10 32
REMARK SMILES IDX 24 33
REMARK H PARENT 24 34
REMARK Flexibility Score: inf
ROOT
ATOM      1  C   UNL     1      -5.280  26.424  33.252  1.00  0.00     0.017 C 
ATOM      2  C   UNL     1      -5.615  27.674  34.125  1.00  0.00     0.014 C 
ATOM      3  C   UNL     1      -4.189  25.579  33.995  1.00  0.00     0.014 C 
ATOM      4  C   UNL     1      -4.749  26.939  31.868  1.00  0.00     0.030 C 
ATOM      5  C   UNL     1      -6.606  28.635  33.452  1.00  0.00     0.004 C 
ATOM      6  C   UNL     1      -2.873  25.370  33.217  1.00  0.00     0.013 C 
ATOM      7  C   UNL     1      -4.076  25.824  31.043  1.00  0.00    -0.063 C 
ATOM      8  C   UNL     1      -5.745  27.917  31.144  1.00  0.00    -0.003 C 
ATOM      9  C   UNL     1      -6.079  29.111  32.085  1.00  0.00    -0.011 C 
ATOM     10  C   UNL     1      -3.056  24.907  31.727  1.00  0.00    -0.006 C 
ATOM     11  C   UNL     1      -4.134  25.820  29.699  1.00  0.00    -0.027 C 
ATOM     12  C   UNL     1      -7.015  27.250  30.562  1.00  0.00     0.008 C 
ATOM     13  C   UNL     1      -7.043  30.125  31.451  1.00  0.00     0.008 C 
ATOM     14  C   UNL     1      -3.645  23.463  31.762  1.00  0.00     0.017 C 
ATOM     15  C   UNL     1      -1.672  24.945  30.890  1.00  0.00    -0.020 C 
ATOM     16  C   UNL     1      -3.291  24.943  28.819  1.00  0.00     0.032 C 
ATOM     17  C   UNL     1      -1.932  24.402  29.409  1.00  0.00     0.006 C 
ATOM     18  C   UNL     1      -1.109  26.406  30.795  1.00  0.00     0.008 C 
ATOM     19  C   UNL     1      -0.612  24.073  31.638  1.00  0.00     0.012 C 
ATOM     20  C   UNL     1      -0.707  24.569  28.386  1.00  0.00    -0.025 C 
ATOM     21  C   UNL     1       0.050  26.597  29.796  1.00  0.00     0.005 C 
ATOM     22  C   UNL     1      -0.308  26.093  28.372  1.00  0.00     0.003 C 
ATOM     23  C   UNL     1      -1.106  24.101  26.935  1.00  0.00     0.010 C 
ATOM     24  C   UNL     1       0.473  23.624  28.808  1.00  0.00     0.012 C 
ATOM     25  C   UNL     1       0.703  26.532  27.238  1.00  0.00    -0.006 C 
ATOM     26  C   UNL     1      -0.088  24.504  25.852  1.00  0.00     0.033 C 
ATOM     27  C   UNL     1       0.189  26.013  25.854  1.00  0.00     0.120 C 
ATOM     28  C   UNL     1       2.155  26.042  27.480  1.00  0.00     0.014 C 
ATOM     29  C   UNL     1       0.776  28.084  27.163  1.00  0.00     0.014 C 
ENDROOT
BRANCH   1  30
ATOM     30  C   UNL     1      -6.521  25.545  33.106  1.00  0.00     0.048 C 
ATOM     31  O   UNL     1      -7.506  25.695  33.877  1.00  0.00    -0.550 OA
ATOM     32  O   UNL     1      -6.545  24.490  32.201  1.00  0.00    -0.550 OA
ENDBRANCH   1  30
BRANCH  27  33
ATOM     33  O   UNL     1      -0.997  26.678  25.483  1.00  0.00    -0.393 OA
ATOM     34  H   UNL     1      -1.392  26.179  24.720  1.00  0.00     0.210 HD
ENDBRANCH  27  33
TORSDOF 2
ENDMDL
MODEL 4
REMARK VINA RESULT:    -6.918      1.701      7.528
REMARK INTER + INTRA:          -7.094
REMARK INTER:                  -7.785
REMARK INTRA:                   0.691
REMARK UNBOUND:                 0.431
REMARK SMILES C[C@H]1[C@@H](C)CC[C@]2(C(=O)[O-])CC[C@@]3(C)C(=CC[C@H]4[C@@]5(C)CC[C@@H](O)C(C)(C)[C@@H]5CC[C@]43C)[C@@H]12
REMARK SMILES IDX 7 1 6 2 11 3 33 4 5 5 12 6 15 7 2 8 3 9 13 10 16 11 1 12
REMARK SMILES IDX 4 13 14 14 31 15 17 16 18 17 30 18 32 19 19 20 29 21 28 22
REMARK SMILES IDX 21 23 20 24 25 25 22 26 23 27 26 28 27 29 8 30 9 31 10 32
REMARK SMILES IDX 24 33
REMARK H PARENT 24 34
REMARK Flexibility Score: inf
ROOT
ATOM      1  C   UNL     1       1.321  25.825  26.612  1.00  0.00     0.017 C 
ATOM      2  C   UNL     1       1.549  26.243  25.125  1.00  0.00     0.014 C 
ATOM      3  C   UNL     1       0.809  24.344  26.638  1.00  0.00     0.014 C 
ATOM      4  C   UNL     1       0.254  26.802  27.221  1.00  0.00     0.030 C 
ATOM      5  C   UNL     1       1.960  27.713  24.965  1.00  0.00     0.004 C 
ATOM      6  C   UNL     1      -0.570  24.134  27.297  1.00  0.00     0.013 C 
ATOM      7  C   UNL     1      -0.302  26.300  28.568  1.00  0.00    -0.063 C 
ATOM      8  C   UNL     1       0.649  28.317  27.086  1.00  0.00    -0.003 C 
ATOM      9  C   UNL     1       0.914  28.654  25.589  1.00  0.00    -0.011 C 
ATOM     10  C   UNL     1      -0.748  24.838  28.689  1.00  0.00    -0.006 C 
ATOM     11  C   UNL     1      -0.677  27.161  29.532  1.00  0.00    -0.027 C 
ATOM     12  C   UNL     1       1.801  28.782  28.009  1.00  0.00     0.008 C 
ATOM     13  C   UNL     1       1.298  30.125  25.363  1.00  0.00     0.008 C 
ATOM     14  C   UNL     1       0.203  24.120  29.695  1.00  0.00     0.017 C 
ATOM     15  C   UNL     1      -2.278  24.799  29.214  1.00  0.00    -0.020 C 
ATOM     16  C   UNL     1      -1.473  26.777  30.746  1.00  0.00     0.032 C 
ATOM     17  C   UNL     1      -2.362  25.477  30.659  1.00  0.00     0.006 C 
ATOM     18  C   UNL     1      -3.231  25.577  28.241  1.00  0.00     0.008 C 
ATOM     19  C   UNL     1      -2.754  23.310  29.257  1.00  0.00     0.012 C 
ATOM     20  C   UNL     1      -3.843  25.706  31.232  1.00  0.00    -0.025 C 
ATOM     21  C   UNL     1      -4.652  25.834  28.782  1.00  0.00     0.005 C 
ATOM     22  C   UNL     1      -4.639  26.544  30.162  1.00  0.00     0.003 C 
ATOM     23  C   UNL     1      -3.813  26.473  32.608  1.00  0.00     0.010 C 
ATOM     24  C   UNL     1      -4.510  24.322  31.554  1.00  0.00     0.012 C 
ATOM     25  C   UNL     1      -6.039  27.111  30.631  1.00  0.00    -0.006 C 
ATOM     26  C   UNL     1      -5.192  26.982  33.065  1.00  0.00     0.033 C 
ATOM     27  C   UNL     1      -5.868  27.853  31.998  1.00  0.00     0.120 C 
ATOM     28  C   UNL     1      -7.137  26.022  30.754  1.00  0.00     0.014 C 
ATOM     29  C   UNL     1      -6.568  28.145  29.595  1.00  0.00     0.014 C 
ENDROOT
BRANCH   1  30
ATOM     30  C   UNL     1       2.645  25.866  27.372  1.00  0.00     0.048 C 
ATOM     31  O   UNL     1       3.620  26.529  26.925  1.00  0.00    -0.550 OA
ATOM     32  O   UNL     1       2.842  25.086  28.506  1.00  0.00    -0.550 OA
ENDBRANCH   1  30
BRANCH  27  33
ATOM     33  O   UNL     1      -5.101  29.024  31.836  1.00  0.00    -0.393 OA
ATOM     34  H   UNL     1      -5.020  29.195  30.861  1.00  0.00     0.210 HD
ENDBRANCH  27  33
TORSDOF 2
ENDMDL
MODEL 5
REMARK VINA RESULT:    -6.576      1.737      7.732
REMARK INTER + INTRA:          -6.722
REMARK INTER:                  -7.154
REMARK INTRA:                   0.432
REMARK UNBOUND:                 0.431
REMARK SMILES C[C@H]1[C@@H](C)CC[C@]2(C(=O)[O-])CC[C@@]3(C)C(=CC[C@H]4[C@@]5(C)CC[C@@H](O)C(C)(C)[C@@H]5CC[C@]43C)[C@@H]12
REMARK SMILES IDX 7 1 6 2 11 3 33 4 5 5 12 6 15 7 2 8 3 9 13 10 16 11 1 12
REMARK SMILES IDX 4 13 14 14 31 15 17 16 18 17 30 18 32 19 19 20 29 21 28 22
REMARK SMILES IDX 21 23 20 24 25 25 22 26 23 27 26 28 27 29 8 30 9 31 10 32
REMARK SMILES IDX 24 33
REMARK H PARENT 24 34
REMARK Flexibility Score: inf
ROOT
ATOM      1  C   UNL     1       0.897  26.692  27.473  1.00  0.00     0.017 C 
ATOM      2  C   UNL     1       2.292  26.037  27.723  1.00  0.00     0.014 C 
ATOM      3  C   UNL     1       0.938  28.165  28.009  1.00  0.00     0.014 C 
ATOM      4  C   UNL     1      -0.172  25.841  28.246  1.00  0.00     0.030 C 
ATOM      5  C   UNL     1       2.344  24.554  27.329  1.00  0.00     0.004 C 
ATOM      6  C   UNL     1      -0.093  28.497  29.107  1.00  0.00     0.013 C 
ATOM      7  C   UNL     1      -1.530  26.562  28.355  1.00  0.00    -0.063 C 
ATOM      8  C   UNL     1      -0.155  24.319  27.856  1.00  0.00    -0.003 C 
ATOM      9  C   UNL     1       1.273  23.741  28.077  1.00  0.00    -0.011 C 
ATOM     10  C   UNL     1      -1.560  28.029  28.796  1.00  0.00    -0.006 C 
ATOM     11  C   UNL     1      -2.686  25.873  28.362  1.00  0.00    -0.027 C 
ATOM     12  C   UNL     1      -0.713  23.993  26.449  1.00  0.00     0.008 C 
ATOM     13  C   UNL     1       1.378  22.248  27.729  1.00  0.00     0.008 C 
ATOM     14  C   UNL     1      -2.073  28.888  27.599  1.00  0.00     0.017 C 
ATOM     15  C   UNL     1      -2.542  28.174  30.073  1.00  0.00    -0.020 C 
ATOM     16  C   UNL     1      -4.017  26.459  28.737  1.00  0.00     0.032 C 
ATOM     17  C   UNL     1      -4.023  27.739  29.656  1.00  0.00     0.006 C 
ATOM     18  C   UNL     1      -2.068  27.263  31.258  1.00  0.00     0.008 C 
ATOM     19  C   UNL     1      -2.503  29.657  30.568  1.00  0.00     0.012 C 
ATOM     20  C   UNL     1      -5.076  27.627  30.862  1.00  0.00    -0.025 C 
ATOM     21  C   UNL     1      -3.076  27.116  32.415  1.00  0.00     0.005 C 
ATOM     22  C   UNL     1      -4.470  26.638  31.927  1.00  0.00     0.003 C 
ATOM     23  C   UNL     1      -6.469  27.091  30.356  1.00  0.00     0.010 C 
ATOM     24  C   UNL     1      -5.377  29.053  31.443  1.00  0.00     0.012 C 
ATOM     25  C   UNL     1      -5.453  26.173  33.076  1.00  0.00    -0.006 C 
ATOM     26  C   UNL     1      -7.425  26.682  31.492  1.00  0.00     0.033 C 
ATOM     27  C   UNL     1      -6.788  25.659  32.442  1.00  0.00     0.120 C 
ATOM     28  C   UNL     1      -5.755  27.283  34.118  1.00  0.00     0.014 C 
ATOM     29  C   UNL     1      -4.823  24.993  33.870  1.00  0.00     0.014 C 
ENDROOT
BRANCH   1  30
ATOM     30  C   UNL     1       0.614  26.756  25.974  1.00  0.00     0.048 C 
ATOM     31  O   UNL     1       1.527  26.514  25.139  1.00  0.00    -0.550 OA
ATOM     32  O   UNL     1      -0.617  27.192  25.498  1.00  0.00    -0.550 OA
ENDBRANCH   1  30
BRANCH  27  33
ATOM     33  O   UNL     1      -6.571  24.467  31.722  1.00  0.00    -0.393 OA
ATOM     34  H   UNL     1      -7.410  24.256  31.234  1.00  0.00     0.210 HD
ENDBRANCH  27  33
TORSDOF 2
ENDMDL
MODEL 6
REMARK VINA RESULT:    -6.303      1.636      7.617
REMARK INTER + INTRA:          -6.425
REMARK INTER:                  -6.944
REMARK INTRA:                   0.519
REMARK UNBOUND:                 0.431
REMARK SMILES C[C@H]1[C@@H](C)CC[C@]2(C(=O)[O-])CC[C@@]3(C)C(=CC[C@H]4[C@@]5(C)CC[C@@H](O)C(C)(C)[C@@H]5CC[C@]43C)[C@@H]12
REMARK SMILES IDX 7 1 6 2 11 3 33 4 5 5 12 6 15 7 2 8 3 9 13 10 16 11 1 12
REMARK SMILES IDX 4 13 14 14 31 15 17 16 18 17 30 18 32 19 19 20 29 21 28 22
REMARK SMILES IDX 21 23 20 24 25 25 22 26 23 27 26 28 27 29 8 30 9 31 10 32
REMARK SMILES IDX 24 33
REMARK H PARENT 24 34
REMARK Flexibility Score: inf
ROOT
ATOM      1  C   UNL     1       0.425  25.183  27.677  1.00  0.00     0.017 C 
ATOM      2  C   UNL     1       0.592  25.090  26.128  1.00  0.00     0.014 C 
ATOM      3  C   UNL     1      -0.002  23.774  28.215  1.00  0.00     0.014 C 
ATOM      4  C   UNL     1      -0.680  26.257  27.972  1.00  0.00     0.030 C 
ATOM      5  C   UNL     1       0.915  26.439  25.471  1.00  0.00     0.004 C 
ATOM      6  C   UNL     1      -1.350  23.734  28.964  1.00  0.00     0.013 C 
ATOM      7  C   UNL     1      -1.173  26.209  29.431  1.00  0.00    -0.063 C 
ATOM      8  C   UNL     1      -0.375  27.657  27.325  1.00  0.00    -0.003 C 
ATOM      9  C   UNL     1      -0.167  27.487  25.792  1.00  0.00    -0.011 C 
ATOM     10  C   UNL     1      -1.533  24.854  30.050  1.00  0.00    -0.006 C 
ATOM     11  C   UNL     1      -1.571  27.325  30.070  1.00  0.00    -0.027 C 
ATOM     12  C   UNL     1       0.772  28.455  27.992  1.00  0.00     0.008 C 
ATOM     13  C   UNL     1       0.128  28.814  25.074  1.00  0.00     0.008 C 
ATOM     14  C   UNL     1      -0.517  24.556  31.195  1.00  0.00     0.017 C 
ATOM     15  C   UNL     1      -3.044  24.923  30.623  1.00  0.00    -0.020 C 
ATOM     16  C   UNL     1      -2.314  27.333  31.375  1.00  0.00     0.032 C 
ATOM     17  C   UNL     1      -3.130  26.040  31.763  1.00  0.00     0.006 C 
ATOM     18  C   UNL     1      -4.064  25.288  29.488  1.00  0.00     0.008 C 
ATOM     19  C   UNL     1      -3.434  23.514  31.177  1.00  0.00     0.012 C 
ATOM     20  C   UNL     1      -4.607  26.380  32.290  1.00  0.00    -0.025 C 
ATOM     21  C   UNL     1      -5.482  25.646  29.972  1.00  0.00     0.005 C 
ATOM     22  C   UNL     1      -5.475  26.776  31.037  1.00  0.00     0.003 C 
ATOM     23  C   UNL     1      -4.585  27.563  33.330  1.00  0.00     0.010 C 
ATOM     24  C   UNL     1      -5.186  25.154  33.081  1.00  0.00     0.012 C 
ATOM     25  C   UNL     1      -6.893  27.404  31.350  1.00  0.00    -0.006 C 
ATOM     26  C   UNL     1      -5.980  28.132  33.650  1.00  0.00     0.033 C 
ATOM     27  C   UNL     1      -6.730  28.566  32.384  1.00  0.00     0.120 C 
ATOM     28  C   UNL     1      -7.924  26.370  31.874  1.00  0.00     0.014 C 
ATOM     29  C   UNL     1      -7.505  28.008  30.053  1.00  0.00     0.014 C 
ENDROOT
BRANCH   1  30
ATOM     30  C   UNL     1       1.764  25.535  28.323  1.00  0.00     0.048 C 
ATOM     31  O   UNL     1       2.846  25.149  27.805  1.00  0.00    -0.550 OA
ATOM     32  O   UNL     1       1.814  26.184  29.551  1.00  0.00    -0.550 OA
ENDBRANCH   1  30
BRANCH  27  33
ATOM     33  O   UNL     1      -6.035  29.649  31.811  1.00  0.00    -0.393 OA
ATOM     34  H   UNL     1      -5.396  29.276  31.147  1.00  0.00     0.210 HD
ENDBRANCH  27  33
TORSDOF 2
ENDMDL
MODEL 7
REMARK VINA RESULT:    -6.132      1.770      7.450
REMARK INTER + INTRA:          -6.239
REMARK INTER:                  -6.678
REMARK INTRA:                   0.439
REMARK UNBOUND:                 0.431
REMARK SMILES C[C@H]1[C@@H](C)CC[C@]2(C(=O)[O-])CC[C@@]3(C)C(=CC[C@H]4[C@@]5(C)CC[C@@H](O)C(C)(C)[C@@H]5CC[C@]43C)[C@@H]12
REMARK SMILES IDX 7 1 6 2 11 3 33 4 5 5 12 6 15 7 2 8 3 9 13 10 16 11 1 12
REMARK SMILES IDX 4 13 14 14 31 15 17 16 18 17 30 18 32 19 19 20 29 21 28 22
REMARK SMILES IDX 21 23 20 24 25 25 22 26 23 27 26 28 27 29 8 30 9 31 10 32
REMARK SMILES IDX 24 33
REMARK H PARENT 24 34
REMARK Flexibility Score: inf
ROOT
ATOM      1  C   UNL     1       1.197  25.571  26.857  1.00  0.00     0.017 C 
ATOM      2  C   UNL     1       2.164  26.483  26.038  1.00  0.00     0.014 C 
ATOM      3  C   UNL     1       0.067  25.060  25.898  1.00  0.00     0.014 C 
ATOM      4  C   UNL     1       0.599  26.438  28.021  1.00  0.00     0.030 C 
ATOM      5  C   UNL     1       3.262  27.127  26.897  1.00  0.00     0.004 C 
ATOM      6  C   UNL     1      -1.370  25.439  26.310  1.00  0.00     0.013 C 
ATOM      7  C   UNL     1      -0.610  25.762  28.697  1.00  0.00    -0.063 C 
ATOM      8  C   UNL     1       1.696  27.103  28.929  1.00  0.00    -0.003 C 
ATOM      9  C   UNL     1       2.656  27.953  28.047  1.00  0.00    -0.011 C 
ATOM     10  C   UNL     1      -1.716  25.167  27.818  1.00  0.00    -0.006 C 
ATOM     11  C   UNL     1      -0.864  25.937  30.007  1.00  0.00    -0.027 C 
ATOM     12  C   UNL     1       2.456  26.129  29.861  1.00  0.00     0.008 C 
ATOM     13  C   UNL     1       3.760  28.650  28.858  1.00  0.00     0.008 C 
ATOM     14  C   UNL     1      -1.719  23.620  28.019  1.00  0.00     0.017 C 
ATOM     15  C   UNL     1      -3.136  25.808  28.255  1.00  0.00    -0.020 C 
ATOM     16  C   UNL     1      -2.151  25.549  30.677  1.00  0.00     0.032 C 
ATOM     17  C   UNL     1      -3.441  25.434  29.779  1.00  0.00     0.006 C 
ATOM     18  C   UNL     1      -3.117  27.371  28.118  1.00  0.00     0.008 C 
ATOM     19  C   UNL     1      -4.247  25.260  27.301  1.00  0.00     0.012 C 
ATOM     20  C   UNL     1      -4.712  26.166  30.430  1.00  0.00    -0.025 C 
ATOM     21  C   UNL     1      -4.314  28.098  28.762  1.00  0.00     0.005 C 
ATOM     22  C   UNL     1      -4.504  27.718  30.255  1.00  0.00     0.003 C 
ATOM     23  C   UNL     1      -4.858  25.808  31.958  1.00  0.00     0.010 C 
ATOM     24  C   UNL     1      -6.032  25.640  29.762  1.00  0.00     0.012 C 
ATOM     25  C   UNL     1      -5.505  28.644  31.056  1.00  0.00    -0.006 C 
ATOM     26  C   UNL     1      -5.867  26.696  32.708  1.00  0.00     0.033 C 
ATOM     27  C   UNL     1      -5.550  28.189  32.552  1.00  0.00     0.120 C 
ATOM     28  C   UNL     1      -6.939  28.660  30.464  1.00  0.00     0.014 C 
ATOM     29  C   UNL     1      -5.007  30.117  31.024  1.00  0.00     0.014 C 
ENDROOT
BRANCH   1  30
ATOM     30  C   UNL     1       1.950  24.347  27.374  1.00  0.00     0.048 C 
ATOM     31  O   UNL     1       3.134  24.122  27.007  1.00  0.00    -0.550 OA
ATOM     32  O   UNL     1       1.312  23.398  28.165  1.00  0.00    -0.550 OA
ENDBRANCH   1  30
BRANCH  27  33
ATOM     33  O   UNL     1      -4.319  28.446  33.188  1.00  0.00    -0.393 OA
ATOM     34  H   UNL     1      -3.684  27.736  32.906  1.00  0.00     0.210 HD
ENDBRANCH  27  33
TORSDOF 2
ENDMDL
MODEL 8
REMARK VINA RESULT:    -5.778      1.901      3.696
REMARK INTER + INTRA:          -5.853
REMARK INTER:                  -6.286
REMARK INTRA:                   0.433
REMARK UNBOUND:                 0.431
REMARK SMILES C[C@H]1[C@@H](C)CC[C@]2(C(=O)[O-])CC[C@@]3(C)C(=CC[C@H]4[C@@]5(C)CC[C@@H](O)C(C)(C)[C@@H]5CC[C@]43C)[C@@H]12
REMARK SMILES IDX 7 1 6 2 11 3 33 4 5 5 12 6 15 7 2 8 3 9 13 10 16 11 1 12
REMARK SMILES IDX 4 13 14 14 31 15 17 16 18 17 30 18 32 19 19 20 29 21 28 22
REMARK SMILES IDX 21 23 20 24 25 25 22 26 23 27 26 28 27 29 8 30 9 31 10 32
REMARK SMILES IDX 24 33
REMARK H PARENT 24 34
REMARK Flexibility Score: inf
ROOT
ATOM      1  C   UNL     1      -5.089  26.558  31.892  1.00  0.00     0.017 C 
ATOM      2  C   UNL     1      -6.378  25.678  31.841  1.00  0.00     0.014 C 
ATOM      3  C   UNL     1      -5.283  27.777  30.926  1.00  0.00     0.014 C 
ATOM      4  C   UNL     1      -3.885  25.662  31.435  1.00  0.00     0.030 C 
ATOM      5  C   UNL     1      -6.269  24.394  32.676  1.00  0.00     0.004 C 
ATOM      6  C   UNL     1      -4.244  27.891  29.791  1.00  0.00     0.013 C 
ATOM      7  C   UNL     1      -2.621  26.488  31.124  1.00  0.00    -0.063 C 
ATOM      8  C   UNL     1      -3.735  24.343  32.277  1.00  0.00    -0.003 C 
ATOM      9  C   UNL     1      -5.067  23.540  32.229  1.00  0.00    -0.011 C 
ATOM     10  C   UNL     1      -2.749  27.741  30.250  1.00  0.00    -0.006 C 
ATOM     11  C   UNL     1      -1.391  25.990  31.345  1.00  0.00    -0.027 C 
ATOM     12  C   UNL     1      -3.216  24.541  33.722  1.00  0.00     0.008 C 
ATOM     13  C   UNL     1      -5.006  22.226  33.023  1.00  0.00     0.008 C 
ATOM     14  C   UNL     1      -2.409  28.984  31.127  1.00  0.00     0.017 C 
ATOM     15  C   UNL     1      -1.726  27.617  29.002  1.00  0.00    -0.020 C 
ATOM     16  C   UNL     1      -0.124  26.605  30.823  1.00  0.00     0.032 C 
ATOM     17  C   UNL     1      -0.227  27.532  29.551  1.00  0.00     0.006 C 
ATOM     18  C   UNL     1      -2.022  26.332  28.153  1.00  0.00     0.008 C 
ATOM     19  C   UNL     1      -1.921  28.858  28.071  1.00  0.00     0.012 C 
ATOM     20  C   UNL     1       0.894  27.197  28.453  1.00  0.00    -0.025 C 
ATOM     21  C   UNL     1      -0.944  25.974  27.111  1.00  0.00     0.005 C 
ATOM     22  C   UNL     1       0.471  25.858  27.740  1.00  0.00     0.003 C 
ATOM     23  C   UNL     1       2.314  27.032  29.117  1.00  0.00     0.010 C 
ATOM     24  C   UNL     1       1.047  28.404  27.462  1.00  0.00     0.012 C 
ATOM     25  C   UNL     1       1.563  25.199  26.804  1.00  0.00    -0.006 C 
ATOM     26  C   UNL     1       3.371  26.426  28.175  1.00  0.00     0.033 C 
ATOM     27  C   UNL     1       2.915  25.086  27.582  1.00  0.00     0.120 C 
ATOM     28  C   UNL     1       1.780  25.966  25.473  1.00  0.00     0.014 C 
ATOM     29  C   UNL     1       1.124  23.760  26.408  1.00  0.00     0.014 C 
ENDROOT
BRANCH   1  30
ATOM     30  C   UNL     1      -4.895  27.114  33.301  1.00  0.00     0.048 C 
ATOM     31  O   UNL     1      -5.854  27.131  34.120  1.00  0.00    -0.550 OA
ATOM     32  O   UNL     1      -3.699  27.717  33.672  1.00  0.00    -0.550 OA
ENDBRANCH   1  30
BRANCH  27  33
ATOM     33  O   UNL     1       2.808  24.154  28.633  1.00  0.00    -0.393 OA
ATOM     34  H   UNL     1       1.973  23.636  28.490  1.00  0.00     0.210 HD
ENDBRANCH  27  33
TORSDOF 2
ENDMDL
MODEL 9
REMARK VINA RESULT:    -5.593      2.118      7.958
REMARK INTER + INTRA:          -5.652
REMARK INTER:                  -6.168
REMARK INTRA:                   0.516
REMARK UNBOUND:                 0.431
REMARK SMILES C[C@H]1[C@@H](C)CC[C@]2(C(=O)[O-])CC[C@@]3(C)C(=CC[C@H]4[C@@]5(C)CC[C@@H](O)C(C)(C)[C@@H]5CC[C@]43C)[C@@H]12
REMARK SMILES IDX 7 1 6 2 11 3 33 4 5 5 12 6 15 7 2 8 3 9 13 10 16 11 1 12
REMARK SMILES IDX 4 13 14 14 31 15 17 16 18 17 30 18 32 19 19 20 29 21 28 22
REMARK SMILES IDX 21 23 20 24 25 25 22 26 23 27 26 28 27 29 8 30 9 31 10 32
REMARK SMILES IDX 24 33
REMARK H PARENT 24 34
REMARK Flexibility Score: inf
ROOT
ATOM      1  C   UNL     1      -1.167  25.131  28.611  1.00  0.00     0.017 C 
ATOM      2  C   UNL     1      -0.863  24.733  27.132  1.00  0.00     0.014 C 
ATOM      3  C   UNL     1      -1.619  23.846  29.387  1.00  0.00     0.014 C 
ATOM      4  C   UNL     1      -2.310  26.206  28.587  1.00  0.00     0.030 C 
ATOM      5  C   UNL     1      -0.504  25.932  26.243  1.00  0.00     0.004 C 
ATOM      6  C   UNL     1      -3.027  23.914  30.013  1.00  0.00     0.013 C 
ATOM      7  C   UNL     1      -2.930  26.437  29.979  1.00  0.00    -0.063 C 
ATOM      8  C   UNL     1      -1.971  27.455  27.696  1.00  0.00    -0.003 C 
ATOM      9  C   UNL     1      -1.626  26.987  26.252  1.00  0.00    -0.011 C 
ATOM     10  C   UNL     1      -3.322  25.224  30.829  1.00  0.00    -0.006 C 
ATOM     11  C   UNL     1      -3.400  27.645  30.341  1.00  0.00    -0.027 C 
ATOM     12  C   UNL     1      -0.900  28.408  28.279  1.00  0.00     0.008 C 
ATOM     13  C   UNL     1      -1.289  28.150  25.306  1.00  0.00     0.008 C 
ATOM     14  C   UNL     1      -2.407  25.196  32.092  1.00  0.00     0.017 C 
ATOM     15  C   UNL     1      -4.879  25.357  31.248  1.00  0.00    -0.020 C 
ATOM     16  C   UNL     1      -4.255  27.892  31.551  1.00  0.00     0.032 C 
ATOM     17  C   UNL     1      -5.082  26.678  32.125  1.00  0.00     0.006 C 
ATOM     18  C   UNL     1      -5.800  25.451  29.981  1.00  0.00     0.008 C 
ATOM     19  C   UNL     1      -5.295  24.077  32.043  1.00  0.00     0.012 C 
ATOM     20  C   UNL     1      -6.605  27.068  32.446  1.00  0.00    -0.025 C 
ATOM     21  C   UNL     1      -7.261  25.854  30.262  1.00  0.00     0.005 C 
ATOM     22  C   UNL     1      -7.366  27.175  31.071  1.00  0.00     0.003 C 
ATOM     23  C   UNL     1      -6.693  28.437  33.221  1.00  0.00     0.010 C 
ATOM     24  C   UNL     1      -7.234  26.009  33.419  1.00  0.00     0.012 C 
ATOM     25  C   UNL     1      -8.815  27.806  31.129  1.00  0.00    -0.006 C 
ATOM     26  C   UNL     1      -8.119  29.013  33.301  1.00  0.00     0.033 C 
ATOM     27  C   UNL     1      -8.761  29.158  31.915  1.00  0.00     0.120 C 
ATOM     28  C   UNL     1      -9.872  26.865  31.765  1.00  0.00     0.014 C 
ATOM     29  C   UNL     1      -9.319  28.115  29.691  1.00  0.00     0.014 C 
ENDROOT
BRANCH   1  30
ATOM     30  C   UNL     1       0.103  25.650  29.281  1.00  0.00     0.048 C 
ATOM     31  O   UNL     1       0.054  26.176  30.426  1.00  0.00    -0.550 OA
ATOM     32  O   UNL     1       1.315  25.660  28.601  1.00  0.00    -0.550 OA
ENDBRANCH   1  30
BRANCH  27  33
ATOM     33  O   UNL     1      -8.035  30.125  31.193  1.00  0.00    -0.393 OA
ATOM     34  H   UNL     1      -7.113  30.142  31.562  1.00  0.00     0.210 HD
ENDBRANCH  27  33
TORSDOF 2
ENDMDL
