MODEL 1
REMARK VINA RESULT:    -3.609      0.000      0.000
REMARK INTER + INTRA:         -14.003
REMARK INTER:                  -9.516
REMARK INTRA:                  -4.487
REMARK UNBOUND:                -4.487
REMARK SMILES CCCCCCCCCCCCCCCCCCCCCCCCCCCCCC(=O)[O-]
REMARK SMILES IDX 16 1 17 2 18 3 19 4 20 5 21 6 22 7 23 8 24 9 25 10 26 11
REMARK SMILES IDX 27 12 28 13 29 14 30 15 31 16 32 17 15 18 14 19 13 20 12 21
REMARK SMILES IDX 11 22 10 23 9 24 8 25 7 26 6 27 5 28 4 29 3 30 2 31 1 32
REMARK H PARENT
REMARK Flexibility Score: inf
ROOT
ATOM      1  C   UNL     1      34.368   9.834  43.992  1.00  0.00     0.000 C 
ENDROOT
BRANCH   1   2
ATOM      2  C   UNL     1      35.337   9.078  44.918  1.00  0.00     0.000 C 
BRANCH   2   3
ATOM      3  C   UNL     1      34.986   9.243  46.405  1.00  0.00     0.000 C 
BRANCH   3   4
ATOM      4  C   UNL     1      36.152   9.815  47.229  1.00  0.00     0.000 C 
BRANCH   4   5
ATOM      5  C   UNL     1      35.670  10.620  48.446  1.00  0.00     0.000 C 
BRANCH   5   6
ATOM      6  C   UNL     1      35.188   9.720  49.599  1.00  0.00     0.000 C 
BRANCH   6   7
ATOM      7  C   UNL     1      33.736  10.012  50.008  1.00  0.00     0.000 C 
BRANCH   7   8
ATOM      8  C   UNL     1      32.970  10.807  48.938  1.00  0.00     0.000 C 
BRANCH   8   9
ATOM      9  C   UNL     1      31.649  10.117  48.580  1.00  0.00     0.000 C 
BRANCH   9  10
ATOM     10  C   UNL     1      31.256   9.092  49.650  1.00  0.00     0.000 C 
BRANCH  10  11
ATOM     11  C   UNL     1      29.949   8.381  49.282  1.00  0.00     0.000 C 
BRANCH  11  12
ATOM     12  C   UNL     1      30.073   6.864  49.487  1.00  0.00     0.000 C 
BRANCH  12  13
ATOM     13  C   UNL     1      29.999   6.073  48.168  1.00  0.00     0.006 C 
BRANCH  13  14
ATOM     14  C   UNL     1      31.243   5.219  47.871  1.00  0.00     0.053 C 
BRANCH  14  15
ATOM     15  C   UNL     1      32.464   6.058  47.649  1.00  0.00     0.041 C 
ATOM     16  O   UNL     1      33.145   6.458  48.630  1.00  0.00    -0.550 OA
ATOM     17  O   UNL     1      32.829   6.428  46.361  1.00  0.00    -0.550 OA
ENDBRANCH  14  15
ENDBRANCH  13  14
ENDBRANCH  12  13
ENDBRANCH  11  12
ENDBRANCH  10  11
ENDBRANCH   9  10
ENDBRANCH   8   9
ENDBRANCH   7   8
ENDBRANCH   6   7
ENDBRANCH   5   6
ENDBRANCH   4   5
ENDBRANCH   3   4
ENDBRANCH   2   3
ENDBRANCH   1   2
BRANCH   1  18
ATOM     18  C   UNL     1      33.823  11.122  44.631  1.00  0.00     0.000 C 
BRANCH  18  19
ATOM     19  C   UNL     1      34.653  12.386  44.344  1.00  0.00     0.000 C 
BRANCH  19  20
ATOM     20  C   UNL     1      35.388  12.944  45.581  1.00  0.00     0.000 C 
BRANCH  20  21
ATOM     21  C   UNL     1      35.962  14.352  45.343  1.00  0.00     0.000 C 
BRANCH  21  22
ATOM     22  C   UNL     1      37.457  14.449  45.719  1.00  0.00     0.000 C 
BRANCH  22  23
ATOM     23  C   UNL     1      37.832  13.639  46.974  1.00  0.00     0.000 C 
BRANCH  23  24
ATOM     24  C   UNL     1      37.773  14.431  48.294  1.00  0.00    -0.000 C 
BRANCH  24  25
ATOM     25  C   UNL     1      37.190  13.658  49.496  1.00  0.00    -0.000 C 
BRANCH  25  26
ATOM     26  C   UNL     1      35.803  14.127  49.972  1.00  0.00    -0.000 C 
BRANCH  26  27
ATOM     27  C   UNL     1      34.861  14.492  48.811  1.00  0.00    -0.000 C 
BRANCH  27  28
ATOM     28  C   UNL     1      34.135  15.832  49.026  1.00  0.00    -0.000 C 
BRANCH  28  29
ATOM     29  C   UNL     1      34.543  16.962  48.063  1.00  0.00    -0.000 C 
BRANCH  29  30
ATOM     30  C   UNL     1      35.983  17.449  48.284  1.00  0.00    -0.000 C 
BRANCH  30  31
ATOM     31  C   UNL     1      36.480  18.260  47.082  1.00  0.00    -0.003 C 
ATOM     32  C   UNL     1      35.851  17.763  45.783  1.00  0.00     0.004 C 
ENDBRANCH  30  31
ENDBRANCH  29  30
ENDBRANCH  28  29
ENDBRANCH  27  28
ENDBRANCH  26  27
ENDBRANCH  25  26
ENDBRANCH  24  25
ENDBRANCH  23  24
ENDBRANCH  22  23
ENDBRANCH  21  22
ENDBRANCH  20  21
ENDBRANCH  19  20
ENDBRANCH  18  19
ENDBRANCH   1  18
TORSDOF 28
ENDMDL
MODEL 2
REMARK VINA RESULT:    -3.468      3.056      7.973
REMARK INTER + INTRA:         -13.631
REMARK INTER:                  -9.042
REMARK INTRA:                  -4.589
REMARK UNBOUND:                -4.487
REMARK SMILES CCCCCCCCCCCCCCCCCCCCCCCCCCCCCC(=O)[O-]
REMARK SMILES IDX 16 1 17 2 18 3 19 4 20 5 21 6 22 7 23 8 24 9 25 10 26 11
REMARK SMILES IDX 27 12 28 13 29 14 30 15 31 16 32 17 15 18 14 19 13 20 12 21
REMARK SMILES IDX 11 22 10 23 9 24 8 25 7 26 6 27 5 28 4 29 3 30 2 31 1 32
REMARK H PARENT
REMARK Flexibility Score: inf
ROOT
ATOM      1  C   UNL     1      34.889   8.956  44.600  1.00  0.00     0.000 C 
ENDROOT
BRANCH   1   2
ATOM      2  C   UNL     1      34.353  10.182  43.840  1.00  0.00     0.000 C 
BRANCH   2   3
ATOM      3  C   UNL     1      33.991  11.347  44.773  1.00  0.00     0.000 C 
BRANCH   3   4
ATOM      4  C   UNL     1      34.764  12.635  44.442  1.00  0.00     0.000 C 
BRANCH   4   5
ATOM      5  C   UNL     1      35.310  13.330  45.699  1.00  0.00     0.000 C 
BRANCH   5   6
ATOM      6  C   UNL     1      36.137  14.587  45.371  1.00  0.00     0.000 C 
BRANCH   6   7
ATOM      7  C   UNL     1      37.645  14.371  45.577  1.00  0.00     0.000 C 
BRANCH   7   8
ATOM      8  C   UNL     1      38.070  14.541  47.044  1.00  0.00     0.000 C 
BRANCH   8   9
ATOM      9  C   UNL     1      37.167  15.547  47.767  1.00  0.00     0.000 C 
BRANCH   9  10
ATOM     10  C   UNL     1      37.158  15.290  49.278  1.00  0.00     0.000 C 
BRANCH  10  11
ATOM     11  C   UNL     1      35.742  14.983  49.779  1.00  0.00     0.000 C 
BRANCH  11  12
ATOM     12  C   UNL     1      34.687  15.518  48.800  1.00  0.00     0.000 C 
BRANCH  12  13
ATOM     13  C   UNL     1      33.553  16.287  49.503  1.00  0.00     0.006 C 
BRANCH  13  14
ATOM     14  C   UNL     1      32.830  17.306  48.607  1.00  0.00     0.053 C 
BRANCH  14  15
ATOM     15  C   UNL     1      31.361  17.367  48.892  1.00  0.00     0.041 C 
ATOM     16  O   UNL     1      30.754  16.344  49.310  1.00  0.00    -0.550 OA
ATOM     17  O   UNL     1      30.655  18.541  48.665  1.00  0.00    -0.550 OA
ENDBRANCH  14  15
ENDBRANCH  13  14
ENDBRANCH  12  13
ENDBRANCH  11  12
ENDBRANCH  10  11
ENDBRANCH   9  10
ENDBRANCH   8   9
ENDBRANCH   7   8
ENDBRANCH   6   7
ENDBRANCH   5   6
ENDBRANCH   4   5
ENDBRANCH   3   4
ENDBRANCH   2   3
ENDBRANCH   1   2
BRANCH   1  18
ATOM     18  C   UNL     1      35.263   9.280  46.056  1.00  0.00     0.000 C 
BRANCH  18  19
ATOM     19  C   UNL     1      36.776   9.339  46.336  1.00  0.00     0.000 C 
BRANCH  19  20
ATOM     20  C   UNL     1      37.281  10.739  46.744  1.00  0.00     0.000 C 
BRANCH  20  21
ATOM     21  C   UNL     1      37.839  10.771  48.178  1.00  0.00     0.000 C 
BRANCH  21  22
ATOM     22  C   UNL     1      36.927  11.557  49.146  1.00  0.00     0.000 C 
BRANCH  22  23
ATOM     23  C   UNL     1      35.543  10.914  49.349  1.00  0.00     0.000 C 
BRANCH  23  24
ATOM     24  C   UNL     1      34.356  11.772  48.871  1.00  0.00    -0.000 C 
BRANCH  24  25
ATOM     25  C   UNL     1      32.961  11.185  49.166  1.00  0.00    -0.000 C 
BRANCH  25  26
ATOM     26  C   UNL     1      32.793   9.688  48.849  1.00  0.00    -0.000 C 
BRANCH  26  27
ATOM     27  C   UNL     1      31.319   9.262  48.727  1.00  0.00    -0.000 C 
BRANCH  27  28
ATOM     28  C   UNL     1      31.013   7.944  49.462  1.00  0.00    -0.000 C 
BRANCH  28  29
ATOM     29  C   UNL     1      29.853   7.119  48.874  1.00  0.00    -0.000 C 
BRANCH  29  30
ATOM     30  C   UNL     1      30.268   6.282  47.655  1.00  0.00    -0.000 C 
BRANCH  30  31
ATOM     31  C   UNL     1      31.712   5.786  47.794  1.00  0.00    -0.003 C 
ATOM     32  C   UNL     1      32.595   6.337  46.678  1.00  0.00     0.004 C 
ENDBRANCH  30  31
ENDBRANCH  29  30
ENDBRANCH  28  29
ENDBRANCH  27  28
ENDBRANCH  26  27
ENDBRANCH  25  26
ENDBRANCH  24  25
ENDBRANCH  23  24
ENDBRANCH  22  23
ENDBRANCH  21  22
ENDBRANCH  20  21
ENDBRANCH  19  20
ENDBRANCH  18  19
ENDBRANCH   1  18
TORSDOF 28
ENDMDL
MODEL 3
REMARK VINA RESULT:    -3.349      1.139      2.542
REMARK INTER + INTRA:         -13.317
REMARK INTER:                  -7.826
REMARK INTRA:                  -5.492
REMARK UNBOUND:                -4.487
REMARK SMILES CCCCCCCCCCCCCCCCCCCCCCCCCCCCCC(=O)[O-]
REMARK SMILES IDX 16 1 17 2 18 3 19 4 20 5 21 6 22 7 23 8 24 9 25 10 26 11
REMARK SMILES IDX 27 12 28 13 29 14 30 15 31 16 32 17 15 18 14 19 13 20 12 21
REMARK SMILES IDX 11 22 10 23 9 24 8 25 7 26 6 27 5 28 4 29 3 30 2 31 1 32
REMARK H PARENT
REMARK Flexibility Score: inf
ROOT
ATOM      1  C   UNL     1      34.274  10.452  45.804  1.00  0.00     0.000 C 
ENDROOT
BRANCH   1   2
ATOM      2  C   UNL     1      35.117   9.192  46.071  1.00  0.00     0.000 C 
BRANCH   2   3
ATOM      3  C   UNL     1      36.504   9.256  45.413  1.00  0.00     0.000 C 
BRANCH   3   4
ATOM      4  C   UNL     1      37.649   9.245  46.441  1.00  0.00     0.000 C 
BRANCH   4   5
ATOM      5  C   UNL     1      37.899  10.632  47.053  1.00  0.00     0.000 C 
BRANCH   5   6
ATOM      6  C   UNL     1      37.818  10.626  48.591  1.00  0.00     0.000 C 
BRANCH   6   7
ATOM      7  C   UNL     1      36.375  10.748  49.105  1.00  0.00     0.000 C 
BRANCH   7   8
ATOM      8  C   UNL     1      35.869   9.450  49.754  1.00  0.00     0.000 C 
BRANCH   8   9
ATOM      9  C   UNL     1      34.348   9.486  49.943  1.00  0.00     0.000 C 
BRANCH   9  10
ATOM     10  C   UNL     1      33.755  10.784  49.382  1.00  0.00     0.000 C 
BRANCH  10  11
ATOM     11  C   UNL     1      32.224  10.716  49.332  1.00  0.00     0.000 C 
BRANCH  11  12
ATOM     12  C   UNL     1      31.755   9.692  48.288  1.00  0.00     0.000 C 
BRANCH  12  13
ATOM     13  C   UNL     1      30.964   8.525  48.908  1.00  0.00     0.006 C 
BRANCH  13  14
ATOM     14  C   UNL     1      30.958   7.243  48.058  1.00  0.00     0.053 C 
BRANCH  14  15
ATOM     15  C   UNL     1      32.338   6.703  47.843  1.00  0.00     0.041 C 
ATOM     16  O   UNL     1      32.760   6.489  46.674  1.00  0.00    -0.550 OA
ATOM     17  O   UNL     1      33.147   6.403  48.931  1.00  0.00    -0.550 OA
ENDBRANCH  14  15
ENDBRANCH  13  14
ENDBRANCH  12  13
ENDBRANCH  11  12
ENDBRANCH  10  11
ENDBRANCH   9  10
ENDBRANCH   8   9
ENDBRANCH   7   8
ENDBRANCH   6   7
ENDBRANCH   5   6
ENDBRANCH   4   5
ENDBRANCH   3   4
ENDBRANCH   2   3
ENDBRANCH   1   2
BRANCH   1  18
ATOM     18  C   UNL     1      34.740  11.221  44.556  1.00  0.00     0.000 C 
BRANCH  18  19
ATOM     19  C   UNL     1      34.763  12.752  44.713  1.00  0.00     0.000 C 
BRANCH  19  20
ATOM     20  C   UNL     1      35.938  13.274  45.568  1.00  0.00     0.000 C 
BRANCH  20  21
ATOM     21  C   UNL     1      35.509  13.640  47.000  1.00  0.00     0.000 C 
BRANCH  21  22
ATOM     22  C   UNL     1      36.681  14.193  47.842  1.00  0.00     0.000 C 
BRANCH  22  23
ATOM     23  C   UNL     1      36.313  14.453  49.315  1.00  0.00     0.000 C 
BRANCH  23  24
ATOM     24  C   UNL     1      34.811  14.334  49.635  1.00  0.00    -0.000 C 
BRANCH  24  25
ATOM     25  C   UNL     1      34.067  15.676  49.795  1.00  0.00    -0.000 C 
BRANCH  25  26
ATOM     26  C   UNL     1      33.924  16.511  48.509  1.00  0.00    -0.000 C 
BRANCH  26  27
ATOM     27  C   UNL     1      34.342  17.980  48.698  1.00  0.00    -0.000 C 
BRANCH  27  28
ATOM     28  C   UNL     1      35.867  18.161  48.802  1.00  0.00    -0.000 C 
BRANCH  28  29
ATOM     29  C   UNL     1      36.667  17.715  47.563  1.00  0.00    -0.000 C 
BRANCH  29  30
ATOM     30  C   UNL     1      35.890  17.892  46.251  1.00  0.00    -0.000 C 
BRANCH  30  31
ATOM     31  C   UNL     1      36.342  16.869  45.202  1.00  0.00    -0.003 C 
ATOM     32  C   UNL     1      37.858  16.885  45.032  1.00  0.00     0.004 C 
ENDBRANCH  30  31
ENDBRANCH  29  30
ENDBRANCH  28  29
ENDBRANCH  27  28
ENDBRANCH  26  27
ENDBRANCH  25  26
ENDBRANCH  24  25
ENDBRANCH  23  24
ENDBRANCH  22  23
ENDBRANCH  21  22
ENDBRANCH  20  21
ENDBRANCH  19  20
ENDBRANCH  18  19
ENDBRANCH   1  18
TORSDOF 28
ENDMDL
MODEL 4
REMARK VINA RESULT:    -3.173      3.421      8.068
REMARK INTER + INTRA:         -12.854
REMARK INTER:                  -8.316
REMARK INTRA:                  -4.538
REMARK UNBOUND:                -4.487
REMARK SMILES CCCCCCCCCCCCCCCCCCCCCCCCCCCCCC(=O)[O-]
REMARK SMILES IDX 16 1 17 2 18 3 19 4 20 5 21 6 22 7 23 8 24 9 25 10 26 11
REMARK SMILES IDX 27 12 28 13 29 14 30 15 31 16 32 17 15 18 14 19 13 20 12 21
REMARK SMILES IDX 11 22 10 23 9 24 8 25 7 26 6 27 5 28 4 29 3 30 2 31 1 32
REMARK H PARENT
REMARK Flexibility Score: inf
ROOT
ATOM      1  C   UNL     1      34.748  10.655  44.616  1.00  0.00     0.000 C 
ENDROOT
BRANCH   1   2
ATOM      2  C   UNL     1      34.517  12.173  44.501  1.00  0.00     0.000 C 
BRANCH   2   3
ATOM      3  C   UNL     1      35.454  12.985  45.406  1.00  0.00     0.000 C 
BRANCH   3   4
ATOM      4  C   UNL     1      35.655  14.428  44.910  1.00  0.00     0.000 C 
BRANCH   4   5
ATOM      5  C   UNL     1      35.985  15.400  46.053  1.00  0.00     0.000 C 
BRANCH   5   6
ATOM      6  C   UNL     1      35.649  16.862  45.705  1.00  0.00     0.000 C 
BRANCH   6   7
ATOM      7  C   UNL     1      36.395  17.867  46.596  1.00  0.00     0.000 C 
BRANCH   7   8
ATOM      8  C   UNL     1      37.523  17.212  47.408  1.00  0.00     0.000 C 
BRANCH   8   9
ATOM      9  C   UNL     1      37.312  17.421  48.912  1.00  0.00     0.000 C 
BRANCH   9  10
ATOM     10  C   UNL     1      36.787  16.142  49.575  1.00  0.00     0.000 C 
BRANCH  10  11
ATOM     11  C   UNL     1      35.368  16.344  50.120  1.00  0.00     0.000 C 
BRANCH  11  12
ATOM     12  C   UNL     1      34.322  15.777  49.150  1.00  0.00     0.000 C 
BRANCH  12  13
ATOM     13  C   UNL     1      32.921  16.382  49.359  1.00  0.00     0.006 C 
BRANCH  13  14
ATOM     14  C   UNL     1      32.868  17.913  49.225  1.00  0.00     0.053 C 
BRANCH  14  15
ATOM     15  C   UNL     1      31.474  18.412  48.998  1.00  0.00     0.041 C 
ATOM     16  O   UNL     1      30.536  17.597  48.787  1.00  0.00    -0.550 OA
ATOM     17  O   UNL     1      31.216  19.776  48.985  1.00  0.00    -0.550 OA
ENDBRANCH  14  15
ENDBRANCH  13  14
ENDBRANCH  12  13
ENDBRANCH  11  12
ENDBRANCH  10  11
ENDBRANCH   9  10
ENDBRANCH   8   9
ENDBRANCH   7   8
ENDBRANCH   6   7
ENDBRANCH   5   6
ENDBRANCH   4   5
ENDBRANCH   3   4
ENDBRANCH   2   3
ENDBRANCH   1   2
BRANCH   1  18
ATOM     18  C   UNL     1      34.162  10.065  45.909  1.00  0.00     0.000 C 
BRANCH  18  19
ATOM     19  C   UNL     1      35.208   9.577  46.929  1.00  0.00     0.000 C 
BRANCH  19  20
ATOM     20  C   UNL     1      36.658   9.622  46.403  1.00  0.00     0.000 C 
BRANCH  20  21
ATOM     21  C   UNL     1      37.664  10.062  47.482  1.00  0.00     0.000 C 
BRANCH  21  22
ATOM     22  C   UNL     1      37.811  11.598  47.557  1.00  0.00     0.000 C 
BRANCH  22  23
ATOM     23  C   UNL     1      37.435  12.187  48.930  1.00  0.00     0.000 C 
BRANCH  23  24
ATOM     24  C   UNL     1      35.955  12.591  49.074  1.00  0.00    -0.000 C 
BRANCH  24  25
ATOM     25  C   UNL     1      35.073  11.585  49.844  1.00  0.00    -0.000 C 
BRANCH  25  26
ATOM     26  C   UNL     1      33.555  11.767  49.669  1.00  0.00    -0.000 C 
BRANCH  26  27
ATOM     27  C   UNL     1      32.775  10.444  49.777  1.00  0.00    -0.000 C 
BRANCH  27  28
ATOM     28  C   UNL     1      31.720  10.278  48.670  1.00  0.00    -0.000 C 
BRANCH  28  29
ATOM     29  C   UNL     1      31.127   8.863  48.534  1.00  0.00    -0.000 C 
BRANCH  29  30
ATOM     30  C   UNL     1      32.176   7.805  48.163  1.00  0.00    -0.000 C 
BRANCH  30  31
ATOM     31  C   UNL     1      31.511   6.549  47.590  1.00  0.00    -0.003 C 
ATOM     32  C   UNL     1      30.138   6.316  48.215  1.00  0.00     0.004 C 
ENDBRANCH  30  31
ENDBRANCH  29  30
ENDBRANCH  28  29
ENDBRANCH  27  28
ENDBRANCH  26  27
ENDBRANCH  25  26
ENDBRANCH  24  25
ENDBRANCH  23  24
ENDBRANCH  22  23
ENDBRANCH  21  22
ENDBRANCH  20  21
ENDBRANCH  19  20
ENDBRANCH  18  19
ENDBRANCH   1  18
TORSDOF 28
ENDMDL
MODEL 5
REMARK VINA RESULT:    -3.028      3.061      8.054
REMARK INTER + INTRA:         -12.471
REMARK INTER:                  -8.336
REMARK INTRA:                  -4.135
REMARK UNBOUND:                -4.487
REMARK SMILES CCCCCCCCCCCCCCCCCCCCCCCCCCCCCC(=O)[O-]
REMARK SMILES IDX 16 1 17 2 18 3 19 4 20 5 21 6 22 7 23 8 24 9 25 10 26 11
REMARK SMILES IDX 27 12 28 13 29 14 30 15 31 16 32 17 15 18 14 19 13 20 12 21
REMARK SMILES IDX 11 22 10 23 9 24 8 25 7 26 6 27 5 28 4 29 3 30 2 31 1 32
REMARK H PARENT
REMARK Flexibility Score: inf
ROOT
ATOM      1  C   UNL     1      34.721   9.460  44.242  1.00  0.00     0.000 C 
ENDROOT
BRANCH   1   2
ATOM      2  C   UNL     1      34.289  10.910  43.956  1.00  0.00     0.000 C 
BRANCH   2   3
ATOM      3  C   UNL     1      34.658  11.874  45.093  1.00  0.00     0.000 C 
BRANCH   3   4
ATOM      4  C   UNL     1      35.005  13.284  44.585  1.00  0.00     0.000 C 
BRANCH   4   5
ATOM      5  C   UNL     1      35.556  14.189  45.699  1.00  0.00     0.000 C 
BRANCH   5   6
ATOM      6  C   UNL     1      36.706  15.092  45.216  1.00  0.00     0.000 C 
BRANCH   6   7
ATOM      7  C   UNL     1      37.662  15.487  46.352  1.00  0.00     0.000 C 
BRANCH   7   8
ATOM      8  C   UNL     1      36.974  15.502  47.725  1.00  0.00     0.000 C 
BRANCH   8   9
ATOM      9  C   UNL     1      37.159  16.855  48.421  1.00  0.00     0.000 C 
BRANCH   9  10
ATOM     10  C   UNL     1      36.599  17.995  47.562  1.00  0.00     0.000 C 
BRANCH  10  11
ATOM     11  C   UNL     1      35.806  18.992  48.415  1.00  0.00     0.000 C 
BRANCH  11  12
ATOM     12  C   UNL     1      35.290  18.324  49.699  1.00  0.00     0.000 C 
BRANCH  12  13
ATOM     13  C   UNL     1      33.752  18.262  49.764  1.00  0.00     0.006 C 
BRANCH  13  14
ATOM     14  C   UNL     1      33.122  17.210  48.836  1.00  0.00     0.053 C 
BRANCH  14  15
ATOM     15  C   UNL     1      31.626  17.226  48.899  1.00  0.00     0.041 C 
ATOM     16  O   UNL     1      30.989  18.263  48.573  1.00  0.00    -0.550 OA
ATOM     17  O   UNL     1      30.935  16.108  49.349  1.00  0.00    -0.550 OA
ENDBRANCH  14  15
ENDBRANCH  13  14
ENDBRANCH  12  13
ENDBRANCH  11  12
ENDBRANCH  10  11
ENDBRANCH   9  10
ENDBRANCH   8   9
ENDBRANCH   7   8
ENDBRANCH   6   7
ENDBRANCH   5   6
ENDBRANCH   4   5
ENDBRANCH   3   4
ENDBRANCH   2   3
ENDBRANCH   1   2
BRANCH   1  18
ATOM     18  C   UNL     1      34.392   9.018  45.678  1.00  0.00     0.000 C 
BRANCH  18  19
ATOM     19  C   UNL     1      35.589   9.027  46.646  1.00  0.00     0.000 C 
BRANCH  19  20
ATOM     20  C   UNL     1      36.947   9.273  45.956  1.00  0.00     0.000 C 
BRANCH  20  21
ATOM     21  C   UNL     1      37.979   9.918  46.898  1.00  0.00     0.000 C 
BRANCH  21  22
ATOM     22  C   UNL     1      37.867  11.458  46.927  1.00  0.00     0.000 C 
BRANCH  22  23
ATOM     23  C   UNL     1      37.448  12.021  48.298  1.00  0.00     0.000 C 
BRANCH  23  24
ATOM     24  C   UNL     1      35.941  11.923  48.602  1.00  0.00    -0.000 C 
BRANCH  24  25
ATOM     25  C   UNL     1      35.581  11.167  49.898  1.00  0.00    -0.000 C 
BRANCH  25  26
ATOM     26  C   UNL     1      34.214  10.458  49.892  1.00  0.00    -0.000 C 
BRANCH  26  27
ATOM     27  C   UNL     1      33.267  10.989  48.802  1.00  0.00    -0.000 C 
BRANCH  27  28
ATOM     28  C   UNL     1      31.882  10.319  48.832  1.00  0.00    -0.000 C 
BRANCH  28  29
ATOM     29  C   UNL     1      31.880   8.801  48.576  1.00  0.00    -0.000 C 
BRANCH  29  30
ATOM     30  C   UNL     1      30.483   8.174  48.688  1.00  0.00    -0.000 C 
BRANCH  30  31
ATOM     31  C   UNL     1      30.563   6.643  48.663  1.00  0.00    -0.003 C 
ATOM     32  C   UNL     1      31.278   6.149  47.408  1.00  0.00     0.004 C 
ENDBRANCH  30  31
ENDBRANCH  29  30
ENDBRANCH  28  29
ENDBRANCH  27  28
ENDBRANCH  26  27
ENDBRANCH  25  26
ENDBRANCH  24  25
ENDBRANCH  23  24
ENDBRANCH  22  23
ENDBRANCH  21  22
ENDBRANCH  20  21
ENDBRANCH  19  20
ENDBRANCH  18  19
ENDBRANCH   1  18
TORSDOF 28
ENDMDL
MODEL 6
REMARK VINA RESULT:    -3.022      2.273      4.123
REMARK INTER + INTRA:         -12.455
REMARK INTER:                  -8.808
REMARK INTRA:                  -3.648
REMARK UNBOUND:                -4.487
REMARK SMILES CCCCCCCCCCCCCCCCCCCCCCCCCCCCCC(=O)[O-]
REMARK SMILES IDX 16 1 17 2 18 3 19 4 20 5 21 6 22 7 23 8 24 9 25 10 26 11
REMARK SMILES IDX 27 12 28 13 29 14 30 15 31 16 32 17 15 18 14 19 13 20 12 21
REMARK SMILES IDX 11 22 10 23 9 24 8 25 7 26 6 27 5 28 4 29 3 30 2 31 1 32
REMARK H PARENT
REMARK Flexibility Score: inf
ROOT
ATOM      1  C   UNL     1      35.495  12.557  47.251  1.00  0.00     0.000 C 
ENDROOT
BRANCH   1   2
ATOM      2  C   UNL     1      36.330  11.701  48.221  1.00  0.00     0.000 C 
BRANCH   2   3
ATOM      3  C   UNL     1      35.460  10.836  49.146  1.00  0.00     0.000 C 
BRANCH   3   4
ATOM      4  C   UNL     1      34.601  11.676  50.108  1.00  0.00     0.000 C 
BRANCH   4   5
ATOM      5  C   UNL     1      33.098  11.553  49.809  1.00  0.00     0.000 C 
BRANCH   5   6
ATOM      6  C   UNL     1      32.626  10.090  49.730  1.00  0.00     0.000 C 
BRANCH   6   7
ATOM      7  C   UNL     1      31.386   9.917  48.841  1.00  0.00     0.000 C 
BRANCH   7   8
ATOM      8  C   UNL     1      30.421   8.847  49.374  1.00  0.00     0.000 C 
BRANCH   8   9
ATOM      9  C   UNL     1      31.061   7.454  49.323  1.00  0.00     0.000 C 
BRANCH   9  10
ATOM     10  C   UNL     1      30.426   6.598  48.221  1.00  0.00     0.000 C 
BRANCH  10  11
ATOM     11  C   UNL     1      31.495   5.996  47.303  1.00  0.00     0.000 C 
BRANCH  11  12
ATOM     12  C   UNL     1      32.840   6.714  47.485  1.00  0.00     0.000 C 
BRANCH  12  13
ATOM     13  C   UNL     1      33.252   7.536  46.249  1.00  0.00     0.006 C 
BRANCH  13  14
ATOM     14  C   UNL     1      33.965   8.858  46.578  1.00  0.00     0.053 C 
BRANCH  14  15
ATOM     15  C   UNL     1      34.865   9.306  45.467  1.00  0.00     0.041 C 
ATOM     16  O   UNL     1      34.375   9.705  44.377  1.00  0.00    -0.550 OA
ATOM     17  O   UNL     1      36.244   9.250  45.623  1.00  0.00    -0.550 OA
ENDBRANCH  14  15
ENDBRANCH  13  14
ENDBRANCH  12  13
ENDBRANCH  11  12
ENDBRANCH  10  11
ENDBRANCH   9  10
ENDBRANCH   8   9
ENDBRANCH   7   8
ENDBRANCH   6   7
ENDBRANCH   5   6
ENDBRANCH   4   5
ENDBRANCH   3   4
ENDBRANCH   2   3
ENDBRANCH   1   2
BRANCH   1  18
ATOM     18  C   UNL     1      36.310  13.044  46.041  1.00  0.00     0.000 C 
BRANCH  18  19
ATOM     19  C   UNL     1      35.842  14.383  45.444  1.00  0.00     0.000 C 
BRANCH  19  20
ATOM     20  C   UNL     1      35.652  15.501  46.492  1.00  0.00     0.000 C 
BRANCH  20  21
ATOM     21  C   UNL     1      36.982  15.950  47.124  1.00  0.00     0.000 C 
BRANCH  21  22
ATOM     22  C   UNL     1      36.933  15.937  48.668  1.00  0.00     0.000 C 
BRANCH  22  23
ATOM     23  C   UNL     1      37.330  17.279  49.309  1.00  0.00     0.000 C 
BRANCH  23  24
ATOM     24  C   UNL     1      37.179  18.504  48.387  1.00  0.00    -0.000 C 
BRANCH  24  25
ATOM     25  C   UNL     1      35.919  19.360  48.636  1.00  0.00    -0.000 C 
BRANCH  25  26
ATOM     26  C   UNL     1      35.087  18.969  49.870  1.00  0.00    -0.000 C 
BRANCH  26  27
ATOM     27  C   UNL     1      33.594  18.774  49.550  1.00  0.00    -0.000 C 
BRANCH  27  28
ATOM     28  C   UNL     1      33.268  17.354  49.053  1.00  0.00    -0.000 C 
BRANCH  28  29
ATOM     29  C   UNL     1      31.806  17.128  48.626  1.00  0.00    -0.000 C 
BRANCH  29  30
ATOM     30  C   UNL     1      30.842  17.017  49.816  1.00  0.00    -0.000 C 
BRANCH  30  31
ATOM     31  C   UNL     1      29.631  17.939  49.630  1.00  0.00    -0.003 C 
ATOM     32  C   UNL     1      29.932  19.053  48.632  1.00  0.00     0.004 C 
ENDBRANCH  30  31
ENDBRANCH  29  30
ENDBRANCH  28  29
ENDBRANCH  27  28
ENDBRANCH  26  27
ENDBRANCH  25  26
ENDBRANCH  24  25
ENDBRANCH  23  24
ENDBRANCH  22  23
ENDBRANCH  21  22
ENDBRANCH  20  21
ENDBRANCH  19  20
ENDBRANCH  18  19
ENDBRANCH   1  18
TORSDOF 28
ENDMDL
MODEL 7
REMARK VINA RESULT:    -3.014      3.205      8.750
REMARK INTER + INTRA:         -12.434
REMARK INTER:                  -8.747
REMARK INTRA:                  -3.687
REMARK UNBOUND:                -4.487
REMARK SMILES CCCCCCCCCCCCCCCCCCCCCCCCCCCCCC(=O)[O-]
REMARK SMILES IDX 16 1 17 2 18 3 19 4 20 5 21 6 22 7 23 8 24 9 25 10 26 11
REMARK SMILES IDX 27 12 28 13 29 14 30 15 31 16 32 17 15 18 14 19 13 20 12 21
REMARK SMILES IDX 11 22 10 23 9 24 8 25 7 26 6 27 5 28 4 29 3 30 2 31 1 32
REMARK H PARENT
REMARK Flexibility Score: inf
ROOT
ATOM      1  C   UNL     1      36.250  13.110  46.967  1.00  0.00     0.000 C 
ENDROOT
BRANCH   1   2
ATOM      2  C   UNL     1      35.677  13.550  45.608  1.00  0.00     0.000 C 
BRANCH   2   3
ATOM      3  C   UNL     1      35.631  15.078  45.451  1.00  0.00     0.000 C 
BRANCH   3   4
ATOM      4  C   UNL     1      36.925  15.651  44.848  1.00  0.00     0.000 C 
BRANCH   4   5
ATOM      5  C   UNL     1      37.788  16.375  45.894  1.00  0.00     0.000 C 
BRANCH   5   6
ATOM      6  C   UNL     1      37.292  17.802  46.188  1.00  0.00     0.000 C 
BRANCH   6   7
ATOM      7  C   UNL     1      36.191  17.835  47.259  1.00  0.00     0.000 C 
BRANCH   7   8
ATOM      8  C   UNL     1      36.664  18.478  48.572  1.00  0.00     0.000 C 
BRANCH   8   9
ATOM      9  C   UNL     1      37.000  17.410  49.619  1.00  0.00     0.000 C 
BRANCH   9  10
ATOM     10  C   UNL     1      36.683  16.005  49.091  1.00  0.00     0.000 C 
BRANCH  10  11
ATOM     11  C   UNL     1      35.710  15.271  50.022  1.00  0.00     0.000 C 
BRANCH  11  12
ATOM     12  C   UNL     1      34.303  15.218  49.411  1.00  0.00     0.000 C 
BRANCH  12  13
ATOM     13  C   UNL     1      33.454  16.457  49.753  1.00  0.00     0.006 C 
BRANCH  13  14
ATOM     14  C   UNL     1      32.781  17.117  48.539  1.00  0.00     0.053 C 
BRANCH  14  15
ATOM     15  C   UNL     1      31.420  17.650  48.868  1.00  0.00     0.041 C 
ATOM     16  O   UNL     1      31.194  18.888  48.812  1.00  0.00    -0.550 OA
ATOM     17  O   UNL     1      30.412  16.784  49.270  1.00  0.00    -0.550 OA
ENDBRANCH  14  15
ENDBRANCH  13  14
ENDBRANCH  12  13
ENDBRANCH  11  12
ENDBRANCH  10  11
ENDBRANCH   9  10
ENDBRANCH   8   9
ENDBRANCH   7   8
ENDBRANCH   6   7
ENDBRANCH   5   6
ENDBRANCH   4   5
ENDBRANCH   3   4
ENDBRANCH   2   3
ENDBRANCH   1   2
BRANCH   1  18
ATOM     18  C   UNL     1      37.727  12.689  46.877  1.00  0.00     0.000 C 
BRANCH  18  19
ATOM     19  C   UNL     1      38.123  11.523  47.801  1.00  0.00     0.000 C 
BRANCH  19  20
ATOM     20  C   UNL     1      37.380  10.205  47.496  1.00  0.00     0.000 C 
BRANCH  20  21
ATOM     21  C   UNL     1      36.783   9.558  48.759  1.00  0.00     0.000 C 
BRANCH  21  22
ATOM     22  C   UNL     1      36.155  10.600  49.711  1.00  0.00     0.000 C 
BRANCH  22  23
ATOM     23  C   UNL     1      34.646  10.394  49.943  1.00  0.00     0.000 C 
BRANCH  23  24
ATOM     24  C   UNL     1      34.058   9.134  49.278  1.00  0.00    -0.000 C 
BRANCH  24  25
ATOM     25  C   UNL     1      33.023   9.403  48.166  1.00  0.00    -0.000 C 
BRANCH  25  26
ATOM     26  C   UNL     1      31.668   9.957  48.643  1.00  0.00    -0.000 C 
BRANCH  26  27
ATOM     27  C   UNL     1      31.007   9.080  49.720  1.00  0.00    -0.000 C 
BRANCH  27  28
ATOM     28  C   UNL     1      29.863   8.211  49.168  1.00  0.00    -0.000 C 
BRANCH  28  29
ATOM     29  C   UNL     1      29.791   6.781  49.736  1.00  0.00    -0.000 C 
BRANCH  29  30
ATOM     30  C   UNL     1      29.801   5.700  48.645  1.00  0.00    -0.000 C 
BRANCH  30  31
ATOM     31  C   UNL     1      30.673   6.125  47.458  1.00  0.00    -0.003 C 
ATOM     32  C   UNL     1      32.142   5.791  47.705  1.00  0.00     0.004 C 
ENDBRANCH  30  31
ENDBRANCH  29  30
ENDBRANCH  28  29
ENDBRANCH  27  28
ENDBRANCH  26  27
ENDBRANCH  25  26
ENDBRANCH  24  25
ENDBRANCH  23  24
ENDBRANCH  22  23
ENDBRANCH  21  22
ENDBRANCH  20  21
ENDBRANCH  19  20
ENDBRANCH  18  19
ENDBRANCH   1  18
TORSDOF 28
ENDMDL
MODEL 8
REMARK VINA RESULT:    -2.962      4.123      8.367
REMARK INTER + INTRA:         -12.296
REMARK INTER:                  -8.481
REMARK INTRA:                  -3.815
REMARK UNBOUND:                -4.487
REMARK SMILES CCCCCCCCCCCCCCCCCCCCCCCCCCCCCC(=O)[O-]
REMARK SMILES IDX 16 1 17 2 18 3 19 4 20 5 21 6 22 7 23 8 24 9 25 10 26 11
REMARK SMILES IDX 27 12 28 13 29 14 30 15 31 16 32 17 15 18 14 19 13 20 12 21
REMARK SMILES IDX 11 22 10 23 9 24 8 25 7 26 6 27 5 28 4 29 3 30 2 31 1 32
REMARK H PARENT
REMARK Flexibility Score: inf
ROOT
ATOM      1  C   UNL     1      34.534  10.625  45.925  1.00  0.00     0.000 C 
ENDROOT
BRANCH   1   2
ATOM      2  C   UNL     1      35.100  11.818  45.135  1.00  0.00     0.000 C 
BRANCH   2   3
ATOM      3  C   UNL     1      35.443  13.016  46.034  1.00  0.00     0.000 C 
BRANCH   3   4
ATOM      4  C   UNL     1      35.801  14.277  45.229  1.00  0.00     0.000 C 
BRANCH   4   5
ATOM      5  C   UNL     1      37.127  14.907  45.687  1.00  0.00     0.000 C 
BRANCH   5   6
ATOM      6  C   UNL     1      36.921  16.105  46.631  1.00  0.00     0.000 C 
BRANCH   6   7
ATOM      7  C   UNL     1      35.730  16.983  46.220  1.00  0.00     0.000 C 
BRANCH   7   8
ATOM      8  C   UNL     1      35.060  17.669  47.420  1.00  0.00     0.000 C 
BRANCH   8   9
ATOM      9  C   UNL     1      34.986  16.723  48.625  1.00  0.00     0.000 C 
BRANCH   9  10
ATOM     10  C   UNL     1      33.539  16.300  48.904  1.00  0.00     0.000 C 
BRANCH  10  11
ATOM     11  C   UNL     1      32.625  17.522  49.055  1.00  0.00     0.000 C 
BRANCH  11  12
ATOM     12  C   UNL     1      31.147  17.115  48.959  1.00  0.00     0.000 C 
BRANCH  12  13
ATOM     13  C   UNL     1      30.189  18.224  49.433  1.00  0.00     0.006 C 
BRANCH  13  14
ATOM     14  C   UNL     1      30.111  19.437  48.490  1.00  0.00     0.053 C 
BRANCH  14  15
ATOM     15  C   UNL     1      28.736  19.629  47.929  1.00  0.00     0.041 C 
ATOM     16  O   UNL     1      28.580  19.872  46.703  1.00  0.00    -0.550 OA
ATOM     17  O   UNL     1      27.628  19.573  48.766  1.00  0.00    -0.550 OA
ENDBRANCH  14  15
ENDBRANCH  13  14
ENDBRANCH  12  13
ENDBRANCH  11  12
ENDBRANCH  10  11
ENDBRANCH   9  10
ENDBRANCH   8   9
ENDBRANCH   7   8
ENDBRANCH   6   7
ENDBRANCH   5   6
ENDBRANCH   4   5
ENDBRANCH   3   4
ENDBRANCH   2   3
ENDBRANCH   1   2
BRANCH   1  18
ATOM     18  C   UNL     1      35.588   9.535  46.185  1.00  0.00     0.000 C 
BRANCH  18  19
ATOM     19  C   UNL     1      36.926  10.051  46.745  1.00  0.00     0.000 C 
BRANCH  19  20
ATOM     20  C   UNL     1      37.347   9.383  48.071  1.00  0.00     0.000 C 
BRANCH  20  21
ATOM     21  C   UNL     1      37.569  10.403  49.202  1.00  0.00     0.000 C 
BRANCH  21  22
ATOM     22  C   UNL     1      37.716  11.846  48.671  1.00  0.00     0.000 C 
BRANCH  22  23
ATOM     23  C   UNL     1      37.125  12.913  49.612  1.00  0.00     0.000 C 
BRANCH  23  24
ATOM     24  C   UNL     1      35.669  13.308  49.303  1.00  0.00    -0.000 C 
BRANCH  24  25
ATOM     25  C   UNL     1      34.598  12.560  50.125  1.00  0.00    -0.000 C 
BRANCH  25  26
ATOM     26  C   UNL     1      33.598  11.726  49.304  1.00  0.00    -0.000 C 
BRANCH  26  27
ATOM     27  C   UNL     1      33.761  10.211  49.520  1.00  0.00    -0.000 C 
BRANCH  27  28
ATOM     28  C   UNL     1      32.418   9.458  49.523  1.00  0.00    -0.000 C 
BRANCH  28  29
ATOM     29  C   UNL     1      32.181   8.533  48.314  1.00  0.00    -0.000 C 
BRANCH  29  30
ATOM     30  C   UNL     1      30.939   7.644  48.472  1.00  0.00    -0.000 C 
BRANCH  30  31
ATOM     31  C   UNL     1      30.994   6.447  47.517  1.00  0.00    -0.003 C 
ATOM     32  C   UNL     1      32.415   5.903  47.394  1.00  0.00     0.004 C 
ENDBRANCH  30  31
ENDBRANCH  29  30
ENDBRANCH  28  29
ENDBRANCH  27  28
ENDBRANCH  26  27
ENDBRANCH  25  26
ENDBRANCH  24  25
ENDBRANCH  23  24
ENDBRANCH  22  23
ENDBRANCH  21  22
ENDBRANCH  20  21
ENDBRANCH  19  20
ENDBRANCH  18  19
ENDBRANCH   1  18
TORSDOF 28
ENDMDL
MODEL 9
REMARK VINA RESULT:    -2.937      2.823      4.102
REMARK INTER + INTRA:         -12.230
REMARK INTER:                  -9.944
REMARK INTRA:                  -2.287
REMARK UNBOUND:                -4.487
REMARK SMILES CCCCCCCCCCCCCCCCCCCCCCCCCCCCCC(=O)[O-]
REMARK SMILES IDX 16 1 17 2 18 3 19 4 20 5 21 6 22 7 23 8 24 9 25 10 26 11
REMARK SMILES IDX 27 12 28 13 29 14 30 15 31 16 32 17 15 18 14 19 13 20 12 21
REMARK SMILES IDX 11 22 10 23 9 24 8 25 7 26 6 27 5 28 4 29 3 30 2 31 1 32
REMARK H PARENT
REMARK Flexibility Score: inf
ROOT
ATOM      1  C   UNL     1      35.714  13.853  46.179  1.00  0.00     0.000 C 
ENDROOT
BRANCH   1   2
ATOM      2  C   UNL     1      35.536  12.537  46.957  1.00  0.00     0.000 C 
BRANCH   2   3
ATOM      3  C   UNL     1      35.217  11.345  46.041  1.00  0.00     0.000 C 
BRANCH   3   4
ATOM      4  C   UNL     1      36.074  10.107  46.359  1.00  0.00     0.000 C 
BRANCH   4   5
ATOM      5  C   UNL     1      35.786   9.539  47.758  1.00  0.00     0.000 C 
BRANCH   5   6
ATOM      6  C   UNL     1      36.720  10.118  48.837  1.00  0.00     0.000 C 
BRANCH   6   7
ATOM      7  C   UNL     1      35.971  10.497  50.124  1.00  0.00     0.000 C 
BRANCH   7   8
ATOM      8  C   UNL     1      34.465  10.206  50.037  1.00  0.00     0.000 C 
BRANCH   8   9
ATOM      9  C   UNL     1      33.675  11.479  49.710  1.00  0.00     0.000 C 
BRANCH   9  10
ATOM     10  C   UNL     1      32.196  11.159  49.462  1.00  0.00     0.000 C 
BRANCH  10  11
ATOM     11  C   UNL     1      31.886   9.692  49.784  1.00  0.00     0.000 C 
BRANCH  11  12
ATOM     12  C   UNL     1      31.431   8.940  48.525  1.00  0.00     0.000 C 
BRANCH  12  13
ATOM     13  C   UNL     1      30.870   7.539  48.836  1.00  0.00     0.006 C 
BRANCH  13  14
ATOM     14  C   UNL     1      30.795   6.604  47.617  1.00  0.00     0.053 C 
BRANCH  14  15
ATOM     15  C   UNL     1      32.125   5.997  47.290  1.00  0.00     0.041 C 
ATOM     16  O   UNL     1      32.904   6.574  46.486  1.00  0.00    -0.550 OA
ATOM     17  O   UNL     1      32.489   4.777  47.845  1.00  0.00    -0.550 OA
ENDBRANCH  14  15
ENDBRANCH  13  14
ENDBRANCH  12  13
ENDBRANCH  11  12
ENDBRANCH  10  11
ENDBRANCH   9  10
ENDBRANCH   8   9
ENDBRANCH   7   8
ENDBRANCH   6   7
ENDBRANCH   5   6
ENDBRANCH   4   5
ENDBRANCH   3   4
ENDBRANCH   2   3
ENDBRANCH   1   2
BRANCH   1  18
ATOM     18  C   UNL     1      37.144  14.036  45.645  1.00  0.00     0.000 C 
BRANCH  18  19
ATOM     19  C   UNL     1      37.750  15.431  45.886  1.00  0.00     0.000 C 
BRANCH  19  20
ATOM     20  C   UNL     1      37.129  16.540  45.010  1.00  0.00     0.000 C 
BRANCH  20  21
ATOM     21  C   UNL     1      36.697  17.768  45.832  1.00  0.00     0.000 C 
BRANCH  21  22
ATOM     22  C   UNL     1      35.348  17.549  46.551  1.00  0.00     0.000 C 
BRANCH  22  23
ATOM     23  C   UNL     1      35.491  17.261  48.058  1.00  0.00     0.000 C 
BRANCH  23  24
ATOM     24  C   UNL     1      34.889  15.920  48.518  1.00  0.00    -0.000 C 
BRANCH  24  25
ATOM     25  C   UNL     1      33.700  16.035  49.494  1.00  0.00    -0.000 C 
BRANCH  25  26
ATOM     26  C   UNL     1      33.060  17.432  49.594  1.00  0.00    -0.000 C 
BRANCH  26  27
ATOM     27  C   UNL     1      31.566  17.436  49.224  1.00  0.00    -0.000 C 
BRANCH  27  28
ATOM     28  C   UNL     1      31.023  18.847  48.936  1.00  0.00    -0.000 C 
BRANCH  28  29
ATOM     29  C   UNL     1      29.491  18.951  48.824  1.00  0.00    -0.000 C 
BRANCH  29  30
ATOM     30  C   UNL     1      29.030  19.714  47.574  1.00  0.00    -0.000 C 
BRANCH  30  31
ATOM     31  C   UNL     1      27.500  19.762  47.491  1.00  0.00    -0.003 C 
ATOM     32  C   UNL     1      27.026  19.761  46.040  1.00  0.00     0.004 C 
ENDBRANCH  30  31
ENDBRANCH  29  30
ENDBRANCH  28  29
ENDBRANCH  27  28
ENDBRANCH  26  27
ENDBRANCH  25  26
ENDBRANCH  24  25
ENDBRANCH  23  24
ENDBRANCH  22  23
ENDBRANCH  21  22
ENDBRANCH  20  21
ENDBRANCH  19  20
ENDBRANCH  18  19
ENDBRANCH   1  18
TORSDOF 28
ENDMDL
