MODEL 1
REMARK VINA RESULT:    -6.268      0.000      0.000
REMARK INTER + INTRA:         -19.262
REMARK INTER:                 -15.794
REMARK INTRA:                  -3.468
REMARK UNBOUND:                -3.468
REMARK SMILES CCCCCCCCCCCCCCCCCCCCCCCCCCCC(=O)[O-]
REMARK SMILES IDX 15 1 16 2 17 3 18 4 19 5 20 6 21 7 22 8 23 9 24 10 25 11
REMARK SMILES IDX 26 12 27 13 28 14 29 15 30 16 14 17 13 18 12 19 11 20 10 21
REMARK SMILES IDX 9 22 8 23 7 24 6 25 5 26 4 27 3 28 2 29 1 30
REMARK H PARENT
REMARK Flexibility Score: inf
ROOT
ATOM      1  C   UNL     1      -1.605  41.979 103.140  1.00  0.00     0.000 C 
ENDROOT
BRANCH   1   2
ATOM      2  C   UNL     1      -3.040  42.380 102.758  1.00  0.00     0.000 C 
BRANCH   2   3
ATOM      3  C   UNL     1      -3.659  43.368 103.767  1.00  0.00     0.000 C 
BRANCH   3   4
ATOM      4  C   UNL     1      -4.708  42.706 104.671  1.00  0.00     0.000 C 
BRANCH   4   5
ATOM      5  C   UNL     1      -5.836  43.684 105.030  1.00  0.00     0.000 C 
BRANCH   5   6
ATOM      6  C   UNL     1      -7.027  43.539 104.072  1.00  0.00     0.000 C 
BRANCH   6   7
ATOM      7  C   UNL     1      -7.588  44.903 103.628  1.00  0.00     0.000 C 
BRANCH   7   8
ATOM      8  C   UNL     1      -7.747  45.002 102.099  1.00  0.00     0.000 C 
BRANCH   8   9
ATOM      9  C   UNL     1      -6.484  44.605 101.302  1.00  0.00     0.000 C 
BRANCH   9  10
ATOM     10  C   UNL     1      -5.311  45.610 101.369  1.00  0.00     0.000 C 
BRANCH  10  11
ATOM     11  C   UNL     1      -4.220  45.419 100.298  1.00  0.00     0.000 C 
BRANCH  11  12
ATOM     12  C   UNL     1      -4.226  44.005  99.689  1.00  0.00     0.006 C 
BRANCH  12  13
ATOM     13  C   UNL     1      -4.787  43.990  98.257  1.00  0.00     0.053 C 
BRANCH  13  14
ATOM     14  C   UNL     1      -3.740  44.357  97.245  1.00  0.00     0.041 C 
ATOM     15  O   UNL     1      -4.064  44.541  96.040  1.00  0.00    -0.550 OA
ATOM     16  O   UNL     1      -2.418  44.525  97.640  1.00  0.00    -0.550 OA
ENDBRANCH  13  14
ENDBRANCH  12  13
ENDBRANCH  11  12
ENDBRANCH  10  11
ENDBRANCH   9  10
ENDBRANCH   8   9
ENDBRANCH   7   8
ENDBRANCH   6   7
ENDBRANCH   5   6
ENDBRANCH   4   5
ENDBRANCH   3   4
ENDBRANCH   2   3
ENDBRANCH   1   2
BRANCH   1  17
ATOM     17  C   UNL     1      -1.279  40.513 102.799  1.00  0.00     0.000 C 
BRANCH  17  18
ATOM     18  C   UNL     1      -2.499  39.580 102.684  1.00  0.00     0.000 C 
BRANCH  18  19
ATOM     19  C   UNL     1      -2.658  38.971 101.282  1.00  0.00     0.000 C 
BRANCH  19  20
ATOM     20  C   UNL     1      -2.533  37.440 101.326  1.00  0.00     0.000 C 
BRANCH  20  21
ATOM     21  C   UNL     1      -3.790  36.754 101.887  1.00  0.00     0.000 C 
BRANCH  21  22
ATOM     22  C   UNL     1      -5.024  36.786 100.962  1.00  0.00    -0.000 C 
BRANCH  22  23
ATOM     23  C   UNL     1      -5.456  35.395 100.447  1.00  0.00    -0.000 C 
BRANCH  23  24
ATOM     24  C   UNL     1      -4.256  34.510 100.066  1.00  0.00    -0.000 C 
BRANCH  24  25
ATOM     25  C   UNL     1      -3.929  34.564  98.566  1.00  0.00    -0.000 C 
BRANCH  25  26
ATOM     26  C   UNL     1      -2.760  35.509  98.249  1.00  0.00    -0.000 C 
BRANCH  26  27
ATOM     27  C   UNL     1      -3.198  36.642  97.307  1.00  0.00    -0.000 C 
BRANCH  27  28
ATOM     28  C   UNL     1      -4.730  36.678  97.114  1.00  0.00    -0.000 C 
BRANCH  28  29
ATOM     29  C   UNL     1      -5.326  38.093  97.204  1.00  0.00    -0.003 C 
ATOM     30  C   UNL     1      -4.606  38.984  98.217  1.00  0.00     0.004 C 
ENDBRANCH  28  29
ENDBRANCH  27  28
ENDBRANCH  26  27
ENDBRANCH  25  26
ENDBRANCH  24  25
ENDBRANCH  23  24
ENDBRANCH  22  23
ENDBRANCH  21  22
ENDBRANCH  20  21
ENDBRANCH  19  20
ENDBRANCH  18  19
ENDBRANCH  17  18
ENDBRANCH   1  17
TORSDOF 26
ENDMDL
MODEL 2
REMARK VINA RESULT:    -6.165      3.276      4.630
REMARK INTER + INTRA:         -19.002
REMARK INTER:                 -15.238
REMARK INTRA:                  -3.765
REMARK UNBOUND:                -3.468
REMARK SMILES CCCCCCCCCCCCCCCCCCCCCCCCCCCC(=O)[O-]
REMARK SMILES IDX 15 1 16 2 17 3 18 4 19 5 20 6 21 7 22 8 23 9 24 10 25 11
REMARK SMILES IDX 26 12 27 13 28 14 29 15 30 16 14 17 13 18 12 19 11 20 10 21
REMARK SMILES IDX 9 22 8 23 7 24 6 25 5 26 4 27 3 28 2 29 1 30
REMARK H PARENT
REMARK Flexibility Score: inf
ROOT
ATOM      1  C   UNL     1      -0.831  41.405 103.089  1.00  0.00     0.000 C 
ENDROOT
BRANCH   1   2
ATOM      2  C   UNL     1      -1.910  42.476 103.327  1.00  0.00     0.000 C 
BRANCH   2   3
ATOM      3  C   UNL     1      -1.447  43.879 102.891  1.00  0.00     0.000 C 
BRANCH   3   4
ATOM      4  C   UNL     1      -2.492  44.602 102.030  1.00  0.00     0.000 C 
BRANCH   4   5
ATOM      5  C   UNL     1      -3.564  43.631 101.516  1.00  0.00     0.000 C 
BRANCH   5   6
ATOM      6  C   UNL     1      -4.967  44.250 101.602  1.00  0.00     0.000 C 
BRANCH   6   7
ATOM      7  C   UNL     1      -5.045  45.373 102.654  1.00  0.00     0.000 C 
BRANCH   7   8
ATOM      8  C   UNL     1      -6.224  45.182 103.628  1.00  0.00     0.000 C 
BRANCH   8   9
ATOM      9  C   UNL     1      -6.023  44.043 104.652  1.00  0.00     0.000 C 
BRANCH   9  10
ATOM     10  C   UNL     1      -4.583  43.874 105.187  1.00  0.00     0.000 C 
BRANCH  10  11
ATOM     11  C   UNL     1      -4.069  45.028 106.069  1.00  0.00     0.000 C 
BRANCH  11  12
ATOM     12  C   UNL     1      -2.675  45.524 105.645  1.00  0.00     0.006 C 
BRANCH  12  13
ATOM     13  C   UNL     1      -1.911  46.178 106.809  1.00  0.00     0.053 C 
BRANCH  13  14
ATOM     14  C   UNL     1      -2.749  47.200 107.521  1.00  0.00     0.041 C 
ATOM     15  O   UNL     1      -3.063  48.275 106.941  1.00  0.00    -0.550 OA
ATOM     16  O   UNL     1      -3.207  46.950 108.809  1.00  0.00    -0.550 OA
ENDBRANCH  13  14
ENDBRANCH  12  13
ENDBRANCH  11  12
ENDBRANCH  10  11
ENDBRANCH   9  10
ENDBRANCH   8   9
ENDBRANCH   7   8
ENDBRANCH   6   7
ENDBRANCH   5   6
ENDBRANCH   4   5
ENDBRANCH   3   4
ENDBRANCH   2   3
ENDBRANCH   1   2
BRANCH   1  17
ATOM     17  C   UNL     1      -1.419  40.023 102.748  1.00  0.00     0.000 C 
BRANCH  17  18
ATOM     18  C   UNL     1      -2.807  40.048 102.083  1.00  0.00     0.000 C 
BRANCH  18  19
ATOM     19  C   UNL     1      -2.925  39.070 100.904  1.00  0.00     0.000 C 
BRANCH  19  20
ATOM     20  C   UNL     1      -2.249  37.728 101.228  1.00  0.00     0.000 C 
BRANCH  20  21
ATOM     21  C   UNL     1      -3.247  36.654 101.691  1.00  0.00     0.000 C 
BRANCH  21  22
ATOM     22  C   UNL     1      -4.688  36.824 101.166  1.00  0.00    -0.000 C 
BRANCH  22  23
ATOM     23  C   UNL     1      -5.295  35.534 100.574  1.00  0.00    -0.000 C 
BRANCH  23  24
ATOM     24  C   UNL     1      -4.219  34.532 100.119  1.00  0.00    -0.000 C 
BRANCH  24  25
ATOM     25  C   UNL     1      -3.948  34.595  98.608  1.00  0.00    -0.000 C 
BRANCH  25  26
ATOM     26  C   UNL     1      -2.752  35.493  98.258  1.00  0.00    -0.000 C 
BRANCH  26  27
ATOM     27  C   UNL     1      -3.173  36.644  97.331  1.00  0.00    -0.000 C 
BRANCH  27  28
ATOM     28  C   UNL     1      -4.697  36.666  97.085  1.00  0.00    -0.000 C 
BRANCH  28  29
ATOM     29  C   UNL     1      -5.392  37.917  97.649  1.00  0.00    -0.003 C 
ATOM     30  C   UNL     1      -6.818  38.098  97.128  1.00  0.00     0.004 C 
ENDBRANCH  28  29
ENDBRANCH  27  28
ENDBRANCH  26  27
ENDBRANCH  25  26
ENDBRANCH  24  25
ENDBRANCH  23  24
ENDBRANCH  22  23
ENDBRANCH  21  22
ENDBRANCH  20  21
ENDBRANCH  19  20
ENDBRANCH  18  19
ENDBRANCH  17  18
ENDBRANCH   1  17
TORSDOF 26
ENDMDL
MODEL 3
REMARK VINA RESULT:    -5.932      1.784      8.132
REMARK INTER + INTRA:         -18.415
REMARK INTER:                 -14.663
REMARK INTRA:                  -3.752
REMARK UNBOUND:                -3.468
REMARK SMILES CCCCCCCCCCCCCCCCCCCCCCCCCCCC(=O)[O-]
REMARK SMILES IDX 15 1 16 2 17 3 18 4 19 5 20 6 21 7 22 8 23 9 24 10 25 11
REMARK SMILES IDX 26 12 27 13 28 14 29 15 30 16 14 17 13 18 12 19 11 20 10 21
REMARK SMILES IDX 9 22 8 23 7 24 6 25 5 26 4 27 3 28 2 29 1 30
REMARK H PARENT
REMARK Flexibility Score: inf
ROOT
ATOM      1  C   UNL     1      -0.696  41.878 103.078  1.00  0.00     0.000 C 
ENDROOT
BRANCH   1   2
ATOM      2  C   UNL     1      -1.094  40.392 103.109  1.00  0.00     0.000 C 
BRANCH   2   3
ATOM      3  C   UNL     1      -2.600  40.184 102.861  1.00  0.00     0.000 C 
BRANCH   3   4
ATOM      4  C   UNL     1      -2.900  39.701 101.435  1.00  0.00     0.000 C 
BRANCH   4   5
ATOM      5  C   UNL     1      -2.415  38.261 101.216  1.00  0.00     0.000 C 
BRANCH   5   6
ATOM      6  C   UNL     1      -3.264  37.259 102.011  1.00  0.00     0.000 C 
BRANCH   6   7
ATOM      7  C   UNL     1      -4.599  36.940 101.310  1.00  0.00     0.000 C 
BRANCH   7   8
ATOM      8  C   UNL     1      -4.646  35.499 100.767  1.00  0.00     0.000 C 
BRANCH   8   9
ATOM      9  C   UNL     1      -3.264  34.909 100.407  1.00  0.00     0.000 C 
BRANCH   9  10
ATOM     10  C   UNL     1      -2.883  34.973  98.910  1.00  0.00     0.000 C 
BRANCH  10  11
ATOM     11  C   UNL     1      -4.065  35.152  97.938  1.00  0.00     0.000 C 
BRANCH  11  12
ATOM     12  C   UNL     1      -4.086  36.544  97.279  1.00  0.00     0.006 C 
BRANCH  12  13
ATOM     13  C   UNL     1      -5.353  37.338  97.637  1.00  0.00     0.053 C 
BRANCH  13  14
ATOM     14  C   UNL     1      -5.163  38.813  97.427  1.00  0.00     0.041 C 
ATOM     15  O   UNL     1      -5.690  39.383  96.433  1.00  0.00    -0.550 OA
ATOM     16  O   UNL     1      -4.433  39.559  98.345  1.00  0.00    -0.550 OA
ENDBRANCH  13  14
ENDBRANCH  12  13
ENDBRANCH  11  12
ENDBRANCH  10  11
ENDBRANCH   9  10
ENDBRANCH   8   9
ENDBRANCH   7   8
ENDBRANCH   6   7
ENDBRANCH   5   6
ENDBRANCH   4   5
ENDBRANCH   3   4
ENDBRANCH   2   3
ENDBRANCH   1   2
BRANCH   1  17
ATOM     17  C   UNL     1      -1.831  42.814 103.531  1.00  0.00     0.000 C 
BRANCH  17  18
ATOM     18  C   UNL     1      -1.874  44.182 102.823  1.00  0.00     0.000 C 
BRANCH  18  19
ATOM     19  C   UNL     1      -3.242  44.488 102.195  1.00  0.00     0.000 C 
BRANCH  19  20
ATOM     20  C   UNL     1      -3.825  43.245 101.504  1.00  0.00     0.000 C 
BRANCH  20  21
ATOM     21  C   UNL     1      -4.258  43.516 100.054  1.00  0.00     0.000 C 
BRANCH  21  22
ATOM     22  C   UNL     1      -4.518  44.997  99.710  1.00  0.00    -0.000 C 
BRANCH  22  23
ATOM     23  C   UNL     1      -5.932  45.272  99.155  1.00  0.00    -0.000 C 
BRANCH  23  24
ATOM     24  C   UNL     1      -6.595  46.496  99.811  1.00  0.00    -0.000 C 
BRANCH  24  25
ATOM     25  C   UNL     1      -6.830  46.310 101.317  1.00  0.00    -0.000 C 
BRANCH  25  26
ATOM     26  C   UNL     1      -7.874  45.226 101.624  1.00  0.00    -0.000 C 
BRANCH  26  27
ATOM     27  C   UNL     1      -7.236  44.023 102.337  1.00  0.00    -0.000 C 
BRANCH  27  28
ATOM     28  C   UNL     1      -7.321  44.146 103.874  1.00  0.00    -0.000 C 
BRANCH  28  29
ATOM     29  C   UNL     1      -5.952  44.334 104.551  1.00  0.00    -0.003 C 
ATOM     30  C   UNL     1      -5.324  43.019 105.013  1.00  0.00     0.004 C 
ENDBRANCH  28  29
ENDBRANCH  27  28
ENDBRANCH  26  27
ENDBRANCH  25  26
ENDBRANCH  24  25
ENDBRANCH  23  24
ENDBRANCH  22  23
ENDBRANCH  21  22
ENDBRANCH  20  21
ENDBRANCH  19  20
ENDBRANCH  18  19
ENDBRANCH  17  18
ENDBRANCH   1  17
TORSDOF 26
ENDMDL
MODEL 4
REMARK VINA RESULT:    -5.803      2.201      7.720
REMARK INTER + INTRA:         -18.091
REMARK INTER:                 -14.675
REMARK INTRA:                  -3.416
REMARK UNBOUND:                -3.468
REMARK SMILES CCCCCCCCCCCCCCCCCCCCCCCCCCCC(=O)[O-]
REMARK SMILES IDX 15 1 16 2 17 3 18 4 19 5 20 6 21 7 22 8 23 9 24 10 25 11
REMARK SMILES IDX 26 12 27 13 28 14 29 15 30 16 14 17 13 18 12 19 11 20 10 21
REMARK SMILES IDX 9 22 8 23 7 24 6 25 5 26 4 27 3 28 2 29 1 30
REMARK H PARENT
REMARK Flexibility Score: inf
ROOT
ATOM      1  C   UNL     1      -3.246  36.618  97.407  1.00  0.00     0.000 C 
ENDROOT
BRANCH   1   2
ATOM      2  C   UNL     1      -2.967  35.264  98.081  1.00  0.00     0.000 C 
BRANCH   2   3
ATOM      3  C   UNL     1      -4.244  34.625  98.660  1.00  0.00     0.000 C 
BRANCH   3   4
ATOM      4  C   UNL     1      -4.284  34.677 100.194  1.00  0.00     0.000 C 
BRANCH   4   5
ATOM      5  C   UNL     1      -5.227  35.781 100.694  1.00  0.00     0.000 C 
BRANCH   5   6
ATOM      6  C   UNL     1      -4.501  36.753 101.636  1.00  0.00     0.000 C 
BRANCH   6   7
ATOM      7  C   UNL     1      -2.972  36.577 101.588  1.00  0.00     0.000 C 
BRANCH   7   8
ATOM      8  C   UNL     1      -2.223  37.812 102.126  1.00  0.00     0.000 C 
BRANCH   8   9
ATOM      9  C   UNL     1      -2.990  39.143 101.956  1.00  0.00     0.000 C 
BRANCH   9  10
ATOM     10  C   UNL     1      -2.245  40.407 102.445  1.00  0.00     0.000 C 
BRANCH  10  11
ATOM     11  C   UNL     1      -3.113  41.429 103.204  1.00  0.00     0.000 C 
BRANCH  11  12
ATOM     12  C   UNL     1      -3.568  42.599 102.312  1.00  0.00     0.006 C 
BRANCH  12  13
ATOM     13  C   UNL     1      -2.865  43.917 102.678  1.00  0.00     0.053 C 
BRANCH  13  14
ATOM     14  C   UNL     1      -3.614  44.674 103.736  1.00  0.00     0.041 C 
ATOM     15  O   UNL     1      -4.294  45.690 103.424  1.00  0.00    -0.550 OA
ATOM     16  O   UNL     1      -3.585  44.239 105.055  1.00  0.00    -0.550 OA
ENDBRANCH  13  14
ENDBRANCH  12  13
ENDBRANCH  11  12
ENDBRANCH  10  11
ENDBRANCH   9  10
ENDBRANCH   8   9
ENDBRANCH   7   8
ENDBRANCH   6   7
ENDBRANCH   5   6
ENDBRANCH   4   5
ENDBRANCH   3   4
ENDBRANCH   2   3
ENDBRANCH   1   2
BRANCH   1  17
ATOM     17  C   UNL     1      -3.144  37.807  98.380  1.00  0.00     0.000 C 
BRANCH  17  18
ATOM     18  C   UNL     1      -4.399  38.697  98.460  1.00  0.00     0.000 C 
BRANCH  18  19
ATOM     19  C   UNL     1      -5.597  38.114  97.695  1.00  0.00     0.000 C 
BRANCH  19  20
ATOM     20  C   UNL     1      -6.186  39.145  96.720  1.00  0.00     0.000 C 
BRANCH  20  21
ATOM     21  C   UNL     1      -5.199  40.272  96.373  1.00  0.00     0.000 C 
BRANCH  21  22
ATOM     22  C   UNL     1      -5.824  41.508  95.693  1.00  0.00    -0.000 C 
BRANCH  22  23
ATOM     23  C   UNL     1      -4.870  42.719  95.598  1.00  0.00    -0.000 C 
BRANCH  23  24
ATOM     24  C   UNL     1      -5.122  43.756  96.706  1.00  0.00    -0.000 C 
BRANCH  24  25
ATOM     25  C   UNL     1      -3.952  43.867  97.695  1.00  0.00    -0.000 C 
BRANCH  25  26
ATOM     26  C   UNL     1      -4.403  44.288  99.101  1.00  0.00    -0.000 C 
BRANCH  26  27
ATOM     27  C   UNL     1      -5.674  45.151  99.044  1.00  0.00    -0.000 C 
BRANCH  27  28
ATOM     28  C   UNL     1      -6.036  45.746 100.422  1.00  0.00    -0.000 C 
BRANCH  28  29
ATOM     29  C   UNL     1      -7.018  44.878 101.226  1.00  0.00    -0.003 C 
ATOM     30  C   UNL     1      -8.482  45.250 100.987  1.00  0.00     0.004 C 
ENDBRANCH  28  29
ENDBRANCH  27  28
ENDBRANCH  26  27
ENDBRANCH  25  26
ENDBRANCH  24  25
ENDBRANCH  23  24
ENDBRANCH  22  23
ENDBRANCH  21  22
ENDBRANCH  20  21
ENDBRANCH  19  20
ENDBRANCH  18  19
ENDBRANCH  17  18
ENDBRANCH   1  17
TORSDOF 26
ENDMDL
MODEL 5
REMARK VINA RESULT:    -5.802      3.516      4.809
REMARK INTER + INTRA:         -18.087
REMARK INTER:                 -15.132
REMARK INTRA:                  -2.955
REMARK UNBOUND:                -3.468
REMARK SMILES CCCCCCCCCCCCCCCCCCCCCCCCCCCC(=O)[O-]
REMARK SMILES IDX 15 1 16 2 17 3 18 4 19 5 20 6 21 7 22 8 23 9 24 10 25 11
REMARK SMILES IDX 26 12 27 13 28 14 29 15 30 16 14 17 13 18 12 19 11 20 10 21
REMARK SMILES IDX 9 22 8 23 7 24 6 25 5 26 4 27 3 28 2 29 1 30
REMARK H PARENT
REMARK Flexibility Score: inf
ROOT
ATOM      1  C   UNL     1      -3.461  44.137 101.972  1.00  0.00     0.000 C 
ENDROOT
BRANCH   1   2
ATOM      2  C   UNL     1      -2.386  44.551 102.991  1.00  0.00     0.000 C 
BRANCH   2   3
ATOM      3  C   UNL     1      -2.945  45.479 104.086  1.00  0.00     0.000 C 
BRANCH   3   4
ATOM      4  C   UNL     1      -3.488  44.703 105.295  1.00  0.00     0.000 C 
BRANCH   4   5
ATOM      5  C   UNL     1      -5.017  44.807 105.387  1.00  0.00     0.000 C 
BRANCH   5   6
ATOM      6  C   UNL     1      -5.691  43.475 105.029  1.00  0.00     0.000 C 
BRANCH   6   7
ATOM      7  C   UNL     1      -7.055  43.677 104.341  1.00  0.00     0.000 C 
BRANCH   7   8
ATOM      8  C   UNL     1      -6.920  43.876 102.819  1.00  0.00     0.000 C 
BRANCH   8   9
ATOM      9  C   UNL     1      -7.109  45.336 102.351  1.00  0.00     0.000 C 
BRANCH   9  10
ATOM     10  C   UNL     1      -8.110  45.538 101.190  1.00  0.00     0.000 C 
BRANCH  10  11
ATOM     11  C   UNL     1      -9.555  45.859 101.616  1.00  0.00     0.000 C 
BRANCH  11  12
ATOM     12  C   UNL     1      -9.659  46.273 103.095  1.00  0.00     0.006 C 
BRANCH  12  13
ATOM     13  C   UNL     1     -11.097  46.165 103.630  1.00  0.00     0.053 C 
BRANCH  13  14
ATOM     14  C   UNL     1     -11.564  47.457 104.238  1.00  0.00     0.041 C 
ATOM     15  O   UNL     1     -12.645  47.981 103.854  1.00  0.00    -0.550 OA
ATOM     16  O   UNL     1     -10.822  48.060 105.246  1.00  0.00    -0.550 OA
ENDBRANCH  13  14
ENDBRANCH  12  13
ENDBRANCH  11  12
ENDBRANCH  10  11
ENDBRANCH   9  10
ENDBRANCH   8   9
ENDBRANCH   7   8
ENDBRANCH   6   7
ENDBRANCH   5   6
ENDBRANCH   4   5
ENDBRANCH   3   4
ENDBRANCH   2   3
ENDBRANCH   1   2
BRANCH   1  17
ATOM     17  C   UNL     1      -3.641  42.611 101.872  1.00  0.00     0.000 C 
BRANCH  17  18
ATOM     18  C   UNL     1      -3.227  41.820 103.126  1.00  0.00     0.000 C 
BRANCH  18  19
ATOM     19  C   UNL     1      -1.972  40.961 102.906  1.00  0.00     0.000 C 
BRANCH  19  20
ATOM     20  C   UNL     1      -2.334  39.473 102.778  1.00  0.00     0.000 C 
BRANCH  20  21
ATOM     21  C   UNL     1      -2.138  38.931 101.352  1.00  0.00     0.000 C 
BRANCH  21  22
ATOM     22  C   UNL     1      -3.283  38.042 100.823  1.00  0.00    -0.000 C 
BRANCH  22  23
ATOM     23  C   UNL     1      -3.297  36.619 101.421  1.00  0.00    -0.000 C 
BRANCH  23  24
ATOM     24  C   UNL     1      -2.832  35.552 100.415  1.00  0.00    -0.000 C 
BRANCH  24  25
ATOM     25  C   UNL     1      -3.906  34.489 100.135  1.00  0.00    -0.000 C 
BRANCH  25  26
ATOM     26  C   UNL     1      -5.330  35.007 100.386  1.00  0.00    -0.000 C 
BRANCH  26  27
ATOM     27  C   UNL     1      -5.915  35.662  99.125  1.00  0.00    -0.000 C 
BRANCH  27  28
ATOM     28  C   UNL     1      -5.118  35.293  97.854  1.00  0.00    -0.000 C 
BRANCH  28  29
ATOM     29  C   UNL     1      -4.725  36.512  97.002  1.00  0.00    -0.003 C 
ATOM     30  C   UNL     1      -3.236  36.850  97.088  1.00  0.00     0.004 C 
ENDBRANCH  28  29
ENDBRANCH  27  28
ENDBRANCH  26  27
ENDBRANCH  25  26
ENDBRANCH  24  25
ENDBRANCH  23  24
ENDBRANCH  22  23
ENDBRANCH  21  22
ENDBRANCH  20  21
ENDBRANCH  19  20
ENDBRANCH  18  19
ENDBRANCH  17  18
ENDBRANCH   1  17
TORSDOF 26
ENDMDL
MODEL 6
REMARK VINA RESULT:    -5.775      2.955      3.754
REMARK INTER + INTRA:         -18.021
REMARK INTER:                 -15.080
REMARK INTRA:                  -2.941
REMARK UNBOUND:                -3.468
REMARK SMILES CCCCCCCCCCCCCCCCCCCCCCCCCCCC(=O)[O-]
REMARK SMILES IDX 15 1 16 2 17 3 18 4 19 5 20 6 21 7 22 8 23 9 24 10 25 11
REMARK SMILES IDX 26 12 27 13 28 14 29 15 30 16 14 17 13 18 12 19 11 20 10 21
REMARK SMILES IDX 9 22 8 23 7 24 6 25 5 26 4 27 3 28 2 29 1 30
REMARK H PARENT
REMARK Flexibility Score: inf
ROOT
ATOM      1  C   UNL     1      -1.978  43.362 103.113  1.00  0.00     0.000 C 
ENDROOT
BRANCH   1   2
ATOM      2  C   UNL     1      -2.195  44.489 104.138  1.00  0.00     0.000 C 
BRANCH   2   3
ATOM      3  C   UNL     1      -3.464  44.272 104.984  1.00  0.00     0.000 C 
BRANCH   3   4
ATOM      4  C   UNL     1      -4.216  42.990 104.599  1.00  0.00     0.000 C 
BRANCH   4   5
ATOM      5  C   UNL     1      -5.712  43.096 104.930  1.00  0.00     0.000 C 
BRANCH   5   6
ATOM      6  C   UNL     1      -6.319  44.389 104.366  1.00  0.00     0.000 C 
BRANCH   6   7
ATOM      7  C   UNL     1      -6.821  44.215 102.920  1.00  0.00     0.000 C 
BRANCH   7   8
ATOM      8  C   UNL     1      -5.711  44.465 101.880  1.00  0.00     0.000 C 
BRANCH   8   9
ATOM      9  C   UNL     1      -5.284  45.944 101.750  1.00  0.00     0.000 C 
BRANCH   9  10
ATOM     10  C   UNL     1      -6.440  46.970 101.719  1.00  0.00     0.000 C 
BRANCH  10  11
ATOM     11  C   UNL     1      -7.491  46.744 100.615  1.00  0.00     0.000 C 
BRANCH  11  12
ATOM     12  C   UNL     1      -8.879  47.288 100.998  1.00  0.00     0.006 C 
BRANCH  12  13
ATOM     13  C   UNL     1      -9.792  46.196 101.581  1.00  0.00     0.053 C 
BRANCH  13  14
ATOM     14  C   UNL     1      -9.851  46.260 103.080  1.00  0.00     0.041 C 
ATOM     15  O   UNL     1     -10.104  45.221 103.748  1.00  0.00    -0.550 OA
ATOM     16  O   UNL     1      -9.595  47.459 103.736  1.00  0.00    -0.550 OA
ENDBRANCH  13  14
ENDBRANCH  12  13
ENDBRANCH  11  12
ENDBRANCH  10  11
ENDBRANCH   9  10
ENDBRANCH   8   9
ENDBRANCH   7   8
ENDBRANCH   6   7
ENDBRANCH   5   6
ENDBRANCH   4   5
ENDBRANCH   3   4
ENDBRANCH   2   3
ENDBRANCH   1   2
BRANCH   1  17
ATOM     17  C   UNL     1      -0.823  42.417 103.493  1.00  0.00     0.000 C 
BRANCH  17  18
ATOM     18  C   UNL     1      -0.893  41.012 102.865  1.00  0.00     0.000 C 
BRANCH  18  19
ATOM     19  C   UNL     1      -2.330  40.568 102.548  1.00  0.00     0.000 C 
BRANCH  19  20
ATOM     20  C   UNL     1      -2.502  39.056 102.763  1.00  0.00     0.000 C 
BRANCH  20  21
ATOM     21  C   UNL     1      -2.985  38.324 101.500  1.00  0.00     0.000 C 
BRANCH  21  22
ATOM     22  C   UNL     1      -3.529  36.899 101.733  1.00  0.00    -0.000 C 
BRANCH  22  23
ATOM     23  C   UNL     1      -5.027  36.738 101.395  1.00  0.00    -0.000 C 
BRANCH  23  24
ATOM     24  C   UNL     1      -5.326  35.422 100.655  1.00  0.00    -0.000 C 
BRANCH  24  25
ATOM     25  C   UNL     1      -4.060  34.746 100.108  1.00  0.00    -0.000 C 
BRANCH  25  26
ATOM     26  C   UNL     1      -4.131  34.493  98.594  1.00  0.00    -0.000 C 
BRANCH  26  27
ATOM     27  C   UNL     1      -5.101  35.470  97.910  1.00  0.00    -0.000 C 
BRANCH  27  28
ATOM     28  C   UNL     1      -4.358  36.593  97.154  1.00  0.00    -0.000 C 
BRANCH  28  29
ATOM     29  C   UNL     1      -5.061  37.959  97.241  1.00  0.00    -0.003 C 
ATOM     30  C   UNL     1      -4.557  38.821  98.399  1.00  0.00     0.004 C 
ENDBRANCH  28  29
ENDBRANCH  27  28
ENDBRANCH  26  27
ENDBRANCH  25  26
ENDBRANCH  24  25
ENDBRANCH  23  24
ENDBRANCH  22  23
ENDBRANCH  21  22
ENDBRANCH  20  21
ENDBRANCH  19  20
ENDBRANCH  18  19
ENDBRANCH  17  18
ENDBRANCH   1  17
TORSDOF 26
ENDMDL
MODEL 7
REMARK VINA RESULT:    -5.771      1.571      2.334
REMARK INTER + INTRA:         -18.011
REMARK INTER:                 -14.861
REMARK INTRA:                  -3.150
REMARK UNBOUND:                -3.468
REMARK SMILES CCCCCCCCCCCCCCCCCCCCCCCCCCCC(=O)[O-]
REMARK SMILES IDX 15 1 16 2 17 3 18 4 19 5 20 6 21 7 22 8 23 9 24 10 25 11
REMARK SMILES IDX 26 12 27 13 28 14 29 15 30 16 14 17 13 18 12 19 11 20 10 21
REMARK SMILES IDX 9 22 8 23 7 24 6 25 5 26 4 27 3 28 2 29 1 30
REMARK H PARENT
REMARK Flexibility Score: inf
ROOT
ATOM      1  C   UNL     1      -2.516  42.263 103.389  1.00  0.00     0.000 C 
ENDROOT
BRANCH   1   2
ATOM      2  C   UNL     1      -3.804  43.039 103.712  1.00  0.00     0.000 C 
BRANCH   2   3
ATOM      3  C   UNL     1      -3.583  44.564 103.713  1.00  0.00     0.000 C 
BRANCH   3   4
ATOM      4  C   UNL     1      -3.989  45.217 102.384  1.00  0.00     0.000 C 
BRANCH   4   5
ATOM      5  C   UNL     1      -4.893  44.292 101.557  1.00  0.00     0.000 C 
BRANCH   5   6
ATOM      6  C   UNL     1      -6.344  44.794 101.543  1.00  0.00     0.000 C 
BRANCH   6   7
ATOM      7  C   UNL     1      -6.842  45.099 100.117  1.00  0.00     0.000 C 
BRANCH   7   8
ATOM      8  C   UNL     1      -6.492  46.530  99.667  1.00  0.00     0.000 C 
BRANCH   8   9
ATOM      9  C   UNL     1      -5.044  46.699  99.155  1.00  0.00     0.000 C 
BRANCH   9  10
ATOM     10  C   UNL     1      -4.699  45.916  97.867  1.00  0.00     0.000 C 
BRANCH  10  11
ATOM     11  C   UNL     1      -3.733  44.730  98.057  1.00  0.00     0.000 C 
BRANCH  11  12
ATOM     12  C   UNL     1      -4.407  43.370  97.802  1.00  0.00     0.006 C 
BRANCH  12  13
ATOM     13  C   UNL     1      -5.375  43.415  96.608  1.00  0.00     0.053 C 
BRANCH  13  14
ATOM     14  C   UNL     1      -5.154  42.264  95.668  1.00  0.00     0.041 C 
ATOM     15  O   UNL     1      -5.465  41.093  96.020  1.00  0.00    -0.550 OA
ATOM     16  O   UNL     1      -4.637  42.490  94.399  1.00  0.00    -0.550 OA
ENDBRANCH  13  14
ENDBRANCH  12  13
ENDBRANCH  11  12
ENDBRANCH  10  11
ENDBRANCH   9  10
ENDBRANCH   8   9
ENDBRANCH   7   8
ENDBRANCH   6   7
ENDBRANCH   5   6
ENDBRANCH   4   5
ENDBRANCH   3   4
ENDBRANCH   2   3
ENDBRANCH   1   2
BRANCH   1  17
ATOM     17  C   UNL     1      -2.785  40.843 102.859  1.00  0.00     0.000 C 
BRANCH  17  18
ATOM     18  C   UNL     1      -1.535  40.059 102.419  1.00  0.00     0.000 C 
BRANCH  18  19
ATOM     19  C   UNL     1      -1.873  38.727 101.731  1.00  0.00     0.000 C 
BRANCH  19  20
ATOM     20  C   UNL     1      -3.235  38.192 102.201  1.00  0.00     0.000 C 
BRANCH  20  21
ATOM     21  C   UNL     1      -3.562  36.804 101.625  1.00  0.00     0.000 C 
BRANCH  21  22
ATOM     22  C   UNL     1      -5.062  36.520 101.405  1.00  0.00    -0.000 C 
BRANCH  22  23
ATOM     23  C   UNL     1      -5.342  35.269 100.543  1.00  0.00    -0.000 C 
BRANCH  23  24
ATOM     24  C   UNL     1      -4.052  34.546 100.118  1.00  0.00    -0.000 C 
BRANCH  24  25
ATOM     25  C   UNL     1      -3.842  34.550  98.596  1.00  0.00    -0.000 C 
BRANCH  25  26
ATOM     26  C   UNL     1      -5.123  34.895  97.822  1.00  0.00    -0.000 C 
BRANCH  26  27
ATOM     27  C   UNL     1      -5.040  36.301  97.206  1.00  0.00    -0.000 C 
BRANCH  27  28
ATOM     28  C   UNL     1      -3.597  36.851  97.204  1.00  0.00    -0.000 C 
BRANCH  28  29
ATOM     29  C   UNL     1      -3.318  37.843  98.347  1.00  0.00    -0.003 C 
ATOM     30  C   UNL     1      -4.420  38.890  98.515  1.00  0.00     0.004 C 
ENDBRANCH  28  29
ENDBRANCH  27  28
ENDBRANCH  26  27
ENDBRANCH  25  26
ENDBRANCH  24  25
ENDBRANCH  23  24
ENDBRANCH  22  23
ENDBRANCH  21  22
ENDBRANCH  20  21
ENDBRANCH  19  20
ENDBRANCH  18  19
ENDBRANCH  17  18
ENDBRANCH   1  17
TORSDOF 26
ENDMDL
MODEL 8
REMARK VINA RESULT:    -5.763      2.457      3.274
REMARK INTER + INTRA:         -17.990
REMARK INTER:                 -14.384
REMARK INTRA:                  -3.606
REMARK UNBOUND:                -3.468
REMARK SMILES CCCCCCCCCCCCCCCCCCCCCCCCCCCC(=O)[O-]
REMARK SMILES IDX 15 1 16 2 17 3 18 4 19 5 20 6 21 7 22 8 23 9 24 10 25 11
REMARK SMILES IDX 26 12 27 13 28 14 29 15 30 16 14 17 13 18 12 19 11 20 10 21
REMARK SMILES IDX 9 22 8 23 7 24 6 25 5 26 4 27 3 28 2 29 1 30
REMARK H PARENT
REMARK Flexibility Score: inf
ROOT
ATOM      1  C   UNL     1      -2.906  42.409 103.056  1.00  0.00     0.000 C 
ENDROOT
BRANCH   1   2
ATOM      2  C   UNL     1      -4.309  42.948 103.389  1.00  0.00     0.000 C 
BRANCH   2   3
ATOM      3  C   UNL     1      -4.362  43.623 104.773  1.00  0.00     0.000 C 
BRANCH   3   4
ATOM      4  C   UNL     1      -5.340  44.805 104.813  1.00  0.00     0.000 C 
BRANCH   4   5
ATOM      5  C   UNL     1      -4.597  46.146 104.900  1.00  0.00     0.000 C 
BRANCH   5   6
ATOM      6  C   UNL     1      -5.093  47.132 103.833  1.00  0.00     0.000 C 
BRANCH   6   7
ATOM      7  C   UNL     1      -3.955  47.626 102.921  1.00  0.00     0.000 C 
BRANCH   7   8
ATOM      8  C   UNL     1      -3.279  46.474 102.151  1.00  0.00     0.000 C 
BRANCH   8   9
ATOM      9  C   UNL     1      -3.843  46.243 100.731  1.00  0.00     0.000 C 
BRANCH   9  10
ATOM     10  C   UNL     1      -4.341  44.809 100.438  1.00  0.00     0.000 C 
BRANCH  10  11
ATOM     11  C   UNL     1      -5.672  44.719  99.667  1.00  0.00     0.000 C 
BRANCH  11  12
ATOM     12  C   UNL     1      -6.800  45.527 100.336  1.00  0.00     0.006 C 
BRANCH  12  13
ATOM     13  C   UNL     1      -7.266  44.892 101.656  1.00  0.00     0.053 C 
BRANCH  13  14
ATOM     14  C   UNL     1      -8.534  45.520 102.159  1.00  0.00     0.041 C 
ATOM     15  O   UNL     1      -9.028  45.151 103.260  1.00  0.00    -0.550 OA
ATOM     16  O   UNL     1      -9.148  46.529 101.428  1.00  0.00    -0.550 OA
ENDBRANCH  13  14
ENDBRANCH  12  13
ENDBRANCH  11  12
ENDBRANCH  10  11
ENDBRANCH   9  10
ENDBRANCH   8   9
ENDBRANCH   7   8
ENDBRANCH   6   7
ENDBRANCH   5   6
ENDBRANCH   4   5
ENDBRANCH   3   4
ENDBRANCH   2   3
ENDBRANCH   1   2
BRANCH   1  17
ATOM     17  C   UNL     1      -2.932  40.987 102.465  1.00  0.00     0.000 C 
BRANCH  17  18
ATOM     18  C   UNL     1      -1.752  40.086 102.874  1.00  0.00     0.000 C 
BRANCH  18  19
ATOM     19  C   UNL     1      -1.305  39.137 101.752  1.00  0.00     0.000 C 
BRANCH  19  20
ATOM     20  C   UNL     1      -2.516  38.506 101.046  1.00  0.00     0.000 C 
BRANCH  20  21
ATOM     21  C   UNL     1      -2.810  37.076 101.528  1.00  0.00     0.000 C 
BRANCH  21  22
ATOM     22  C   UNL     1      -4.295  36.770 101.813  1.00  0.00    -0.000 C 
BRANCH  22  23
ATOM     23  C   UNL     1      -5.050  36.162 100.611  1.00  0.00    -0.000 C 
BRANCH  23  24
ATOM     24  C   UNL     1      -4.524  34.767 100.229  1.00  0.00    -0.000 C 
BRANCH  24  25
ATOM     25  C   UNL     1      -4.236  34.630  98.727  1.00  0.00    -0.000 C 
BRANCH  25  26
ATOM     26  C   UNL     1      -2.937  35.334  98.306  1.00  0.00    -0.000 C 
BRANCH  26  27
ATOM     27  C   UNL     1      -3.230  36.603  97.490  1.00  0.00    -0.000 C 
BRANCH  27  28
ATOM     28  C   UNL     1      -4.692  36.650  96.992  1.00  0.00    -0.000 C 
BRANCH  28  29
ATOM     29  C   UNL     1      -5.346  38.034  97.140  1.00  0.00    -0.003 C 
ATOM     30  C   UNL     1      -4.648  38.920  98.173  1.00  0.00     0.004 C 
ENDBRANCH  28  29
ENDBRANCH  27  28
ENDBRANCH  26  27
ENDBRANCH  25  26
ENDBRANCH  24  25
ENDBRANCH  23  24
ENDBRANCH  22  23
ENDBRANCH  21  22
ENDBRANCH  20  21
ENDBRANCH  19  20
ENDBRANCH  18  19
ENDBRANCH  17  18
ENDBRANCH   1  17
TORSDOF 26
ENDMDL
MODEL 9
REMARK VINA RESULT:    -5.741      1.885      7.801
REMARK INTER + INTRA:         -17.936
REMARK INTER:                 -14.874
REMARK INTRA:                  -3.061
REMARK UNBOUND:                -3.468
REMARK SMILES CCCCCCCCCCCCCCCCCCCCCCCCCCCC(=O)[O-]
REMARK SMILES IDX 15 1 16 2 17 3 18 4 19 5 20 6 21 7 22 8 23 9 24 10 25 11
REMARK SMILES IDX 26 12 27 13 28 14 29 15 30 16 14 17 13 18 12 19 11 20 10 21
REMARK SMILES IDX 9 22 8 23 7 24 6 25 5 26 4 27 3 28 2 29 1 30
REMARK H PARENT
REMARK Flexibility Score: inf
ROOT
ATOM      1  C   UNL     1      -3.484  42.301 102.424  1.00  0.00     0.000 C 
ENDROOT
BRANCH   1   2
ATOM      2  C   UNL     1      -2.196  41.926 103.177  1.00  0.00     0.000 C 
BRANCH   2   3
ATOM      3  C   UNL     1      -1.688  40.520 102.803  1.00  0.00     0.000 C 
BRANCH   3   4
ATOM      4  C   UNL     1      -2.833  39.529 102.552  1.00  0.00     0.000 C 
BRANCH   4   5
ATOM      5  C   UNL     1      -2.676  38.821 101.199  1.00  0.00     0.000 C 
BRANCH   5   6
ATOM      6  C   UNL     1      -2.604  37.297 101.370  1.00  0.00     0.000 C 
BRANCH   6   7
ATOM      7  C   UNL     1      -3.966  36.688 101.754  1.00  0.00     0.000 C 
BRANCH   7   8
ATOM      8  C   UNL     1      -4.966  36.702 100.582  1.00  0.00     0.000 C 
BRANCH   8   9
ATOM      9  C   UNL     1      -5.279  35.306  99.997  1.00  0.00     0.000 C 
BRANCH   9  10
ATOM     10  C   UNL     1      -4.769  35.057  98.559  1.00  0.00     0.000 C 
BRANCH  10  11
ATOM     11  C   UNL     1      -3.390  35.665  98.236  1.00  0.00     0.000 C 
BRANCH  11  12
ATOM     12  C   UNL     1      -3.493  36.974  97.433  1.00  0.00     0.006 C 
BRANCH  12  13
ATOM     13  C   UNL     1      -4.693  36.975  96.472  1.00  0.00     0.053 C 
BRANCH  13  14
ATOM     14  C   UNL     1      -5.681  38.052  96.816  1.00  0.00     0.041 C 
ATOM     15  O   UNL     1      -6.735  37.765  97.446  1.00  0.00    -0.550 OA
ATOM     16  O   UNL     1      -5.421  39.372  96.467  1.00  0.00    -0.550 OA
ENDBRANCH  13  14
ENDBRANCH  12  13
ENDBRANCH  11  12
ENDBRANCH  10  11
ENDBRANCH   9  10
ENDBRANCH   8   9
ENDBRANCH   7   8
ENDBRANCH   6   7
ENDBRANCH   5   6
ENDBRANCH   4   5
ENDBRANCH   3   4
ENDBRANCH   2   3
ENDBRANCH   1   2
BRANCH   1  17
ATOM     17  C   UNL     1      -3.987  43.717 102.759  1.00  0.00     0.000 C 
BRANCH  17  18
ATOM     18  C   UNL     1      -4.055  44.050 104.262  1.00  0.00     0.000 C 
BRANCH  18  19
ATOM     19  C   UNL     1      -5.226  43.358 104.977  1.00  0.00     0.000 C 
BRANCH  19  20
ATOM     20  C   UNL     1      -6.509  43.427 104.133  1.00  0.00     0.000 C 
BRANCH  20  21
ATOM     21  C   UNL     1      -7.211  44.792 104.223  1.00  0.00     0.000 C 
BRANCH  21  22
ATOM     22  C   UNL     1      -8.192  45.105 103.075  1.00  0.00    -0.000 C 
BRANCH  22  23
ATOM     23  C   UNL     1      -7.552  45.038 101.670  1.00  0.00    -0.000 C 
BRANCH  23  24
ATOM     24  C   UNL     1      -6.452  46.095 101.473  1.00  0.00    -0.000 C 
BRANCH  24  25
ATOM     25  C   UNL     1      -5.760  45.986 100.105  1.00  0.00    -0.000 C 
BRANCH  25  26
ATOM     26  C   UNL     1      -5.690  44.540  99.591  1.00  0.00    -0.000 C 
BRANCH  26  27
ATOM     27  C   UNL     1      -4.334  44.250  98.927  1.00  0.00    -0.000 C 
BRANCH  27  28
ATOM     28  C   UNL     1      -4.480  43.369  97.667  1.00  0.00    -0.000 C 
BRANCH  28  29
ATOM     29  C   UNL     1      -5.523  43.898  96.667  1.00  0.00    -0.003 C 
ATOM     30  C   UNL     1      -5.107  45.212  96.005  1.00  0.00     0.004 C 
ENDBRANCH  28  29
ENDBRANCH  27  28
ENDBRANCH  26  27
ENDBRANCH  25  26
ENDBRANCH  24  25
ENDBRANCH  23  24
ENDBRANCH  22  23
ENDBRANCH  21  22
ENDBRANCH  20  21
ENDBRANCH  19  20
ENDBRANCH  18  19
ENDBRANCH  17  18
ENDBRANCH   1  17
TORSDOF 26
ENDMDL
