MODEL 1
REMARK VINA RESULT:    -4.905      0.000      0.000
REMARK INTER + INTRA:         -10.331
REMARK INTER:                  -8.920
REMARK INTRA:                  -1.410
REMARK UNBOUND:                -1.410
REMARK SMILES CCCCCCCCCCCCCCCC(=O)[O-]
REMARK SMILES IDX 9 1 10 2 11 3 12 4 13 5 14 6 15 7 16 8 17 9 18 10 8 11 7 12
REMARK SMILES IDX 6 13 5 14 4 15 3 16 2 17 1 18
REMARK H PARENT
REMARK Flexibility Score: inf
ROOT
ATOM      1  C   UNL     1     -14.610  -2.616  35.346  1.00  0.00     0.000 C 
ENDROOT
BRANCH   1   2
ATOM      2  C   UNL     1     -16.105  -2.807  35.665  1.00  0.00     0.000 C 
BRANCH   2   3
ATOM      3  C   UNL     1     -16.435  -2.600  37.151  1.00  0.00     0.000 C 
BRANCH   3   4
ATOM      4  C   UNL     1     -17.344  -1.378  37.346  1.00  0.00     0.000 C 
BRANCH   4   5
ATOM      5  C   UNL     1     -17.562  -0.589  36.045  1.00  0.00     0.000 C 
BRANCH   5   6
ATOM      6  C   UNL     1     -18.580   0.550  36.205  1.00  0.00     0.006 C 
BRANCH   6   7
ATOM      7  C   UNL     1     -17.881   1.861  36.578  1.00  0.00     0.053 C 
BRANCH   7   8
ATOM      8  C   UNL     1     -18.066   2.158  38.033  1.00  0.00     0.041 C 
ATOM      9  O   UNL     1     -19.213   2.103  38.550  1.00  0.00    -0.550 OA
ATOM     10  O   UNL     1     -16.980   2.545  38.807  1.00  0.00    -0.550 OA
ENDBRANCH   7   8
ENDBRANCH   6   7
ENDBRANCH   5   6
ENDBRANCH   4   5
ENDBRANCH   3   4
ENDBRANCH   2   3
ENDBRANCH   1   2
BRANCH   1  11
ATOM     11  C   UNL     1     -13.945  -3.783  34.593  1.00  0.00     0.000 C 
BRANCH  11  12
ATOM     12  C   UNL     1     -14.821  -4.343  33.461  1.00  0.00    -0.000 C 
BRANCH  12  13
ATOM     13  C   UNL     1     -14.506  -3.712  32.092  1.00  0.00    -0.000 C 
BRANCH  13  14
ATOM     14  C   UNL     1     -15.711  -3.084  31.361  1.00  0.00    -0.000 C 
BRANCH  14  15
ATOM     15  C   UNL     1     -17.062  -3.215  32.086  1.00  0.00    -0.000 C 
BRANCH  15  16
ATOM     16  C   UNL     1     -17.671  -1.853  32.463  1.00  0.00    -0.000 C 
BRANCH  16  17
ATOM     17  C   UNL     1     -19.205  -1.852  32.373  1.00  0.00    -0.003 C 
ATOM     18  C   UNL     1     -19.717  -2.060  30.948  1.00  0.00     0.004 C 
ENDBRANCH  16  17
ENDBRANCH  15  16
ENDBRANCH  14  15
ENDBRANCH  13  14
ENDBRANCH  12  13
ENDBRANCH  11  12
ENDBRANCH   1  11
TORSDOF 14
ENDMDL
MODEL 2
REMARK VINA RESULT:    -4.788      1.508      2.256
REMARK INTER + INTRA:         -10.116
REMARK INTER:                  -8.070
REMARK INTRA:                  -2.046
REMARK UNBOUND:                -1.410
REMARK SMILES CCCCCCCCCCCCCCCC(=O)[O-]
REMARK SMILES IDX 9 1 10 2 11 3 12 4 13 5 14 6 15 7 16 8 17 9 18 10 8 11 7 12
REMARK SMILES IDX 6 13 5 14 4 15 3 16 2 17 1 18
REMARK H PARENT
REMARK Flexibility Score: inf
ROOT
ATOM      1  C   UNL     1     -12.528  -4.298  35.430  1.00  0.00     0.000 C 
ENDROOT
BRANCH   1   2
ATOM      2  C   UNL     1     -13.497  -3.198  35.901  1.00  0.00     0.000 C 
BRANCH   2   3
ATOM      3  C   UNL     1     -14.729  -3.753  36.632  1.00  0.00     0.000 C 
BRANCH   3   4
ATOM      4  C   UNL     1     -16.002  -3.535  35.802  1.00  0.00     0.000 C 
BRANCH   4   5
ATOM      5  C   UNL     1     -15.985  -2.206  35.030  1.00  0.00     0.000 C 
BRANCH   5   6
ATOM      6  C   UNL     1     -17.335  -1.476  35.074  1.00  0.00     0.006 C 
BRANCH   6   7
ATOM      7  C   UNL     1     -17.530  -0.766  36.418  1.00  0.00     0.053 C 
BRANCH   7   8
ATOM      8  C   UNL     1     -18.084   0.608  36.210  1.00  0.00     0.041 C 
ATOM      9  O   UNL     1     -19.322   0.814  36.312  1.00  0.00    -0.550 OA
ATOM     10  O   UNL     1     -17.239   1.651  35.854  1.00  0.00    -0.550 OA
ENDBRANCH   7   8
ENDBRANCH   6   7
ENDBRANCH   5   6
ENDBRANCH   4   5
ENDBRANCH   3   4
ENDBRANCH   2   3
ENDBRANCH   1   2
BRANCH   1  11
ATOM     11  C   UNL     1     -13.109  -5.290  34.406  1.00  0.00     0.000 C 
BRANCH  11  12
ATOM     12  C   UNL     1     -12.897  -4.844  32.950  1.00  0.00    -0.000 C 
BRANCH  12  13
ATOM     13  C   UNL     1     -14.107  -4.088  32.373  1.00  0.00    -0.000 C 
BRANCH  13  14
ATOM     14  C   UNL     1     -15.429  -4.884  32.338  1.00  0.00    -0.000 C 
BRANCH  14  15
ATOM     15  C   UNL     1     -16.669  -4.081  31.908  1.00  0.00    -0.000 C 
BRANCH  15  16
ATOM     16  C   UNL     1     -16.322  -2.661  31.427  1.00  0.00    -0.000 C 
BRANCH  16  17
ATOM     17  C   UNL     1     -17.571  -1.787  31.229  1.00  0.00    -0.003 C 
ATOM     18  C   UNL     1     -18.837  -2.420  31.805  1.00  0.00     0.004 C 
ENDBRANCH  16  17
ENDBRANCH  15  16
ENDBRANCH  14  15
ENDBRANCH  13  14
ENDBRANCH  12  13
ENDBRANCH  11  12
ENDBRANCH   1  11
TORSDOF 14
ENDMDL
MODEL 3
REMARK VINA RESULT:    -4.754      1.744      3.660
REMARK INTER + INTRA:         -10.056
REMARK INTER:                  -8.798
REMARK INTRA:                  -1.258
REMARK UNBOUND:                -1.410
REMARK SMILES CCCCCCCCCCCCCCCC(=O)[O-]
REMARK SMILES IDX 9 1 10 2 11 3 12 4 13 5 14 6 15 7 16 8 17 9 18 10 8 11 7 12
REMARK SMILES IDX 6 13 5 14 4 15 3 16 2 17 1 18
REMARK H PARENT
REMARK Flexibility Score: inf
ROOT
ATOM      1  C   UNL     1     -16.889  -2.335  31.619  1.00  0.00     0.000 C 
ENDROOT
BRANCH   1   2
ATOM      2  C   UNL     1     -16.824  -1.212  32.671  1.00  0.00     0.000 C 
BRANCH   2   3
ATOM      3  C   UNL     1     -17.780  -1.438  33.852  1.00  0.00     0.000 C 
BRANCH   3   4
ATOM      4  C   UNL     1     -17.004  -1.818  35.121  1.00  0.00     0.000 C 
BRANCH   4   5
ATOM      5  C   UNL     1     -17.292  -0.871  36.297  1.00  0.00     0.000 C 
BRANCH   5   6
ATOM      6  C   UNL     1     -18.270   0.254  35.927  1.00  0.00     0.006 C 
BRANCH   6   7
ATOM      7  C   UNL     1     -17.707   1.623  36.324  1.00  0.00     0.053 C 
BRANCH   7   8
ATOM      8  C   UNL     1     -17.958   1.892  37.774  1.00  0.00     0.041 C 
ATOM      9  O   UNL     1     -17.029   2.317  38.510  1.00  0.00    -0.550 OA
ATOM     10  O   UNL     1     -19.206   1.627  38.323  1.00  0.00    -0.550 OA
ENDBRANCH   7   8
ENDBRANCH   6   7
ENDBRANCH   5   6
ENDBRANCH   4   5
ENDBRANCH   3   4
ENDBRANCH   2   3
ENDBRANCH   1   2
BRANCH   1  11
ATOM     11  C   UNL     1     -15.721  -3.337  31.654  1.00  0.00     0.000 C 
BRANCH  11  12
ATOM     12  C   UNL     1     -14.531  -2.843  32.493  1.00  0.00    -0.000 C 
BRANCH  12  13
ATOM     13  C   UNL     1     -13.211  -3.548  32.133  1.00  0.00    -0.000 C 
BRANCH  13  14
ATOM     14  C   UNL     1     -12.954  -4.884  32.861  1.00  0.00    -0.000 C 
BRANCH  14  15
ATOM     15  C   UNL     1     -13.007  -6.138  31.971  1.00  0.00    -0.000 C 
BRANCH  15  16
ATOM     16  C   UNL     1     -13.877  -7.258  32.569  1.00  0.00    -0.000 C 
BRANCH  16  17
ATOM     17  C   UNL     1     -15.379  -7.005  32.367  1.00  0.00    -0.003 C 
ATOM     18  C   UNL     1     -15.774  -6.922  30.893  1.00  0.00     0.004 C 
ENDBRANCH  16  17
ENDBRANCH  15  16
ENDBRANCH  14  15
ENDBRANCH  13  14
ENDBRANCH  12  13
ENDBRANCH  11  12
ENDBRANCH   1  11
TORSDOF 14
ENDMDL
MODEL 4
REMARK VINA RESULT:    -4.728      1.888      4.161
REMARK INTER + INTRA:         -10.008
REMARK INTER:                  -8.064
REMARK INTRA:                  -1.944
REMARK UNBOUND:                -1.410
REMARK SMILES CCCCCCCCCCCCCCCC(=O)[O-]
REMARK SMILES IDX 9 1 10 2 11 3 12 4 13 5 14 6 15 7 16 8 17 9 18 10 8 11 7 12
REMARK SMILES IDX 6 13 5 14 4 15 3 16 2 17 1 18
REMARK H PARENT
REMARK Flexibility Score: inf
ROOT
ATOM      1  C   UNL     1     -17.299  -5.552  31.834  1.00  0.00     0.000 C 
ENDROOT
BRANCH   1   2
ATOM      2  C   UNL     1     -17.134  -4.224  32.596  1.00  0.00     0.000 C 
BRANCH   2   3
ATOM      3  C   UNL     1     -17.150  -2.995  31.674  1.00  0.00     0.000 C 
BRANCH   3   4
ATOM      4  C   UNL     1     -17.215  -1.698  32.493  1.00  0.00     0.000 C 
BRANCH   4   5
ATOM      5  C   UNL     1     -18.078  -1.837  33.757  1.00  0.00     0.000 C 
BRANCH   5   6
ATOM      6  C   UNL     1     -17.300  -1.527  35.044  1.00  0.00     0.006 C 
BRANCH   6   7
ATOM      7  C   UNL     1     -17.858  -0.278  35.734  1.00  0.00     0.053 C 
BRANCH   7   8
ATOM      8  C   UNL     1     -17.764  -0.415  37.221  1.00  0.00     0.041 C 
ATOM      9  O   UNL     1     -17.876   0.600  37.959  1.00  0.00    -0.550 OA
ATOM     10  O   UNL     1     -17.504  -1.655  37.789  1.00  0.00    -0.550 OA
ENDBRANCH   7   8
ENDBRANCH   6   7
ENDBRANCH   5   6
ENDBRANCH   4   5
ENDBRANCH   3   4
ENDBRANCH   2   3
ENDBRANCH   1   2
BRANCH   1  11
ATOM     11  C   UNL     1     -15.985  -6.271  31.476  1.00  0.00     0.000 C 
BRANCH  11  12
ATOM     12  C   UNL     1     -14.939  -6.207  32.601  1.00  0.00    -0.000 C 
BRANCH  12  13
ATOM     13  C   UNL     1     -13.496  -6.127  32.073  1.00  0.00    -0.000 C 
BRANCH  13  14
ATOM     14  C   UNL     1     -12.743  -4.821  32.400  1.00  0.00    -0.000 C 
BRANCH  14  15
ATOM     15  C   UNL     1     -13.465  -3.525  31.990  1.00  0.00    -0.000 C 
BRANCH  15  16
ATOM     16  C   UNL     1     -13.756  -2.601  33.185  1.00  0.00    -0.000 C 
BRANCH  16  17
ATOM     17  C   UNL     1     -13.923  -3.377  34.501  1.00  0.00    -0.003 C 
ATOM     18  C   UNL     1     -13.805  -2.485  35.735  1.00  0.00     0.004 C 
ENDBRANCH  16  17
ENDBRANCH  15  16
ENDBRANCH  14  15
ENDBRANCH  13  14
ENDBRANCH  12  13
ENDBRANCH  11  12
ENDBRANCH   1  11
TORSDOF 14
ENDMDL
MODEL 5
REMARK VINA RESULT:    -4.703      1.333      3.560
REMARK INTER + INTRA:          -9.963
REMARK INTER:                  -8.415
REMARK INTRA:                  -1.548
REMARK UNBOUND:                -1.410
REMARK SMILES CCCCCCCCCCCCCCCC(=O)[O-]
REMARK SMILES IDX 9 1 10 2 11 3 12 4 13 5 14 6 15 7 16 8 17 9 18 10 8 11 7 12
REMARK SMILES IDX 6 13 5 14 4 15 3 16 2 17 1 18
REMARK H PARENT
REMARK Flexibility Score: inf
ROOT
ATOM      1  C   UNL     1     -17.988  -2.223  31.758  1.00  0.00     0.000 C 
ENDROOT
BRANCH   1   2
ATOM      2  C   UNL     1     -18.498  -1.871  33.168  1.00  0.00     0.000 C 
BRANCH   2   3
ATOM      3  C   UNL     1     -17.508  -2.252  34.279  1.00  0.00     0.000 C 
BRANCH   3   4
ATOM      4  C   UNL     1     -17.366  -1.114  35.300  1.00  0.00     0.000 C 
BRANCH   4   5
ATOM      5  C   UNL     1     -17.052  -1.625  36.716  1.00  0.00     0.000 C 
BRANCH   5   6
ATOM      6  C   UNL     1     -17.475  -0.634  37.811  1.00  0.00     0.006 C 
BRANCH   6   7
ATOM      7  C   UNL     1     -18.728   0.143  37.393  1.00  0.00     0.053 C 
BRANCH   7   8
ATOM      8  C   UNL     1     -18.493   1.615  37.504  1.00  0.00     0.041 C 
ATOM      9  O   UNL     1     -18.881   2.244  38.524  1.00  0.00    -0.550 OA
ATOM     10  O   UNL     1     -17.889   2.303  36.459  1.00  0.00    -0.550 OA
ENDBRANCH   7   8
ENDBRANCH   6   7
ENDBRANCH   5   6
ENDBRANCH   4   5
ENDBRANCH   3   4
ENDBRANCH   2   3
ENDBRANCH   1   2
BRANCH   1  11
ATOM     11  C   UNL     1     -16.497  -1.929  31.507  1.00  0.00     0.000 C 
BRANCH  11  12
ATOM     12  C   UNL     1     -15.653  -3.203  31.342  1.00  0.00    -0.000 C 
BRANCH  12  13
ATOM     13  C   UNL     1     -14.231  -3.057  31.911  1.00  0.00    -0.000 C 
BRANCH  13  14
ATOM     14  C   UNL     1     -14.134  -3.033  33.451  1.00  0.00    -0.000 C 
BRANCH  14  15
ATOM     15  C   UNL     1     -13.384  -4.220  34.081  1.00  0.00    -0.000 C 
BRANCH  15  16
ATOM     16  C   UNL     1     -14.209  -5.518  34.074  1.00  0.00    -0.000 C 
BRANCH  16  17
ATOM     17  C   UNL     1     -15.676  -5.284  34.469  1.00  0.00    -0.003 C 
ATOM     18  C   UNL     1     -15.876  -5.191  35.981  1.00  0.00     0.004 C 
ENDBRANCH  16  17
ENDBRANCH  15  16
ENDBRANCH  14  15
ENDBRANCH  13  14
ENDBRANCH  12  13
ENDBRANCH  11  12
ENDBRANCH   1  11
TORSDOF 14
ENDMDL
MODEL 6
REMARK VINA RESULT:    -4.698      1.943      3.297
REMARK INTER + INTRA:          -9.953
REMARK INTER:                  -7.584
REMARK INTRA:                  -2.369
REMARK UNBOUND:                -1.410
REMARK SMILES CCCCCCCCCCCCCCCC(=O)[O-]
REMARK SMILES IDX 9 1 10 2 11 3 12 4 13 5 14 6 15 7 16 8 17 9 18 10 8 11 7 12
REMARK SMILES IDX 6 13 5 14 4 15 3 16 2 17 1 18
REMARK H PARENT
REMARK Flexibility Score: inf
ROOT
ATOM      1  C   UNL     1     -13.048  -4.919  34.005  1.00  0.00     0.000 C 
ENDROOT
BRANCH   1   2
ATOM      2  C   UNL     1     -14.334  -5.457  34.660  1.00  0.00     0.000 C 
BRANCH   2   3
ATOM      3  C   UNL     1     -14.785  -4.627  35.871  1.00  0.00     0.000 C 
BRANCH   3   4
ATOM      4  C   UNL     1     -16.048  -3.819  35.542  1.00  0.00     0.000 C 
BRANCH   4   5
ATOM      5  C   UNL     1     -15.821  -2.301  35.637  1.00  0.00     0.000 C 
BRANCH   5   6
ATOM      6  C   UNL     1     -17.111  -1.494  35.427  1.00  0.00     0.006 C 
BRANCH   6   7
ATOM      7  C   UNL     1     -17.553  -0.820  36.730  1.00  0.00     0.053 C 
BRANCH   7   8
ATOM      8  C   UNL     1     -18.135   0.530  36.451  1.00  0.00     0.041 C 
ATOM      9  O   UNL     1     -19.359   0.747  36.655  1.00  0.00    -0.550 OA
ATOM     10  O   UNL     1     -17.337   1.534  35.918  1.00  0.00    -0.550 OA
ENDBRANCH   7   8
ENDBRANCH   6   7
ENDBRANCH   5   6
ENDBRANCH   4   5
ENDBRANCH   3   4
ENDBRANCH   2   3
ENDBRANCH   1   2
BRANCH   1  11
ATOM     11  C   UNL     1     -13.219  -4.369  32.577  1.00  0.00     0.000 C 
BRANCH  11  12
ATOM     12  C   UNL     1     -13.559  -2.870  32.547  1.00  0.00    -0.000 C 
BRANCH  12  13
ATOM     13  C   UNL     1     -15.030  -2.597  32.186  1.00  0.00    -0.000 C 
BRANCH  13  14
ATOM     14  C   UNL     1     -15.731  -3.712  31.382  1.00  0.00    -0.000 C 
BRANCH  14  15
ATOM     15  C   UNL     1     -16.992  -4.302  32.039  1.00  0.00    -0.000 C 
BRANCH  15  16
ATOM     16  C   UNL     1     -16.946  -5.836  32.148  1.00  0.00    -0.000 C 
BRANCH  16  17
ATOM     17  C   UNL     1     -15.918  -6.462  31.192  1.00  0.00    -0.003 C 
ATOM     18  C   UNL     1     -15.244  -7.703  31.775  1.00  0.00     0.004 C 
ENDBRANCH  16  17
ENDBRANCH  15  16
ENDBRANCH  14  15
ENDBRANCH  13  14
ENDBRANCH  12  13
ENDBRANCH  11  12
ENDBRANCH   1  11
TORSDOF 14
ENDMDL
MODEL 7
REMARK VINA RESULT:    -4.642      2.593      5.835
REMARK INTER + INTRA:          -9.851
REMARK INTER:                  -8.276
REMARK INTRA:                  -1.575
REMARK UNBOUND:                -1.410
REMARK SMILES CCCCCCCCCCCCCCCC(=O)[O-]
REMARK SMILES IDX 9 1 10 2 11 3 12 4 13 5 14 6 15 7 16 8 17 9 18 10 8 11 7 12
REMARK SMILES IDX 6 13 5 14 4 15 3 16 2 17 1 18
REMARK H PARENT
REMARK Flexibility Score: inf
ROOT
ATOM      1  C   UNL     1     -14.367  -3.128  35.904  1.00  0.00     0.000 C 
ENDROOT
BRANCH   1   2
ATOM      2  C   UNL     1     -13.871  -3.667  34.549  1.00  0.00     0.000 C 
BRANCH   2   3
ATOM      3  C   UNL     1     -13.858  -2.600  33.444  1.00  0.00     0.000 C 
BRANCH   3   4
ATOM      4  C   UNL     1     -14.236  -3.211  32.087  1.00  0.00     0.000 C 
BRANCH   4   5
ATOM      5  C   UNL     1     -15.254  -4.355  32.216  1.00  0.00     0.000 C 
BRANCH   5   6
ATOM      6  C   UNL     1     -16.647  -3.971  31.696  1.00  0.00     0.006 C 
BRANCH   6   7
ATOM      7  C   UNL     1     -17.534  -3.455  32.835  1.00  0.00     0.053 C 
BRANCH   7   8
ATOM      8  C   UNL     1     -17.968  -2.049  32.565  1.00  0.00     0.041 C 
ATOM      9  O   UNL     1     -19.189  -1.743  32.609  1.00  0.00    -0.550 OA
ATOM     10  O   UNL     1     -17.029  -1.087  32.216  1.00  0.00    -0.550 OA
ENDBRANCH   7   8
ENDBRANCH   6   7
ENDBRANCH   5   6
ENDBRANCH   4   5
ENDBRANCH   3   4
ENDBRANCH   2   3
ENDBRANCH   1   2
BRANCH   1  11
ATOM     11  C   UNL     1     -15.891  -3.183  36.114  1.00  0.00     0.000 C 
BRANCH  11  12
ATOM     12  C   UNL     1     -16.324  -2.682  37.502  1.00  0.00    -0.000 C 
BRANCH  12  13
ATOM     13  C   UNL     1     -17.266  -1.466  37.433  1.00  0.00    -0.000 C 
BRANCH  13  14
ATOM     14  C   UNL     1     -17.568  -0.944  36.013  1.00  0.00    -0.000 C 
BRANCH  14  15
ATOM     15  C   UNL     1     -18.320   0.398  35.952  1.00  0.00    -0.000 C 
BRANCH  15  16
ATOM     16  C   UNL     1     -17.426   1.599  36.307  1.00  0.00    -0.000 C 
BRANCH  16  17
ATOM     17  C   UNL     1     -17.970   2.404  37.497  1.00  0.00    -0.003 C 
ATOM     18  C   UNL     1     -19.067   1.666  38.262  1.00  0.00     0.004 C 
ENDBRANCH  16  17
ENDBRANCH  15  16
ENDBRANCH  14  15
ENDBRANCH  13  14
ENDBRANCH  12  13
ENDBRANCH  11  12
ENDBRANCH   1  11
TORSDOF 14
ENDMDL
MODEL 8
REMARK VINA RESULT:    -4.585      2.146      3.779
REMARK INTER + INTRA:          -9.748
REMARK INTER:                  -7.693
REMARK INTRA:                  -2.055
REMARK UNBOUND:                -1.410
REMARK SMILES CCCCCCCCCCCCCCCC(=O)[O-]
REMARK SMILES IDX 9 1 10 2 11 3 12 4 13 5 14 6 15 7 16 8 17 9 18 10 8 11 7 12
REMARK SMILES IDX 6 13 5 14 4 15 3 16 2 17 1 18
REMARK H PARENT
REMARK Flexibility Score: inf
ROOT
ATOM      1  C   UNL     1     -13.820  -6.695  32.998  1.00  0.00     0.000 C 
ENDROOT
BRANCH   1   2
ATOM      2  C   UNL     1     -12.999  -5.421  32.726  1.00  0.00     0.000 C 
BRANCH   2   3
ATOM      3  C   UNL     1     -12.866  -4.515  33.960  1.00  0.00     0.000 C 
BRANCH   3   4
ATOM      4  C   UNL     1     -14.195  -4.436  34.726  1.00  0.00     0.000 C 
BRANCH   4   5
ATOM      5  C   UNL     1     -14.469  -3.032  35.291  1.00  0.00     0.000 C 
BRANCH   5   6
ATOM      6  C   UNL     1     -15.730  -2.981  36.166  1.00  0.00     0.006 C 
BRANCH   6   7
ATOM      7  C   UNL     1     -16.720  -1.936  35.641  1.00  0.00     0.053 C 
BRANCH   7   8
ATOM      8  C   UNL     1     -17.332  -1.177  36.775  1.00  0.00     0.041 C 
ATOM      9  O   UNL     1     -17.580  -1.757  37.865  1.00  0.00    -0.550 OA
ATOM     10  O   UNL     1     -17.674   0.159  36.613  1.00  0.00    -0.550 OA
ENDBRANCH   7   8
ENDBRANCH   6   7
ENDBRANCH   5   6
ENDBRANCH   4   5
ENDBRANCH   3   4
ENDBRANCH   2   3
ENDBRANCH   1   2
BRANCH   1  11
ATOM     11  C   UNL     1     -14.439  -7.355  31.752  1.00  0.00     0.000 C 
BRANCH  11  12
ATOM     12  C   UNL     1     -15.603  -6.545  31.158  1.00  0.00    -0.000 C 
BRANCH  12  13
ATOM     13  C   UNL     1     -16.662  -6.160  32.207  1.00  0.00    -0.000 C 
BRANCH  13  14
ATOM     14  C   UNL     1     -16.935  -4.648  32.347  1.00  0.00    -0.000 C 
BRANCH  14  15
ATOM     15  C   UNL     1     -16.034  -3.736  31.496  1.00  0.00    -0.000 C 
BRANCH  15  16
ATOM     16  C   UNL     1     -15.892  -2.321  32.085  1.00  0.00    -0.000 C 
BRANCH  16  17
ATOM     17  C   UNL     1     -17.193  -1.509  31.985  1.00  0.00    -0.003 C 
ATOM     18  C   UNL     1     -17.843  -1.599  30.605  1.00  0.00     0.004 C 
ENDBRANCH  16  17
ENDBRANCH  15  16
ENDBRANCH  14  15
ENDBRANCH  13  14
ENDBRANCH  12  13
ENDBRANCH  11  12
ENDBRANCH   1  11
TORSDOF 14
ENDMDL
MODEL 9
REMARK VINA RESULT:    -4.576      3.204      5.155
REMARK INTER + INTRA:          -9.731
REMARK INTER:                  -7.916
REMARK INTRA:                  -1.815
REMARK UNBOUND:                -1.410
REMARK SMILES CCCCCCCCCCCCCCCC(=O)[O-]
REMARK SMILES IDX 9 1 10 2 11 3 12 4 13 5 14 6 15 7 16 8 17 9 18 10 8 11 7 12
REMARK SMILES IDX 6 13 5 14 4 15 3 16 2 17 1 18
REMARK H PARENT
REMARK Flexibility Score: inf
ROOT
ATOM      1  C   UNL     1     -15.110  -6.730  31.213  1.00  0.00     0.000 C 
ENDROOT
BRANCH   1   2
ATOM      2  C   UNL     1     -13.961  -7.565  31.807  1.00  0.00     0.000 C 
BRANCH   2   3
ATOM      3  C   UNL     1     -13.287  -6.891  33.012  1.00  0.00     0.000 C 
BRANCH   3   4
ATOM      4  C   UNL     1     -13.031  -5.402  32.735  1.00  0.00     0.000 C 
BRANCH   4   5
ATOM      5  C   UNL     1     -12.975  -4.562  34.021  1.00  0.00     0.000 C 
BRANCH   5   6
ATOM      6  C   UNL     1     -13.779  -3.258  33.912  1.00  0.00     0.006 C 
BRANCH   6   7
ATOM      7  C   UNL     1     -14.078  -2.681  35.300  1.00  0.00     0.053 C 
BRANCH   7   8
ATOM      8  C   UNL     1     -15.527  -2.845  35.635  1.00  0.00     0.041 C 
ATOM      9  O   UNL     1     -15.945  -3.927  36.125  1.00  0.00    -0.550 OA
ATOM     10  O   UNL     1     -16.424  -1.821  35.360  1.00  0.00    -0.550 OA
ENDBRANCH   7   8
ENDBRANCH   6   7
ENDBRANCH   5   6
ENDBRANCH   4   5
ENDBRANCH   3   4
ENDBRANCH   2   3
ENDBRANCH   1   2
BRANCH   1  11
ATOM     11  C   UNL     1     -16.517  -7.331  31.389  1.00  0.00     0.000 C 
BRANCH  11  12
ATOM     12  C   UNL     1     -17.420  -6.489  32.306  1.00  0.00    -0.000 C 
BRANCH  12  13
ATOM     13  C   UNL     1     -16.695  -5.269  32.902  1.00  0.00    -0.000 C 
BRANCH  13  14
ATOM     14  C   UNL     1     -17.406  -3.914  32.700  1.00  0.00    -0.000 C 
BRANCH  14  15
ATOM     15  C   UNL     1     -16.701  -2.939  31.740  1.00  0.00    -0.000 C 
BRANCH  15  16
ATOM     16  C   UNL     1     -17.670  -1.933  31.095  1.00  0.00    -0.000 C 
BRANCH  16  17
ATOM     17  C   UNL     1     -19.099  -2.058  31.646  1.00  0.00    -0.003 C 
ATOM     18  C   UNL     1     -20.161  -2.062  30.547  1.00  0.00     0.004 C 
ENDBRANCH  16  17
ENDBRANCH  15  16
ENDBRANCH  14  15
ENDBRANCH  13  14
ENDBRANCH  12  13
ENDBRANCH  11  12
ENDBRANCH   1  11
TORSDOF 14
ENDMDL
