MODEL 1
REMARK VINA RESULT:    -4.352      0.000      0.000
REMARK INTER + INTRA:          -7.532
REMARK INTER:                  -6.896
REMARK INTRA:                  -0.636
REMARK UNBOUND:                -0.636
REMARK SMILES CCCCCCCCCCCC(=O)[O-]
REMARK SMILES IDX 7 1 8 2 9 3 10 4 11 5 12 6 13 7 14 8 6 9 5 10 4 11 3 12 2 13
REMARK SMILES IDX 1 14
REMARK H PARENT
REMARK Flexibility Score: inf
ROOT
ATOM      1  C   UNL     1      -5.349  -3.078   6.462  1.00  0.00     0.000 C 
ENDROOT
BRANCH   1   2
ATOM      2  C   UNL     1      -5.318  -3.852   5.131  1.00  0.00     0.000 C 
BRANCH   2   3
ATOM      3  C   UNL     1      -6.697  -4.180   4.530  1.00  0.00     0.000 C 
BRANCH   3   4
ATOM      4  C   UNL     1      -7.675  -2.994   4.587  1.00  0.00     0.006 C 
BRANCH   4   5
ATOM      5  C   UNL     1      -7.613  -2.130   3.320  1.00  0.00     0.053 C 
BRANCH   5   6
ATOM      6  C   UNL     1      -7.027  -0.779   3.594  1.00  0.00     0.041 C 
ATOM      7  O   UNL     1      -6.695  -0.458   4.766  1.00  0.00    -0.550 OA
ATOM      8  O   UNL     1      -6.871   0.136   2.561  1.00  0.00    -0.550 OA
ENDBRANCH   5   6
ENDBRANCH   4   5
ENDBRANCH   3   4
ENDBRANCH   2   3
ENDBRANCH   1   2
BRANCH   1   9
ATOM      9  C   UNL     1      -3.962  -2.570   6.893  1.00  0.00     0.000 C 
BRANCH   9  10
ATOM     10  C   UNL     1      -3.889  -2.264   8.398  1.00  0.00    -0.000 C 
BRANCH  10  11
ATOM     11  C   UNL     1      -3.722  -0.763   8.691  1.00  0.00    -0.000 C 
BRANCH  11  12
ATOM     12  C   UNL     1      -3.409   0.060   7.429  1.00  0.00    -0.000 C 
BRANCH  12  13
ATOM     13  C   UNL     1      -2.506   1.284   7.665  1.00  0.00    -0.003 C 
ATOM     14  C   UNL     1      -2.345   1.631   9.144  1.00  0.00     0.004 C 
ENDBRANCH  12  13
ENDBRANCH  11  12
ENDBRANCH  10  11
ENDBRANCH   9  10
ENDBRANCH   1   9
TORSDOF 10
ENDMDL
MODEL 2
REMARK VINA RESULT:    -4.277      0.770      1.339
REMARK INTER + INTRA:          -7.414
REMARK INTER:                  -6.712
REMARK INTRA:                  -0.702
REMARK UNBOUND:                -0.636
REMARK SMILES CCCCCCCCCCCC(=O)[O-]
REMARK SMILES IDX 7 1 8 2 9 3 10 4 11 5 12 6 13 7 14 8 6 9 5 10 4 11 3 12 2 13
REMARK SMILES IDX 1 14
REMARK H PARENT
REMARK Flexibility Score: inf
ROOT
ATOM      1  C   UNL     1      -4.438  -2.770   6.840  1.00  0.00     0.000 C 
ENDROOT
BRANCH   1   2
ATOM      2  C   UNL     1      -5.844  -3.287   7.192  1.00  0.00     0.000 C 
BRANCH   2   3
ATOM      3  C   UNL     1      -6.577  -4.022   6.055  1.00  0.00     0.000 C 
BRANCH   3   4
ATOM      4  C   UNL     1      -6.124  -3.569   4.657  1.00  0.00     0.006 C 
BRANCH   4   5
ATOM      5  C   UNL     1      -7.203  -2.752   3.933  1.00  0.00     0.053 C 
BRANCH   5   6
ATOM      6  C   UNL     1      -6.851  -1.298   3.867  1.00  0.00     0.041 C 
ATOM      7  O   UNL     1      -6.572  -0.665   4.920  1.00  0.00    -0.550 OA
ATOM      8  O   UNL     1      -6.857  -0.634   2.647  1.00  0.00    -0.550 OA
ENDBRANCH   5   6
ENDBRANCH   4   5
ENDBRANCH   3   4
ENDBRANCH   2   3
ENDBRANCH   1   2
BRANCH   1   9
ATOM      9  C   UNL     1      -3.627  -2.346   8.078  1.00  0.00     0.000 C 
BRANCH   9  10
ATOM     10  C   UNL     1      -3.743  -0.841   8.370  1.00  0.00    -0.000 C 
BRANCH  10  11
ATOM     11  C   UNL     1      -3.526   0.026   7.117  1.00  0.00    -0.000 C 
BRANCH  11  12
ATOM     12  C   UNL     1      -2.652   1.263   7.394  1.00  0.00    -0.000 C 
BRANCH  12  13
ATOM     13  C   UNL     1      -2.322   1.500   8.878  1.00  0.00    -0.003 C 
ATOM     14  C   UNL     1      -2.865   2.826   9.407  1.00  0.00     0.004 C 
ENDBRANCH  12  13
ENDBRANCH  11  12
ENDBRANCH  10  11
ENDBRANCH   9  10
ENDBRANCH   1   9
TORSDOF 10
ENDMDL
MODEL 3
REMARK VINA RESULT:    -4.265      1.349      4.100
REMARK INTER + INTRA:          -7.394
REMARK INTER:                  -6.226
REMARK INTRA:                  -1.168
REMARK UNBOUND:                -0.636
REMARK SMILES CCCCCCCCCCCC(=O)[O-]
REMARK SMILES IDX 7 1 8 2 9 3 10 4 11 5 12 6 13 7 14 8 6 9 5 10 4 11 3 12 2 13
REMARK SMILES IDX 1 14
REMARK H PARENT
REMARK Flexibility Score: inf
ROOT
ATOM      1  C   UNL     1      -3.331   0.247   7.139  1.00  0.00     0.000 C 
ENDROOT
BRANCH   1   2
ATOM      2  C   UNL     1      -4.310   1.396   6.832  1.00  0.00     0.000 C 
BRANCH   2   3
ATOM      3  C   UNL     1      -5.791   0.989   6.738  1.00  0.00     0.000 C 
BRANCH   3   4
ATOM      4  C   UNL     1      -6.306   0.926   5.290  1.00  0.00     0.006 C 
BRANCH   4   5
ATOM      5  C   UNL     1      -6.981  -0.415   4.972  1.00  0.00     0.053 C 
BRANCH   5   6
ATOM      6  C   UNL     1      -7.117  -0.635   3.497  1.00  0.00     0.041 C 
ATOM      7  O   UNL     1      -7.414  -1.776   3.051  1.00  0.00    -0.550 OA
ATOM      8  O   UNL     1      -6.890   0.411   2.612  1.00  0.00    -0.550 OA
ENDBRANCH   5   6
ENDBRANCH   4   5
ENDBRANCH   3   4
ENDBRANCH   2   3
ENDBRANCH   1   2
BRANCH   1   9
ATOM      9  C   UNL     1      -3.576  -0.398   8.514  1.00  0.00     0.000 C 
BRANCH   9  10
ATOM     10  C   UNL     1      -3.649  -1.931   8.441  1.00  0.00    -0.000 C 
BRANCH  10  11
ATOM     11  C   UNL     1      -4.242  -2.435   7.113  1.00  0.00    -0.000 C 
BRANCH  11  12
ATOM     12  C   UNL     1      -5.686  -2.948   7.263  1.00  0.00    -0.000 C 
BRANCH  12  13
ATOM     13  C   UNL     1      -6.137  -3.930   6.167  1.00  0.00    -0.003 C 
ATOM     14  C   UNL     1      -5.277  -3.857   4.907  1.00  0.00     0.004 C 
ENDBRANCH  12  13
ENDBRANCH  11  12
ENDBRANCH  10  11
ENDBRANCH   9  10
ENDBRANCH   1   9
TORSDOF 10
ENDMDL
MODEL 4
REMARK VINA RESULT:    -4.262      2.217      5.361
REMARK INTER + INTRA:          -7.390
REMARK INTER:                  -6.465
REMARK INTRA:                  -0.925
REMARK UNBOUND:                -0.636
REMARK SMILES CCCCCCCCCCCC(=O)[O-]
REMARK SMILES IDX 7 1 8 2 9 3 10 4 11 5 12 6 13 7 14 8 6 9 5 10 4 11 3 12 2 13
REMARK SMILES IDX 1 14
REMARK H PARENT
REMARK Flexibility Score: inf
ROOT
ATOM      1  C   UNL     1      -5.420  -3.264   6.437  1.00  0.00     0.000 C 
ENDROOT
BRANCH   1   2
ATOM      2  C   UNL     1      -4.089  -2.556   6.748  1.00  0.00     0.000 C 
BRANCH   2   3
ATOM      3  C   UNL     1      -3.811  -2.308   8.242  1.00  0.00     0.000 C 
BRANCH   3   4
ATOM      4  C   UNL     1      -3.667  -0.816   8.588  1.00  0.00     0.006 C 
BRANCH   4   5
ATOM      5  C   UNL     1      -3.550   0.061   7.334  1.00  0.00     0.053 C 
BRANCH   5   6
ATOM      6  C   UNL     1      -3.143   1.462   7.670  1.00  0.00     0.041 C 
ATOM      7  O   UNL     1      -3.669   2.436   7.068  1.00  0.00    -0.550 OA
ATOM      8  O   UNL     1      -2.163   1.694   8.627  1.00  0.00    -0.550 OA
ENDBRANCH   5   6
ENDBRANCH   4   5
ENDBRANCH   3   4
ENDBRANCH   2   3
ENDBRANCH   1   2
BRANCH   1   9
ATOM      9  C   UNL     1      -5.475  -3.836   5.009  1.00  0.00     0.000 C 
BRANCH   9  10
ATOM     10  C   UNL     1      -6.908  -3.899   4.455  1.00  0.00    -0.000 C 
BRANCH  10  11
ATOM     11  C   UNL     1      -7.620  -2.535   4.493  1.00  0.00    -0.000 C 
BRANCH  11  12
ATOM     12  C   UNL     1      -7.108  -1.566   3.412  1.00  0.00    -0.000 C 
BRANCH  12  13
ATOM     13  C   UNL     1      -7.061  -0.089   3.842  1.00  0.00    -0.003 C 
ATOM     14  C   UNL     1      -6.586   0.100   5.281  1.00  0.00     0.004 C 
ENDBRANCH  12  13
ENDBRANCH  11  12
ENDBRANCH  10  11
ENDBRANCH   9  10
ENDBRANCH   1   9
TORSDOF 10
ENDMDL
MODEL 5
REMARK VINA RESULT:    -4.235      2.721      5.274
REMARK INTER + INTRA:          -7.346
REMARK INTER:                  -6.312
REMARK INTRA:                  -1.034
REMARK UNBOUND:                -0.636
REMARK SMILES CCCCCCCCCCCC(=O)[O-]
REMARK SMILES IDX 7 1 8 2 9 3 10 4 11 5 12 6 13 7 14 8 6 9 5 10 4 11 3 12 2 13
REMARK SMILES IDX 1 14
REMARK H PARENT
REMARK Flexibility Score: inf
ROOT
ATOM      1  C   UNL     1      -6.859  -0.656   4.089  1.00  0.00     0.000 C 
ENDROOT
BRANCH   1   2
ATOM      2  C   UNL     1      -6.531   0.662   4.813  1.00  0.00     0.000 C 
BRANCH   2   3
ATOM      3  C   UNL     1      -5.933   0.506   6.223  1.00  0.00     0.000 C 
BRANCH   3   4
ATOM      4  C   UNL     1      -4.966   1.643   6.595  1.00  0.00     0.006 C 
BRANCH   4   5
ATOM      5  C   UNL     1      -3.586   1.117   7.015  1.00  0.00     0.053 C 
BRANCH   5   6
ATOM      6  C   UNL     1      -2.977   1.953   8.098  1.00  0.00     0.041 C 
ATOM      7  O   UNL     1      -3.304   3.163   8.225  1.00  0.00    -0.550 OA
ATOM      8  O   UNL     1      -2.027   1.404   8.950  1.00  0.00    -0.550 OA
ENDBRANCH   5   6
ENDBRANCH   4   5
ENDBRANCH   3   4
ENDBRANCH   2   3
ENDBRANCH   1   2
BRANCH   1   9
ATOM      9  C   UNL     1      -6.987  -1.852   5.050  1.00  0.00     0.000 C 
BRANCH   9  10
ATOM     10  C   UNL     1      -6.410  -3.147   4.457  1.00  0.00    -0.000 C 
BRANCH  10  11
ATOM     11  C   UNL     1      -5.415  -3.842   5.403  1.00  0.00    -0.000 C 
BRANCH  11  12
ATOM     12  C   UNL     1      -5.321  -3.155   6.778  1.00  0.00    -0.000 C 
BRANCH  12  13
ATOM     13  C   UNL     1      -3.954  -2.522   7.089  1.00  0.00    -0.003 C 
ATOM     14  C   UNL     1      -3.694  -2.366   8.587  1.00  0.00     0.004 C 
ENDBRANCH  12  13
ENDBRANCH  11  12
ENDBRANCH  10  11
ENDBRANCH   9  10
ENDBRANCH   1   9
TORSDOF 10
ENDMDL
MODEL 6
REMARK VINA RESULT:    -4.176      1.594      2.316
REMARK INTER + INTRA:          -7.253
REMARK INTER:                  -6.187
REMARK INTRA:                  -1.065
REMARK UNBOUND:                -0.636
REMARK SMILES CCCCCCCCCCCC(=O)[O-]
REMARK SMILES IDX 7 1 8 2 9 3 10 4 11 5 12 6 13 7 14 8 6 9 5 10 4 11 3 12 2 13
REMARK SMILES IDX 1 14
REMARK H PARENT
REMARK Flexibility Score: inf
ROOT
ATOM      1  C   UNL     1      -4.656  -2.365   8.105  1.00  0.00     0.000 C 
ENDROOT
BRANCH   1   2
ATOM      2  C   UNL     1      -4.383  -2.777   6.647  1.00  0.00     0.000 C 
BRANCH   2   3
ATOM      3  C   UNL     1      -5.536  -3.520   5.948  1.00  0.00     0.000 C 
BRANCH   3   4
ATOM      4  C   UNL     1      -6.800  -2.656   5.792  1.00  0.00     0.006 C 
BRANCH   4   5
ATOM      5  C   UNL     1      -6.527  -1.367   5.006  1.00  0.00     0.053 C 
BRANCH   5   6
ATOM      6  C   UNL     1      -7.017  -1.462   3.593  1.00  0.00     0.041 C 
ATOM      7  O   UNL     1      -7.571  -2.516   3.184  1.00  0.00    -0.550 OA
ATOM      8  O   UNL     1      -6.835  -0.397   2.720  1.00  0.00    -0.550 OA
ENDBRANCH   5   6
ENDBRANCH   4   5
ENDBRANCH   3   4
ENDBRANCH   2   3
ENDBRANCH   1   2
BRANCH   1   9
ATOM      9  C   UNL     1      -3.838  -1.138   8.546  1.00  0.00     0.000 C 
BRANCH   9  10
ATOM     10  C   UNL     1      -3.286  -0.340   7.354  1.00  0.00    -0.000 C 
BRANCH  10  11
ATOM     11  C   UNL     1      -2.864   1.089   7.739  1.00  0.00    -0.000 C 
BRANCH  11  12
ATOM     12  C   UNL     1      -3.864   2.155   7.259  1.00  0.00    -0.000 C 
BRANCH  12  13
ATOM     13  C   UNL     1      -5.019   1.614   6.398  1.00  0.00    -0.003 C 
ATOM     14  C   UNL     1      -6.373   1.682   7.102  1.00  0.00     0.004 C 
ENDBRANCH  12  13
ENDBRANCH  11  12
ENDBRANCH  10  11
ENDBRANCH   9  10
ENDBRANCH   1   9
TORSDOF 10
ENDMDL
MODEL 7
REMARK VINA RESULT:    -4.158      1.553      4.452
REMARK INTER + INTRA:          -7.225
REMARK INTER:                  -6.095
REMARK INTRA:                  -1.130
REMARK UNBOUND:                -0.636
REMARK SMILES CCCCCCCCCCCC(=O)[O-]
REMARK SMILES IDX 7 1 8 2 9 3 10 4 11 5 12 6 13 7 14 8 6 9 5 10 4 11 3 12 2 13
REMARK SMILES IDX 1 14
REMARK H PARENT
REMARK Flexibility Score: inf
ROOT
ATOM      1  C   UNL     1      -3.365   0.244   7.118  1.00  0.00     0.000 C 
ENDROOT
BRANCH   1   2
ATOM      2  C   UNL     1      -4.183   1.523   6.861  1.00  0.00     0.000 C 
BRANCH   2   3
ATOM      3  C   UNL     1      -5.556   1.574   7.555  1.00  0.00     0.000 C 
BRANCH   3   4
ATOM      4  C   UNL     1      -6.706   1.102   6.648  1.00  0.00     0.006 C 
BRANCH   4   5
ATOM      5  C   UNL     1      -6.261   0.931   5.189  1.00  0.00     0.053 C 
BRANCH   5   6
ATOM      6  C   UNL     1      -6.936  -0.233   4.533  1.00  0.00     0.041 C 
ATOM      7  O   UNL     1      -6.605  -0.584   3.369  1.00  0.00    -0.550 OA
ATOM      8  O   UNL     1      -7.951  -0.914   5.194  1.00  0.00    -0.550 OA
ENDBRANCH   5   6
ENDBRANCH   4   5
ENDBRANCH   3   4
ENDBRANCH   2   3
ENDBRANCH   1   2
BRANCH   1   9
ATOM      9  C   UNL     1      -3.609  -0.354   8.514  1.00  0.00     0.000 C 
BRANCH   9  10
ATOM     10  C   UNL     1      -3.930  -1.856   8.464  1.00  0.00    -0.000 C 
BRANCH  10  11
ATOM     11  C   UNL     1      -3.935  -2.415   7.030  1.00  0.00    -0.000 C 
BRANCH  11  12
ATOM     12  C   UNL     1      -5.310  -2.963   6.609  1.00  0.00    -0.000 C 
BRANCH  12  13
ATOM     13  C   UNL     1      -5.335  -3.654   5.235  1.00  0.00    -0.003 C 
ATOM     14  C   UNL     1      -6.722  -4.163   4.845  1.00  0.00     0.004 C 
ENDBRANCH  12  13
ENDBRANCH  11  12
ENDBRANCH  10  11
ENDBRANCH   9  10
ENDBRANCH   1   9
TORSDOF 10
ENDMDL
MODEL 8
REMARK VINA RESULT:    -4.126      2.546      5.858
REMARK INTER + INTRA:          -7.174
REMARK INTER:                  -6.314
REMARK INTRA:                  -0.860
REMARK UNBOUND:                -0.636
REMARK SMILES CCCCCCCCCCCC(=O)[O-]
REMARK SMILES IDX 7 1 8 2 9 3 10 4 11 5 12 6 13 7 14 8 6 9 5 10 4 11 3 12 2 13
REMARK SMILES IDX 1 14
REMARK H PARENT
REMARK Flexibility Score: inf
ROOT
ATOM      1  C   UNL     1      -3.910  -2.356   7.137  1.00  0.00     0.000 C 
ENDROOT
BRANCH   1   2
ATOM      2  C   UNL     1      -3.963  -0.994   7.853  1.00  0.00     0.000 C 
BRANCH   2   3
ATOM      3  C   UNL     1      -3.539   0.214   6.998  1.00  0.00     0.000 C 
BRANCH   3   4
ATOM      4  C   UNL     1      -2.470   1.087   7.679  1.00  0.00     0.006 C 
BRANCH   4   5
ATOM      5  C   UNL     1      -2.913   1.568   9.067  1.00  0.00     0.053 C 
BRANCH   5   6
ATOM      6  C   UNL     1      -3.786   2.783   8.984  1.00  0.00     0.041 C 
ATOM      7  O   UNL     1      -5.037   2.673   9.091  1.00  0.00    -0.550 OA
ATOM      8  O   UNL     1      -3.222   4.032   8.761  1.00  0.00    -0.550 OA
ENDBRANCH   5   6
ENDBRANCH   4   5
ENDBRANCH   3   4
ENDBRANCH   2   3
ENDBRANCH   1   2
BRANCH   1   9
ATOM      9  C   UNL     1      -5.304  -2.905   6.787  1.00  0.00     0.000 C 
BRANCH   9  10
ATOM     10  C   UNL     1      -5.269  -3.894   5.611  1.00  0.00    -0.000 C 
BRANCH  10  11
ATOM     11  C   UNL     1      -6.207  -3.484   4.463  1.00  0.00    -0.000 C 
BRANCH  11  12
ATOM     12  C   UNL     1      -7.242  -2.427   4.887  1.00  0.00    -0.000 C 
BRANCH  12  13
ATOM     13  C   UNL     1      -7.179  -1.110   4.093  1.00  0.00    -0.003 C 
ATOM     14  C   UNL     1      -6.605   0.051   4.904  1.00  0.00     0.004 C 
ENDBRANCH  12  13
ENDBRANCH  11  12
ENDBRANCH  10  11
ENDBRANCH   9  10
ENDBRANCH   1   9
TORSDOF 10
ENDMDL
MODEL 9
REMARK VINA RESULT:    -4.058      2.641      4.405
REMARK INTER + INTRA:          -7.066
REMARK INTER:                  -5.763
REMARK INTRA:                  -1.302
REMARK UNBOUND:                -0.636
REMARK SMILES CCCCCCCCCCCC(=O)[O-]
REMARK SMILES IDX 7 1 8 2 9 3 10 4 11 5 12 6 13 7 14 8 6 9 5 10 4 11 3 12 2 13
REMARK SMILES IDX 1 14
REMARK H PARENT
REMARK Flexibility Score: inf
ROOT
ATOM      1  C   UNL     1      -7.223  -2.423   4.805  1.00  0.00     0.000 C 
ENDROOT
BRANCH   1   2
ATOM      2  C   UNL     1      -6.311  -3.630   4.519  1.00  0.00     0.000 C 
BRANCH   2   3
ATOM      3  C   UNL     1      -5.182  -3.856   5.541  1.00  0.00     0.000 C 
BRANCH   3   4
ATOM      4  C   UNL     1      -5.274  -2.917   6.756  1.00  0.00     0.006 C 
BRANCH   4   5
ATOM      5  C   UNL     1      -3.932  -2.243   7.071  1.00  0.00     0.053 C 
BRANCH   5   6
ATOM      6  C   UNL     1      -3.751  -2.021   8.541  1.00  0.00     0.041 C 
ATOM      7  O   UNL     1      -3.453  -2.985   9.295  1.00  0.00    -0.550 OA
ATOM      8  O   UNL     1      -3.939  -0.756   9.084  1.00  0.00    -0.550 OA
ENDBRANCH   5   6
ENDBRANCH   4   5
ENDBRANCH   3   4
ENDBRANCH   2   3
ENDBRANCH   1   2
BRANCH   1   9
ATOM      9  C   UNL     1      -7.043  -1.281   3.790  1.00  0.00     0.000 C 
BRANCH   9  10
ATOM     10  C   UNL     1      -6.823   0.081   4.468  1.00  0.00    -0.000 C 
BRANCH  10  11
ATOM     11  C   UNL     1      -7.289   0.097   5.934  1.00  0.00    -0.000 C 
BRANCH  11  12
ATOM     12  C   UNL     1      -6.276   0.774   6.874  1.00  0.00    -0.000 C 
BRANCH  12  13
ATOM     13  C   UNL     1      -5.006   1.299   6.182  1.00  0.00    -0.003 C 
ATOM     14  C   UNL     1      -4.054   2.013   7.140  1.00  0.00     0.004 C 
ENDBRANCH  12  13
ENDBRANCH  11  12
ENDBRANCH  10  11
ENDBRANCH   9  10
ENDBRANCH   1   9
TORSDOF 10
ENDMDL
