MODEL 1
REMARK VINA RESULT:    72.265      0.000      0.000
REMARK INTER + INTRA:         107.280
REMARK INTER:                 106.062
REMARK INTRA:                   1.219
REMARK UNBOUND:                 1.219
REMARK SMILES O=c1c(O[C@H]2O[C@@H](CO)[C@@H](O)[C@@H](O)[C@@H]2O)c(-c2ccc(O)c(O)c2)oc2cc(O)cc(O)c12
REMARK SMILES IDX 4 1 3 2 16 3 25 4 2 5 26 6 1 7 33 8 27 9 31 10 28 11 30 12
REMARK SMILES IDX 17 13 18 14 19 15 20 16 24 17 22 18 21 19 23 21 32 23 29 25
REMARK SMILES IDX 5 27 14 28 6 29 12 30 7 31 10 32 15 33 13 35 8 37 9 38 11 40
REMARK H PARENT 21 20 23 22 32 24 29 26 15 34 13 36 9 39 11 41
REMARK Flexibility Score: inf
ROOT
ATOM      1  O   UNL     1     -38.974  29.342 -21.764  1.00  0.00    -0.454 OA
ENDROOT
BRANCH   1   2
ATOM      2  C   UNL     1     -40.157  30.062 -22.040  1.00  0.00     0.214 A 
ATOM      3  C   UNL     1     -40.121  31.041 -23.052  1.00  0.00     0.180 A 
ATOM      4  O   UNL     1     -41.190  31.787 -23.305  1.00  0.00    -0.452 OA
ATOM      5  C   UNL     1     -41.370  29.878 -21.335  1.00  0.00     0.239 A 
ATOM      6  C   UNL     1     -42.343  31.649 -22.664  1.00  0.00     0.146 A 
ATOM      7  O   UNL     1     -41.458  29.003 -20.436  1.00  0.00    -0.285 OA
ATOM      8  C   UNL     1     -42.490  30.677 -21.649  1.00  0.00     0.111 A 
ATOM      9  C   UNL     1     -43.414  32.477 -23.011  1.00  0.00     0.094 A 
ATOM     10  C   UNL     1     -43.742  30.549 -20.997  1.00  0.00     0.134 A 
ATOM     11  C   UNL     1     -44.647  32.346 -22.362  1.00  0.00     0.123 A 
ATOM     12  C   UNL     1     -44.808  31.385 -21.362  1.00  0.00     0.093 A 
BRANCH   3  13
ATOM     13  C   UNL     1     -38.898  31.292 -23.841  1.00  0.00     0.025 A 
ATOM     14  C   UNL     1     -37.857  30.352 -23.871  1.00  0.00     0.016 A 
ATOM     15  C   UNL     1     -36.704  30.598 -24.622  1.00  0.00     0.051 A 
ATOM     16  C   UNL     1     -36.589  31.775 -25.375  1.00  0.00     0.157 A 
ATOM     17  C   UNL     1     -38.792  32.460 -24.613  1.00  0.00     0.062 A 
ATOM     18  C   UNL     1     -37.640  32.708 -25.375  1.00  0.00     0.158 A 
BRANCH  16  19
ATOM     19  O   UNL     1     -35.438  32.018 -26.125  1.00  0.00    -0.504 OA
ATOM     20  H   UNL     1     -34.515  32.001 -25.702  1.00  0.00     0.293 HD
ENDBRANCH  16  19
BRANCH  18  21
ATOM     21  O   UNL     1     -37.562  33.884 -26.121  1.00  0.00    -0.504 OA
ATOM     22  H   UNL     1     -36.677  34.334 -26.320  1.00  0.00     0.293 HD
ENDBRANCH  18  21
ENDBRANCH   3  13
BRANCH  10  23
ATOM     23  O   UNL     1     -43.938  29.600 -19.993  1.00  0.00    -0.507 OA
ATOM     24  H   UNL     1     -43.185  29.005 -19.664  1.00  0.00     0.293 HD
ENDBRANCH  10  23
BRANCH  11  25
ATOM     25  O   UNL     1     -45.720  33.165 -22.706  1.00  0.00    -0.508 OA
ATOM     26  H   UNL     1     -45.868  33.470 -23.663  1.00  0.00     0.293 HD
ENDBRANCH  11  25
ENDBRANCH   1   2
BRANCH   1  27
ATOM     27  C   UNL     1     -38.489  28.196 -22.468  1.00  0.00     0.339 C 
ATOM     28  C   UNL     1     -39.309  26.947 -22.060  1.00  0.00     0.214 C 
ATOM     29  O   UNL     1     -37.073  28.078 -22.330  1.00  0.00    -0.332 OA
ATOM     30  C   UNL     1     -38.454  25.688 -22.252  1.00  0.00     0.180 C 
ATOM     31  C   UNL     1     -36.621  27.227 -21.286  1.00  0.00     0.179 C 
ATOM     32  C   UNL     1     -37.176  25.770 -21.387  1.00  0.00     0.177 C 
BRANCH  28  33
ATOM     33  O   UNL     1     -40.464  26.867 -22.861  1.00  0.00    -0.384 OA
ATOM     34  H   UNL     1     -40.271  27.359 -23.702  1.00  0.00     0.211 HD
ENDBRANCH  28  33
BRANCH  30  35
ATOM     35  O   UNL     1     -39.177  24.503 -22.004  1.00  0.00    -0.387 OA
ATOM     36  H   UNL     1     -39.434  24.109 -22.880  1.00  0.00     0.211 HD
ENDBRANCH  30  35
BRANCH  31  37
ATOM     37  C   UNL     1     -36.685  27.913 -19.903  1.00  0.00     0.191 C 
BRANCH  37  38
ATOM     38  O   UNL     1     -36.778  29.304 -20.007  1.00  0.00    -0.394 OA
ATOM     39  H   UNL     1     -36.921  29.642 -19.084  1.00  0.00     0.210 HD
ENDBRANCH  37  38
ENDBRANCH  31  37
BRANCH  32  40
ATOM     40  O   UNL     1     -37.338  25.172 -20.121  1.00  0.00    -0.387 OA
ATOM     41  H   UNL     1     -36.641  25.531 -19.515  1.00  0.00     0.211 HD
ENDBRANCH  32  40
ENDBRANCH   1  27
TORSDOF 12
ENDMDL
MODEL 2
REMARK VINA RESULT:    74.316      1.423      5.152
REMARK INTER + INTRA:         110.292
REMARK INTER:                 110.900
REMARK INTRA:                  -0.608
REMARK UNBOUND:                 1.219
REMARK SMILES O=c1c(O[C@H]2O[C@@H](CO)[C@@H](O)[C@@H](O)[C@@H]2O)c(-c2ccc(O)c(O)c2)oc2cc(O)cc(O)c12
REMARK SMILES IDX 4 1 3 2 16 3 25 4 2 5 26 6 1 7 33 8 27 9 31 10 28 11 30 12
REMARK SMILES IDX 17 13 18 14 19 15 20 16 24 17 22 18 21 19 23 21 32 23 29 25
REMARK SMILES IDX 5 27 14 28 6 29 12 30 7 31 10 32 15 33 13 35 8 37 9 38 11 40
REMARK H PARENT 21 20 23 22 32 24 29 26 15 34 13 36 9 39 11 41
REMARK Flexibility Score: inf
ROOT
ATOM      1  O   UNL     1     -39.609  30.839 -23.628  1.00  0.00    -0.454 OA
ENDROOT
BRANCH   1   2
ATOM      2  C   UNL     1     -40.667  30.702 -22.702  1.00  0.00     0.214 A 
ATOM      3  C   UNL     1     -40.540  29.735 -21.685  1.00  0.00     0.180 A 
ATOM      4  O   UNL     1     -41.534  29.526 -20.830  1.00  0.00    -0.452 OA
ATOM      5  C   UNL     1     -41.861  31.458 -22.757  1.00  0.00     0.239 A 
ATOM      6  C   UNL     1     -42.670  30.209 -20.851  1.00  0.00     0.146 A 
ATOM      7  O   UNL     1     -42.014  32.346 -23.636  1.00  0.00    -0.285 OA
ATOM      8  C   UNL     1     -42.885  31.218 -21.817  1.00  0.00     0.111 A 
ATOM      9  C   UNL     1     -43.653  29.920 -19.900  1.00  0.00     0.094 A 
ATOM     10  C   UNL     1     -44.107  31.938 -21.798  1.00  0.00     0.134 A 
ATOM     11  C   UNL     1     -44.857  30.633 -19.888  1.00  0.00     0.123 A 
ATOM     12  C   UNL     1     -45.079  31.638 -20.832  1.00  0.00     0.093 A 
BRANCH   3  13
ATOM     13  C   UNL     1     -39.324  28.908 -21.551  1.00  0.00     0.025 A 
ATOM     14  C   UNL     1     -38.203  29.388 -20.856  1.00  0.00     0.016 A 
ATOM     15  C   UNL     1     -37.057  28.597 -20.733  1.00  0.00     0.051 A 
ATOM     16  C   UNL     1     -37.027  27.306 -21.280  1.00  0.00     0.157 A 
ATOM     17  C   UNL     1     -39.302  27.607 -22.078  1.00  0.00     0.062 A 
ATOM     18  C   UNL     1     -38.157  26.807 -21.951  1.00  0.00     0.158 A 
BRANCH  16  19
ATOM     19  O   UNL     1     -35.883  26.519 -21.155  1.00  0.00    -0.504 OA
ATOM     20  H   UNL     1     -35.759  25.882 -20.374  1.00  0.00     0.293 HD
ENDBRANCH  16  19
BRANCH  18  21
ATOM     21  O   UNL     1     -38.163  25.523 -22.497  1.00  0.00    -0.504 OA
ATOM     22  H   UNL     1     -39.007  24.966 -22.545  1.00  0.00     0.293 HD
ENDBRANCH  18  21
ENDBRANCH   3  13
BRANCH  10  23
ATOM     23  O   UNL     1     -44.362  32.948 -22.727  1.00  0.00    -0.507 OA
ATOM     24  H   UNL     1     -43.614  33.470 -23.170  1.00  0.00     0.293 HD
ENDBRANCH  10  23
BRANCH  11  25
ATOM     25  O   UNL     1     -45.838  30.353 -18.940  1.00  0.00    -0.508 OA
ATOM     26  H   UNL     1     -45.970  29.415 -18.576  1.00  0.00     0.293 HD
ENDBRANCH  11  25
ENDBRANCH   1   2
BRANCH   1  27
ATOM     27  C   UNL     1     -38.476  31.703 -23.507  1.00  0.00     0.339 C 
ATOM     28  C   UNL     1     -38.180  32.370 -24.873  1.00  0.00     0.214 C 
ATOM     29  O   UNL     1     -37.379  31.018 -22.902  1.00  0.00    -0.332 OA
ATOM     30  C   UNL     1     -36.692  32.737 -24.951  1.00  0.00     0.180 C 
ATOM     31  C   UNL     1     -36.439  30.442 -23.797  1.00  0.00     0.179 C 
ATOM     32  C   UNL     1     -35.818  31.473 -24.795  1.00  0.00     0.177 C 
BRANCH  28  33
ATOM     33  O   UNL     1     -38.965  33.530 -25.004  1.00  0.00    -0.384 OA
ATOM     34  H   UNL     1     -38.522  34.245 -24.475  1.00  0.00     0.211 HD
ENDBRANCH  28  33
BRANCH  30  35
ATOM     35  O   UNL     1     -36.374  33.450 -26.125  1.00  0.00    -0.387 OA
ATOM     36  H   UNL     1     -36.479  34.420 -25.936  1.00  0.00     0.211 HD
ENDBRANCH  30  35
BRANCH  31  37
ATOM     37  C   UNL     1     -36.934  29.102 -24.384  1.00  0.00     0.191 C 
BRANCH  37  38
ATOM     38  O   UNL     1     -35.897  28.367 -24.970  1.00  0.00    -0.394 OA
ATOM     39  H   UNL     1     -35.371  29.014 -25.509  1.00  0.00     0.210 HD
ENDBRANCH  37  38
ENDBRANCH  31  37
BRANCH  32  40
ATOM     40  O   UNL     1     -35.488  30.884 -26.032  1.00  0.00    -0.387 OA
ATOM     41  H   UNL     1     -34.991  31.550 -26.572  1.00  0.00     0.211 HD
ENDBRANCH  32  40
ENDBRANCH   1  27
TORSDOF 12
ENDMDL
