MODEL 1
REMARK VINA RESULT:     1.357      0.000      0.000
REMARK INTER + INTRA:           1.807
REMARK INTER:                   2.309
REMARK INTRA:                  -0.502
REMARK UNBOUND:                -0.502
REMARK SMILES CCCCCCCCCCCCCC(=O)[O-]
REMARK SMILES IDX 8 1 9 2 10 3 11 4 12 5 13 6 14 7 15 8 16 9 7 10 6 11 5 12
REMARK SMILES IDX 4 13 3 14 2 15 1 16
REMARK H PARENT
REMARK Flexibility Score: inf
ROOT
ATOM      1  C   UNL     1      59.110  -3.912  -3.202  1.00  0.00     0.000 C 
ENDROOT
BRANCH   1   2
ATOM      2  C   UNL     1      59.125  -3.389  -4.649  1.00  0.00     0.000 C 
BRANCH   2   3
ATOM      3  C   UNL     1      57.979  -3.967  -5.498  1.00  0.00     0.000 C 
BRANCH   3   4
ATOM      4  C   UNL     1      57.036  -2.880  -6.036  1.00  0.00     0.000 C 
BRANCH   4   5
ATOM      5  C   UNL     1      57.787  -1.620  -6.502  1.00  0.00     0.006 C 
BRANCH   5   6
ATOM      6  C   UNL     1      57.059  -0.330  -6.099  1.00  0.00     0.053 C 
BRANCH   6   7
ATOM      7  C   UNL     1      57.805   0.891  -6.539  1.00  0.00     0.041 C 
ATOM      8  O   UNL     1      59.057   0.948  -6.417  1.00  0.00    -0.550 OA
ATOM      9  O   UNL     1      57.121   1.957  -7.110  1.00  0.00    -0.550 OA
ENDBRANCH   6   7
ENDBRANCH   5   6
ENDBRANCH   4   5
ENDBRANCH   3   4
ENDBRANCH   2   3
ENDBRANCH   1   2
BRANCH   1  10
ATOM     10  C   UNL     1      58.176  -5.122  -3.020  1.00  0.00     0.000 C 
BRANCH  10  11
ATOM     11  C   UNL     1      58.934  -6.460  -3.017  1.00  0.00    -0.000 C 
BRANCH  11  12
ATOM     12  C   UNL     1      59.124  -7.029  -1.599  1.00  0.00    -0.000 C 
BRANCH  12  13
ATOM     13  C   UNL     1      58.764  -6.015  -0.502  1.00  0.00    -0.000 C 
BRANCH  13  14
ATOM     14  C   UNL     1      59.098  -6.527   0.911  1.00  0.00    -0.000 C 
BRANCH  14  15
ATOM     15  C   UNL     1      57.846  -6.716   1.780  1.00  0.00    -0.003 C 
ATOM     16  C   UNL     1      58.141  -6.606   3.277  1.00  0.00     0.004 C 
ENDBRANCH  14  15
ENDBRANCH  13  14
ENDBRANCH  12  13
ENDBRANCH  11  12
ENDBRANCH  10  11
ENDBRANCH   1  10
TORSDOF 12
ENDMDL
MODEL 2
REMARK VINA RESULT:     1.831      1.621      3.147
REMARK INTER + INTRA:           2.613
REMARK INTER:                   3.065
REMARK INTRA:                  -0.452
REMARK UNBOUND:                -0.502
REMARK SMILES CCCCCCCCCCCCCC(=O)[O-]
REMARK SMILES IDX 8 1 9 2 10 3 11 4 12 5 13 6 14 7 15 8 16 9 7 10 6 11 5 12
REMARK SMILES IDX 4 13 3 14 2 15 1 16
REMARK H PARENT
REMARK Flexibility Score: inf
ROOT
ATOM      1  C   UNL     1      58.781  -5.840  -1.250  1.00  0.00     0.000 C 
ENDROOT
BRANCH   1   2
ATOM      2  C   UNL     1      59.052  -4.829  -2.377  1.00  0.00     0.000 C 
BRANCH   2   3
ATOM      3  C   UNL     1      58.624  -5.353  -3.758  1.00  0.00     0.000 C 
BRANCH   3   4
ATOM      4  C   UNL     1      59.124  -4.466  -4.909  1.00  0.00     0.000 C 
BRANCH   4   5
ATOM      5  C   UNL     1      58.973  -2.964  -4.609  1.00  0.00     0.006 C 
BRANCH   5   6
ATOM      6  C   UNL     1      58.416  -2.188  -5.810  1.00  0.00     0.053 C 
BRANCH   6   7
ATOM      7  C   UNL     1      57.459  -1.117  -5.386  1.00  0.00     0.041 C 
ATOM      8  O   UNL     1      56.858  -1.203  -4.283  1.00  0.00    -0.550 OA
ATOM      9  O   UNL     1      57.251  -0.009  -6.197  1.00  0.00    -0.550 OA
ENDBRANCH   6   7
ENDBRANCH   5   6
ENDBRANCH   4   5
ENDBRANCH   3   4
ENDBRANCH   2   3
ENDBRANCH   1   2
BRANCH   1  10
ATOM     10  C   UNL     1      58.721  -5.179   0.138  1.00  0.00     0.000 C 
BRANCH  10  11
ATOM     11  C   UNL     1      59.011  -6.169   1.279  1.00  0.00    -0.000 C 
BRANCH  11  12
ATOM     12  C   UNL     1      57.731  -6.809   1.846  1.00  0.00    -0.000 C 
BRANCH  12  13
ATOM     13  C   UNL     1      57.843  -7.122   3.347  1.00  0.00    -0.000 C 
BRANCH  13  14
ATOM     14  C   UNL     1      58.730  -6.113   4.098  1.00  0.00    -0.000 C 
BRANCH  14  15
ATOM     15  C   UNL     1      58.325  -5.954   5.570  1.00  0.00    -0.003 C 
ATOM     16  C   UNL     1      57.377  -7.056   6.047  1.00  0.00     0.004 C 
ENDBRANCH  14  15
ENDBRANCH  13  14
ENDBRANCH  12  13
ENDBRANCH  11  12
ENDBRANCH  10  11
ENDBRANCH   1  10
TORSDOF 12
ENDMDL
MODEL 3
REMARK VINA RESULT:     2.974      2.832      3.267
REMARK INTER + INTRA:           4.558
REMARK INTER:                   5.125
REMARK INTRA:                  -0.567
REMARK UNBOUND:                -0.502
REMARK SMILES CCCCCCCCCCCCCC(=O)[O-]
REMARK SMILES IDX 8 1 9 2 10 3 11 4 12 5 13 6 14 7 15 8 16 9 7 10 6 11 5 12
REMARK SMILES IDX 4 13 3 14 2 15 1 16
REMARK H PARENT
REMARK Flexibility Score: inf
ROOT
ATOM      1  C   UNL     1      58.694  -3.192  -4.332  1.00  0.00     0.000 C 
ENDROOT
BRANCH   1   2
ATOM      2  C   UNL     1      58.875  -2.424  -5.652  1.00  0.00     0.000 C 
BRANCH   2   3
ATOM      3  C   UNL     1      57.535  -2.083  -6.327  1.00  0.00     0.000 C 
BRANCH   3   4
ATOM      4  C   UNL     1      56.766  -0.976  -5.590  1.00  0.00     0.000 C 
BRANCH   4   5
ATOM      5  C   UNL     1      55.546  -1.511  -4.819  1.00  0.00     0.006 C 
BRANCH   5   6
ATOM      6  C   UNL     1      54.235  -1.281  -5.582  1.00  0.00     0.053 C 
BRANCH   6   7
ATOM      7  C   UNL     1      53.041  -1.407  -4.686  1.00  0.00     0.041 C 
ATOM      8  O   UNL     1      52.927  -0.669  -3.673  1.00  0.00    -0.550 OA
ATOM      9  O   UNL     1      52.038  -2.321  -4.987  1.00  0.00    -0.550 OA
ENDBRANCH   6   7
ENDBRANCH   5   6
ENDBRANCH   4   5
ENDBRANCH   3   4
ENDBRANCH   2   3
ENDBRANCH   1   2
BRANCH   1  10
ATOM     10  C   UNL     1      58.305  -4.665  -4.553  1.00  0.00     0.000 C 
BRANCH  10  11
ATOM     11  C   UNL     1      59.106  -5.628  -3.661  1.00  0.00    -0.000 C 
BRANCH  11  12
ATOM     12  C   UNL     1      58.320  -6.075  -2.416  1.00  0.00    -0.000 C 
BRANCH  12  13
ATOM     13  C   UNL     1      59.123  -5.902  -1.116  1.00  0.00    -0.000 C 
BRANCH  13  14
ATOM     14  C   UNL     1      58.284  -5.295   0.022  1.00  0.00    -0.000 C 
BRANCH  14  15
ATOM     15  C   UNL     1      58.724  -5.791   1.407  1.00  0.00    -0.003 C 
ATOM     16  C   UNL     1      58.067  -7.116   1.799  1.00  0.00     0.004 C 
ENDBRANCH  14  15
ENDBRANCH  13  14
ENDBRANCH  12  13
ENDBRANCH  11  12
ENDBRANCH  10  11
ENDBRANCH   1  10
TORSDOF 12
ENDMDL
MODEL 4
REMARK VINA RESULT:     4.308      3.370      4.951
REMARK INTER + INTRA:           6.827
REMARK INTER:                   7.065
REMARK INTRA:                  -0.237
REMARK UNBOUND:                -0.502
REMARK SMILES CCCCCCCCCCCCCC(=O)[O-]
REMARK SMILES IDX 8 1 9 2 10 3 11 4 12 5 13 6 14 7 15 8 16 9 7 10 6 11 5 12
REMARK SMILES IDX 4 13 3 14 2 15 1 16
REMARK H PARENT
REMARK Flexibility Score: inf
ROOT
ATOM      1  C   UNL     1      58.360  -0.988  -7.047  1.00  0.00     0.000 C 
ENDROOT
BRANCH   1   2
ATOM      2  C   UNL     1      57.805   0.100  -6.112  1.00  0.00     0.000 C 
BRANCH   2   3
ATOM      3  C   UNL     1      56.702  -0.429  -5.179  1.00  0.00     0.000 C 
BRANCH   3   4
ATOM      4  C   UNL     1      55.422  -0.816  -5.937  1.00  0.00     0.000 C 
BRANCH   4   5
ATOM      5  C   UNL     1      54.253  -1.155  -4.994  1.00  0.00     0.006 C 
BRANCH   5   6
ATOM      6  C   UNL     1      53.165  -1.978  -5.697  1.00  0.00     0.053 C 
BRANCH   6   7
ATOM      7  C   UNL     1      51.868  -1.940  -4.949  1.00  0.00     0.041 C 
ATOM      8  O   UNL     1      51.856  -2.036  -3.693  1.00  0.00    -0.550 OA
ATOM      9  O   UNL     1      50.673  -1.767  -5.636  1.00  0.00    -0.550 OA
ENDBRANCH   6   7
ENDBRANCH   5   6
ENDBRANCH   4   5
ENDBRANCH   3   4
ENDBRANCH   2   3
ENDBRANCH   1   2
BRANCH   1  10
ATOM     10  C   UNL     1      59.125  -2.087  -6.288  1.00  0.00     0.000 C 
BRANCH  10  11
ATOM     11  C   UNL     1      58.188  -3.117  -5.634  1.00  0.00    -0.000 C 
BRANCH  11  12
ATOM     12  C   UNL     1      58.935  -4.372  -5.148  1.00  0.00    -0.000 C 
BRANCH  12  13
ATOM     13  C   UNL     1      58.068  -5.261  -4.241  1.00  0.00    -0.000 C 
BRANCH  13  14
ATOM     14  C   UNL     1      58.855  -5.836  -3.050  1.00  0.00    -0.000 C 
BRANCH  14  15
ATOM     15  C   UNL     1      59.122  -4.788  -1.960  1.00  0.00    -0.003 C 
ATOM     16  C   UNL     1      59.015  -5.361  -0.546  1.00  0.00     0.004 C 
ENDBRANCH  14  15
ENDBRANCH  13  14
ENDBRANCH  12  13
ENDBRANCH  11  12
ENDBRANCH  10  11
ENDBRANCH   1  10
TORSDOF 12
ENDMDL
