MODEL 1
REMARK VINA RESULT:    -3.214      0.000      0.000
REMARK INTER + INTRA:          -8.236
REMARK INTER:                  -6.221
REMARK INTRA:                  -2.015
REMARK UNBOUND:                -2.015
REMARK SMILES CCCCCCCCCCCCCCCCCC(=O)[O-]
REMARK SMILES IDX 10 1 11 2 12 3 13 4 14 5 15 6 16 7 17 8 18 9 19 10 20 11
REMARK SMILES IDX 9 12 8 13 7 14 6 15 5 16 4 17 3 18 2 19 1 20
REMARK H PARENT
REMARK Flexibility Score: inf
ROOT
ATOM      1  C   UNL     1       6.637 -19.751   3.810  1.00  0.00     0.000 C 
ENDROOT
BRANCH   1   2
ATOM      2  C   UNL     1       6.449 -20.119   5.286  1.00  0.00     0.000 C 
BRANCH   2   3
ATOM      3  C   UNL     1       5.105 -19.600   5.816  1.00  0.00     0.000 C 
BRANCH   3   4
ATOM      4  C   UNL     1       3.923 -20.492   5.405  1.00  0.00     0.000 C 
BRANCH   4   5
ATOM      5  C   UNL     1       2.621 -19.696   5.207  1.00  0.00     0.000 C 
BRANCH   5   6
ATOM      6  C   UNL     1       2.891 -18.262   4.706  1.00  0.00     0.000 C 
BRANCH   6   7
ATOM      7  C   UNL     1       2.538 -18.042   3.222  1.00  0.00     0.006 C 
BRANCH   7   8
ATOM      8  C   UNL     1       3.665 -18.420   2.244  1.00  0.00     0.053 C 
BRANCH   8   9
ATOM      9  C   UNL     1       3.303 -19.578   1.361  1.00  0.00     0.041 C 
ATOM     10  O   UNL     1       3.898 -19.749   0.266  1.00  0.00    -0.550 OA
ATOM     11  O   UNL     1       2.262 -20.430   1.714  1.00  0.00    -0.550 OA
ENDBRANCH   8   9
ENDBRANCH   7   8
ENDBRANCH   6   7
ENDBRANCH   5   6
ENDBRANCH   4   5
ENDBRANCH   3   4
ENDBRANCH   2   3
ENDBRANCH   1   2
BRANCH   1  12
ATOM     12  C   UNL     1       8.125 -19.564   3.474  1.00  0.00     0.000 C 
BRANCH  12  13
ATOM     13  C   UNL     1       8.452 -18.138   3.004  1.00  0.00    -0.000 C 
BRANCH  13  14
ATOM     14  C   UNL     1       9.435 -17.417   3.938  1.00  0.00    -0.000 C 
BRANCH  14  15
ATOM     15  C   UNL     1       9.938 -18.359   5.039  1.00  0.00    -0.000 C 
BRANCH  15  16
ATOM     16  C   UNL     1       9.972 -17.648   6.400  1.00  0.00    -0.000 C 
BRANCH  16  17
ATOM     17  C   UNL     1       8.567 -17.515   7.026  1.00  0.00    -0.000 C 
BRANCH  17  18
ATOM     18  C   UNL     1       8.099 -16.056   7.189  1.00  0.00    -0.000 C 
BRANCH  18  19
ATOM     19  C   UNL     1       9.203 -15.002   7.004  1.00  0.00    -0.003 C 
ATOM     20  C   UNL     1       9.855 -14.587   8.322  1.00  0.00     0.004 C 
ENDBRANCH  18  19
ENDBRANCH  17  18
ENDBRANCH  16  17
ENDBRANCH  15  16
ENDBRANCH  14  15
ENDBRANCH  13  14
ENDBRANCH  12  13
ENDBRANCH   1  12
TORSDOF 16
ENDMDL
MODEL 2
REMARK VINA RESULT:    -3.099      3.020      7.121
REMARK INTER + INTRA:          -8.013
REMARK INTER:                  -6.005
REMARK INTRA:                  -2.008
REMARK UNBOUND:                -2.015
REMARK SMILES CCCCCCCCCCCCCCCCCC(=O)[O-]
REMARK SMILES IDX 10 1 11 2 12 3 13 4 14 5 15 6 16 7 17 8 18 9 19 10 20 11
REMARK SMILES IDX 9 12 8 13 7 14 6 15 5 16 4 17 3 18 2 19 1 20
REMARK H PARENT
REMARK Flexibility Score: inf
ROOT
ATOM      1  C   UNL     1       7.153 -19.424   3.649  1.00  0.00     0.000 C 
ENDROOT
BRANCH   1   2
ATOM      2  C   UNL     1       8.336 -18.996   4.525  1.00  0.00     0.000 C 
BRANCH   2   3
ATOM      3  C   UNL     1       9.038 -17.763   3.938  1.00  0.00     0.000 C 
BRANCH   3   4
ATOM      4  C   UNL     1      10.569 -17.857   4.024  1.00  0.00     0.000 C 
BRANCH   4   5
ATOM      5  C   UNL     1      11.202 -16.631   4.706  1.00  0.00     0.000 C 
BRANCH   5   6
ATOM      6  C   UNL     1      10.155 -15.543   5.023  1.00  0.00     0.000 C 
BRANCH   6   7
ATOM      7  C   UNL     1      10.026 -15.220   6.525  1.00  0.00     0.006 C 
BRANCH   7   8
ATOM      8  C   UNL     1       8.574 -15.096   7.019  1.00  0.00     0.053 C 
BRANCH   8   9
ATOM      9  C   UNL     1       8.042 -16.378   7.589  1.00  0.00     0.041 C 
ATOM     10  O   UNL     1       6.869 -16.433   8.040  1.00  0.00    -0.550 OA
ATOM     11  O   UNL     1       8.864 -17.495   7.686  1.00  0.00    -0.550 OA
ENDBRANCH   8   9
ENDBRANCH   7   8
ENDBRANCH   6   7
ENDBRANCH   5   6
ENDBRANCH   4   5
ENDBRANCH   3   4
ENDBRANCH   2   3
ENDBRANCH   1   2
BRANCH   1  12
ATOM     12  C   UNL     1       6.037 -20.050   4.498  1.00  0.00     0.000 C 
BRANCH  12  13
ATOM     13  C   UNL     1       6.222 -19.793   6.002  1.00  0.00    -0.000 C 
BRANCH  13  14
ATOM     14  C   UNL     1       4.969 -19.193   6.658  1.00  0.00    -0.000 C 
BRANCH  14  15
ATOM     15  C   UNL     1       3.693 -19.723   5.993  1.00  0.00    -0.000 C 
BRANCH  15  16
ATOM     16  C   UNL     1       2.786 -18.569   5.539  1.00  0.00    -0.000 C 
BRANCH  16  17
ATOM     17  C   UNL     1       2.310 -18.737   4.080  1.00  0.00    -0.000 C 
BRANCH  17  18
ATOM     18  C   UNL     1       2.922 -17.712   3.107  1.00  0.00    -0.000 C 
BRANCH  18  19
ATOM     19  C   UNL     1       3.889 -18.307   2.070  1.00  0.00    -0.003 C 
ATOM     20  C   UNL     1       3.553 -19.752   1.705  1.00  0.00     0.004 C 
ENDBRANCH  18  19
ENDBRANCH  17  18
ENDBRANCH  16  17
ENDBRANCH  15  16
ENDBRANCH  14  15
ENDBRANCH  13  14
ENDBRANCH  12  13
ENDBRANCH   1  12
TORSDOF 16
ENDMDL
MODEL 3
REMARK VINA RESULT:    -3.098      3.942      6.116
REMARK INTER + INTRA:          -8.011
REMARK INTER:                  -4.850
REMARK INTRA:                  -3.162
REMARK UNBOUND:                -2.015
REMARK SMILES CCCCCCCCCCCCCCCCCC(=O)[O-]
REMARK SMILES IDX 10 1 11 2 12 3 13 4 14 5 15 6 16 7 17 8 18 9 19 10 20 11
REMARK SMILES IDX 9 12 8 13 7 14 6 15 5 16 4 17 3 18 2 19 1 20
REMARK H PARENT
REMARK Flexibility Score: inf
ROOT
ATOM      1  C   UNL     1       8.449 -16.863   8.776  1.00  0.00     0.000 C 
ENDROOT
BRANCH   1   2
ATOM      2  C   UNL     1       9.095 -18.211   8.434  1.00  0.00     0.000 C 
BRANCH   2   3
ATOM      3  C   UNL     1      10.562 -18.250   8.885  1.00  0.00     0.000 C 
BRANCH   3   4
ATOM      4  C   UNL     1      11.535 -18.459   7.716  1.00  0.00     0.000 C 
BRANCH   4   5
ATOM      5  C   UNL     1      10.822 -18.518   6.353  1.00  0.00     0.000 C 
BRANCH   5   6
ATOM      6  C   UNL     1      11.322 -17.421   5.391  1.00  0.00     0.000 C 
BRANCH   6   7
ATOM      7  C   UNL     1      10.246 -16.906   4.416  1.00  0.00     0.006 C 
BRANCH   7   8
ATOM      8  C   UNL     1       8.959 -17.751   4.396  1.00  0.00     0.053 C 
BRANCH   8   9
ATOM      9  C   UNL     1       8.649 -18.306   3.037  1.00  0.00     0.041 C 
ATOM     10  O   UNL     1       7.718 -19.139   2.890  1.00  0.00    -0.550 OA
ATOM     11  O   UNL     1       9.432 -17.956   1.943  1.00  0.00    -0.550 OA
ENDBRANCH   8   9
ENDBRANCH   7   8
ENDBRANCH   6   7
ENDBRANCH   5   6
ENDBRANCH   4   5
ENDBRANCH   3   4
ENDBRANCH   2   3
ENDBRANCH   1   2
BRANCH   1  12
ATOM     12  C   UNL     1       7.945 -16.156   7.509  1.00  0.00     0.000 C 
BRANCH  12  13
ATOM     13  C   UNL     1       8.755 -14.895   7.172  1.00  0.00    -0.000 C 
BRANCH  13  14
ATOM     14  C   UNL     1       9.800 -14.558   8.247  1.00  0.00    -0.000 C 
BRANCH  14  15
ATOM     15  C   UNL     1      11.223 -14.685   7.688  1.00  0.00    -0.000 C 
BRANCH  15  16
ATOM     16  C   UNL     1      12.265 -14.240   8.725  1.00  0.00    -0.000 C 
BRANCH  16  17
ATOM     17  C   UNL     1      12.517 -15.319   9.801  1.00  0.00    -0.000 C 
BRANCH  17  18
ATOM     18  C   UNL     1      11.851 -15.008  11.156  1.00  0.00    -0.000 C 
BRANCH  18  19
ATOM     19  C   UNL     1      11.281 -16.234  11.888  1.00  0.00    -0.003 C 
ATOM     20  C   UNL     1       9.777 -16.132  12.134  1.00  0.00     0.004 C 
ENDBRANCH  18  19
ENDBRANCH  17  18
ENDBRANCH  16  17
ENDBRANCH  15  16
ENDBRANCH  14  15
ENDBRANCH  13  14
ENDBRANCH  12  13
ENDBRANCH   1  12
TORSDOF 16
ENDMDL
MODEL 4
REMARK VINA RESULT:    -3.096      3.510      6.252
REMARK INTER + INTRA:          -8.008
REMARK INTER:                  -5.321
REMARK INTRA:                  -2.687
REMARK UNBOUND:                -2.015
REMARK SMILES CCCCCCCCCCCCCCCCCC(=O)[O-]
REMARK SMILES IDX 10 1 11 2 12 3 13 4 14 5 15 6 16 7 17 8 18 9 19 10 20 11
REMARK SMILES IDX 9 12 8 13 7 14 6 15 5 16 4 17 3 18 2 19 1 20
REMARK H PARENT
REMARK Flexibility Score: inf
ROOT
ATOM      1  C   UNL     1      11.004 -17.483   9.996  1.00  0.00     0.000 C 
ENDROOT
BRANCH   1   2
ATOM      2  C   UNL     1      10.990 -16.032   9.500  1.00  0.00     0.000 C 
BRANCH   2   3
ATOM      3  C   UNL     1       9.558 -15.566   9.202  1.00  0.00     0.000 C 
BRANCH   3   4
ATOM      4  C   UNL     1       9.494 -14.550   8.052  1.00  0.00     0.000 C 
BRANCH   4   5
ATOM      5  C   UNL     1       9.909 -15.157   6.699  1.00  0.00     0.000 C 
BRANCH   5   6
ATOM      6  C   UNL     1       8.949 -16.279   6.251  1.00  0.00     0.000 C 
BRANCH   6   7
ATOM      7  C   UNL     1       9.658 -17.495   5.627  1.00  0.00     0.006 C 
BRANCH   7   8
ATOM      8  C   UNL     1       8.704 -18.525   4.995  1.00  0.00     0.053 C 
BRANCH   8   9
ATOM      9  C   UNL     1       8.485 -18.291   3.529  1.00  0.00     0.041 C 
ATOM     10  O   UNL     1       7.569 -18.902   2.920  1.00  0.00    -0.550 OA
ATOM     11  O   UNL     1       9.336 -17.451   2.819  1.00  0.00    -0.550 OA
ENDBRANCH   8   9
ENDBRANCH   7   8
ENDBRANCH   6   7
ENDBRANCH   5   6
ENDBRANCH   4   5
ENDBRANCH   3   4
ENDBRANCH   2   3
ENDBRANCH   1   2
BRANCH   1  12
ATOM     12  C   UNL     1      10.297 -18.413   8.998  1.00  0.00     0.000 C 
BRANCH  12  13
ATOM     13  C   UNL     1       9.166 -19.227   9.647  1.00  0.00    -0.000 C 
BRANCH  13  14
ATOM     14  C   UNL     1       7.842 -19.121   8.875  1.00  0.00    -0.000 C 
BRANCH  14  15
ATOM     15  C   UNL     1       7.016 -17.924   9.362  1.00  0.00    -0.000 C 
BRANCH  15  16
ATOM     16  C   UNL     1       6.128 -17.372   8.237  1.00  0.00    -0.000 C 
BRANCH  16  17
ATOM     17  C   UNL     1       5.833 -15.866   8.410  1.00  0.00    -0.000 C 
BRANCH  17  18
ATOM     18  C   UNL     1       4.698 -15.350   7.505  1.00  0.00    -0.000 C 
BRANCH  18  19
ATOM     19  C   UNL     1       4.789 -13.857   7.148  1.00  0.00    -0.003 C 
ATOM     20  C   UNL     1       6.203 -13.422   6.766  1.00  0.00     0.004 C 
ENDBRANCH  18  19
ENDBRANCH  17  18
ENDBRANCH  16  17
ENDBRANCH  15  16
ENDBRANCH  14  15
ENDBRANCH  13  14
ENDBRANCH  12  13
ENDBRANCH   1  12
TORSDOF 16
ENDMDL
MODEL 5
REMARK VINA RESULT:    -3.090      3.402      7.598
REMARK INTER + INTRA:          -7.996
REMARK INTER:                  -5.815
REMARK INTRA:                  -2.181
REMARK UNBOUND:                -2.015
REMARK SMILES CCCCCCCCCCCCCCCCCC(=O)[O-]
REMARK SMILES IDX 10 1 11 2 12 3 13 4 14 5 15 6 16 7 17 8 18 9 19 10 20 11
REMARK SMILES IDX 9 12 8 13 7 14 6 15 5 16 4 17 3 18 2 19 1 20
REMARK H PARENT
REMARK Flexibility Score: inf
ROOT
ATOM      1  C   UNL     1       5.775 -19.871   5.828  1.00  0.00     0.000 C 
ENDROOT
BRANCH   1   2
ATOM      2  C   UNL     1       5.927 -20.651   4.517  1.00  0.00     0.000 C 
BRANCH   2   3
ATOM      3  C   UNL     1       7.281 -20.360   3.855  1.00  0.00     0.000 C 
BRANCH   3   4
ATOM      4  C   UNL     1       7.416 -18.899   3.400  1.00  0.00     0.000 C 
BRANCH   4   5
ATOM      5  C   UNL     1       8.878 -18.419   3.370  1.00  0.00     0.000 C 
BRANCH   5   6
ATOM      6  C   UNL     1       9.544 -18.508   4.759  1.00  0.00     0.000 C 
BRANCH   6   7
ATOM      7  C   UNL     1       9.023 -17.467   5.768  1.00  0.00     0.006 C 
BRANCH   7   8
ATOM      8  C   UNL     1       9.569 -16.045   5.545  1.00  0.00     0.053 C 
BRANCH   8   9
ATOM      9  C   UNL     1       9.243 -15.114   6.675  1.00  0.00     0.041 C 
ATOM     10  O   UNL     1       8.092 -14.616   6.773  1.00  0.00    -0.550 OA
ATOM     11  O   UNL     1      10.229 -14.740   7.581  1.00  0.00    -0.550 OA
ENDBRANCH   8   9
ENDBRANCH   7   8
ENDBRANCH   6   7
ENDBRANCH   5   6
ENDBRANCH   4   5
ENDBRANCH   3   4
ENDBRANCH   2   3
ENDBRANCH   1   2
BRANCH   1  12
ATOM     12  C   UNL     1       4.299 -19.553   6.112  1.00  0.00     0.000 C 
BRANCH  12  13
ATOM     13  C   UNL     1       3.434 -19.573   4.842  1.00  0.00    -0.000 C 
BRANCH  13  14
ATOM     14  C   UNL     1       2.739 -18.228   4.578  1.00  0.00    -0.000 C 
BRANCH  14  15
ATOM     15  C   UNL     1       2.683 -17.924   3.076  1.00  0.00    -0.000 C 
BRANCH  15  16
ATOM     16  C   UNL     1       3.919 -18.481   2.354  1.00  0.00    -0.000 C 
BRANCH  16  17
ATOM     17  C   UNL     1       3.544 -19.332   1.122  1.00  0.00    -0.000 C 
BRANCH  17  18
ATOM     18  C   UNL     1       3.421 -20.838   1.424  1.00  0.00    -0.000 C 
BRANCH  18  19
ATOM     19  C   UNL     1       2.014 -21.423   1.217  1.00  0.00    -0.003 C 
ATOM     20  C   UNL     1       1.154 -21.362   2.478  1.00  0.00     0.004 C 
ENDBRANCH  18  19
ENDBRANCH  17  18
ENDBRANCH  16  17
ENDBRANCH  15  16
ENDBRANCH  14  15
ENDBRANCH  13  14
ENDBRANCH  12  13
ENDBRANCH   1  12
TORSDOF 16
ENDMDL
MODEL 6
REMARK VINA RESULT:    -3.071      3.208      6.834
REMARK INTER + INTRA:          -7.958
REMARK INTER:                  -6.138
REMARK INTRA:                  -1.820
REMARK UNBOUND:                -2.015
REMARK SMILES CCCCCCCCCCCCCCCCCC(=O)[O-]
REMARK SMILES IDX 10 1 11 2 12 3 13 4 14 5 15 6 16 7 17 8 18 9 19 10 20 11
REMARK SMILES IDX 9 12 8 13 7 14 6 15 5 16 4 17 3 18 2 19 1 20
REMARK H PARENT
REMARK Flexibility Score: inf
ROOT
ATOM      1  C   UNL     1       5.839 -19.789   3.823  1.00  0.00     0.000 C 
ENDROOT
BRANCH   1   2
ATOM      2  C   UNL     1       7.003 -20.510   4.511  1.00  0.00     0.000 C 
BRANCH   2   3
ATOM      3  C   UNL     1       8.272 -19.645   4.500  1.00  0.00     0.000 C 
BRANCH   3   4
ATOM      4  C   UNL     1       8.348 -18.723   3.274  1.00  0.00     0.000 C 
BRANCH   4   5
ATOM      5  C   UNL     1       9.228 -17.483   3.518  1.00  0.00     0.000 C 
BRANCH   5   6
ATOM      6  C   UNL     1       9.347 -17.146   5.019  1.00  0.00     0.000 C 
BRANCH   6   7
ATOM      7  C   UNL     1      10.021 -15.790   5.303  1.00  0.00     0.006 C 
BRANCH   7   8
ATOM      8  C   UNL     1       9.894 -15.317   6.763  1.00  0.00     0.053 C 
BRANCH   8   9
ATOM      9  C   UNL     1       8.468 -15.201   7.214  1.00  0.00     0.041 C 
ATOM     10  O   UNL     1       7.972 -16.071   7.976  1.00  0.00    -0.550 OA
ATOM     11  O   UNL     1       7.664 -14.172   6.738  1.00  0.00    -0.550 OA
ENDBRANCH   8   9
ENDBRANCH   7   8
ENDBRANCH   6   7
ENDBRANCH   5   6
ENDBRANCH   4   5
ENDBRANCH   3   4
ENDBRANCH   2   3
ENDBRANCH   1   2
BRANCH   1  12
ATOM     12  C   UNL     1       4.940 -20.784   3.074  1.00  0.00     0.000 C 
BRANCH  12  13
ATOM     13  C   UNL     1       3.843 -20.089   2.252  1.00  0.00    -0.000 C 
BRANCH  13  14
ATOM     14  C   UNL     1       3.958 -18.557   2.287  1.00  0.00    -0.000 C 
BRANCH  14  15
ATOM     15  C   UNL     1       2.786 -17.936   3.058  1.00  0.00    -0.000 C 
BRANCH  15  16
ATOM     16  C   UNL     1       1.830 -19.021   3.576  1.00  0.00    -0.000 C 
BRANCH  16  17
ATOM     17  C   UNL     1       1.898 -19.178   5.110  1.00  0.00    -0.000 C 
BRANCH  17  18
ATOM     18  C   UNL     1       2.804 -18.138   5.798  1.00  0.00    -0.000 C 
BRANCH  18  19
ATOM     19  C   UNL     1       3.898 -18.734   6.699  1.00  0.00    -0.003 C 
ATOM     20  C   UNL     1       3.452 -20.010   7.411  1.00  0.00     0.004 C 
ENDBRANCH  18  19
ENDBRANCH  17  18
ENDBRANCH  16  17
ENDBRANCH  15  16
ENDBRANCH  14  15
ENDBRANCH  13  14
ENDBRANCH  12  13
ENDBRANCH   1  12
TORSDOF 16
ENDMDL
MODEL 7
REMARK VINA RESULT:    -3.052      2.969      7.009
REMARK INTER + INTRA:          -7.922
REMARK INTER:                  -5.081
REMARK INTRA:                  -2.841
REMARK UNBOUND:                -2.015
REMARK SMILES CCCCCCCCCCCCCCCCCC(=O)[O-]
REMARK SMILES IDX 10 1 11 2 12 3 13 4 14 5 15 6 16 7 17 8 18 9 19 10 20 11
REMARK SMILES IDX 9 12 8 13 7 14 6 15 5 16 4 17 3 18 2 19 1 20
REMARK H PARENT
REMARK Flexibility Score: inf
ROOT
ATOM      1  C   UNL     1       3.108 -19.938   6.029  1.00  0.00     0.000 C 
ENDROOT
BRANCH   1   2
ATOM      2  C   UNL     1       4.337 -19.336   6.719  1.00  0.00     0.000 C 
BRANCH   2   3
ATOM      3  C   UNL     1       5.632 -19.972   6.192  1.00  0.00     0.000 C 
BRANCH   3   4
ATOM      4  C   UNL     1       5.369 -21.186   5.288  1.00  0.00     0.000 C 
BRANCH   4   5
ATOM      5  C   UNL     1       6.107 -21.092   3.940  1.00  0.00     0.000 C 
BRANCH   5   6
ATOM      6  C   UNL     1       6.710 -19.691   3.709  1.00  0.00     0.000 C 
BRANCH   6   7
ATOM      7  C   UNL     1       8.246 -19.685   3.584  1.00  0.00     0.006 C 
BRANCH   7   8
ATOM      8  C   UNL     1       8.939 -18.574   4.393  1.00  0.00     0.053 C 
BRANCH   8   9
ATOM      9  C   UNL     1       9.388 -17.426   3.537  1.00  0.00     0.041 C 
ATOM     10  O   UNL     1      10.112 -16.519   4.023  1.00  0.00    -0.550 OA
ATOM     11  O   UNL     1       8.952 -17.321   2.221  1.00  0.00    -0.550 OA
ENDBRANCH   8   9
ENDBRANCH   7   8
ENDBRANCH   6   7
ENDBRANCH   5   6
ENDBRANCH   4   5
ENDBRANCH   3   4
ENDBRANCH   2   3
ENDBRANCH   1   2
BRANCH   1  12
ATOM     12  C   UNL     1       2.210 -18.837   5.443  1.00  0.00     0.000 C 
BRANCH  12  13
ATOM     13  C   UNL     1       2.970 -17.895   4.497  1.00  0.00    -0.000 C 
BRANCH  13  14
ATOM     14  C   UNL     1       2.524 -18.039   3.033  1.00  0.00    -0.000 C 
BRANCH  14  15
ATOM     15  C   UNL     1       3.706 -18.421   2.134  1.00  0.00    -0.000 C 
BRANCH  15  16
ATOM     16  C   UNL     1       3.573 -19.867   1.632  1.00  0.00    -0.000 C 
BRANCH  16  17
ATOM     17  C   UNL     1       2.154 -20.435   1.854  1.00  0.00    -0.000 C 
BRANCH  17  18
ATOM     18  C   UNL     1       2.112 -21.633   2.821  1.00  0.00    -0.000 C 
BRANCH  18  19
ATOM     19  C   UNL     1       0.770 -21.827   3.547  1.00  0.00    -0.003 C 
ATOM     20  C   UNL     1      -0.159 -20.622   3.409  1.00  0.00     0.004 C 
ENDBRANCH  18  19
ENDBRANCH  17  18
ENDBRANCH  16  17
ENDBRANCH  15  16
ENDBRANCH  14  15
ENDBRANCH  13  14
ENDBRANCH  12  13
ENDBRANCH   1  12
TORSDOF 16
ENDMDL
MODEL 8
REMARK VINA RESULT:    -3.036      3.246      6.591
REMARK INTER + INTRA:          -7.892
REMARK INTER:                  -5.228
REMARK INTRA:                  -2.663
REMARK UNBOUND:                -2.015
REMARK SMILES CCCCCCCCCCCCCCCCCC(=O)[O-]
REMARK SMILES IDX 10 1 11 2 12 3 13 4 14 5 15 6 16 7 17 8 18 9 19 10 20 11
REMARK SMILES IDX 9 12 8 13 7 14 6 15 5 16 4 17 3 18 2 19 1 20
REMARK H PARENT
REMARK Flexibility Score: inf
ROOT
ATOM      1  C   UNL     1       3.643 -20.978   1.449  1.00  0.00     0.000 C 
ENDROOT
BRANCH   1   2
ATOM      2  C   UNL     1       2.597 -21.686   2.317  1.00  0.00     0.000 C 
BRANCH   2   3
ATOM      3  C   UNL     1       3.182 -22.065   3.685  1.00  0.00     0.000 C 
BRANCH   3   4
ATOM      4  C   UNL     1       4.702 -21.858   3.757  1.00  0.00     0.000 C 
BRANCH   4   5
ATOM      5  C   UNL     1       5.151 -21.210   5.079  1.00  0.00     0.000 C 
BRANCH   5   6
ATOM      6  C   UNL     1       5.959 -19.917   4.843  1.00  0.00     0.000 C 
BRANCH   6   7
ATOM      7  C   UNL     1       7.270 -20.135   4.062  1.00  0.00     0.006 C 
BRANCH   7   8
ATOM      8  C   UNL     1       7.743 -18.901   3.271  1.00  0.00     0.053 C 
BRANCH   8   9
ATOM      9  C   UNL     1       8.889 -18.193   3.932  1.00  0.00     0.041 C 
ATOM     10  O   UNL     1       8.932 -18.091   5.185  1.00  0.00    -0.550 OA
ATOM     11  O   UNL     1       9.874 -17.586   3.162  1.00  0.00    -0.550 OA
ENDBRANCH   8   9
ENDBRANCH   7   8
ENDBRANCH   6   7
ENDBRANCH   5   6
ENDBRANCH   4   5
ENDBRANCH   3   4
ENDBRANCH   2   3
ENDBRANCH   1   2
BRANCH   1  12
ATOM     12  C   UNL     1       3.253 -19.512   1.203  1.00  0.00     0.000 C 
BRANCH  12  13
ATOM     13  C   UNL     1       3.920 -18.547   2.194  1.00  0.00    -0.000 C 
BRANCH  13  14
ATOM     14  C   UNL     1       2.901 -17.737   3.010  1.00  0.00    -0.000 C 
BRANCH  14  15
ATOM     15  C   UNL     1       2.320 -18.578   4.154  1.00  0.00    -0.000 C 
BRANCH  15  16
ATOM     16  C   UNL     1       2.851 -18.101   5.514  1.00  0.00    -0.000 C 
BRANCH  16  17
ATOM     17  C   UNL     1       2.206 -18.861   6.693  1.00  0.00    -0.000 C 
BRANCH  17  18
ATOM     18  C   UNL     1       1.441 -20.129   6.267  1.00  0.00    -0.000 C 
BRANCH  18  19
ATOM     19  C   UNL     1      -0.075 -20.082   6.522  1.00  0.00    -0.003 C 
ATOM     20  C   UNL     1      -0.895 -20.531   5.314  1.00  0.00     0.004 C 
ENDBRANCH  18  19
ENDBRANCH  17  18
ENDBRANCH  16  17
ENDBRANCH  15  16
ENDBRANCH  14  15
ENDBRANCH  13  14
ENDBRANCH  12  13
ENDBRANCH   1  12
TORSDOF 16
ENDMDL
MODEL 9
REMARK VINA RESULT:    -3.026      2.514      6.659
REMARK INTER + INTRA:          -7.871
REMARK INTER:                  -5.991
REMARK INTRA:                  -1.880
REMARK UNBOUND:                -2.015
REMARK SMILES CCCCCCCCCCCCCCCCCC(=O)[O-]
REMARK SMILES IDX 10 1 11 2 12 3 13 4 14 5 15 6 16 7 17 8 18 9 19 10 20 11
REMARK SMILES IDX 9 12 8 13 7 14 6 15 5 16 4 17 3 18 2 19 1 20
REMARK H PARENT
REMARK Flexibility Score: inf
ROOT
ATOM      1  C   UNL     1       6.953 -15.512   7.478  1.00  0.00     0.000 C 
ENDROOT
BRANCH   1   2
ATOM      2  C   UNL     1       8.115 -14.653   6.966  1.00  0.00     0.000 C 
BRANCH   2   3
ATOM      3  C   UNL     1       9.429 -15.032   7.663  1.00  0.00     0.000 C 
BRANCH   3   4
ATOM      4  C   UNL     1      10.559 -15.342   6.669  1.00  0.00     0.000 C 
BRANCH   4   5
ATOM      5  C   UNL     1      10.066 -15.404   5.212  1.00  0.00     0.000 C 
BRANCH   5   6
ATOM      6  C   UNL     1      10.347 -16.777   4.566  1.00  0.00     0.000 C 
BRANCH   6   7
ATOM      7  C   UNL     1       9.186 -17.780   4.702  1.00  0.00     0.006 C 
BRANCH   7   8
ATOM      8  C   UNL     1       8.566 -18.211   3.360  1.00  0.00     0.053 C 
BRANCH   8   9
ATOM      9  C   UNL     1       9.527 -18.971   2.494  1.00  0.00     0.041 C 
ATOM     10  O   UNL     1       9.873 -20.140   2.807  1.00  0.00    -0.550 OA
ATOM     11  O   UNL     1      10.094 -18.366   1.378  1.00  0.00    -0.550 OA
ENDBRANCH   8   9
ENDBRANCH   7   8
ENDBRANCH   6   7
ENDBRANCH   5   6
ENDBRANCH   4   5
ENDBRANCH   3   4
ENDBRANCH   2   3
ENDBRANCH   1   2
BRANCH   1  12
ATOM     12  C   UNL     1       7.452 -16.883   7.960  1.00  0.00     0.000 C 
BRANCH  12  13
ATOM     13  C   UNL     1       6.366 -17.968   7.888  1.00  0.00    -0.000 C 
BRANCH  13  14
ATOM     14  C   UNL     1       6.902 -19.309   7.364  1.00  0.00    -0.000 C 
BRANCH  14  15
ATOM     15  C   UNL     1       6.127 -19.762   6.121  1.00  0.00    -0.000 C 
BRANCH  15  16
ATOM     16  C   UNL     1       4.729 -19.127   6.081  1.00  0.00    -0.000 C 
BRANCH  16  17
ATOM     17  C   UNL     1       3.931 -19.546   4.826  1.00  0.00    -0.000 C 
BRANCH  17  18
ATOM     18  C   UNL     1       2.699 -18.664   4.554  1.00  0.00    -0.000 C 
BRANCH  18  19
ATOM     19  C   UNL     1       2.611 -18.105   3.124  1.00  0.00    -0.003 C 
ATOM     20  C   UNL     1       3.878 -18.358   2.308  1.00  0.00     0.004 C 
ENDBRANCH  18  19
ENDBRANCH  17  18
ENDBRANCH  16  17
ENDBRANCH  15  16
ENDBRANCH  14  15
ENDBRANCH  13  14
ENDBRANCH  12  13
ENDBRANCH   1  12
TORSDOF 16
ENDMDL
