MODEL 1
REMARK VINA RESULT:    -5.764      0.000      0.000
REMARK INTER + INTRA:          -7.235
REMARK INTER:                  -6.943
REMARK INTRA:                  -0.291
REMARK UNBOUND:                -0.291
REMARK SMILES O=c1c(O)c(-c2ccc(O)c(O)c2)oc2cc(O)cc(O)c12
REMARK SMILES IDX 5 1 3 2 2 3 1 4 22 5 20 6 19 7 17 8 16 9 15 10 14 11 6 12
REMARK SMILES IDX 7 13 8 14 9 15 13 16 11 17 10 18 12 20 4 22 21 24 18 26
REMARK H PARENT 10 19 12 21 4 23 21 25 18 27
REMARK Flexibility Score: inf
ROOT
ATOM      1  C   UNL     1       4.723   4.527  -3.568  1.00  0.00     0.180 A 
ATOM      2  C   UNL     1       5.300   3.272  -3.294  1.00  0.00     0.208 A 
ATOM      3  C   UNL     1       5.290   2.288  -4.295  1.00  0.00     0.238 A 
ATOM      4  O   UNL     1       5.815   1.164  -4.065  1.00  0.00    -0.285 OA
ATOM      5  C   UNL     1       4.688   2.566  -5.539  1.00  0.00     0.111 A 
ATOM      6  C   UNL     1       4.631   1.628  -6.599  1.00  0.00     0.134 A 
ATOM      7  C   UNL     1       4.006   1.977  -7.805  1.00  0.00     0.093 A 
ATOM      8  C   UNL     1       3.436   3.241  -7.971  1.00  0.00     0.123 A 
ATOM      9  C   UNL     1       3.488   4.172  -6.928  1.00  0.00     0.094 A 
ATOM     10  C   UNL     1       4.109   3.844  -5.720  1.00  0.00     0.146 A 
ATOM     11  O   UNL     1       4.150   4.748  -4.748  1.00  0.00    -0.452 OA
ENDROOT
BRANCH   1  12
ATOM     12  C   UNL     1       4.711   5.622  -2.571  1.00  0.00     0.025 A 
ATOM     13  C   UNL     1       5.684   6.630  -2.639  1.00  0.00     0.016 A 
ATOM     14  C   UNL     1       5.704   7.660  -1.697  1.00  0.00     0.051 A 
ATOM     15  C   UNL     1       4.764   7.691  -0.663  1.00  0.00     0.157 A 
ATOM     16  C   UNL     1       3.778   5.642  -1.518  1.00  0.00     0.062 A 
ATOM     17  C   UNL     1       3.798   6.676  -0.569  1.00  0.00     0.158 A 
BRANCH  15  18
ATOM     18  O   UNL     1       4.807   8.734   0.262  1.00  0.00    -0.504 OA
ATOM     19  H   UNL     1       5.668   9.217   0.490  1.00  0.00     0.293 HD
ENDBRANCH  15  18
BRANCH  17  20
ATOM     20  O   UNL     1       2.866   6.692   0.468  1.00  0.00    -0.504 OA
ATOM     21  H   UNL     1       2.847   5.967   1.177  1.00  0.00     0.293 HD
ENDBRANCH  17  20
ENDBRANCH   1  12
BRANCH   2  22
ATOM     22  O   UNL     1       5.848   3.005  -2.037  1.00  0.00    -0.502 OA
ATOM     23  H   UNL     1       6.838   2.850  -1.898  1.00  0.00     0.293 HD
ENDBRANCH   2  22
BRANCH   6  24
ATOM     24  O   UNL     1       5.191   0.357  -6.463  1.00  0.00    -0.507 OA
ATOM     25  H   UNL     1       5.106  -0.173  -5.603  1.00  0.00     0.293 HD
ENDBRANCH   6  24
BRANCH   8  26
ATOM     26  O   UNL     1       2.818   3.563  -9.178  1.00  0.00    -0.508 OA
ATOM     27  H   UNL     1       1.813   3.502  -9.293  1.00  0.00     0.293 HD
ENDBRANCH   8  26
TORSDOF 6
ENDMDL
MODEL 2
REMARK VINA RESULT:    -5.277     14.346     16.145
REMARK INTER + INTRA:          -6.648
REMARK INTER:                  -6.316
REMARK INTRA:                  -0.332
REMARK UNBOUND:                -0.291
REMARK SMILES O=c1c(O)c(-c2ccc(O)c(O)c2)oc2cc(O)cc(O)c12
REMARK SMILES IDX 5 1 3 2 2 3 1 4 22 5 20 6 19 7 17 8 16 9 15 10 14 11 6 12
REMARK SMILES IDX 7 13 8 14 9 15 13 16 11 17 10 18 12 20 4 22 21 24 18 26
REMARK H PARENT 10 19 12 21 4 23 21 25 18 27
REMARK Flexibility Score: inf
ROOT
ATOM      1  C   UNL     1      -1.301  -5.411   6.048  1.00  0.00     0.180 A 
ATOM      2  C   UNL     1      -1.419  -4.923   7.363  1.00  0.00     0.208 A 
ATOM      3  C   UNL     1      -0.272  -4.865   8.170  1.00  0.00     0.238 A 
ATOM      4  O   UNL     1      -0.364  -4.419   9.346  1.00  0.00    -0.285 OA
ATOM      5  C   UNL     1       0.963  -5.312   7.658  1.00  0.00     0.111 A 
ATOM      6  C   UNL     1       2.165  -5.291   8.407  1.00  0.00     0.134 A 
ATOM      7  C   UNL     1       3.353  -5.763   7.830  1.00  0.00     0.093 A 
ATOM      8  C   UNL     1       3.364  -6.255   6.523  1.00  0.00     0.123 A 
ATOM      9  C   UNL     1       2.180  -6.278   5.778  1.00  0.00     0.094 A 
ATOM     10  C   UNL     1       0.986  -5.811   6.335  1.00  0.00     0.146 A 
ATOM     11  O   UNL     1      -0.123  -5.838   5.604  1.00  0.00    -0.452 OA
ENDROOT
BRANCH   1  12
ATOM     12  C   UNL     1      -2.461  -5.486   5.129  1.00  0.00     0.025 A 
ATOM     13  C   UNL     1      -3.204  -6.674   5.051  1.00  0.00     0.016 A 
ATOM     14  C   UNL     1      -4.289  -6.774   4.177  1.00  0.00     0.051 A 
ATOM     15  C   UNL     1      -4.638  -5.697   3.357  1.00  0.00     0.157 A 
ATOM     16  C   UNL     1      -2.800  -4.410   4.288  1.00  0.00     0.062 A 
ATOM     17  C   UNL     1      -3.888  -4.510   3.408  1.00  0.00     0.158 A 
BRANCH  15  18
ATOM     18  O   UNL     1      -5.727  -5.825   2.495  1.00  0.00    -0.504 OA
ATOM     19  H   UNL     1      -6.239  -6.694   2.400  1.00  0.00     0.293 HD
ENDBRANCH  15  18
BRANCH  17  20
ATOM     20  O   UNL     1      -4.221  -3.437   2.582  1.00  0.00    -0.504 OA
ATOM     21  H   UNL     1      -5.149  -3.028   2.590  1.00  0.00     0.293 HD
ENDBRANCH  17  20
ENDBRANCH   1  12
BRANCH   2  22
ATOM     22  O   UNL     1      -2.664  -4.531   7.863  1.00  0.00    -0.502 OA
ATOM     23  H   UNL     1      -3.536  -4.854   7.464  1.00  0.00     0.293 HD
ENDBRANCH   2  22
BRANCH   6  24
ATOM     24  O   UNL     1       2.187  -4.807   9.716  1.00  0.00    -0.507 OA
ATOM     25  H   UNL     1       3.041  -4.783  10.261  1.00  0.00     0.293 HD
ENDBRANCH   6  24
BRANCH   8  26
ATOM     26  O   UNL     1       4.556  -6.719   5.973  1.00  0.00    -0.508 OA
ATOM     27  H   UNL     1       5.192  -7.304   6.503  1.00  0.00     0.293 HD
ENDBRANCH   8  26
TORSDOF 6
ENDMDL
MODEL 3
REMARK VINA RESULT:    -5.270     10.758     11.945
REMARK INTER + INTRA:          -6.639
REMARK INTER:                  -6.318
REMARK INTRA:                  -0.322
REMARK UNBOUND:                -0.291
REMARK SMILES O=c1c(O)c(-c2ccc(O)c(O)c2)oc2cc(O)cc(O)c12
REMARK SMILES IDX 5 1 3 2 2 3 1 4 22 5 20 6 19 7 17 8 16 9 15 10 14 11 6 12
REMARK SMILES IDX 7 13 8 14 9 15 13 16 11 17 10 18 12 20 4 22 21 24 18 26
REMARK H PARENT 10 19 12 21 4 23 21 25 18 27
REMARK Flexibility Score: inf
ROOT
ATOM      1  C   UNL     1      -6.870   3.137  -4.371  1.00  0.00     0.180 A 
ATOM      2  C   UNL     1      -5.927   3.695  -5.256  1.00  0.00     0.208 A 
ATOM      3  C   UNL     1      -5.948   3.305  -6.604  1.00  0.00     0.238 A 
ATOM      4  O   UNL     1      -5.116   3.807  -7.408  1.00  0.00    -0.285 OA
ATOM      5  C   UNL     1      -6.892   2.351  -7.038  1.00  0.00     0.111 A 
ATOM      6  C   UNL     1      -6.977   1.900  -8.378  1.00  0.00     0.134 A 
ATOM      7  C   UNL     1      -7.938   0.942  -8.731  1.00  0.00     0.093 A 
ATOM      8  C   UNL     1      -8.813   0.426  -7.773  1.00  0.00     0.123 A 
ATOM      9  C   UNL     1      -8.734   0.866  -6.448  1.00  0.00     0.094 A 
ATOM     10  C   UNL     1      -7.785   1.822  -6.077  1.00  0.00     0.146 A 
ATOM     11  O   UNL     1      -7.735   2.229  -4.813  1.00  0.00    -0.452 OA
ENDROOT
BRANCH   1  12
ATOM     12  C   UNL     1      -6.923   3.512  -2.939  1.00  0.00     0.025 A 
ATOM     13  C   UNL     1      -7.649   4.648  -2.549  1.00  0.00     0.016 A 
ATOM     14  C   UNL     1      -7.696   5.032  -1.207  1.00  0.00     0.051 A 
ATOM     15  C   UNL     1      -7.006   4.298  -0.238  1.00  0.00     0.157 A 
ATOM     16  C   UNL     1      -6.213   2.787  -1.965  1.00  0.00     0.062 A 
ATOM     17  C   UNL     1      -6.257   3.172  -0.617  1.00  0.00     0.158 A 
BRANCH  15  18
ATOM     18  O   UNL     1      -7.073   4.704   1.095  1.00  0.00    -0.504 OA
ATOM     19  H   UNL     1      -7.632   5.496   1.390  1.00  0.00     0.293 HD
ENDBRANCH  15  18
BRANCH  17  20
ATOM     20  O   UNL     1      -5.555   2.444   0.343  1.00  0.00    -0.504 OA
ATOM     21  H   UNL     1      -5.920   1.579   0.726  1.00  0.00     0.293 HD
ENDBRANCH  17  20
ENDBRANCH   1  12
BRANCH   2  22
ATOM     22  O   UNL     1      -4.971   4.602  -4.790  1.00  0.00    -0.502 OA
ATOM     23  H   UNL     1      -4.934   5.562  -5.106  1.00  0.00     0.293 HD
ENDBRANCH   2  22
BRANCH   6  24
ATOM     24  O   UNL     1      -6.116   2.397  -9.358  1.00  0.00    -0.507 OA
ATOM     25  H   UNL     1      -5.475   1.793  -9.859  1.00  0.00     0.293 HD
ENDBRANCH   6  24
BRANCH   8  26
ATOM     26  O   UNL     1      -9.758  -0.527  -8.148  1.00  0.00    -0.508 OA
ATOM     27  H   UNL     1      -9.491  -1.477  -8.380  1.00  0.00     0.293 HD
ENDBRANCH   8  26
TORSDOF 6
ENDMDL
MODEL 4
REMARK VINA RESULT:    -5.263     14.247     16.162
REMARK INTER + INTRA:          -6.632
REMARK INTER:                  -6.325
REMARK INTRA:                  -0.307
REMARK UNBOUND:                -0.291
REMARK SMILES O=c1c(O)c(-c2ccc(O)c(O)c2)oc2cc(O)cc(O)c12
REMARK SMILES IDX 5 1 3 2 2 3 1 4 22 5 20 6 19 7 17 8 16 9 15 10 14 11 6 12
REMARK SMILES IDX 7 13 8 14 9 15 13 16 11 17 10 18 12 20 4 22 21 24 18 26
REMARK H PARENT 10 19 12 21 4 23 21 25 18 27
REMARK Flexibility Score: inf
ROOT
ATOM      1  C   UNL     1      -2.617  -5.216   5.202  1.00  0.00     0.180 A 
ATOM      2  C   UNL     1      -3.076  -4.901   6.495  1.00  0.00     0.208 A 
ATOM      3  C   UNL     1      -2.144  -4.811   7.542  1.00  0.00     0.238 A 
ATOM      4  O   UNL     1      -2.542  -4.517   8.702  1.00  0.00    -0.285 OA
ATOM      5  C   UNL     1      -0.780  -5.057   7.283  1.00  0.00     0.111 A 
ATOM      6  C   UNL     1       0.222  -4.991   8.283  1.00  0.00     0.134 A 
ATOM      7  C   UNL     1       1.557  -5.258   7.948  1.00  0.00     0.093 A 
ATOM      8  C   UNL     1       1.910  -5.591   6.639  1.00  0.00     0.123 A 
ATOM      9  C   UNL     1       0.926  -5.658   5.648  1.00  0.00     0.094 A 
ATOM     10  C   UNL     1      -0.410  -5.393   5.960  1.00  0.00     0.146 A 
ATOM     11  O   UNL     1      -1.325  -5.457   4.999  1.00  0.00    -0.452 OA
ENDROOT
BRANCH   1  12
ATOM     12  C   UNL     1      -3.534  -5.312   4.044  1.00  0.00     0.025 A 
ATOM     13  C   UNL     1      -4.234  -6.506   3.812  1.00  0.00     0.016 A 
ATOM     14  C   UNL     1      -5.088  -6.625   2.714  1.00  0.00     0.051 A 
ATOM     15  C   UNL     1      -5.245  -5.561   1.822  1.00  0.00     0.157 A 
ATOM     16  C   UNL     1      -3.677  -4.249   3.133  1.00  0.00     0.062 A 
ATOM     17  C   UNL     1      -4.533  -4.368   2.028  1.00  0.00     0.158 A 
BRANCH  15  18
ATOM     18  O   UNL     1      -6.107  -5.708   0.735  1.00  0.00    -0.504 OA
ATOM     19  H   UNL     1      -6.337  -4.935   0.122  1.00  0.00     0.293 HD
ENDBRANCH  15  18
BRANCH  17  20
ATOM     20  O   UNL     1      -4.674  -3.307   1.134  1.00  0.00    -0.504 OA
ATOM     21  H   UNL     1      -4.131  -3.258   0.279  1.00  0.00     0.293 HD
ENDBRANCH  17  20
ENDBRANCH   1  12
BRANCH   2  22
ATOM     22  O   UNL     1      -4.439  -4.709   6.735  1.00  0.00    -0.502 OA
ATOM     23  H   UNL     1      -5.145  -4.897   6.035  1.00  0.00     0.293 HD
ENDBRANCH   2  22
BRANCH   6  24
ATOM     24  O   UNL     1      -0.100  -4.662   9.600  1.00  0.00    -0.507 OA
ATOM     25  H   UNL     1      -0.403  -3.730   9.858  1.00  0.00     0.293 HD
ENDBRANCH   6  24
BRANCH   8  26
ATOM     26  O   UNL     1       3.244  -5.854   6.332  1.00  0.00    -0.508 OA
ATOM     27  H   UNL     1       3.569  -6.795   6.145  1.00  0.00     0.293 HD
ENDBRANCH   8  26
TORSDOF 6
ENDMDL
MODEL 5
REMARK VINA RESULT:    -5.167      1.766      3.662
REMARK INTER + INTRA:          -6.515
REMARK INTER:                  -6.183
REMARK INTRA:                  -0.332
REMARK UNBOUND:                -0.291
REMARK SMILES O=c1c(O)c(-c2ccc(O)c(O)c2)oc2cc(O)cc(O)c12
REMARK SMILES IDX 5 1 3 2 2 3 1 4 22 5 20 6 19 7 17 8 16 9 15 10 14 11 6 12
REMARK SMILES IDX 7 13 8 14 9 15 13 16 11 17 10 18 12 20 4 22 21 24 18 26
REMARK H PARENT 10 19 12 21 4 23 21 25 18 27
REMARK Flexibility Score: inf
ROOT
ATOM      1  C   UNL     1       5.282   4.243  -2.984  1.00  0.00     0.180 A 
ATOM      2  C   UNL     1       4.560   3.788  -4.103  1.00  0.00     0.208 A 
ATOM      3  C   UNL     1       4.917   2.563  -4.689  1.00  0.00     0.238 A 
ATOM      4  O   UNL     1       4.269   2.140  -5.685  1.00  0.00    -0.285 OA
ATOM      5  C   UNL     1       5.998   1.828  -4.161  1.00  0.00     0.111 A 
ATOM      6  C   UNL     1       6.425   0.587  -4.695  1.00  0.00     0.134 A 
ATOM      7  C   UNL     1       7.516  -0.079  -4.119  1.00  0.00     0.093 A 
ATOM      8  C   UNL     1       8.188   0.468  -3.024  1.00  0.00     0.123 A 
ATOM      9  C   UNL     1       7.772   1.693  -2.492  1.00  0.00     0.094 A 
ATOM     10  C   UNL     1       6.685   2.372  -3.050  1.00  0.00     0.146 A 
ATOM     11  O   UNL     1       6.306   3.530  -2.522  1.00  0.00    -0.452 OA
ENDROOT
BRANCH   1  12
ATOM     12  C   UNL     1       4.954   5.515  -2.300  1.00  0.00     0.025 A 
ATOM     13  C   UNL     1       5.610   6.695  -2.683  1.00  0.00     0.016 A 
ATOM     14  C   UNL     1       5.332   7.902  -2.038  1.00  0.00     0.051 A 
ATOM     15  C   UNL     1       4.407   7.947  -0.990  1.00  0.00     0.157 A 
ATOM     16  C   UNL     1       4.039   5.557  -1.232  1.00  0.00     0.062 A 
ATOM     17  C   UNL     1       3.760   6.769  -0.581  1.00  0.00     0.158 A 
BRANCH  15  18
ATOM     18  O   UNL     1       4.147   9.166  -0.366  1.00  0.00    -0.504 OA
ATOM     19  H   UNL     1       4.863   9.874  -0.247  1.00  0.00     0.293 HD
ENDBRANCH  15  18
BRANCH  17  20
ATOM     20  O   UNL     1       2.847   6.803   0.473  1.00  0.00    -0.504 OA
ATOM     21  H   UNL     1       1.852   6.908   0.310  1.00  0.00     0.293 HD
ENDBRANCH  17  20
ENDBRANCH   1  12
BRANCH   2  22
ATOM     22  O   UNL     1       3.523   4.558  -4.637  1.00  0.00    -0.502 OA
ATOM     23  H   UNL     1       3.676   5.481  -5.023  1.00  0.00     0.293 HD
ENDBRANCH   2  22
BRANCH   6  24
ATOM     24  O   UNL     1       5.775   0.015  -5.788  1.00  0.00    -0.507 OA
ATOM     25  H   UNL     1       4.902   0.387  -6.143  1.00  0.00     0.293 HD
ENDBRANCH   6  24
BRANCH   8  26
ATOM     26  O   UNL     1       9.270  -0.213  -2.471  1.00  0.00    -0.508 OA
ATOM     27  H   UNL     1       9.918  -0.737  -3.048  1.00  0.00     0.293 HD
ENDBRANCH   8  26
TORSDOF 6
ENDMDL
MODEL 6
REMARK VINA RESULT:    -5.148     13.829     15.825
REMARK INTER + INTRA:          -6.493
REMARK INTER:                  -6.210
REMARK INTRA:                  -0.283
REMARK UNBOUND:                -0.291
REMARK SMILES O=c1c(O)c(-c2ccc(O)c(O)c2)oc2cc(O)cc(O)c12
REMARK SMILES IDX 5 1 3 2 2 3 1 4 22 5 20 6 19 7 17 8 16 9 15 10 14 11 6 12
REMARK SMILES IDX 7 13 8 14 9 15 13 16 11 17 10 18 12 20 4 22 21 24 18 26
REMARK H PARENT 10 19 12 21 4 23 21 25 18 27
REMARK Flexibility Score: inf
ROOT
ATOM      1  C   UNL     1      -3.326  -4.872   3.722  1.00  0.00     0.180 A 
ATOM      2  C   UNL     1      -4.269  -4.899   4.767  1.00  0.00     0.208 A 
ATOM      3  C   UNL     1      -3.810  -4.958   6.093  1.00  0.00     0.238 A 
ATOM      4  O   UNL     1      -4.644  -4.972   7.038  1.00  0.00    -0.285 OA
ATOM      5  C   UNL     1      -2.423  -5.010   6.348  1.00  0.00     0.111 A 
ATOM      6  C   UNL     1      -1.879  -5.075   7.654  1.00  0.00     0.134 A 
ATOM      7  C   UNL     1      -0.488  -5.133   7.825  1.00  0.00     0.093 A 
ATOM      8  C   UNL     1       0.367  -5.128   6.721  1.00  0.00     0.123 A 
ATOM      9  C   UNL     1      -0.165  -5.064   5.429  1.00  0.00     0.094 A 
ATOM     10  C   UNL     1      -1.548  -5.004   5.237  1.00  0.00     0.146 A 
ATOM     11  O   UNL     1      -2.027  -4.937   4.000  1.00  0.00    -0.452 OA
ENDROOT
BRANCH   1  12
ATOM     12  C   UNL     1      -3.731  -4.791   2.299  1.00  0.00     0.025 A 
ATOM     13  C   UNL     1      -4.153  -3.562   1.769  1.00  0.00     0.016 A 
ATOM     14  C   UNL     1      -4.559  -3.467   0.436  1.00  0.00     0.051 A 
ATOM     15  C   UNL     1      -4.567  -4.600  -0.382  1.00  0.00     0.157 A 
ATOM     16  C   UNL     1      -3.760  -5.935   1.481  1.00  0.00     0.062 A 
ATOM     17  C   UNL     1      -4.170  -5.842   0.142  1.00  0.00     0.158 A 
BRANCH  15  18
ATOM     18  O   UNL     1      -4.975  -4.476  -1.709  1.00  0.00    -0.504 OA
ATOM     19  H   UNL     1      -5.192  -3.577  -2.125  1.00  0.00     0.293 HD
ENDBRANCH  15  18
BRANCH  17  20
ATOM     20  O   UNL     1      -4.189  -6.979  -0.665  1.00  0.00    -0.504 OA
ATOM     21  H   UNL     1      -4.845  -7.735  -0.503  1.00  0.00     0.293 HD
ENDBRANCH  17  20
ENDBRANCH   1  12
BRANCH   2  22
ATOM     22  O   UNL     1      -5.637  -4.896   4.486  1.00  0.00    -0.502 OA
ATOM     23  H   UNL     1      -6.265  -4.193   4.853  1.00  0.00     0.293 HD
ENDBRANCH   2  22
BRANCH   6  24
ATOM     24  O   UNL     1      -2.706  -5.082   8.777  1.00  0.00    -0.507 OA
ATOM     25  H   UNL     1      -2.395  -5.457   9.666  1.00  0.00     0.293 HD
ENDBRANCH   6  24
BRANCH   8  26
ATOM     26  O   UNL     1       1.745  -5.188   6.918  1.00  0.00    -0.508 OA
ATOM     27  H   UNL     1       2.291  -4.355   7.103  1.00  0.00     0.293 HD
ENDBRANCH   8  26
TORSDOF 6
ENDMDL
MODEL 7
REMARK VINA RESULT:    -5.123      1.793      3.621
REMARK INTER + INTRA:          -6.463
REMARK INTER:                  -6.204
REMARK INTRA:                  -0.259
REMARK UNBOUND:                -0.291
REMARK SMILES O=c1c(O)c(-c2ccc(O)c(O)c2)oc2cc(O)cc(O)c12
REMARK SMILES IDX 5 1 3 2 2 3 1 4 22 5 20 6 19 7 17 8 16 9 15 10 14 11 6 12
REMARK SMILES IDX 7 13 8 14 9 15 13 16 11 17 10 18 12 20 4 22 21 24 18 26
REMARK H PARENT 10 19 12 21 4 23 21 25 18 27
REMARK Flexibility Score: inf
ROOT
ATOM      1  C   UNL     1       4.546   3.352  -5.486  1.00  0.00     0.180 A 
ATOM      2  C   UNL     1       3.751   3.733  -6.584  1.00  0.00     0.208 A 
ATOM      3  C   UNL     1       3.760   2.934  -7.738  1.00  0.00     0.238 A 
ATOM      4  O   UNL     1       3.044   3.259  -8.724  1.00  0.00    -0.285 OA
ATOM      5  C   UNL     1       4.576   1.783  -7.781  1.00  0.00     0.111 A 
ATOM      6  C   UNL     1       4.646   0.926  -8.907  1.00  0.00     0.134 A 
ATOM      7  C   UNL     1       5.488  -0.194  -8.876  1.00  0.00     0.093 A 
ATOM      8  C   UNL     1       6.261  -0.474  -7.748  1.00  0.00     0.123 A 
ATOM      9  C   UNL     1       6.196   0.369  -6.633  1.00  0.00     0.094 A 
ATOM     10  C   UNL     1       5.361   1.489  -6.643  1.00  0.00     0.146 A 
ATOM     11  O   UNL     1       5.313   2.270  -5.569  1.00  0.00    -0.452 OA
ENDROOT
BRANCH   1  12
ATOM     12  C   UNL     1       4.575   4.134  -4.228  1.00  0.00     0.025 A 
ATOM     13  C   UNL     1       5.296   5.337  -4.179  1.00  0.00     0.016 A 
ATOM     14  C   UNL     1       5.355   6.080  -2.998  1.00  0.00     0.051 A 
ATOM     15  C   UNL     1       4.711   5.624  -1.844  1.00  0.00     0.157 A 
ATOM     16  C   UNL     1       3.945   3.666  -3.061  1.00  0.00     0.062 A 
ATOM     17  C   UNL     1       4.005   4.410  -1.872  1.00  0.00     0.158 A 
BRANCH  15  18
ATOM     18  O   UNL     1       4.785   6.387  -0.679  1.00  0.00    -0.504 OA
ATOM     19  H   UNL     1       4.050   7.031  -0.409  1.00  0.00     0.293 HD
ENDBRANCH  15  18
BRANCH  17  20
ATOM     20  O   UNL     1       3.372   3.942  -0.721  1.00  0.00    -0.504 OA
ATOM     21  H   UNL     1       2.402   3.649  -0.730  1.00  0.00     0.293 HD
ENDBRANCH  17  20
ENDBRANCH   1  12
BRANCH   2  22
ATOM     22  O   UNL     1       2.990   4.904  -6.534  1.00  0.00    -0.502 OA
ATOM     23  H   UNL     1       3.115   5.603  -5.813  1.00  0.00     0.293 HD
ENDBRANCH   2  22
BRANCH   6  24
ATOM     24  O   UNL     1       3.887   1.180 -10.050  1.00  0.00    -0.507 OA
ATOM     25  H   UNL     1       2.954   1.573  -9.994  1.00  0.00     0.293 HD
ENDBRANCH   6  24
BRANCH   8  26
ATOM     26  O   UNL     1       7.091  -1.593  -7.743  1.00  0.00    -0.508 OA
ATOM     27  H   UNL     1       7.280  -2.110  -6.892  1.00  0.00     0.293 HD
ENDBRANCH   8  26
TORSDOF 6
ENDMDL
MODEL 8
REMARK VINA RESULT:    -5.092     13.655     14.488
REMARK INTER + INTRA:          -6.425
REMARK INTER:                  -6.154
REMARK INTRA:                  -0.271
REMARK UNBOUND:                -0.291
REMARK SMILES O=c1c(O)c(-c2ccc(O)c(O)c2)oc2cc(O)cc(O)c12
REMARK SMILES IDX 5 1 3 2 2 3 1 4 22 5 20 6 19 7 17 8 16 9 15 10 14 11 6 12
REMARK SMILES IDX 7 13 8 14 9 15 13 16 11 17 10 18 12 20 4 22 21 24 18 26
REMARK H PARENT 10 19 12 21 4 23 21 25 18 27
REMARK Flexibility Score: inf
ROOT
ATOM      1  C   UNL     1      -3.014  -5.250   3.792  1.00  0.00     0.180 A 
ATOM      2  C   UNL     1      -2.933  -6.452   3.063  1.00  0.00     0.208 A 
ATOM      3  C   UNL     1      -3.388  -6.471   1.735  1.00  0.00     0.238 A 
ATOM      4  O   UNL     1      -3.309  -7.539   1.068  1.00  0.00    -0.285 OA
ATOM      5  C   UNL     1      -3.933  -5.300   1.168  1.00  0.00     0.111 A 
ATOM      6  C   UNL     1      -4.418  -5.237  -0.161  1.00  0.00     0.134 A 
ATOM      7  C   UNL     1      -4.954  -4.037  -0.649  1.00  0.00     0.093 A 
ATOM      8  C   UNL     1      -5.017  -2.903   0.162  1.00  0.00     0.123 A 
ATOM      9  C   UNL     1      -4.541  -2.959   1.476  1.00  0.00     0.094 A 
ATOM     10  C   UNL     1      -4.000  -4.145   1.981  1.00  0.00     0.146 A 
ATOM     11  O   UNL     1      -3.548  -4.170   3.230  1.00  0.00    -0.452 OA
ENDROOT
BRANCH   1  12
ATOM     12  C   UNL     1      -2.539  -5.145   5.191  1.00  0.00     0.025 A 
ATOM     13  C   UNL     1      -3.472  -5.014   6.230  1.00  0.00     0.016 A 
ATOM     14  C   UNL     1      -3.045  -4.893   7.555  1.00  0.00     0.051 A 
ATOM     15  C   UNL     1      -1.681  -4.883   7.860  1.00  0.00     0.157 A 
ATOM     16  C   UNL     1      -1.166  -5.115   5.497  1.00  0.00     0.062 A 
ATOM     17  C   UNL     1      -0.735  -4.991   6.827  1.00  0.00     0.158 A 
BRANCH  15  18
ATOM     18  O   UNL     1      -1.284  -4.763   9.191  1.00  0.00    -0.504 OA
ATOM     19  H   UNL     1      -0.987  -3.879   9.587  1.00  0.00     0.293 HD
ENDBRANCH  15  18
BRANCH  17  20
ATOM     20  O   UNL     1       0.627  -4.968   7.122  1.00  0.00    -0.504 OA
ATOM     21  H   UNL     1       1.300  -5.484   6.566  1.00  0.00     0.293 HD
ENDBRANCH  17  20
ENDBRANCH   1  12
BRANCH   2  22
ATOM     22  O   UNL     1      -2.434  -7.611   3.663  1.00  0.00    -0.502 OA
ATOM     23  H   UNL     1      -1.742  -8.199   3.216  1.00  0.00     0.293 HD
ENDBRANCH   2  22
BRANCH   6  24
ATOM     24  O   UNL     1      -4.370  -6.353  -0.996  1.00  0.00    -0.507 OA
ATOM     25  H   UNL     1      -4.310  -7.295  -0.625  1.00  0.00     0.293 HD
ENDBRANCH   6  24
BRANCH   8  26
ATOM     26  O   UNL     1      -5.557  -1.723  -0.346  1.00  0.00    -0.508 OA
ATOM     27  H   UNL     1      -6.554  -1.542  -0.322  1.00  0.00     0.293 HD
ENDBRANCH   8  26
TORSDOF 6
ENDMDL
MODEL 9
REMARK VINA RESULT:    -5.079     14.145     15.825
REMARK INTER + INTRA:          -6.409
REMARK INTER:                  -6.141
REMARK INTRA:                  -0.269
REMARK UNBOUND:                -0.291
REMARK SMILES O=c1c(O)c(-c2ccc(O)c(O)c2)oc2cc(O)cc(O)c12
REMARK SMILES IDX 5 1 3 2 2 3 1 4 22 5 20 6 19 7 17 8 16 9 15 10 14 11 6 12
REMARK SMILES IDX 7 13 8 14 9 15 13 16 11 17 10 18 12 20 4 22 21 24 18 26
REMARK H PARENT 10 19 12 21 4 23 21 25 18 27
REMARK Flexibility Score: inf
ROOT
ATOM      1  C   UNL     1      -4.196  -5.138   2.276  1.00  0.00     0.180 A 
ATOM      2  C   UNL     1      -3.079  -5.989   2.176  1.00  0.00     0.208 A 
ATOM      3  C   UNL     1      -2.416  -6.378   3.351  1.00  0.00     0.238 A 
ATOM      4  O   UNL     1      -1.421  -7.149   3.276  1.00  0.00    -0.285 OA
ATOM      5  C   UNL     1      -2.866  -5.894   4.597  1.00  0.00     0.111 A 
ATOM      6  C   UNL     1      -2.252  -6.234   5.828  1.00  0.00     0.134 A 
ATOM      7  C   UNL     1      -2.753  -5.705   7.025  1.00  0.00     0.093 A 
ATOM      8  C   UNL     1      -3.853  -4.844   7.018  1.00  0.00     0.123 A 
ATOM      9  C   UNL     1      -4.464  -4.504   5.807  1.00  0.00     0.094 A 
ATOM     10  C   UNL     1      -3.980  -5.023   4.603  1.00  0.00     0.146 A 
ATOM     11  O   UNL     1      -4.583  -4.690   3.466  1.00  0.00    -0.452 OA
ENDROOT
BRANCH   1  12
ATOM     12  C   UNL     1      -4.958  -4.699   1.084  1.00  0.00     0.025 A 
ATOM     13  C   UNL     1      -4.874  -3.362   0.664  1.00  0.00     0.016 A 
ATOM     14  C   UNL     1      -5.601  -2.921  -0.445  1.00  0.00     0.051 A 
ATOM     15  C   UNL     1      -6.434  -3.802  -1.139  1.00  0.00     0.157 A 
ATOM     16  C   UNL     1      -5.814  -5.579   0.397  1.00  0.00     0.062 A 
ATOM     17  C   UNL     1      -6.546  -5.137  -0.715  1.00  0.00     0.158 A 
BRANCH  15  18
ATOM     18  O   UNL     1      -7.146  -3.335  -2.243  1.00  0.00    -0.504 OA
ATOM     19  H   UNL     1      -6.719  -3.233  -3.157  1.00  0.00     0.293 HD
ENDBRANCH  15  18
BRANCH  17  20
ATOM     20  O   UNL     1      -7.387  -6.018  -1.394  1.00  0.00    -0.504 OA
ATOM     21  H   UNL     1      -8.385  -6.047  -1.213  1.00  0.00     0.293 HD
ENDBRANCH  17  20
ENDBRANCH   1  12
BRANCH   2  22
ATOM     22  O   UNL     1      -2.623  -6.415   0.926  1.00  0.00    -0.502 OA
ATOM     23  H   UNL     1      -1.913  -5.913   0.407  1.00  0.00     0.293 HD
ENDBRANCH   2  22
BRANCH   6  24
ATOM     24  O   UNL     1      -1.151  -7.091   5.867  1.00  0.00    -0.507 OA
ATOM     25  H   UNL     1      -0.890  -7.584   6.714  1.00  0.00     0.293 HD
ENDBRANCH   6  24
BRANCH   8  26
ATOM     26  O   UNL     1      -4.331  -4.330   8.222  1.00  0.00    -0.508 OA
ATOM     27  H   UNL     1      -4.509  -4.928   9.021  1.00  0.00     0.293 HD
ENDBRANCH   8  26
TORSDOF 6
ENDMDL
