MODEL 1
REMARK VINA RESULT:    21.290      0.000      0.000
REMARK INTER + INTRA:          52.492
REMARK INTER:                  53.650
REMARK INTRA:                  -1.158
REMARK UNBOUND:                -1.158
REMARK SMILES CCCCCCCCCCCCCCCCCCCCCCCCCCCC(=O)[O-]
REMARK SMILES IDX 15 1 16 2 17 3 18 4 19 5 20 6 21 7 22 8 23 9 24 10 25 11
REMARK SMILES IDX 26 12 27 13 28 14 29 15 30 16 14 17 13 18 12 19 11 20 10 21
REMARK SMILES IDX 9 22 8 23 7 24 6 25 5 26 4 27 3 28 2 29 1 30
REMARK H PARENT
REMARK Flexibility Score: inf
ROOT
ATOM      1  C   UNL     1     -29.244  16.719 -13.003  1.00  0.00     0.000 C 
ENDROOT
BRANCH   1   2
ATOM      2  C   UNL     1     -29.518  15.790 -14.206  1.00  0.00     0.000 C 
BRANCH   2   3
ATOM      3  C   UNL     1     -28.708  14.480 -14.197  1.00  0.00     0.000 C 
BRANCH   3   4
ATOM      4  C   UNL     1     -27.497  14.441 -15.149  1.00  0.00     0.000 C 
BRANCH   4   5
ATOM      5  C   UNL     1     -26.872  13.049 -15.366  1.00  0.00     0.000 C 
BRANCH   5   6
ATOM      6  C   UNL     1     -25.489  12.843 -14.718  1.00  0.00     0.000 C 
BRANCH   6   7
ATOM      7  C   UNL     1     -24.499  12.040 -15.590  1.00  0.00     0.000 C 
BRANCH   7   8
ATOM      8  C   UNL     1     -24.799  10.531 -15.598  1.00  0.00     0.000 C 
BRANCH   8   9
ATOM      9  C   UNL     1     -23.549   9.672 -15.877  1.00  0.00     0.000 C 
BRANCH   9  10
ATOM     10  C   UNL     1     -23.132   9.587 -17.356  1.00  0.00     0.000 C 
BRANCH  10  11
ATOM     11  C   UNL     1     -21.747   8.947 -17.550  1.00  0.00     0.000 C 
BRANCH  11  12
ATOM     12  C   UNL     1     -21.824   7.487 -18.036  1.00  0.00     0.006 C 
BRANCH  12  13
ATOM     13  C   UNL     1     -20.950   7.187 -19.266  1.00  0.00     0.053 C 
BRANCH  13  14
ATOM     14  C   UNL     1     -20.519   5.753 -19.326  1.00  0.00     0.041 C 
ATOM     15  O   UNL     1     -21.367   4.829 -19.210  1.00  0.00    -0.550 OA
ATOM     16  O   UNL     1     -19.175   5.436 -19.473  1.00  0.00    -0.550 OA
ENDBRANCH  13  14
ENDBRANCH  12  13
ENDBRANCH  11  12
ENDBRANCH  10  11
ENDBRANCH   9  10
ENDBRANCH   8   9
ENDBRANCH   7   8
ENDBRANCH   6   7
ENDBRANCH   5   6
ENDBRANCH   4   5
ENDBRANCH   3   4
ENDBRANCH   2   3
ENDBRANCH   1   2
BRANCH   1  17
ATOM     17  C   UNL     1     -29.442  16.012 -11.651  1.00  0.00     0.000 C 
BRANCH  17  18
ATOM     18  C   UNL     1     -30.915  15.961 -11.206  1.00  0.00     0.000 C 
BRANCH  18  19
ATOM     19  C   UNL     1     -31.461  17.263 -10.589  1.00  0.00     0.000 C 
BRANCH  19  20
ATOM     20  C   UNL     1     -32.949  17.171 -10.208  1.00  0.00     0.000 C 
BRANCH  20  21
ATOM     21  C   UNL     1     -33.643  18.544 -10.189  1.00  0.00     0.000 C 
BRANCH  21  22
ATOM     22  C   UNL     1     -32.647  19.713 -10.304  1.00  0.00    -0.000 C 
BRANCH  22  23
ATOM     23  C   UNL     1     -33.327  21.025 -10.736  1.00  0.00    -0.000 C 
BRANCH  23  24
ATOM     24  C   UNL     1     -33.055  22.176  -9.754  1.00  0.00    -0.000 C 
BRANCH  24  25
ATOM     25  C   UNL     1     -31.666  22.784  -9.980  1.00  0.00    -0.000 C 
BRANCH  25  26
ATOM     26  C   UNL     1     -30.945  22.074 -11.135  1.00  0.00    -0.000 C 
BRANCH  26  27
ATOM     27  C   UNL     1     -29.663  21.353 -10.684  1.00  0.00    -0.000 C 
BRANCH  27  28
ATOM     28  C   UNL     1     -29.266  20.207 -11.632  1.00  0.00    -0.000 C 
BRANCH  28  29
ATOM     29  C   UNL     1     -28.698  20.720 -12.966  1.00  0.00    -0.003 C 
ATOM     30  C   UNL     1     -27.578  21.744 -12.783  1.00  0.00     0.004 C 
ENDBRANCH  28  29
ENDBRANCH  27  28
ENDBRANCH  26  27
ENDBRANCH  25  26
ENDBRANCH  24  25
ENDBRANCH  23  24
ENDBRANCH  22  23
ENDBRANCH  21  22
ENDBRANCH  20  21
ENDBRANCH  19  20
ENDBRANCH  18  19
ENDBRANCH  17  18
ENDBRANCH   1  17
TORSDOF 26
ENDMDL
MODEL 2
REMARK VINA RESULT:    21.306      2.945      5.129
REMARK INTER + INTRA:          52.533
REMARK INTER:                  54.453
REMARK INTRA:                  -1.920
REMARK UNBOUND:                -1.158
REMARK SMILES CCCCCCCCCCCCCCCCCCCCCCCCCCCC(=O)[O-]
REMARK SMILES IDX 15 1 16 2 17 3 18 4 19 5 20 6 21 7 22 8 23 9 24 10 25 11
REMARK SMILES IDX 26 12 27 13 28 14 29 15 30 16 14 17 13 18 12 19 11 20 10 21
REMARK SMILES IDX 9 22 8 23 7 24 6 25 5 26 4 27 3 28 2 29 1 30
REMARK H PARENT
REMARK Flexibility Score: inf
ROOT
ATOM      1  C   UNL     1     -32.257  17.428 -10.414  1.00  0.00     0.000 C 
ENDROOT
BRANCH   1   2
ATOM      2  C   UNL     1     -30.861  18.087 -10.465  1.00  0.00     0.000 C 
BRANCH   2   3
ATOM      3  C   UNL     1     -29.727  17.142 -10.905  1.00  0.00     0.000 C 
BRANCH   3   4
ATOM      4  C   UNL     1     -29.334  17.222 -12.392  1.00  0.00     0.000 C 
BRANCH   4   5
ATOM      5  C   UNL     1     -29.699  15.987 -13.240  1.00  0.00     0.000 C 
BRANCH   5   6
ATOM      6  C   UNL     1     -29.341  16.088 -14.735  1.00  0.00     0.000 C 
BRANCH   6   7
ATOM      7  C   UNL     1     -28.317  15.035 -15.210  1.00  0.00     0.000 C 
BRANCH   7   8
ATOM      8  C   UNL     1     -28.595  13.632 -14.641  1.00  0.00     0.000 C 
BRANCH   8   9
ATOM      9  C   UNL     1     -27.322  12.773 -14.514  1.00  0.00     0.000 C 
BRANCH   9  10
ATOM     10  C   UNL     1     -26.164  13.180 -15.443  1.00  0.00     0.000 C 
BRANCH  10  11
ATOM     11  C   UNL     1     -24.800  12.659 -14.962  1.00  0.00     0.000 C 
BRANCH  11  12
ATOM     12  C   UNL     1     -24.086  11.787 -16.013  1.00  0.00     0.006 C 
BRANCH  12  13
ATOM     13  C   UNL     1     -22.816  11.091 -15.494  1.00  0.00     0.053 C 
BRANCH  13  14
ATOM     14  C   UNL     1     -22.649   9.711 -16.056  1.00  0.00     0.041 C 
ATOM     15  O   UNL     1     -22.004   8.839 -15.416  1.00  0.00    -0.550 OA
ATOM     16  O   UNL     1     -23.172   9.400 -17.304  1.00  0.00    -0.550 OA
ENDBRANCH  13  14
ENDBRANCH  12  13
ENDBRANCH  11  12
ENDBRANCH  10  11
ENDBRANCH   9  10
ENDBRANCH   8   9
ENDBRANCH   7   8
ENDBRANCH   6   7
ENDBRANCH   5   6
ENDBRANCH   4   5
ENDBRANCH   3   4
ENDBRANCH   2   3
ENDBRANCH   1   2
BRANCH   1  17
ATOM     17  C   UNL     1     -33.381  18.441 -10.133  1.00  0.00     0.000 C 
BRANCH  17  18
ATOM     18  C   UNL     1     -33.043  19.866 -10.609  1.00  0.00     0.000 C 
BRANCH  18  19
ATOM     19  C   UNL     1     -33.397  20.991  -9.618  1.00  0.00     0.000 C 
BRANCH  19  20
ATOM     20  C   UNL     1     -32.675  22.315  -9.928  1.00  0.00     0.000 C 
BRANCH  20  21
ATOM     21  C   UNL     1     -31.912  22.276 -11.264  1.00  0.00     0.000 C 
BRANCH  21  22
ATOM     22  C   UNL     1     -30.411  22.583 -11.097  1.00  0.00    -0.000 C 
BRANCH  22  23
ATOM     23  C   UNL     1     -29.554  21.306 -11.032  1.00  0.00    -0.000 C 
BRANCH  23  24
ATOM     24  C   UNL     1     -28.989  21.053  -9.625  1.00  0.00    -0.000 C 
BRANCH  24  25
ATOM     25  C   UNL     1     -27.623  21.727  -9.445  1.00  0.00    -0.000 C 
BRANCH  25  26
ATOM     26  C   UNL     1     -27.218  21.742  -7.963  1.00  0.00    -0.000 C 
BRANCH  26  27
ATOM     27  C   UNL     1     -26.336  20.543  -7.574  1.00  0.00    -0.000 C 
BRANCH  27  28
ATOM     28  C   UNL     1     -24.836  20.890  -7.572  1.00  0.00    -0.000 C 
BRANCH  28  29
ATOM     29  C   UNL     1     -24.381  21.515  -6.243  1.00  0.00    -0.003 C 
ATOM     30  C   UNL     1     -23.095  22.331  -6.378  1.00  0.00     0.004 C 
ENDBRANCH  28  29
ENDBRANCH  27  28
ENDBRANCH  26  27
ENDBRANCH  25  26
ENDBRANCH  24  25
ENDBRANCH  23  24
ENDBRANCH  22  23
ENDBRANCH  21  22
ENDBRANCH  20  21
ENDBRANCH  19  20
ENDBRANCH  18  19
ENDBRANCH  17  18
ENDBRANCH   1  17
TORSDOF 26
ENDMDL
MODEL 3
REMARK VINA RESULT:    21.506      7.435      8.859
REMARK INTER + INTRA:          53.036
REMARK INTER:                  52.815
REMARK INTRA:                   0.222
REMARK UNBOUND:                -1.158
REMARK SMILES CCCCCCCCCCCCCCCCCCCCCCCCCCCC(=O)[O-]
REMARK SMILES IDX 15 1 16 2 17 3 18 4 19 5 20 6 21 7 22 8 23 9 24 10 25 11
REMARK SMILES IDX 26 12 27 13 28 14 29 15 30 16 14 17 13 18 12 19 11 20 10 21
REMARK SMILES IDX 9 22 8 23 7 24 6 25 5 26 4 27 3 28 2 29 1 30
REMARK H PARENT
REMARK Flexibility Score: inf
ROOT
ATOM      1  C   UNL     1     -31.821  17.376 -10.393  1.00  0.00     0.000 C 
ENDROOT
BRANCH   1   2
ATOM      2  C   UNL     1     -30.462  18.046 -10.689  1.00  0.00     0.000 C 
BRANCH   2   3
ATOM      3  C   UNL     1     -29.425  17.118 -11.350  1.00  0.00     0.000 C 
BRANCH   3   4
ATOM      4  C   UNL     1     -29.988  15.822 -11.964  1.00  0.00     0.000 C 
BRANCH   4   5
ATOM      5  C   UNL     1     -31.016  15.072 -11.094  1.00  0.00     0.000 C 
BRANCH   5   6
ATOM      6  C   UNL     1     -31.104  13.554 -11.346  1.00  0.00     0.000 C 
BRANCH   6   7
ATOM      7  C   UNL     1     -32.447  12.922 -10.919  1.00  0.00     0.000 C 
BRANCH   7   8
ATOM      8  C   UNL     1     -32.389  11.386 -10.849  1.00  0.00     0.000 C 
BRANCH   8   9
ATOM      9  C   UNL     1     -32.533  10.845  -9.414  1.00  0.00     0.000 C 
BRANCH   9  10
ATOM     10  C   UNL     1     -31.370   9.960  -8.929  1.00  0.00     0.000 C 
BRANCH  10  11
ATOM     11  C   UNL     1     -31.843   8.743  -8.117  1.00  0.00     0.000 C 
BRANCH  11  12
ATOM     12  C   UNL     1     -31.915   7.453  -8.959  1.00  0.00     0.006 C 
BRANCH  12  13
ATOM     13  C   UNL     1     -32.138   6.175  -8.131  1.00  0.00     0.053 C 
BRANCH  13  14
ATOM     14  C   UNL     1     -30.857   5.455  -7.833  1.00  0.00     0.041 C 
ATOM     15  O   UNL     1     -30.374   4.646  -8.670  1.00  0.00    -0.550 OA
ATOM     16  O   UNL     1     -30.217   5.649  -6.617  1.00  0.00    -0.550 OA
ENDBRANCH  13  14
ENDBRANCH  12  13
ENDBRANCH  11  12
ENDBRANCH  10  11
ENDBRANCH   9  10
ENDBRANCH   8   9
ENDBRANCH   7   8
ENDBRANCH   6   7
ENDBRANCH   5   6
ENDBRANCH   4   5
ENDBRANCH   3   4
ENDBRANCH   2   3
ENDBRANCH   1   2
BRANCH   1  17
ATOM     17  C   UNL     1     -32.993  18.373 -10.422  1.00  0.00     0.000 C 
BRANCH  17  18
ATOM     18  C   UNL     1     -32.554  19.811 -10.757  1.00  0.00     0.000 C 
BRANCH  18  19
ATOM     19  C   UNL     1     -33.276  20.919  -9.966  1.00  0.00     0.000 C 
BRANCH  19  20
ATOM     20  C   UNL     1     -32.957  22.333 -10.485  1.00  0.00     0.000 C 
BRANCH  20  21
ATOM     21  C   UNL     1     -31.569  22.828 -10.044  1.00  0.00     0.000 C 
BRANCH  21  22
ATOM     22  C   UNL     1     -30.422  22.023 -10.683  1.00  0.00    -0.000 C 
BRANCH  22  23
ATOM     23  C   UNL     1     -29.596  21.248  -9.640  1.00  0.00    -0.000 C 
BRANCH  23  24
ATOM     24  C   UNL     1     -28.285  21.967  -9.282  1.00  0.00    -0.000 C 
BRANCH  24  25
ATOM     25  C   UNL     1     -27.580  21.285  -8.104  1.00  0.00    -0.000 C 
BRANCH  25  26
ATOM     26  C   UNL     1     -26.159  20.856  -8.498  1.00  0.00    -0.000 C 
BRANCH  26  27
ATOM     27  C   UNL     1     -25.069  21.643  -7.750  1.00  0.00    -0.000 C 
BRANCH  27  28
ATOM     28  C   UNL     1     -24.458  20.843  -6.586  1.00  0.00    -0.000 C 
BRANCH  28  29
ATOM     29  C   UNL     1     -23.739  21.744  -5.568  1.00  0.00    -0.003 C 
ATOM     30  C   UNL     1     -22.798  22.754  -6.227  1.00  0.00     0.004 C 
ENDBRANCH  28  29
ENDBRANCH  27  28
ENDBRANCH  26  27
ENDBRANCH  25  26
ENDBRANCH  24  25
ENDBRANCH  23  24
ENDBRANCH  22  23
ENDBRANCH  21  22
ENDBRANCH  20  21
ENDBRANCH  19  20
ENDBRANCH  18  19
ENDBRANCH  17  18
ENDBRANCH   1  17
TORSDOF 26
ENDMDL
MODEL 4
REMARK VINA RESULT:    21.548      7.935     11.545
REMARK INTER + INTRA:          53.143
REMARK INTER:                  54.265
REMARK INTRA:                  -1.122
REMARK UNBOUND:                -1.158
REMARK SMILES CCCCCCCCCCCCCCCCCCCCCCCCCCCC(=O)[O-]
REMARK SMILES IDX 15 1 16 2 17 3 18 4 19 5 20 6 21 7 22 8 23 9 24 10 25 11
REMARK SMILES IDX 26 12 27 13 28 14 29 15 30 16 14 17 13 18 12 19 11 20 10 21
REMARK SMILES IDX 9 22 8 23 7 24 6 25 5 26 4 27 3 28 2 29 1 30
REMARK H PARENT
REMARK Flexibility Score: inf
ROOT
ATOM      1  C   UNL     1     -32.479  20.354 -10.001  1.00  0.00     0.000 C 
ENDROOT
BRANCH   1   2
ATOM      2  C   UNL     1     -33.179  21.728 -10.088  1.00  0.00     0.000 C 
BRANCH   2   3
ATOM      3  C   UNL     1     -32.262  22.883 -10.535  1.00  0.00     0.000 C 
BRANCH   3   4
ATOM      4  C   UNL     1     -30.942  22.461 -11.207  1.00  0.00     0.000 C 
BRANCH   4   5
ATOM      5  C   UNL     1     -30.241  21.240 -10.578  1.00  0.00     0.000 C 
BRANCH   5   6
ATOM      6  C   UNL     1     -28.950  20.788 -11.287  1.00  0.00     0.000 C 
BRANCH   6   7
ATOM      7  C   UNL     1     -28.547  21.674 -12.486  1.00  0.00     0.000 C 
BRANCH   7   8
ATOM      8  C   UNL     1     -27.114  22.224 -12.367  1.00  0.00     0.000 C 
BRANCH   8   9
ATOM      9  C   UNL     1     -26.893  23.053 -11.088  1.00  0.00     0.000 C 
BRANCH   9  10
ATOM     10  C   UNL     1     -25.639  22.682 -10.276  1.00  0.00     0.000 C 
BRANCH  10  11
ATOM     11  C   UNL     1     -25.965  21.892  -8.998  1.00  0.00     0.000 C 
BRANCH  11  12
ATOM     12  C   UNL     1     -24.716  21.274  -8.341  1.00  0.00     0.006 C 
BRANCH  12  13
ATOM     13  C   UNL     1     -24.718  21.340  -6.803  1.00  0.00     0.053 C 
BRANCH  13  14
ATOM     14  C   UNL     1     -23.454  21.929  -6.253  1.00  0.00     0.041 C 
ATOM     15  O   UNL     1     -22.695  22.609  -6.995  1.00  0.00    -0.550 OA
ATOM     16  O   UNL     1     -23.095  21.695  -4.933  1.00  0.00    -0.550 OA
ENDBRANCH  13  14
ENDBRANCH  12  13
ENDBRANCH  11  12
ENDBRANCH  10  11
ENDBRANCH   9  10
ENDBRANCH   8   9
ENDBRANCH   7   8
ENDBRANCH   6   7
ENDBRANCH   5   6
ENDBRANCH   4   5
ENDBRANCH   3   4
ENDBRANCH   2   3
ENDBRANCH   1   2
BRANCH   1  17
ATOM     17  C   UNL     1     -33.349  19.209 -10.548  1.00  0.00     0.000 C 
BRANCH  17  18
ATOM     18  C   UNL     1     -32.528  17.975 -10.967  1.00  0.00     0.000 C 
BRANCH  18  19
ATOM     19  C   UNL     1     -31.213  17.766 -10.192  1.00  0.00     0.000 C 
BRANCH  19  20
ATOM     20  C   UNL     1     -30.517  16.437 -10.536  1.00  0.00     0.000 C 
BRANCH  20  21
ATOM     21  C   UNL     1     -30.243  16.283 -12.042  1.00  0.00     0.000 C 
BRANCH  21  22
ATOM     22  C   UNL     1     -29.463  17.475 -12.627  1.00  0.00    -0.000 C 
BRANCH  22  23
ATOM     23  C   UNL     1     -28.737  17.116 -13.936  1.00  0.00    -0.000 C 
BRANCH  23  24
ATOM     24  C   UNL     1     -29.468  16.019 -14.728  1.00  0.00    -0.000 C 
BRANCH  24  25
ATOM     25  C   UNL     1     -30.524  16.618 -15.664  1.00  0.00    -0.000 C 
BRANCH  25  26
ATOM     26  C   UNL     1     -29.877  17.593 -16.658  1.00  0.00    -0.000 C 
BRANCH  26  27
ATOM     27  C   UNL     1     -30.889  18.200 -17.644  1.00  0.00    -0.000 C 
BRANCH  27  28
ATOM     28  C   UNL     1     -30.797  19.735 -17.713  1.00  0.00    -0.000 C 
BRANCH  28  29
ATOM     29  C   UNL     1     -29.388  20.222 -18.091  1.00  0.00    -0.003 C 
ATOM     30  C   UNL     1     -29.381  21.637 -18.669  1.00  0.00     0.004 C 
ENDBRANCH  28  29
ENDBRANCH  27  28
ENDBRANCH  26  27
ENDBRANCH  25  26
ENDBRANCH  24  25
ENDBRANCH  23  24
ENDBRANCH  22  23
ENDBRANCH  21  22
ENDBRANCH  20  21
ENDBRANCH  19  20
ENDBRANCH  18  19
ENDBRANCH  17  18
ENDBRANCH   1  17
TORSDOF 26
ENDMDL
MODEL 5
REMARK VINA RESULT:    21.562      7.793      9.786
REMARK INTER + INTRA:          53.178
REMARK INTER:                  54.356
REMARK INTRA:                  -1.177
REMARK UNBOUND:                -1.158
REMARK SMILES CCCCCCCCCCCCCCCCCCCCCCCCCCCC(=O)[O-]
REMARK SMILES IDX 15 1 16 2 17 3 18 4 19 5 20 6 21 7 22 8 23 9 24 10 25 11
REMARK SMILES IDX 26 12 27 13 28 14 29 15 30 16 14 17 13 18 12 19 11 20 10 21
REMARK SMILES IDX 9 22 8 23 7 24 6 25 5 26 4 27 3 28 2 29 1 30
REMARK H PARENT
REMARK Flexibility Score: inf
ROOT
ATOM      1  C   UNL     1     -33.116  21.533  -9.691  1.00  0.00     0.000 C 
ENDROOT
BRANCH   1   2
ATOM      2  C   UNL     1     -32.929  20.172 -10.396  1.00  0.00     0.000 C 
BRANCH   2   3
ATOM      3  C   UNL     1     -33.978  19.109 -10.017  1.00  0.00     0.000 C 
BRANCH   3   4
ATOM      4  C   UNL     1     -33.471  17.655  -9.992  1.00  0.00     0.000 C 
BRANCH   4   5
ATOM      5  C   UNL     1     -32.096  17.423 -10.651  1.00  0.00     0.000 C 
BRANCH   5   6
ATOM      6  C   UNL     1     -31.566  15.979 -10.572  1.00  0.00     0.000 C 
BRANCH   6   7
ATOM      7  C   UNL     1     -30.293  15.728 -11.409  1.00  0.00     0.000 C 
BRANCH   7   8
ATOM      8  C   UNL     1     -29.315  16.915 -11.379  1.00  0.00     0.000 C 
BRANCH   8   9
ATOM      9  C   UNL     1     -29.013  17.480 -12.781  1.00  0.00     0.000 C 
BRANCH   9  10
ATOM     10  C   UNL     1     -29.886  16.914 -13.915  1.00  0.00     0.000 C 
BRANCH  10  11
ATOM     11  C   UNL     1     -29.552  17.522 -15.287  1.00  0.00     0.000 C 
BRANCH  11  12
ATOM     12  C   UNL     1     -30.509  17.052 -16.400  1.00  0.00     0.006 C 
BRANCH  12  13
ATOM     13  C   UNL     1     -30.341  17.803 -17.732  1.00  0.00     0.053 C 
BRANCH  13  14
ATOM     14  C   UNL     1     -30.816  19.223 -17.654  1.00  0.00     0.041 C 
ATOM     15  O   UNL     1     -31.932  19.491 -17.136  1.00  0.00    -0.550 OA
ATOM     16  O   UNL     1     -30.043  20.246 -18.187  1.00  0.00    -0.550 OA
ENDBRANCH  13  14
ENDBRANCH  12  13
ENDBRANCH  11  12
ENDBRANCH  10  11
ENDBRANCH   9  10
ENDBRANCH   8   9
ENDBRANCH   7   8
ENDBRANCH   6   7
ENDBRANCH   5   6
ENDBRANCH   4   5
ENDBRANCH   3   4
ENDBRANCH   2   3
ENDBRANCH   1   2
BRANCH   1  17
ATOM     17  C   UNL     1     -32.912  22.727 -10.640  1.00  0.00     0.000 C 
BRANCH  17  18
ATOM     18  C   UNL     1     -31.440  22.935 -11.040  1.00  0.00     0.000 C 
BRANCH  18  19
ATOM     19  C   UNL     1     -30.459  21.868 -10.517  1.00  0.00     0.000 C 
BRANCH  19  20
ATOM     20  C   UNL     1     -29.392  21.471 -11.553  1.00  0.00     0.000 C 
BRANCH  20  21
ATOM     21  C   UNL     1     -28.337  22.570 -11.769  1.00  0.00     0.000 C 
BRANCH  21  22
ATOM     22  C   UNL     1     -26.921  22.000 -11.973  1.00  0.00    -0.000 C 
BRANCH  22  23
ATOM     23  C   UNL     1     -25.821  23.028 -11.649  1.00  0.00    -0.000 C 
BRANCH  23  24
ATOM     24  C   UNL     1     -25.493  23.079 -10.148  1.00  0.00    -0.000 C 
BRANCH  24  25
ATOM     25  C   UNL     1     -26.556  22.348  -9.320  1.00  0.00    -0.000 C 
BRANCH  25  26
ATOM     26  C   UNL     1     -25.897  21.412  -8.297  1.00  0.00    -0.000 C 
BRANCH  26  27
ATOM     27  C   UNL     1     -24.486  21.870  -7.891  1.00  0.00    -0.000 C 
BRANCH  27  28
ATOM     28  C   UNL     1     -23.922  21.067  -6.706  1.00  0.00    -0.000 C 
BRANCH  28  29
ATOM     29  C   UNL     1     -22.665  21.715  -6.102  1.00  0.00    -0.003 C 
ATOM     30  C   UNL     1     -22.920  23.125  -5.569  1.00  0.00     0.004 C 
ENDBRANCH  28  29
ENDBRANCH  27  28
ENDBRANCH  26  27
ENDBRANCH  25  26
ENDBRANCH  24  25
ENDBRANCH  23  24
ENDBRANCH  22  23
ENDBRANCH  21  22
ENDBRANCH  20  21
ENDBRANCH  19  20
ENDBRANCH  18  19
ENDBRANCH  17  18
ENDBRANCH   1  17
TORSDOF 26
ENDMDL
MODEL 6
REMARK VINA RESULT:    21.564      6.098     12.988
REMARK INTER + INTRA:          53.183
REMARK INTER:                  54.674
REMARK INTRA:                  -1.490
REMARK UNBOUND:                -1.158
REMARK SMILES CCCCCCCCCCCCCCCCCCCCCCCCCCCC(=O)[O-]
REMARK SMILES IDX 15 1 16 2 17 3 18 4 19 5 20 6 21 7 22 8 23 9 24 10 25 11
REMARK SMILES IDX 26 12 27 13 28 14 29 15 30 16 14 17 13 18 12 19 11 20 10 21
REMARK SMILES IDX 9 22 8 23 7 24 6 25 5 26 4 27 3 28 2 29 1 30
REMARK H PARENT
REMARK Flexibility Score: inf
ROOT
ATOM      1  C   UNL     1     -31.602  18.193 -10.715  1.00  0.00     0.000 C 
ENDROOT
BRANCH   1   2
ATOM      2  C   UNL     1     -33.077  18.370 -10.293  1.00  0.00     0.000 C 
BRANCH   2   3
ATOM      3  C   UNL     1     -33.401  19.740  -9.667  1.00  0.00     0.000 C 
BRANCH   3   4
ATOM      4  C   UNL     1     -33.283  20.948 -10.616  1.00  0.00     0.000 C 
BRANCH   4   5
ATOM      5  C   UNL     1     -32.846  22.270  -9.952  1.00  0.00     0.000 C 
BRANCH   5   6
ATOM      6  C   UNL     1     -31.699  23.012 -10.664  1.00  0.00     0.000 C 
BRANCH   6   7
ATOM      7  C   UNL     1     -30.578  22.088 -11.186  1.00  0.00     0.000 C 
BRANCH   7   8
ATOM      8  C   UNL     1     -29.885  21.296 -10.063  1.00  0.00     0.000 C 
BRANCH   8   9
ATOM      9  C   UNL     1     -28.541  21.918  -9.632  1.00  0.00     0.000 C 
BRANCH   9  10
ATOM     10  C   UNL     1     -27.555  20.943  -8.964  1.00  0.00     0.000 C 
BRANCH  10  11
ATOM     11  C   UNL     1     -26.919  21.517  -7.687  1.00  0.00     0.000 C 
BRANCH  11  12
ATOM     12  C   UNL     1     -25.664  20.741  -7.243  1.00  0.00     0.006 C 
BRANCH  12  13
ATOM     13  C   UNL     1     -24.338  21.433  -7.603  1.00  0.00     0.053 C 
BRANCH  13  14
ATOM     14  C   UNL     1     -23.524  21.778  -6.392  1.00  0.00     0.041 C 
ATOM     15  O   UNL     1     -22.267  21.707  -6.430  1.00  0.00    -0.550 OA
ATOM     16  O   UNL     1     -24.155  22.141  -5.210  1.00  0.00    -0.550 OA
ENDBRANCH  13  14
ENDBRANCH  12  13
ENDBRANCH  11  12
ENDBRANCH  10  11
ENDBRANCH   9  10
ENDBRANCH   8   9
ENDBRANCH   7   8
ENDBRANCH   6   7
ENDBRANCH   5   6
ENDBRANCH   4   5
ENDBRANCH   3   4
ENDBRANCH   2   3
ENDBRANCH   1   2
BRANCH   1  17
ATOM     17  C   UNL     1     -31.167  16.718 -10.747  1.00  0.00     0.000 C 
BRANCH  17  18
ATOM     18  C   UNL     1     -29.775  16.513 -11.373  1.00  0.00     0.000 C 
BRANCH  18  19
ATOM     19  C   UNL     1     -29.374  17.551 -12.439  1.00  0.00     0.000 C 
BRANCH  19  20
ATOM     20  C   UNL     1     -29.099  16.923 -13.817  1.00  0.00     0.000 C 
BRANCH  20  21
ATOM     21  C   UNL     1     -29.267  15.393 -13.816  1.00  0.00     0.000 C 
BRANCH  21  22
ATOM     22  C   UNL     1     -28.669  14.731 -15.072  1.00  0.00    -0.000 C 
BRANCH  22  23
ATOM     23  C   UNL     1     -27.810  13.499 -14.734  1.00  0.00    -0.000 C 
BRANCH  23  24
ATOM     24  C   UNL     1     -26.413  13.568 -15.372  1.00  0.00    -0.000 C 
BRANCH  24  25
ATOM     25  C   UNL     1     -25.469  12.527 -14.759  1.00  0.00    -0.000 C 
BRANCH  25  26
ATOM     26  C   UNL     1     -24.556  11.922 -15.836  1.00  0.00    -0.000 C 
BRANCH  26  27
ATOM     27  C   UNL     1     -23.634  10.821 -15.287  1.00  0.00    -0.000 C 
BRANCH  27  28
ATOM     28  C   UNL     1     -23.375   9.703 -16.312  1.00  0.00    -0.000 C 
BRANCH  28  29
ATOM     29  C   UNL     1     -21.967   9.098 -16.177  1.00  0.00    -0.003 C 
ATOM     30  C   UNL     1     -20.984  10.030 -15.469  1.00  0.00     0.004 C 
ENDBRANCH  28  29
ENDBRANCH  27  28
ENDBRANCH  26  27
ENDBRANCH  25  26
ENDBRANCH  24  25
ENDBRANCH  23  24
ENDBRANCH  22  23
ENDBRANCH  21  22
ENDBRANCH  20  21
ENDBRANCH  19  20
ENDBRANCH  18  19
ENDBRANCH  17  18
ENDBRANCH   1  17
TORSDOF 26
ENDMDL
MODEL 7
REMARK VINA RESULT:    21.759      7.621     11.054
REMARK INTER + INTRA:          53.673
REMARK INTER:                  54.005
REMARK INTRA:                  -0.332
REMARK UNBOUND:                -1.158
REMARK SMILES CCCCCCCCCCCCCCCCCCCCCCCCCCCC(=O)[O-]
REMARK SMILES IDX 15 1 16 2 17 3 18 4 19 5 20 6 21 7 22 8 23 9 24 10 25 11
REMARK SMILES IDX 26 12 27 13 28 14 29 15 30 16 14 17 13 18 12 19 11 20 10 21
REMARK SMILES IDX 9 22 8 23 7 24 6 25 5 26 4 27 3 28 2 29 1 30
REMARK H PARENT
REMARK Flexibility Score: inf
ROOT
ATOM      1  C   UNL     1     -28.435  21.085 -12.725  1.00  0.00     0.000 C 
ENDROOT
BRANCH   1   2
ATOM      2  C   UNL     1     -29.549  22.153 -12.681  1.00  0.00     0.000 C 
BRANCH   2   3
ATOM      3  C   UNL     1     -30.277  22.259 -11.327  1.00  0.00     0.000 C 
BRANCH   3   4
ATOM      4  C   UNL     1     -31.608  23.034 -11.347  1.00  0.00     0.000 C 
BRANCH   4   5
ATOM      5  C   UNL     1     -32.341  23.124  -9.994  1.00  0.00     0.000 C 
BRANCH   5   6
ATOM      6  C   UNL     1     -32.735  21.771  -9.370  1.00  0.00     0.000 C 
BRANCH   6   7
ATOM      7  C   UNL     1     -33.167  20.705 -10.401  1.00  0.00     0.000 C 
BRANCH   7   8
ATOM      8  C   UNL     1     -32.266  19.458 -10.385  1.00  0.00     0.000 C 
BRANCH   8   9
ATOM      9  C   UNL     1     -33.036  18.157 -10.682  1.00  0.00     0.000 C 
BRANCH   9  10
ATOM     10  C   UNL     1     -32.470  16.894 -10.008  1.00  0.00     0.000 C 
BRANCH  10  11
ATOM     11  C   UNL     1     -31.942  15.862 -11.018  1.00  0.00     0.000 C 
BRANCH  11  12
ATOM     12  C   UNL     1     -30.403  15.792 -11.052  1.00  0.00     0.006 C 
BRANCH  12  13
ATOM     13  C   UNL     1     -29.718  17.141 -11.336  1.00  0.00     0.053 C 
BRANCH  13  14
ATOM     14  C   UNL     1     -29.294  17.279 -12.767  1.00  0.00     0.041 C 
ATOM     15  O   UNL     1     -29.381  16.297 -13.552  1.00  0.00    -0.550 OA
ATOM     16  O   UNL     1     -28.766  18.479 -13.224  1.00  0.00    -0.550 OA
ENDBRANCH  13  14
ENDBRANCH  12  13
ENDBRANCH  11  12
ENDBRANCH  10  11
ENDBRANCH   9  10
ENDBRANCH   8   9
ENDBRANCH   7   8
ENDBRANCH   6   7
ENDBRANCH   5   6
ENDBRANCH   4   5
ENDBRANCH   3   4
ENDBRANCH   2   3
ENDBRANCH   1   2
BRANCH   1  17
ATOM     17  C   UNL     1     -27.042  21.690 -12.965  1.00  0.00     0.000 C 
BRANCH  17  18
ATOM     18  C   UNL     1     -26.846  23.050 -12.267  1.00  0.00     0.000 C 
BRANCH  18  19
ATOM     19  C   UNL     1     -25.650  23.125 -11.298  1.00  0.00     0.000 C 
BRANCH  19  20
ATOM     20  C   UNL     1     -26.047  22.873  -9.832  1.00  0.00     0.000 C 
BRANCH  20  21
ATOM     21  C   UNL     1     -27.402  22.157  -9.699  1.00  0.00     0.000 C 
BRANCH  21  22
ATOM     22  C   UNL     1     -27.434  21.162  -8.523  1.00  0.00    -0.000 C 
BRANCH  22  23
ATOM     23  C   UNL     1     -26.759  21.725  -7.259  1.00  0.00    -0.000 C 
BRANCH  23  24
ATOM     24  C   UNL     1     -25.576  20.861  -6.794  1.00  0.00    -0.000 C 
BRANCH  24  25
ATOM     25  C   UNL     1     -24.307  21.177  -7.595  1.00  0.00    -0.000 C 
BRANCH  25  26
ATOM     26  C   UNL     1     -23.131  21.471  -6.652  1.00  0.00    -0.000 C 
BRANCH  26  27
ATOM     27  C   UNL     1     -23.575  21.702  -5.198  1.00  0.00    -0.000 C 
BRANCH  27  28
ATOM     28  C   UNL     1     -24.009  20.401  -4.500  1.00  0.00    -0.000 C 
BRANCH  28  29
ATOM     29  C   UNL     1     -23.026  19.245  -4.750  1.00  0.00    -0.003 C 
ATOM     30  C   UNL     1     -22.696  18.459  -3.480  1.00  0.00     0.004 C 
ENDBRANCH  28  29
ENDBRANCH  27  28
ENDBRANCH  26  27
ENDBRANCH  25  26
ENDBRANCH  24  25
ENDBRANCH  23  24
ENDBRANCH  22  23
ENDBRANCH  21  22
ENDBRANCH  20  21
ENDBRANCH  19  20
ENDBRANCH  18  19
ENDBRANCH  17  18
ENDBRANCH   1  17
TORSDOF 26
ENDMDL
MODEL 8
REMARK VINA RESULT:    22.244      2.794      5.675
REMARK INTER + INTRA:          54.896
REMARK INTER:                  55.969
REMARK INTRA:                  -1.073
REMARK UNBOUND:                -1.158
REMARK SMILES CCCCCCCCCCCCCCCCCCCCCCCCCCCC(=O)[O-]
REMARK SMILES IDX 15 1 16 2 17 3 18 4 19 5 20 6 21 7 22 8 23 9 24 10 25 11
REMARK SMILES IDX 26 12 27 13 28 14 29 15 30 16 14 17 13 18 12 19 11 20 10 21
REMARK SMILES IDX 9 22 8 23 7 24 6 25 5 26 4 27 3 28 2 29 1 30
REMARK H PARENT
REMARK Flexibility Score: inf
ROOT
ATOM      1  C   UNL     1     -32.925  18.817  -9.952  1.00  0.00     0.000 C 
ENDROOT
BRANCH   1   2
ATOM      2  C   UNL     1     -32.439  17.766 -10.975  1.00  0.00     0.000 C 
BRANCH   2   3
ATOM      3  C   UNL     1     -30.983  17.305 -10.772  1.00  0.00     0.000 C 
BRANCH   3   4
ATOM      4  C   UNL     1     -30.732  15.797 -10.956  1.00  0.00     0.000 C 
BRANCH   4   5
ATOM      5  C   UNL     1     -29.623  15.430 -11.962  1.00  0.00     0.000 C 
BRANCH   5   6
ATOM      6  C   UNL     1     -29.431  16.428 -13.119  1.00  0.00     0.000 C 
BRANCH   6   7
ATOM      7  C   UNL     1     -29.274  15.764 -14.505  1.00  0.00     0.000 C 
BRANCH   7   8
ATOM      8  C   UNL     1     -28.832  14.293 -14.415  1.00  0.00     0.000 C 
BRANCH   8   9
ATOM      9  C   UNL     1     -27.626  13.972 -15.321  1.00  0.00     0.000 C 
BRANCH   9  10
ATOM     10  C   UNL     1     -26.631  12.948 -14.745  1.00  0.00     0.000 C 
BRANCH  10  11
ATOM     11  C   UNL     1     -25.193  13.167 -15.244  1.00  0.00     0.000 C 
BRANCH  11  12
ATOM     12  C   UNL     1     -24.639  11.956 -16.020  1.00  0.00     0.006 C 
BRANCH  12  13
ATOM     13  C   UNL     1     -23.579  11.148 -15.250  1.00  0.00     0.053 C 
BRANCH  13  14
ATOM     14  C   UNL     1     -23.019  10.019 -16.061  1.00  0.00     0.041 C 
ATOM     15  O   UNL     1     -21.992   9.404 -15.669  1.00  0.00    -0.550 OA
ATOM     16  O   UNL     1     -23.609   9.669 -17.268  1.00  0.00    -0.550 OA
ENDBRANCH  13  14
ENDBRANCH  12  13
ENDBRANCH  11  12
ENDBRANCH  10  11
ENDBRANCH   9  10
ENDBRANCH   8   9
ENDBRANCH   7   8
ENDBRANCH   6   7
ENDBRANCH   5   6
ENDBRANCH   4   5
ENDBRANCH   3   4
ENDBRANCH   2   3
ENDBRANCH   1   2
BRANCH   1  17
ATOM     17  C   UNL     1     -33.244  20.174 -10.602  1.00  0.00     0.000 C 
BRANCH  17  18
ATOM     18  C   UNL     1     -32.961  21.369  -9.673  1.00  0.00     0.000 C 
BRANCH  18  19
ATOM     19  C   UNL     1     -32.530  22.667 -10.384  1.00  0.00     0.000 C 
BRANCH  19  20
ATOM     20  C   UNL     1     -31.126  22.573 -11.008  1.00  0.00     0.000 C 
BRANCH  20  21
ATOM     21  C   UNL     1     -30.412  21.253 -10.667  1.00  0.00     0.000 C 
BRANCH  21  22
ATOM     22  C   UNL     1     -29.219  20.967 -11.599  1.00  0.00    -0.000 C 
BRANCH  22  23
ATOM     23  C   UNL     1     -28.538  22.256 -12.095  1.00  0.00    -0.000 C 
BRANCH  23  24
ATOM     24  C   UNL     1     -27.086  22.016 -12.537  1.00  0.00    -0.000 C 
BRANCH  24  25
ATOM     25  C   UNL     1     -26.092  22.603 -11.527  1.00  0.00    -0.000 C 
BRANCH  25  26
ATOM     26  C   UNL     1     -26.534  22.290 -10.089  1.00  0.00    -0.000 C 
BRANCH  26  27
ATOM     27  C   UNL     1     -25.396  22.455  -9.067  1.00  0.00    -0.000 C 
BRANCH  27  28
ATOM     28  C   UNL     1     -25.357  21.310  -8.039  1.00  0.00    -0.000 C 
BRANCH  28  29
ATOM     29  C   UNL     1     -23.968  21.145  -7.399  1.00  0.00    -0.003 C 
ATOM     30  C   UNL     1     -23.819  21.923  -6.092  1.00  0.00     0.004 C 
ENDBRANCH  28  29
ENDBRANCH  27  28
ENDBRANCH  26  27
ENDBRANCH  25  26
ENDBRANCH  24  25
ENDBRANCH  23  24
ENDBRANCH  22  23
ENDBRANCH  21  22
ENDBRANCH  20  21
ENDBRANCH  19  20
ENDBRANCH  18  19
ENDBRANCH  17  18
ENDBRANCH   1  17
TORSDOF 26
ENDMDL
MODEL 9
REMARK VINA RESULT:    22.387      5.504     12.559
REMARK INTER + INTRA:          55.256
REMARK INTER:                  56.327
REMARK INTRA:                  -1.071
REMARK UNBOUND:                -1.158
REMARK SMILES CCCCCCCCCCCCCCCCCCCCCCCCCCCC(=O)[O-]
REMARK SMILES IDX 15 1 16 2 17 3 18 4 19 5 20 6 21 7 22 8 23 9 24 10 25 11
REMARK SMILES IDX 26 12 27 13 28 14 29 15 30 16 14 17 13 18 12 19 11 20 10 21
REMARK SMILES IDX 9 22 8 23 7 24 6 25 5 26 4 27 3 28 2 29 1 30
REMARK H PARENT
REMARK Flexibility Score: inf
ROOT
ATOM      1  C   UNL     1     -32.088  16.761 -10.756  1.00  0.00     0.000 C 
ENDROOT
BRANCH   1   2
ATOM      2  C   UNL     1     -31.626  18.190 -10.396  1.00  0.00     0.000 C 
BRANCH   2   3
ATOM      3  C   UNL     1     -32.662  19.290 -10.700  1.00  0.00     0.000 C 
BRANCH   3   4
ATOM      4  C   UNL     1     -32.596  20.534  -9.793  1.00  0.00     0.000 C 
BRANCH   4   5
ATOM      5  C   UNL     1     -32.913  21.874 -10.486  1.00  0.00     0.000 C 
BRANCH   5   6
ATOM      6  C   UNL     1     -31.717  22.832 -10.640  1.00  0.00     0.000 C 
BRANCH   6   7
ATOM      7  C   UNL     1     -30.653  22.353 -11.652  1.00  0.00     0.000 C 
BRANCH   7   8
ATOM      8  C   UNL     1     -29.715  21.280 -11.070  1.00  0.00     0.000 C 
BRANCH   8   9
ATOM      9  C   UNL     1     -28.748  20.696 -12.119  1.00  0.00     0.000 C 
BRANCH   9  10
ATOM     10  C   UNL     1     -27.832  21.724 -12.807  1.00  0.00     0.000 C 
BRANCH  10  11
ATOM     11  C   UNL     1     -27.291  22.787 -11.837  1.00  0.00     0.000 C 
BRANCH  11  12
ATOM     12  C   UNL     1     -25.997  22.346 -11.127  1.00  0.00     0.006 C 
BRANCH  12  13
ATOM     13  C   UNL     1     -25.818  22.942  -9.720  1.00  0.00     0.053 C 
BRANCH  13  14
ATOM     14  C   UNL     1     -26.013  21.924  -8.637  1.00  0.00     0.041 C 
ATOM     15  O   UNL     1     -25.019  21.342  -8.127  1.00  0.00    -0.550 OA
ATOM     16  O   UNL     1     -27.294  21.591  -8.218  1.00  0.00    -0.550 OA
ENDBRANCH  13  14
ENDBRANCH  12  13
ENDBRANCH  11  12
ENDBRANCH  10  11
ENDBRANCH   9  10
ENDBRANCH   8   9
ENDBRANCH   7   8
ENDBRANCH   6   7
ENDBRANCH   5   6
ENDBRANCH   4   5
ENDBRANCH   3   4
ENDBRANCH   2   3
ENDBRANCH   1   2
BRANCH   1  17
ATOM     17  C   UNL     1     -30.912  15.798 -10.988  1.00  0.00     0.000 C 
BRANCH  17  18
ATOM     18  C   UNL     1     -29.594  16.523 -11.318  1.00  0.00     0.000 C 
BRANCH  18  19
ATOM     19  C   UNL     1     -29.642  17.442 -12.555  1.00  0.00     0.000 C 
BRANCH  19  20
ATOM     20  C   UNL     1     -29.149  16.750 -13.838  1.00  0.00     0.000 C 
BRANCH  20  21
ATOM     21  C   UNL     1     -29.181  15.215 -13.734  1.00  0.00     0.000 C 
BRANCH  21  22
ATOM     22  C   UNL     1     -28.706  14.524 -15.027  1.00  0.00    -0.000 C 
BRANCH  22  23
ATOM     23  C   UNL     1     -27.658  13.429 -14.756  1.00  0.00    -0.000 C 
BRANCH  23  24
ATOM     24  C   UNL     1     -26.234  13.879 -15.120  1.00  0.00    -0.000 C 
BRANCH  24  25
ATOM     25  C   UNL     1     -25.344  12.682 -15.472  1.00  0.00    -0.000 C 
BRANCH  25  26
ATOM     26  C   UNL     1     -24.889  12.758 -16.937  1.00  0.00    -0.000 C 
BRANCH  26  27
ATOM     27  C   UNL     1     -23.888  11.651 -17.309  1.00  0.00    -0.000 C 
BRANCH  27  28
ATOM     28  C   UNL     1     -23.633  10.672 -16.150  1.00  0.00    -0.000 C 
BRANCH  28  29
ATOM     29  C   UNL     1     -22.609   9.584 -16.515  1.00  0.00    -0.003 C 
ATOM     30  C   UNL     1     -21.622   9.293 -15.384  1.00  0.00     0.004 C 
ENDBRANCH  28  29
ENDBRANCH  27  28
ENDBRANCH  26  27
ENDBRANCH  25  26
ENDBRANCH  24  25
ENDBRANCH  23  24
ENDBRANCH  22  23
ENDBRANCH  21  22
ENDBRANCH  20  21
ENDBRANCH  19  20
ENDBRANCH  18  19
ENDBRANCH  17  18
ENDBRANCH   1  17
TORSDOF 26
ENDMDL
