MODEL 1
REMARK VINA RESULT:    53.700      0.000      0.000
REMARK INTER + INTRA:          59.589
REMARK INTER:                  58.409
REMARK INTRA:                   1.180
REMARK UNBOUND:                 1.180
REMARK SMILES C[C@@H]1[C@H]2C3=CC[C@H]4[C@@]5(C)CC[C@@H](O)C(C)(C)[C@@H]5CC[C@@]4(C)[C@@]3(C)CC[C@@]2(C(=O)[O-])CC[C@@H]1C
REMARK SMILES IDX 26 1 30 2 25 3 3 4 31 5 24 6 4 7 2 8 32 9 22 10 5 11 1 12
REMARK SMILES IDX 33 13 23 14 20 15 6 16 7 17 19 18 21 19 8 20 18 21 17 22
REMARK SMILES IDX 10 23 9 24 14 25 11 26 12 27 15 28 16 29 27 30 28 31 29 32
REMARK SMILES IDX 13 33
REMARK H PARENT 13 34
REMARK Flexibility Score: inf
ROOT
ATOM      1  C   UNL     1       8.152 -34.904  15.033  1.00  0.00     0.017 C 
ATOM      2  C   UNL     1       9.039 -36.119  15.441  1.00  0.00     0.014 C 
ATOM      3  C   UNL     1       8.667 -34.389  13.649  1.00  0.00     0.014 C 
ATOM      4  C   UNL     1       8.248 -33.782  16.134  1.00  0.00     0.030 C 
ATOM      5  C   UNL     1       8.723 -36.664  16.835  1.00  0.00     0.004 C 
ATOM      6  C   UNL     1       8.613 -32.858  13.494  1.00  0.00     0.013 C 
ATOM      7  C   UNL     1       9.468 -32.869  15.867  1.00  0.00    -0.063 C 
ATOM      8  C   UNL     1       8.057 -34.318  17.604  1.00  0.00    -0.003 C 
ATOM      9  C   UNL     1       8.938 -35.574  17.889  1.00  0.00    -0.011 C 
ATOM     10  C   UNL     1       9.462 -32.058  14.567  1.00  0.00    -0.006 C 
ATOM     11  C   UNL     1      10.419 -32.654  16.788  1.00  0.00    -0.027 C 
ATOM     12  C   UNL     1       6.565 -34.549  17.942  1.00  0.00     0.008 C 
ATOM     13  C   UNL     1       8.745 -36.138  19.305  1.00  0.00     0.008 C 
ATOM     14  C   UNL     1       8.674 -30.749  14.898  1.00  0.00     0.017 C 
ATOM     15  C   UNL     1      10.952 -31.691  14.052  1.00  0.00    -0.020 C 
ATOM     16  C   UNL     1      11.659 -31.852  16.574  1.00  0.00     0.032 C 
ATOM     17  C   UNL     1      11.825 -31.069  15.231  1.00  0.00     0.006 C 
ATOM     18  C   UNL     1      11.688 -32.958  13.518  1.00  0.00     0.008 C 
ATOM     19  C   UNL     1      10.815 -30.659  12.875  1.00  0.00     0.012 C 
ATOM     20  C   UNL     1      13.380 -30.839  14.884  1.00  0.00    -0.025 C 
ATOM     21  C   UNL     1      13.176 -32.759  13.166  1.00  0.00     0.005 C 
ATOM     22  C   UNL     1      13.983 -32.199  14.358  1.00  0.00     0.003 C 
ATOM     23  C   UNL     1      14.185 -30.387  16.156  1.00  0.00     0.010 C 
ATOM     24  C   UNL     1      13.513 -29.664  13.856  1.00  0.00     0.012 C 
ATOM     25  C   UNL     1      15.556 -32.248  14.182  1.00  0.00    -0.006 C 
ATOM     26  C   UNL     1      15.714 -30.379  15.960  1.00  0.00     0.033 C 
ATOM     27  C   UNL     1      16.239 -31.748  15.499  1.00  0.00     0.120 C 
ATOM     28  C   UNL     1      16.023 -33.712  13.943  1.00  0.00     0.014 C 
ATOM     29  C   UNL     1      16.068 -31.429  12.970  1.00  0.00     0.014 C 
ENDROOT
BRANCH   1  30
ATOM     30  C   UNL     1       6.699 -35.333  14.837  1.00  0.00     0.048 C 
ATOM     31  O   UNL     1       6.056 -34.986  13.808  1.00  0.00    -0.550 OA
ATOM     32  O   UNL     1       6.025 -36.015  15.845  1.00  0.00    -0.550 OA
ENDBRANCH   1  30
BRANCH  27  33
ATOM     33  O   UNL     1      16.045 -32.684  16.533  1.00  0.00    -0.393 OA
ATOM     34  H   UNL     1      16.250 -32.221  17.387  1.00  0.00     0.210 HD
ENDBRANCH  27  33
TORSDOF 2
ENDMDL
MODEL 2
REMARK VINA RESULT:    55.626      0.864      0.981
REMARK INTER + INTRA:          61.685
REMARK INTER:                  61.748
REMARK INTRA:                  -0.063
REMARK UNBOUND:                 1.180
REMARK SMILES C[C@@H]1[C@H]2C3=CC[C@H]4[C@@]5(C)CC[C@@H](O)C(C)(C)[C@@H]5CC[C@@]4(C)[C@@]3(C)CC[C@@]2(C(=O)[O-])CC[C@@H]1C
REMARK SMILES IDX 26 1 30 2 25 3 3 4 31 5 24 6 4 7 2 8 32 9 22 10 5 11 1 12
REMARK SMILES IDX 33 13 23 14 20 15 6 16 7 17 19 18 21 19 8 20 18 21 17 22
REMARK SMILES IDX 10 23 9 24 14 25 11 26 12 27 15 28 16 29 27 30 28 31 29 32
REMARK SMILES IDX 13 33
REMARK H PARENT 13 34
REMARK Flexibility Score: inf
ROOT
ATOM      1  C   UNL     1       8.277 -34.147  14.326  1.00  0.00     0.017 C 
ATOM      2  C   UNL     1       8.966 -35.517  14.610  1.00  0.00     0.014 C 
ATOM      3  C   UNL     1       8.943 -33.541  13.048  1.00  0.00     0.014 C 
ATOM      4  C   UNL     1       8.451 -33.196  15.569  1.00  0.00     0.030 C 
ATOM      5  C   UNL     1       8.491 -36.181  15.903  1.00  0.00     0.004 C 
ATOM      6  C   UNL     1       9.104 -32.010  13.094  1.00  0.00     0.013 C 
ATOM      7  C   UNL     1       9.797 -32.438  15.482  1.00  0.00    -0.063 C 
ATOM      8  C   UNL     1       8.097 -33.880  16.945  1.00  0.00    -0.003 C 
ATOM      9  C   UNL     1       8.782 -35.272  17.101  1.00  0.00    -0.011 C 
ATOM     10  C   UNL     1       9.981 -31.478  14.302  1.00  0.00    -0.006 C 
ATOM     11  C   UNL     1      10.706 -32.475  16.467  1.00  0.00    -0.027 C 
ATOM     12  C   UNL     1       6.569 -33.938  17.180  1.00  0.00     0.008 C 
ATOM     13  C   UNL     1       8.425 -35.976  18.420  1.00  0.00     0.008 C 
ATOM     14  C   UNL     1       9.356 -30.123  14.767  1.00  0.00     0.017 C 
ATOM     15  C   UNL     1      11.537 -31.262  13.910  1.00  0.00    -0.020 C 
ATOM     16  C   UNL     1      12.054 -31.834  16.418  1.00  0.00     0.032 C 
ATOM     17  C   UNL     1      12.408 -30.921  15.200  1.00  0.00     0.006 C 
ATOM     18  C   UNL     1      12.130 -32.544  13.247  1.00  0.00     0.008 C 
ATOM     19  C   UNL     1      11.615 -30.082  12.875  1.00  0.00     0.012 C 
ATOM     20  C   UNL     1      13.999 -30.871  14.959  1.00  0.00    -0.025 C 
ATOM     21  C   UNL     1      13.651 -32.513  12.994  1.00  0.00     0.005 C 
ATOM     22  C   UNL     1      14.448 -32.225  14.285  1.00  0.00     0.003 C 
ATOM     23  C   UNL     1      14.774 -30.698  16.315  1.00  0.00     0.010 C 
ATOM     24  C   UNL     1      14.353 -29.607  14.103  1.00  0.00     0.012 C 
ATOM     25  C   UNL     1      16.008 -32.472  14.178  1.00  0.00    -0.006 C 
ATOM     26  C   UNL     1      16.300 -30.881  16.192  1.00  0.00     0.033 C 
ATOM     27  C   UNL     1      16.666 -32.242  15.579  1.00  0.00     0.120 C 
ATOM     28  C   UNL     1      16.290 -33.946  13.769  1.00  0.00     0.014 C 
ATOM     29  C   UNL     1      16.701 -31.589  13.109  1.00  0.00     0.014 C 
ENDROOT
BRANCH   1  30
ATOM     30  C   UNL     1       6.795 -34.340  14.007  1.00  0.00     0.048 C 
ATOM     31  O   UNL     1       6.355 -35.461  13.632  1.00  0.00    -0.550 OA
ATOM     32  O   UNL     1       5.928 -33.252  14.014  1.00  0.00    -0.550 OA
ENDBRANCH   1  30
BRANCH  27  33
ATOM     33  O   UNL     1      16.284 -33.263  16.470  1.00  0.00    -0.393 OA
ATOM     34  H   UNL     1      17.057 -33.433  17.068  1.00  0.00     0.210 HD
ENDBRANCH  27  33
TORSDOF 2
ENDMDL
