MODEL 1
REMARK VINA RESULT:    -5.991      0.000      0.000
REMARK INTER + INTRA:          -7.448
REMARK INTER:                  -7.217
REMARK INTRA:                  -0.231
REMARK UNBOUND:                -0.231
REMARK SMILES O=c1c(O)c(-c2ccc(O)c(O)c2)oc2cc(O)cc(O)c12
REMARK SMILES IDX 5 1 3 2 2 3 1 4 22 5 20 6 19 7 17 8 16 9 15 10 14 11 6 12
REMARK SMILES IDX 7 13 8 14 9 15 13 16 11 17 10 18 12 20 4 22 21 24 18 26
REMARK H PARENT 10 19 12 21 4 23 21 25 18 27
REMARK Flexibility Score: inf
ROOT
ATOM      1  C   UNL     1       8.758  -1.224   9.605  1.00  0.00     0.180 A 
ATOM      2  C   UNL     1       7.468  -1.538  10.068  1.00  0.00     0.208 A 
ATOM      3  C   UNL     1       7.049  -2.879  10.056  1.00  0.00     0.238 A 
ATOM      4  O   UNL     1       5.875  -3.148  10.421  1.00  0.00    -0.285 OA
ATOM      5  C   UNL     1       7.929  -3.888   9.595  1.00  0.00     0.111 A 
ATOM      6  C   UNL     1       7.623  -5.282   9.575  1.00  0.00     0.134 A 
ATOM      7  C   UNL     1       8.519  -6.177   8.977  1.00  0.00     0.093 A 
ATOM      8  C   UNL     1       9.737  -5.735   8.456  1.00  0.00     0.123 A 
ATOM      9  C   UNL     1      10.070  -4.385   8.524  1.00  0.00     0.094 A 
ATOM     10  C   UNL     1       9.182  -3.463   9.082  1.00  0.00     0.146 A 
ATOM     11  O   UNL     1       9.535  -2.184   9.118  1.00  0.00    -0.452 OA
ENDROOT
BRANCH   1  12
ATOM     12  C   UNL     1       9.279   0.162   9.611  1.00  0.00     0.025 A 
ATOM     13  C   UNL     1       8.801   1.085   8.666  1.00  0.00     0.016 A 
ATOM     14  C   UNL     1       9.294   2.392   8.639  1.00  0.00     0.051 A 
ATOM     15  C   UNL     1      10.284   2.792   9.544  1.00  0.00     0.157 A 
ATOM     16  C   UNL     1      10.289   0.562  10.504  1.00  0.00     0.062 A 
ATOM     17  C   UNL     1      10.787   1.873  10.478  1.00  0.00     0.158 A 
BRANCH  15  18
ATOM     18  O   UNL     1      10.756   4.104   9.494  1.00  0.00    -0.504 OA
ATOM     19  H   UNL     1      10.286   4.862   9.973  1.00  0.00     0.293 HD
ENDBRANCH  15  18
BRANCH  17  20
ATOM     20  O   UNL     1      11.783   2.261  11.372  1.00  0.00    -0.504 OA
ATOM     21  H   UNL     1      12.049   3.233  11.482  1.00  0.00     0.293 HD
ENDBRANCH  17  20
ENDBRANCH   1  12
BRANCH   2  22
ATOM     22  O   UNL     1       6.609  -0.524  10.498  1.00  0.00    -0.502 OA
ATOM     23  H   UNL     1       6.810   0.053  11.306  1.00  0.00     0.293 HD
ENDBRANCH   2  22
BRANCH   6  24
ATOM     24  O   UNL     1       6.476  -5.837  10.149  1.00  0.00    -0.507 OA
ATOM     25  H   UNL     1       5.891  -6.530   9.709  1.00  0.00     0.293 HD
ENDBRANCH   6  24
BRANCH   8  26
ATOM     26  O   UNL     1      10.629  -6.635   7.876  1.00  0.00    -0.508 OA
ATOM     27  H   UNL     1      10.307  -7.466   7.394  1.00  0.00     0.293 HD
ENDBRANCH   8  26
TORSDOF 6
ENDMDL
MODEL 2
REMARK VINA RESULT:    -5.199      2.721      4.711
REMARK INTER + INTRA:          -6.494
REMARK INTER:                  -6.168
REMARK INTRA:                  -0.326
REMARK UNBOUND:                -0.231
REMARK SMILES O=c1c(O)c(-c2ccc(O)c(O)c2)oc2cc(O)cc(O)c12
REMARK SMILES IDX 5 1 3 2 2 3 1 4 22 5 20 6 19 7 17 8 16 9 15 10 14 11 6 12
REMARK SMILES IDX 7 13 8 14 9 15 13 16 11 17 10 18 12 20 4 22 21 24 18 26
REMARK H PARENT 10 19 12 21 4 23 21 25 18 27
REMARK Flexibility Score: inf
ROOT
ATOM      1  C   UNL     1       7.283  -4.311  10.222  1.00  0.00     0.180 A 
ATOM      2  C   UNL     1       7.087  -5.278   9.222  1.00  0.00     0.208 A 
ATOM      3  C   UNL     1       6.772  -6.594   9.600  1.00  0.00     0.238 A 
ATOM      4  O   UNL     1       6.650  -7.468   8.703  1.00  0.00    -0.285 OA
ATOM      5  C   UNL     1       6.642  -6.921  10.971  1.00  0.00     0.111 A 
ATOM      6  C   UNL     1       6.286  -8.212  11.467  1.00  0.00     0.134 A 
ATOM      7  C   UNL     1       6.315  -8.454  12.845  1.00  0.00     0.093 A 
ATOM      8  C   UNL     1       6.623  -7.435  13.749  1.00  0.00     0.123 A 
ATOM      9  C   UNL     1       6.913  -6.157  13.279  1.00  0.00     0.094 A 
ATOM     10  C   UNL     1       6.927  -5.893  11.907  1.00  0.00     0.146 A 
ATOM     11  O   UNL     1       7.219  -4.664  11.501  1.00  0.00    -0.452 OA
ENDROOT
BRANCH   1  12
ATOM     12  C   UNL     1       7.593  -2.898   9.901  1.00  0.00     0.025 A 
ATOM     13  C   UNL     1       8.932  -2.499   9.766  1.00  0.00     0.016 A 
ATOM     14  C   UNL     1       9.249  -1.167   9.485  1.00  0.00     0.051 A 
ATOM     15  C   UNL     1       8.236  -0.213   9.350  1.00  0.00     0.157 A 
ATOM     16  C   UNL     1       6.577  -1.933   9.787  1.00  0.00     0.062 A 
ATOM     17  C   UNL     1       6.893  -0.595   9.506  1.00  0.00     0.158 A 
BRANCH  15  18
ATOM     18  O   UNL     1       8.582   1.108   9.067  1.00  0.00    -0.504 OA
ATOM     19  H   UNL     1       7.889   1.844   9.004  1.00  0.00     0.293 HD
ENDBRANCH  15  18
BRANCH  17  20
ATOM     20  O   UNL     1       5.880   0.353   9.388  1.00  0.00    -0.504 OA
ATOM     21  H   UNL     1       5.155   0.448  10.090  1.00  0.00     0.293 HD
ENDBRANCH  17  20
ENDBRANCH   1  12
BRANCH   2  22
ATOM     22  O   UNL     1       7.241  -4.939   7.875  1.00  0.00    -0.502 OA
ATOM     23  H   UNL     1       7.850  -4.188   7.570  1.00  0.00     0.293 HD
ENDBRANCH   2  22
BRANCH   6  24
ATOM     24  O   UNL     1       5.875  -9.272  10.654  1.00  0.00    -0.507 OA
ATOM     25  H   UNL     1       6.479  -9.788  10.033  1.00  0.00     0.293 HD
ENDBRANCH   6  24
BRANCH   8  26
ATOM     26  O   UNL     1       6.634  -7.681  15.121  1.00  0.00    -0.508 OA
ATOM     27  H   UNL     1       6.989  -8.550  15.501  1.00  0.00     0.293 HD
ENDBRANCH   8  26
TORSDOF 6
ENDMDL
MODEL 3
REMARK VINA RESULT:    -4.887      3.621      5.511
REMARK INTER + INTRA:          -6.118
REMARK INTER:                  -6.019
REMARK INTRA:                  -0.099
REMARK UNBOUND:                -0.231
REMARK SMILES O=c1c(O)c(-c2ccc(O)c(O)c2)oc2cc(O)cc(O)c12
REMARK SMILES IDX 5 1 3 2 2 3 1 4 22 5 20 6 19 7 17 8 16 9 15 10 14 11 6 12
REMARK SMILES IDX 7 13 8 14 9 15 13 16 11 17 10 18 12 20 4 22 21 24 18 26
REMARK H PARENT 10 19 12 21 4 23 21 25 18 27
REMARK Flexibility Score: inf
ROOT
ATOM      1  C   UNL     1       8.305  -5.835  11.123  1.00  0.00     0.180 A 
ATOM      2  C   UNL     1       7.102  -6.423  11.554  1.00  0.00     0.208 A 
ATOM      3  C   UNL     1       7.157  -7.567  12.366  1.00  0.00     0.238 A 
ATOM      4  O   UNL     1       6.079  -8.120  12.704  1.00  0.00    -0.285 OA
ATOM      5  C   UNL     1       8.412  -8.100  12.749  1.00  0.00     0.111 A 
ATOM      6  C   UNL     1       8.585  -9.232  13.601  1.00  0.00     0.134 A 
ATOM      7  C   UNL     1       9.869  -9.751  13.808  1.00  0.00     0.093 A 
ATOM      8  C   UNL     1      10.992  -9.139  13.245  1.00  0.00     0.123 A 
ATOM      9  C   UNL     1      10.838  -7.999  12.460  1.00  0.00     0.094 A 
ATOM     10  C   UNL     1       9.567  -7.479  12.207  1.00  0.00     0.146 A 
ATOM     11  O   UNL     1       9.464  -6.397  11.445  1.00  0.00    -0.452 OA
ENDROOT
BRANCH   1  12
ATOM     12  C   UNL     1       8.328  -4.614  10.286  1.00  0.00     0.025 A 
ATOM     13  C   UNL     1       9.045  -4.616   9.079  1.00  0.00     0.016 A 
ATOM     14  C   UNL     1       9.099  -3.469   8.284  1.00  0.00     0.051 A 
ATOM     15  C   UNL     1       8.451  -2.297   8.690  1.00  0.00     0.157 A 
ATOM     16  C   UNL     1       7.696  -3.428  10.702  1.00  0.00     0.062 A 
ATOM     17  C   UNL     1       7.750  -2.274   9.907  1.00  0.00     0.158 A 
BRANCH  15  18
ATOM     18  O   UNL     1       8.521  -1.168   7.875  1.00  0.00    -0.504 OA
ATOM     19  H   UNL     1       9.272  -0.493   7.954  1.00  0.00     0.293 HD
ENDBRANCH  15  18
BRANCH  17  20
ATOM     20  O   UNL     1       7.115  -1.106  10.324  1.00  0.00    -0.504 OA
ATOM     21  H   UNL     1       7.280  -0.218   9.865  1.00  0.00     0.293 HD
ENDBRANCH  17  20
ENDBRANCH   1  12
BRANCH   2  22
ATOM     22  O   UNL     1       5.876  -5.893  11.146  1.00  0.00    -0.502 OA
ATOM     23  H   UNL     1       5.761  -4.918  10.896  1.00  0.00     0.293 HD
ENDBRANCH   2  22
BRANCH   6  24
ATOM     24  O   UNL     1       7.541  -9.861  14.285  1.00  0.00    -0.507 OA
ATOM     25  H   UNL     1       7.404  -9.828  15.283  1.00  0.00     0.293 HD
ENDBRANCH   6  24
BRANCH   8  26
ATOM     26  O   UNL     1      12.268  -9.653  13.468  1.00  0.00    -0.508 OA
ATOM     27  H   UNL     1      12.519 -10.081  14.351  1.00  0.00     0.293 HD
ENDBRANCH   8  26
TORSDOF 6
ENDMDL
MODEL 4
REMARK VINA RESULT:    -4.855      2.350      3.788
REMARK INTER + INTRA:          -6.079
REMARK INTER:                  -5.797
REMARK INTRA:                  -0.282
REMARK UNBOUND:                -0.231
REMARK SMILES O=c1c(O)c(-c2ccc(O)c(O)c2)oc2cc(O)cc(O)c12
REMARK SMILES IDX 5 1 3 2 2 3 1 4 22 5 20 6 19 7 17 8 16 9 15 10 14 11 6 12
REMARK SMILES IDX 7 13 8 14 9 15 13 16 11 17 10 18 12 20 4 22 21 24 18 26
REMARK H PARENT 10 19 12 21 4 23 21 25 18 27
REMARK Flexibility Score: inf
ROOT
ATOM      1  C   UNL     1       7.776  -3.223  10.057  1.00  0.00     0.180 A 
ATOM      2  C   UNL     1       7.961  -4.270   9.138  1.00  0.00     0.208 A 
ATOM      3  C   UNL     1       7.632  -5.580   9.523  1.00  0.00     0.238 A 
ATOM      4  O   UNL     1       7.849  -6.520   8.715  1.00  0.00    -0.285 OA
ATOM      5  C   UNL     1       7.108  -5.823  10.816  1.00  0.00     0.111 A 
ATOM      6  C   UNL     1       6.703  -7.105  11.298  1.00  0.00     0.134 A 
ATOM      7  C   UNL     1       6.322  -7.249  12.638  1.00  0.00     0.093 A 
ATOM      8  C   UNL     1       6.270  -6.147  13.494  1.00  0.00     0.123 A 
ATOM      9  C   UNL     1       6.606  -4.883  13.017  1.00  0.00     0.094 A 
ATOM     10  C   UNL     1       7.024  -4.713  11.696  1.00  0.00     0.146 A 
ATOM     11  O   UNL     1       7.346  -3.492  11.285  1.00  0.00    -0.452 OA
ENDROOT
BRANCH   1  12
ATOM     12  C   UNL     1       8.077  -1.813   9.716  1.00  0.00     0.025 A 
ATOM     13  C   UNL     1       7.185  -1.093   8.906  1.00  0.00     0.016 A 
ATOM     14  C   UNL     1       7.459   0.231   8.553  1.00  0.00     0.051 A 
ATOM     15  C   UNL     1       8.635   0.849   8.990  1.00  0.00     0.157 A 
ATOM     16  C   UNL     1       9.269  -1.196  10.136  1.00  0.00     0.062 A 
ATOM     17  C   UNL     1       9.547   0.133   9.782  1.00  0.00     0.158 A 
BRANCH  15  18
ATOM     18  O   UNL     1       8.881   2.173   8.624  1.00  0.00    -0.504 OA
ATOM     19  H   UNL     1       9.561   2.746   9.107  1.00  0.00     0.293 HD
ENDBRANCH  15  18
BRANCH  17  20
ATOM     20  O   UNL     1      10.727   0.738  10.209  1.00  0.00    -0.504 OA
ATOM     21  H   UNL     1      10.759   1.717  10.467  1.00  0.00     0.293 HD
ENDBRANCH  17  20
ENDBRANCH   1  12
BRANCH   2  22
ATOM     22  O   UNL     1       8.499  -4.009   7.875  1.00  0.00    -0.502 OA
ATOM     23  H   UNL     1       8.841  -3.094   7.608  1.00  0.00     0.293 HD
ENDBRANCH   2  22
BRANCH   6  24
ATOM     24  O   UNL     1       6.632  -8.251  10.501  1.00  0.00    -0.507 OA
ATOM     25  H   UNL     1       5.834  -8.514   9.944  1.00  0.00     0.293 HD
ENDBRANCH   6  24
BRANCH   8  26
ATOM     26  O   UNL     1       5.875  -6.298  14.822  1.00  0.00    -0.508 OA
ATOM     27  H   UNL     1       6.541  -6.239  15.584  1.00  0.00     0.293 HD
ENDBRANCH   8  26
TORSDOF 6
ENDMDL
MODEL 5
REMARK VINA RESULT:    -4.154      1.899      2.177
REMARK INTER + INTRA:          -5.235
REMARK INTER:                  -5.776
REMARK INTRA:                   0.541
REMARK UNBOUND:                -0.231
REMARK SMILES O=c1c(O)c(-c2ccc(O)c(O)c2)oc2cc(O)cc(O)c12
REMARK SMILES IDX 5 1 3 2 2 3 1 4 22 5 20 6 19 7 17 8 16 9 15 10 14 11 6 12
REMARK SMILES IDX 7 13 8 14 9 15 13 16 11 17 10 18 12 20 4 22 21 24 18 26
REMARK H PARENT 10 19 12 21 4 23 21 25 18 27
REMARK Flexibility Score: inf
ROOT
ATOM      1  C   UNL     1       8.238  -2.318   9.663  1.00  0.00     0.180 A 
ATOM      2  C   UNL     1       7.197  -2.807   8.855  1.00  0.00     0.208 A 
ATOM      3  C   UNL     1       6.771  -4.135   9.024  1.00  0.00     0.238 A 
ATOM      4  O   UNL     1       5.875  -4.583   8.262  1.00  0.00    -0.285 OA
ATOM      5  C   UNL     1       7.380  -4.950  10.007  1.00  0.00     0.111 A 
ATOM      6  C   UNL     1       7.001  -6.297  10.292  1.00  0.00     0.134 A 
ATOM      7  C   UNL     1       7.759  -7.052  11.195  1.00  0.00     0.093 A 
ATOM      8  C   UNL     1       8.843  -6.488  11.872  1.00  0.00     0.123 A 
ATOM      9  C   UNL     1       9.184  -5.157  11.646  1.00  0.00     0.094 A 
ATOM     10  C   UNL     1       8.469  -4.389  10.724  1.00  0.00     0.146 A 
ATOM     11  O   UNL     1       8.834  -3.128  10.530  1.00  0.00    -0.452 OA
ENDROOT
BRANCH   1  12
ATOM     12  C   UNL     1       8.725  -0.923   9.560  1.00  0.00     0.025 A 
ATOM     13  C   UNL     1       8.077  -0.027   8.695  1.00  0.00     0.016 A 
ATOM     14  C   UNL     1       8.532   1.288   8.566  1.00  0.00     0.051 A 
ATOM     15  C   UNL     1       9.650   1.722   9.286  1.00  0.00     0.157 A 
ATOM     16  C   UNL     1       9.861  -0.490  10.267  1.00  0.00     0.062 A 
ATOM     17  C   UNL     1      10.321   0.829  10.138  1.00  0.00     0.158 A 
BRANCH  15  18
ATOM     18  O   UNL     1      10.080   3.041   9.139  1.00  0.00    -0.504 OA
ATOM     19  H   UNL     1       9.440   3.792   8.911  1.00  0.00     0.293 HD
ENDBRANCH  15  18
BRANCH  17  20
ATOM     20  O   UNL     1      11.443   1.252  10.847  1.00  0.00    -0.504 OA
ATOM     21  H   UNL     1      11.528   2.200  11.193  1.00  0.00     0.293 HD
ENDBRANCH  17  20
ENDBRANCH   1  12
BRANCH   2  22
ATOM     22  O   UNL     1       6.624  -1.991   7.876  1.00  0.00    -0.502 OA
ATOM     23  H   UNL     1       5.943  -2.336   7.210  1.00  0.00     0.293 HD
ENDBRANCH   2  22
BRANCH   6  24
ATOM     24  O   UNL     1       5.881  -6.926   9.739  1.00  0.00    -0.507 OA
ATOM     25  H   UNL     1       5.203  -7.457  10.262  1.00  0.00     0.293 HD
ENDBRANCH   6  24
BRANCH   8  26
ATOM     26  O   UNL     1       9.582  -7.242  12.781  1.00  0.00    -0.508 OA
ATOM     27  H   UNL     1       9.145  -7.943  13.368  1.00  0.00     0.293 HD
ENDBRANCH   8  26
TORSDOF 6
ENDMDL
MODEL 6
REMARK VINA RESULT:    -4.134      5.395      8.038
REMARK INTER + INTRA:          -5.211
REMARK INTER:                  -5.214
REMARK INTRA:                   0.003
REMARK UNBOUND:                -0.231
REMARK SMILES O=c1c(O)c(-c2ccc(O)c(O)c2)oc2cc(O)cc(O)c12
REMARK SMILES IDX 5 1 3 2 2 3 1 4 22 5 20 6 19 7 17 8 16 9 15 10 14 11 6 12
REMARK SMILES IDX 7 13 8 14 9 15 13 16 11 17 10 18 12 20 4 22 21 24 18 26
REMARK H PARENT 10 19 12 21 4 23 21 25 18 27
REMARK Flexibility Score: inf
ROOT
ATOM      1  C   UNL     1       8.706  -7.660  12.639  1.00  0.00     0.180 A 
ATOM      2  C   UNL     1      10.038  -8.100  12.741  1.00  0.00     0.208 A 
ATOM      3  C   UNL     1      10.301  -9.339  13.347  1.00  0.00     0.238 A 
ATOM      4  O   UNL     1      11.497  -9.703  13.484  1.00  0.00    -0.285 OA
ATOM      5  C   UNL     1       9.229 -10.129  13.828  1.00  0.00     0.111 A 
ATOM      6  C   UNL     1       9.376 -11.419  14.423  1.00  0.00     0.134 A 
ATOM      7  C   UNL     1       8.260 -12.053  14.981  1.00  0.00     0.093 A 
ATOM      8  C   UNL     1       6.991 -11.473  14.909  1.00  0.00     0.123 A 
ATOM      9  C   UNL     1       6.827 -10.243  14.277  1.00  0.00     0.094 A 
ATOM     10  C   UNL     1       7.928  -9.569  13.742  1.00  0.00     0.146 A 
ATOM     11  O   UNL     1       7.729  -8.394  13.159  1.00  0.00    -0.452 OA
ENDROOT
BRANCH   1  12
ATOM     12  C   UNL     1       8.349  -6.377  11.991  1.00  0.00     0.025 A 
ATOM     13  C   UNL     1       7.430  -5.520  12.617  1.00  0.00     0.016 A 
ATOM     14  C   UNL     1       7.061  -4.314  12.015  1.00  0.00     0.051 A 
ATOM     15  C   UNL     1       7.592  -3.955  10.771  1.00  0.00     0.157 A 
ATOM     16  C   UNL     1       8.865  -6.023  10.732  1.00  0.00     0.062 A 
ATOM     17  C   UNL     1       8.496  -4.814  10.124  1.00  0.00     0.158 A 
BRANCH  15  18
ATOM     18  O   UNL     1       7.208  -2.744  10.195  1.00  0.00    -0.504 OA
ATOM     19  H   UNL     1       7.473  -1.851  10.594  1.00  0.00     0.293 HD
ENDBRANCH  15  18
BRANCH  17  20
ATOM     20  O   UNL     1       9.017  -4.468   8.879  1.00  0.00    -0.504 OA
ATOM     21  H   UNL     1       8.490  -4.606   8.025  1.00  0.00     0.293 HD
ENDBRANCH  17  20
ENDBRANCH   1  12
BRANCH   2  22
ATOM     22  O   UNL     1      11.081  -7.294  12.279  1.00  0.00    -0.502 OA
ATOM     23  H   UNL     1      11.639  -7.538  11.469  1.00  0.00     0.293 HD
ENDBRANCH   2  22
BRANCH   6  24
ATOM     24  O   UNL     1      10.582 -12.125  14.465  1.00  0.00    -0.507 OA
ATOM     25  H   UNL     1      11.487 -11.707  14.613  1.00  0.00     0.293 HD
ENDBRANCH   6  24
BRANCH   8  26
ATOM     26  O   UNL     1       5.883 -12.119  15.453  1.00  0.00    -0.508 OA
ATOM     27  H   UNL     1       5.551 -11.906  16.387  1.00  0.00     0.293 HD
ENDBRANCH   8  26
TORSDOF 6
ENDMDL
