MODEL 1
REMARK VINA RESULT:    -4.128      0.000      0.000
REMARK INTER + INTRA:         -13.182
REMARK INTER:                  -9.438
REMARK INTRA:                  -3.744
REMARK UNBOUND:                -3.744
REMARK SMILES CCCCCCCCCCCCCCCCCCCCCCCC(=O)[O-]
REMARK SMILES IDX 13 1 14 2 15 3 16 4 17 5 18 6 19 7 20 8 21 9 22 10 23 11
REMARK SMILES IDX 24 12 25 13 26 14 12 15 11 16 10 17 9 18 8 19 7 20 6 21 5 22
REMARK SMILES IDX 4 23 3 24 2 25 1 26
REMARK H PARENT
REMARK Flexibility Score: inf
ROOT
ATOM      1  C   UNL     1      12.543 -29.505  42.784  1.00  0.00     0.000 C 
ENDROOT
BRANCH   1   2
ATOM      2  C   UNL     1      13.752 -30.352  42.353  1.00  0.00     0.000 C 
BRANCH   2   3
ATOM      3  C   UNL     1      13.389 -31.559  41.463  1.00  0.00     0.000 C 
BRANCH   3   4
ATOM      4  C   UNL     1      13.786 -31.341  39.992  1.00  0.00     0.000 C 
BRANCH   4   5
ATOM      5  C   UNL     1      12.696 -30.608  39.194  1.00  0.00     0.000 C 
BRANCH   5   6
ATOM      6  C   UNL     1      13.151 -29.213  38.735  1.00  0.00     0.000 C 
BRANCH   6   7
ATOM      7  C   UNL     1      14.682 -29.090  38.772  1.00  0.00     0.000 C 
BRANCH   7   8
ATOM      8  C   UNL     1      15.163 -27.928  39.656  1.00  0.00     0.000 C 
BRANCH   8   9
ATOM      9  C   UNL     1      14.046 -27.194  40.422  1.00  0.00     0.000 C 
BRANCH   9  10
ATOM     10  C   UNL     1      13.844 -25.732  39.973  1.00  0.00     0.006 C 
BRANCH  10  11
ATOM     11  C   UNL     1      14.752 -25.348  38.798  1.00  0.00     0.053 C 
BRANCH  11  12
ATOM     12  C   UNL     1      13.939 -25.088  37.568  1.00  0.00     0.041 C 
ATOM     13  O   UNL     1      13.684 -23.907  37.214  1.00  0.00    -0.550 OA
ATOM     14  O   UNL     1      13.424 -26.151  36.837  1.00  0.00    -0.550 OA
ENDBRANCH  11  12
ENDBRANCH  10  11
ENDBRANCH   9  10
ENDBRANCH   8   9
ENDBRANCH   7   8
ENDBRANCH   6   7
ENDBRANCH   5   6
ENDBRANCH   4   5
ENDBRANCH   3   4
ENDBRANCH   2   3
ENDBRANCH   1   2
BRANCH   1  15
ATOM     15  C   UNL     1      11.226 -30.298  42.773  1.00  0.00     0.000 C 
BRANCH  15  16
ATOM     16  C   UNL     1      10.077 -29.527  42.100  1.00  0.00     0.000 C 
BRANCH  16  17
ATOM     17  C   UNL     1      10.559 -28.246  41.399  1.00  0.00     0.000 C 
BRANCH  17  18
ATOM     18  C   UNL     1       9.758 -27.004  41.825  1.00  0.00    -0.000 C 
BRANCH  18  19
ATOM     19  C   UNL     1      10.297 -25.711  41.196  1.00  0.00    -0.000 C 
BRANCH  19  20
ATOM     20  C   UNL     1       9.150 -24.804  40.737  1.00  0.00    -0.000 C 
BRANCH  20  21
ATOM     21  C   UNL     1       9.682 -23.580  39.976  1.00  0.00    -0.000 C 
BRANCH  21  22
ATOM     22  C   UNL     1      11.178 -23.316  40.228  1.00  0.00    -0.000 C 
BRANCH  22  23
ATOM     23  C   UNL     1      11.484 -22.118  41.145  1.00  0.00    -0.000 C 
BRANCH  23  24
ATOM     24  C   UNL     1      11.520 -22.495  42.634  1.00  0.00    -0.000 C 
BRANCH  24  25
ATOM     25  C   UNL     1      12.881 -22.154  43.253  1.00  0.00    -0.003 C 
ATOM     26  C   UNL     1      13.981 -22.144  42.194  1.00  0.00     0.004 C 
ENDBRANCH  24  25
ENDBRANCH  23  24
ENDBRANCH  22  23
ENDBRANCH  21  22
ENDBRANCH  20  21
ENDBRANCH  19  20
ENDBRANCH  18  19
ENDBRANCH  17  18
ENDBRANCH  16  17
ENDBRANCH  15  16
ENDBRANCH   1  15
TORSDOF 22
ENDMDL
MODEL 2
REMARK VINA RESULT:    -4.057      1.993      6.564
REMARK INTER + INTRA:         -13.018
REMARK INTER:                  -9.196
REMARK INTRA:                  -3.822
REMARK UNBOUND:                -3.744
REMARK SMILES CCCCCCCCCCCCCCCCCCCCCCCC(=O)[O-]
REMARK SMILES IDX 13 1 14 2 15 3 16 4 17 5 18 6 19 7 20 8 21 9 22 10 23 11
REMARK SMILES IDX 24 12 25 13 26 14 12 15 11 16 10 17 9 18 8 19 7 20 6 21 5 22
REMARK SMILES IDX 4 23 3 24 2 25 1 26
REMARK H PARENT
REMARK Flexibility Score: inf
ROOT
ATOM      1  C   UNL     1      11.051 -26.130  39.702  1.00  0.00     0.000 C 
ENDROOT
BRANCH   1   2
ATOM      2  C   UNL     1      10.223 -25.166  40.567  1.00  0.00     0.000 C 
BRANCH   2   3
ATOM      3  C   UNL     1       9.772 -23.888  39.829  1.00  0.00     0.000 C 
BRANCH   3   4
ATOM      4  C   UNL     1       9.731 -22.661  40.757  1.00  0.00     0.000 C 
BRANCH   4   5
ATOM      5  C   UNL     1      10.838 -22.695  41.823  1.00  0.00     0.000 C 
BRANCH   5   6
ATOM      6  C   UNL     1      11.963 -21.692  41.523  1.00  0.00     0.000 C 
BRANCH   6   7
ATOM      7  C   UNL     1      13.340 -22.371  41.577  1.00  0.00     0.000 C 
BRANCH   7   8
ATOM      8  C   UNL     1      14.342 -21.758  40.585  1.00  0.00     0.000 C 
BRANCH   8   9
ATOM      9  C   UNL     1      14.573 -22.584  39.306  1.00  0.00     0.000 C 
BRANCH   9  10
ATOM     10  C   UNL     1      13.605 -22.232  38.156  1.00  0.00     0.006 C 
BRANCH  10  11
ATOM     11  C   UNL     1      13.943 -20.887  37.498  1.00  0.00     0.053 C 
BRANCH  11  12
ATOM     12  C   UNL     1      14.439 -21.096  36.101  1.00  0.00     0.041 C 
ATOM     13  O   UNL     1      15.674 -21.184  35.873  1.00  0.00    -0.550 OA
ATOM     14  O   UNL     1      13.539 -21.148  35.045  1.00  0.00    -0.550 OA
ENDBRANCH  11  12
ENDBRANCH  10  11
ENDBRANCH   9  10
ENDBRANCH   8   9
ENDBRANCH   7   8
ENDBRANCH   6   7
ENDBRANCH   5   6
ENDBRANCH   4   5
ENDBRANCH   3   4
ENDBRANCH   2   3
ENDBRANCH   1   2
BRANCH   1  15
ATOM     15  C   UNL     1      12.448 -25.582  39.370  1.00  0.00     0.000 C 
BRANCH  15  16
ATOM     16  C   UNL     1      13.492 -25.931  40.445  1.00  0.00     0.000 C 
BRANCH  16  17
ATOM     17  C   UNL     1      14.898 -26.139  39.854  1.00  0.00     0.000 C 
BRANCH  17  18
ATOM     18  C   UNL     1      15.381 -27.593  39.982  1.00  0.00    -0.000 C 
BRANCH  18  19
ATOM     19  C   UNL     1      15.198 -28.391  38.683  1.00  0.00    -0.000 C 
BRANCH  19  20
ATOM     20  C   UNL     1      14.367 -29.655  38.927  1.00  0.00    -0.000 C 
BRANCH  20  21
ATOM     21  C   UNL     1      12.881 -29.313  39.118  1.00  0.00    -0.000 C 
BRANCH  21  22
ATOM     22  C   UNL     1      12.253 -30.011  40.340  1.00  0.00    -0.000 C 
BRANCH  22  23
ATOM     23  C   UNL     1      12.191 -29.157  41.619  1.00  0.00    -0.000 C 
BRANCH  23  24
ATOM     24  C   UNL     1      10.795 -29.132  42.258  1.00  0.00    -0.000 C 
BRANCH  24  25
ATOM     25  C   UNL     1       9.700 -29.222  41.186  1.00  0.00    -0.003 C 
ATOM     26  C   UNL     1       8.485 -28.381  41.567  1.00  0.00     0.004 C 
ENDBRANCH  24  25
ENDBRANCH  23  24
ENDBRANCH  22  23
ENDBRANCH  21  22
ENDBRANCH  20  21
ENDBRANCH  19  20
ENDBRANCH  18  19
ENDBRANCH  17  18
ENDBRANCH  16  17
ENDBRANCH  15  16
ENDBRANCH   1  15
TORSDOF 22
ENDMDL
MODEL 3
REMARK VINA RESULT:    -4.016      1.363      5.945
REMARK INTER + INTRA:         -12.925
REMARK INTER:                  -8.742
REMARK INTRA:                  -4.183
REMARK UNBOUND:                -3.744
REMARK SMILES CCCCCCCCCCCCCCCCCCCCCCCC(=O)[O-]
REMARK SMILES IDX 13 1 14 2 15 3 16 4 17 5 18 6 19 7 20 8 21 9 22 10 23 11
REMARK SMILES IDX 24 12 25 13 26 14 12 15 11 16 10 17 9 18 8 19 7 20 6 21 5 22
REMARK SMILES IDX 4 23 3 24 2 25 1 26
REMARK H PARENT
REMARK Flexibility Score: inf
ROOT
ATOM      1  C   UNL     1       8.211 -27.795  40.815  1.00  0.00     0.000 C 
ENDROOT
BRANCH   1   2
ATOM      2  C   UNL     1       8.447 -26.378  41.364  1.00  0.00     0.000 C 
BRANCH   2   3
ATOM      3  C   UNL     1       9.812 -25.771  40.973  1.00  0.00     0.000 C 
BRANCH   3   4
ATOM      4  C   UNL     1       9.795 -25.154  39.564  1.00  0.00     0.000 C 
BRANCH   4   5
ATOM      5  C   UNL     1      10.026 -23.634  39.587  1.00  0.00     0.000 C 
BRANCH   5   6
ATOM      6  C   UNL     1       9.700 -23.019  40.957  1.00  0.00     0.000 C 
BRANCH   6   7
ATOM      7  C   UNL     1      10.877 -22.184  41.484  1.00  0.00     0.000 C 
BRANCH   7   8
ATOM      8  C   UNL     1      12.032 -22.084  40.474  1.00  0.00     0.000 C 
BRANCH   8   9
ATOM      9  C   UNL     1      13.338 -22.770  40.917  1.00  0.00     0.000 C 
BRANCH   9  10
ATOM     10  C   UNL     1      13.690 -24.027  40.095  1.00  0.00     0.006 C 
BRANCH  10  11
ATOM     11  C   UNL     1      14.687 -23.730  38.967  1.00  0.00     0.053 C 
BRANCH  11  12
ATOM     12  C   UNL     1      14.005 -23.784  37.635  1.00  0.00     0.041 C 
ATOM     13  O   UNL     1      13.568 -24.878  37.190  1.00  0.00    -0.550 OA
ATOM     14  O   UNL     1      13.892 -22.634  36.865  1.00  0.00    -0.550 OA
ENDBRANCH  11  12
ENDBRANCH  10  11
ENDBRANCH   9  10
ENDBRANCH   8   9
ENDBRANCH   7   8
ENDBRANCH   6   7
ENDBRANCH   5   6
ENDBRANCH   4   5
ENDBRANCH   3   4
ENDBRANCH   2   3
ENDBRANCH   1   2
BRANCH   1  15
ATOM     15  C   UNL     1       9.498 -28.633  40.757  1.00  0.00     0.000 C 
BRANCH  15  16
ATOM     16  C   UNL     1       9.544 -29.724  41.842  1.00  0.00     0.000 C 
BRANCH  16  17
ATOM     17  C   UNL     1      10.930 -29.841  42.499  1.00  0.00     0.000 C 
BRANCH  17  18
ATOM     18  C   UNL     1      11.859 -28.673  42.128  1.00  0.00    -0.000 C 
BRANCH  18  19
ATOM     19  C   UNL     1      13.319 -29.115  41.947  1.00  0.00    -0.000 C 
BRANCH  19  20
ATOM     20  C   UNL     1      13.934 -28.482  40.694  1.00  0.00    -0.000 C 
BRANCH  20  21
ATOM     21  C   UNL     1      12.964 -27.481  40.047  1.00  0.00    -0.000 C 
BRANCH  21  22
ATOM     22  C   UNL     1      12.491 -27.917  38.648  1.00  0.00    -0.000 C 
BRANCH  22  23
ATOM     23  C   UNL     1      12.846 -29.364  38.261  1.00  0.00    -0.000 C 
BRANCH  23  24
ATOM     24  C   UNL     1      11.613 -30.222  37.943  1.00  0.00    -0.000 C 
BRANCH  24  25
ATOM     25  C   UNL     1      11.409 -31.306  39.009  1.00  0.00    -0.003 C 
ATOM     26  C   UNL     1      12.746 -31.817  39.539  1.00  0.00     0.004 C 
ENDBRANCH  24  25
ENDBRANCH  23  24
ENDBRANCH  22  23
ENDBRANCH  21  22
ENDBRANCH  20  21
ENDBRANCH  19  20
ENDBRANCH  18  19
ENDBRANCH  17  18
ENDBRANCH  16  17
ENDBRANCH  15  16
ENDBRANCH   1  15
TORSDOF 22
ENDMDL
MODEL 4
REMARK VINA RESULT:    -3.998      1.511      2.722
REMARK INTER + INTRA:         -12.885
REMARK INTER:                  -9.112
REMARK INTRA:                  -3.772
REMARK UNBOUND:                -3.744
REMARK SMILES CCCCCCCCCCCCCCCCCCCCCCCC(=O)[O-]
REMARK SMILES IDX 13 1 14 2 15 3 16 4 17 5 18 6 19 7 20 8 21 9 22 10 23 11
REMARK SMILES IDX 24 12 25 13 26 14 12 15 11 16 10 17 9 18 8 19 7 20 6 21 5 22
REMARK SMILES IDX 4 23 3 24 2 25 1 26
REMARK H PARENT
REMARK Flexibility Score: inf
ROOT
ATOM      1  C   UNL     1      12.332 -30.493  44.404  1.00  0.00     0.000 C 
ENDROOT
BRANCH   1   2
ATOM      2  C   UNL     1      13.026 -31.864  44.355  1.00  0.00     0.000 C 
BRANCH   2   3
ATOM      3  C   UNL     1      14.012 -32.029  43.179  1.00  0.00     0.000 C 
BRANCH   3   4
ATOM      4  C   UNL     1      13.520 -33.058  42.145  1.00  0.00     0.000 C 
BRANCH   4   5
ATOM      5  C   UNL     1      14.038 -32.757  40.728  1.00  0.00     0.000 C 
BRANCH   5   6
ATOM      6  C   UNL     1      13.100 -31.817  39.955  1.00  0.00     0.000 C 
BRANCH   6   7
ATOM      7  C   UNL     1      13.837 -30.548  39.503  1.00  0.00     0.000 C 
BRANCH   7   8
ATOM      8  C   UNL     1      13.093 -29.795  38.387  1.00  0.00     0.000 C 
BRANCH   8   9
ATOM      9  C   UNL     1      11.617 -29.480  38.694  1.00  0.00     0.000 C 
BRANCH   9  10
ATOM     10  C   UNL     1      11.300 -27.970  38.732  1.00  0.00     0.006 C 
BRANCH  10  11
ATOM     11  C   UNL     1      12.454 -27.143  39.314  1.00  0.00     0.053 C 
BRANCH  11  12
ATOM     12  C   UNL     1      12.934 -26.135  38.317  1.00  0.00     0.041 C 
ATOM     13  O   UNL     1      13.245 -24.973  38.689  1.00  0.00    -0.550 OA
ATOM     14  O   UNL     1      12.996 -26.466  36.969  1.00  0.00    -0.550 OA
ENDBRANCH  11  12
ENDBRANCH  10  11
ENDBRANCH   9  10
ENDBRANCH   8   9
ENDBRANCH   7   8
ENDBRANCH   6   7
ENDBRANCH   5   6
ENDBRANCH   4   5
ENDBRANCH   3   4
ENDBRANCH   2   3
ENDBRANCH   1   2
BRANCH   1  15
ATOM     15  C   UNL     1      12.707 -29.593  43.215  1.00  0.00     0.000 C 
BRANCH  15  16
ATOM     16  C   UNL     1      11.511 -29.304  42.291  1.00  0.00     0.000 C 
BRANCH  16  17
ATOM     17  C   UNL     1      10.512 -30.473  42.239  1.00  0.00     0.000 C 
BRANCH  17  18
ATOM     18  C   UNL     1       9.194 -30.090  41.546  1.00  0.00    -0.000 C 
BRANCH  18  19
ATOM     19  C   UNL     1       8.626 -28.757  42.055  1.00  0.00    -0.000 C 
BRANCH  19  20
ATOM     20  C   UNL     1       8.202 -27.859  40.887  1.00  0.00    -0.000 C 
BRANCH  20  21
ATOM     21  C   UNL     1       8.336 -26.373  41.254  1.00  0.00    -0.000 C 
BRANCH  21  22
ATOM     22  C   UNL     1       9.759 -25.986  41.696  1.00  0.00    -0.000 C 
BRANCH  22  23
ATOM     23  C   UNL     1      10.414 -24.859  40.877  1.00  0.00    -0.000 C 
BRANCH  23  24
ATOM     24  C   UNL     1       9.593 -23.561  40.878  1.00  0.00    -0.000 C 
BRANCH  24  25
ATOM     25  C   UNL     1      10.507 -22.335  40.998  1.00  0.00    -0.003 C 
ATOM     26  C   UNL     1      11.882 -22.722  41.538  1.00  0.00     0.004 C 
ENDBRANCH  24  25
ENDBRANCH  23  24
ENDBRANCH  22  23
ENDBRANCH  21  22
ENDBRANCH  20  21
ENDBRANCH  19  20
ENDBRANCH  18  19
ENDBRANCH  17  18
ENDBRANCH  16  17
ENDBRANCH  15  16
ENDBRANCH   1  15
TORSDOF 22
ENDMDL
MODEL 5
REMARK VINA RESULT:    -3.969      2.564      5.639
REMARK INTER + INTRA:         -12.817
REMARK INTER:                  -8.821
REMARK INTRA:                  -3.997
REMARK UNBOUND:                -3.744
REMARK SMILES CCCCCCCCCCCCCCCCCCCCCCCC(=O)[O-]
REMARK SMILES IDX 13 1 14 2 15 3 16 4 17 5 18 6 19 7 20 8 21 9 22 10 23 11
REMARK SMILES IDX 24 12 25 13 26 14 12 15 11 16 10 17 9 18 8 19 7 20 6 21 5 22
REMARK SMILES IDX 4 23 3 24 2 25 1 26
REMARK H PARENT
REMARK Flexibility Score: inf
ROOT
ATOM      1  C   UNL     1      11.049 -30.057  42.645  1.00  0.00     0.000 C 
ENDROOT
BRANCH   1   2
ATOM      2  C   UNL     1       9.697 -29.521  42.147  1.00  0.00     0.000 C 
BRANCH   2   3
ATOM      3  C   UNL     1       9.692 -28.006  41.850  1.00  0.00     0.000 C 
BRANCH   3   4
ATOM      4  C   UNL     1       8.384 -27.546  41.183  1.00  0.00     0.000 C 
BRANCH   4   5
ATOM      5  C   UNL     1       8.250 -26.014  41.152  1.00  0.00     0.000 C 
BRANCH   5   6
ATOM      6  C   UNL     1       9.617 -25.313  41.102  1.00  0.00     0.000 C 
BRANCH   6   7
ATOM      7  C   UNL     1       9.580 -24.093  40.169  1.00  0.00     0.000 C 
BRANCH   7   8
ATOM      8  C   UNL     1      10.858 -23.242  40.255  1.00  0.00     0.000 C 
BRANCH   8   9
ATOM      9  C   UNL     1      10.894 -22.246  41.430  1.00  0.00     0.000 C 
BRANCH   9  10
ATOM     10  C   UNL     1      12.265 -21.566  41.624  1.00  0.00     0.006 C 
BRANCH  10  11
ATOM     11  C   UNL     1      13.203 -22.383  42.521  1.00  0.00     0.053 C 
BRANCH  11  12
ATOM     12  C   UNL     1      13.456 -21.665  43.810  1.00  0.00     0.041 C 
ATOM     13  O   UNL     1      13.132 -22.193  44.906  1.00  0.00    -0.550 OA
ATOM     14  O   UNL     1      14.011 -20.391  43.799  1.00  0.00    -0.550 OA
ENDBRANCH  11  12
ENDBRANCH  10  11
ENDBRANCH   9  10
ENDBRANCH   8   9
ENDBRANCH   7   8
ENDBRANCH   6   7
ENDBRANCH   5   6
ENDBRANCH   4   5
ENDBRANCH   3   4
ENDBRANCH   2   3
ENDBRANCH   1   2
BRANCH   1  15
ATOM     15  C   UNL     1      12.186 -29.033  42.502  1.00  0.00     0.000 C 
BRANCH  15  16
ATOM     16  C   UNL     1      13.487 -29.662  41.973  1.00  0.00     0.000 C 
BRANCH  16  17
ATOM     17  C   UNL     1      13.250 -31.025  41.300  1.00  0.00     0.000 C 
BRANCH  17  18
ATOM     18  C   UNL     1      13.364 -30.954  39.769  1.00  0.00    -0.000 C 
BRANCH  18  19
ATOM     19  C   UNL     1      12.082 -31.415  39.060  1.00  0.00    -0.000 C 
BRANCH  19  20
ATOM     20  C   UNL     1      11.082 -30.261  38.927  1.00  0.00    -0.000 C 
BRANCH  20  21
ATOM     21  C   UNL     1      11.654 -29.131  38.056  1.00  0.00    -0.000 C 
BRANCH  21  22
ATOM     22  C   UNL     1      11.641 -27.761  38.761  1.00  0.00    -0.000 C 
BRANCH  22  23
ATOM     23  C   UNL     1      13.021 -27.242  39.204  1.00  0.00    -0.000 C 
BRANCH  23  24
ATOM     24  C   UNL     1      12.940 -26.226  40.353  1.00  0.00    -0.000 C 
BRANCH  24  25
ATOM     25  C   UNL     1      14.284 -25.512  40.548  1.00  0.00    -0.003 C 
ATOM     26  C   UNL     1      14.412 -24.313  39.612  1.00  0.00     0.004 C 
ENDBRANCH  24  25
ENDBRANCH  23  24
ENDBRANCH  22  23
ENDBRANCH  21  22
ENDBRANCH  20  21
ENDBRANCH  19  20
ENDBRANCH  18  19
ENDBRANCH  17  18
ENDBRANCH  16  17
ENDBRANCH  15  16
ENDBRANCH   1  15
TORSDOF 22
ENDMDL
MODEL 6
REMARK VINA RESULT:    -3.961      1.686      2.875
REMARK INTER + INTRA:         -12.799
REMARK INTER:                  -8.955
REMARK INTRA:                  -3.844
REMARK UNBOUND:                -3.744
REMARK SMILES CCCCCCCCCCCCCCCCCCCCCCCC(=O)[O-]
REMARK SMILES IDX 13 1 14 2 15 3 16 4 17 5 18 6 19 7 20 8 21 9 22 10 23 11
REMARK SMILES IDX 24 12 25 13 26 14 12 15 11 16 10 17 9 18 8 19 7 20 6 21 5 22
REMARK SMILES IDX 4 23 3 24 2 25 1 26
REMARK H PARENT
REMARK Flexibility Score: inf
ROOT
ATOM      1  C   UNL     1      12.744 -30.829  42.063  1.00  0.00     0.000 C 
ENDROOT
BRANCH   1   2
ATOM      2  C   UNL     1      13.864 -29.833  41.716  1.00  0.00     0.000 C 
BRANCH   2   3
ATOM      3  C   UNL     1      14.665 -29.336  42.939  1.00  0.00     0.000 C 
BRANCH   3   4
ATOM      4  C   UNL     1      15.399 -28.013  42.657  1.00  0.00     0.000 C 
BRANCH   4   5
ATOM      5  C   UNL     1      15.047 -27.430  41.279  1.00  0.00     0.000 C 
BRANCH   5   6
ATOM      6  C   UNL     1      15.599 -26.007  41.093  1.00  0.00     0.000 C 
BRANCH   6   7
ATOM      7  C   UNL     1      14.461 -24.981  40.984  1.00  0.00     0.000 C 
BRANCH   7   8
ATOM      8  C   UNL     1      13.175 -25.582  40.392  1.00  0.00     0.000 C 
BRANCH   8   9
ATOM      9  C   UNL     1      12.947 -25.277  38.900  1.00  0.00     0.000 C 
BRANCH   9  10
ATOM     10  C   UNL     1      13.062 -26.516  37.989  1.00  0.00     0.006 C 
BRANCH  10  11
ATOM     11  C   UNL     1      12.382 -27.752  38.592  1.00  0.00     0.053 C 
BRANCH  11  12
ATOM     12  C   UNL     1      13.181 -28.985  38.304  1.00  0.00     0.041 C 
ATOM     13  O   UNL     1      12.643 -30.121  38.373  1.00  0.00    -0.550 OA
ATOM     14  O   UNL     1      14.533 -28.882  38.001  1.00  0.00    -0.550 OA
ENDBRANCH  11  12
ENDBRANCH  10  11
ENDBRANCH   9  10
ENDBRANCH   8   9
ENDBRANCH   7   8
ENDBRANCH   6   7
ENDBRANCH   5   6
ENDBRANCH   4   5
ENDBRANCH   3   4
ENDBRANCH   2   3
ENDBRANCH   1   2
BRANCH   1  15
ATOM     15  C   UNL     1      11.386 -30.144  42.287  1.00  0.00     0.000 C 
BRANCH  15  16
ATOM     16  C   UNL     1      11.461 -28.615  42.125  1.00  0.00     0.000 C 
BRANCH  16  17
ATOM     17  C   UNL     1      10.193 -28.030  41.479  1.00  0.00     0.000 C 
BRANCH  17  18
ATOM     18  C   UNL     1       9.987 -26.546  41.824  1.00  0.00    -0.000 C 
BRANCH  18  19
ATOM     19  C   UNL     1       8.742 -25.951  41.149  1.00  0.00    -0.000 C 
BRANCH  19  20
ATOM     20  C   UNL     1       8.963 -25.783  39.641  1.00  0.00    -0.000 C 
BRANCH  20  21
ATOM     21  C   UNL     1       9.511 -24.386  39.314  1.00  0.00    -0.000 C 
BRANCH  21  22
ATOM     22  C   UNL     1       9.486 -23.430  40.521  1.00  0.00    -0.000 C 
BRANCH  22  23
ATOM     23  C   UNL     1      10.778 -22.622  40.741  1.00  0.00    -0.000 C 
BRANCH  23  24
ATOM     24  C   UNL     1      11.309 -22.718  42.179  1.00  0.00    -0.000 C 
BRANCH  24  25
ATOM     25  C   UNL     1      12.535 -21.815  42.371  1.00  0.00    -0.003 C 
ATOM     26  C   UNL     1      13.168 -22.030  43.744  1.00  0.00     0.004 C 
ENDBRANCH  24  25
ENDBRANCH  23  24
ENDBRANCH  22  23
ENDBRANCH  21  22
ENDBRANCH  20  21
ENDBRANCH  19  20
ENDBRANCH  18  19
ENDBRANCH  17  18
ENDBRANCH  16  17
ENDBRANCH  15  16
ENDBRANCH   1  15
TORSDOF 22
ENDMDL
MODEL 7
REMARK VINA RESULT:    -3.953      2.218      6.312
REMARK INTER + INTRA:         -12.783
REMARK INTER:                  -8.331
REMARK INTRA:                  -4.452
REMARK UNBOUND:                -3.744
REMARK SMILES CCCCCCCCCCCCCCCCCCCCCCCC(=O)[O-]
REMARK SMILES IDX 13 1 14 2 15 3 16 4 17 5 18 6 19 7 20 8 21 9 22 10 23 11
REMARK SMILES IDX 24 12 25 13 26 14 12 15 11 16 10 17 9 18 8 19 7 20 6 21 5 22
REMARK SMILES IDX 4 23 3 24 2 25 1 26
REMARK H PARENT
REMARK Flexibility Score: inf
ROOT
ATOM      1  C   UNL     1       8.381 -28.731  38.916  1.00  0.00     0.000 C 
ENDROOT
BRANCH   1   2
ATOM      2  C   UNL     1       8.318 -29.493  40.250  1.00  0.00     0.000 C 
BRANCH   2   3
ATOM      3  C   UNL     1       9.692 -29.968  40.770  1.00  0.00     0.000 C 
BRANCH   3   4
ATOM      4  C   UNL     1      10.251 -29.047  41.868  1.00  0.00     0.000 C 
BRANCH   4   5
ATOM      5  C   UNL     1      11.443 -28.208  41.379  1.00  0.00     0.000 C 
BRANCH   5   6
ATOM      6  C   UNL     1      11.060 -26.739  41.142  1.00  0.00     0.000 C 
BRANCH   6   7
ATOM      7  C   UNL     1       9.682 -26.421  41.742  1.00  0.00     0.000 C 
BRANCH   7   8
ATOM      8  C   UNL     1       8.874 -25.434  40.884  1.00  0.00     0.000 C 
BRANCH   8   9
ATOM      9  C   UNL     1       9.723 -24.427  40.085  1.00  0.00     0.000 C 
BRANCH   9  10
ATOM     10  C   UNL     1       9.618 -22.978  40.604  1.00  0.00     0.006 C 
BRANCH  10  11
ATOM     11  C   UNL     1      10.978 -22.269  40.643  1.00  0.00     0.053 C 
BRANCH  11  12
ATOM     12  C   UNL     1      11.861 -22.883  41.685  1.00  0.00     0.041 C 
ATOM     13  O   UNL     1      12.808 -23.641  41.348  1.00  0.00    -0.550 OA
ATOM     14  O   UNL     1      11.610 -22.654  43.032  1.00  0.00    -0.550 OA
ENDBRANCH  11  12
ENDBRANCH  10  11
ENDBRANCH   9  10
ENDBRANCH   8   9
ENDBRANCH   7   8
ENDBRANCH   6   7
ENDBRANCH   5   6
ENDBRANCH   4   5
ENDBRANCH   3   4
ENDBRANCH   2   3
ENDBRANCH   1   2
BRANCH   1  15
ATOM     15  C   UNL     1       9.743 -28.868  38.216  1.00  0.00     0.000 C 
BRANCH  15  16
ATOM     16  C   UNL     1      10.232 -27.541  37.609  1.00  0.00     0.000 C 
BRANCH  16  17
ATOM     17  C   UNL     1      11.762 -27.494  37.454  1.00  0.00     0.000 C 
BRANCH  17  18
ATOM     18  C   UNL     1      12.432 -28.828  37.821  1.00  0.00    -0.000 C 
BRANCH  18  19
ATOM     19  C   UNL     1      13.797 -28.635  38.500  1.00  0.00    -0.000 C 
BRANCH  19  20
ATOM     20  C   UNL     1      14.225 -29.905  39.243  1.00  0.00    -0.000 C 
BRANCH  20  21
ATOM     21  C   UNL     1      13.074 -30.920  39.314  1.00  0.00    -0.000 C 
BRANCH  21  22
ATOM     22  C   UNL     1      13.307 -32.024  40.363  1.00  0.00    -0.000 C 
BRANCH  22  23
ATOM     23  C   UNL     1      12.700 -31.744  41.750  1.00  0.00    -0.000 C 
BRANCH  23  24
ATOM     24  C   UNL     1      13.762 -31.504  42.833  1.00  0.00    -0.000 C 
BRANCH  24  25
ATOM     25  C   UNL     1      13.136 -30.877  44.085  1.00  0.00    -0.003 C 
ATOM     26  C   UNL     1      13.567 -29.421  44.247  1.00  0.00     0.004 C 
ENDBRANCH  24  25
ENDBRANCH  23  24
ENDBRANCH  22  23
ENDBRANCH  21  22
ENDBRANCH  20  21
ENDBRANCH  19  20
ENDBRANCH  18  19
ENDBRANCH  17  18
ENDBRANCH  16  17
ENDBRANCH  15  16
ENDBRANCH   1  15
TORSDOF 22
ENDMDL
MODEL 8
REMARK VINA RESULT:    -3.952      2.797      4.505
REMARK INTER + INTRA:         -12.780
REMARK INTER:                  -8.176
REMARK INTRA:                  -4.604
REMARK UNBOUND:                -3.744
REMARK SMILES CCCCCCCCCCCCCCCCCCCCCCCC(=O)[O-]
REMARK SMILES IDX 13 1 14 2 15 3 16 4 17 5 18 6 19 7 20 8 21 9 22 10 23 11
REMARK SMILES IDX 24 12 25 13 26 14 12 15 11 16 10 17 9 18 8 19 7 20 6 21 5 22
REMARK SMILES IDX 4 23 3 24 2 25 1 26
REMARK H PARENT
REMARK Flexibility Score: inf
ROOT
ATOM      1  C   UNL     1      13.290 -28.274  40.992  1.00  0.00     0.000 C 
ENDROOT
BRANCH   1   2
ATOM      2  C   UNL     1      13.403 -26.791  40.602  1.00  0.00     0.000 C 
BRANCH   2   3
ATOM      3  C   UNL     1      12.725 -26.439  39.261  1.00  0.00     0.000 C 
BRANCH   3   4
ATOM      4  C   UNL     1      12.325 -27.692  38.462  1.00  0.00     0.000 C 
BRANCH   4   5
ATOM      5  C   UNL     1      10.813 -27.756  38.192  1.00  0.00     0.000 C 
BRANCH   5   6
ATOM      6  C   UNL     1      10.311 -29.201  38.038  1.00  0.00     0.000 C 
BRANCH   6   7
ATOM      7  C   UNL     1      11.464 -30.206  38.180  1.00  0.00     0.000 C 
BRANCH   7   8
ATOM      8  C   UNL     1      10.984 -31.603  38.606  1.00  0.00     0.000 C 
BRANCH   8   9
ATOM      9  C   UNL     1      12.050 -32.468  39.304  1.00  0.00     0.000 C 
BRANCH   9  10
ATOM     10  C   UNL     1      13.288 -31.672  39.768  1.00  0.00     0.006 C 
BRANCH  10  11
ATOM     11  C   UNL     1      14.135 -32.447  40.786  1.00  0.00     0.053 C 
BRANCH  11  12
ATOM     12  C   UNL     1      13.797 -32.024  42.182  1.00  0.00     0.041 C 
ATOM     13  O   UNL     1      14.549 -31.228  42.804  1.00  0.00    -0.550 OA
ATOM     14  O   UNL     1      12.674 -32.544  42.813  1.00  0.00    -0.550 OA
ENDBRANCH  11  12
ENDBRANCH  10  11
ENDBRANCH   9  10
ENDBRANCH   8   9
ENDBRANCH   7   8
ENDBRANCH   6   7
ENDBRANCH   5   6
ENDBRANCH   4   5
ENDBRANCH   3   4
ENDBRANCH   2   3
ENDBRANCH   1   2
BRANCH   1  15
ATOM     15  C   UNL     1      12.289 -28.516  42.134  1.00  0.00     0.000 C 
BRANCH  15  16
ATOM     16  C   UNL     1      11.138 -29.452  41.724  1.00  0.00     0.000 C 
BRANCH  16  17
ATOM     17  C   UNL     1       9.768 -28.755  41.772  1.00  0.00     0.000 C 
BRANCH  17  18
ATOM     18  C   UNL     1       9.886 -27.222  41.770  1.00  0.00    -0.000 C 
BRANCH  18  19
ATOM     19  C   UNL     1       8.603 -26.532  41.283  1.00  0.00    -0.000 C 
BRANCH  19  20
ATOM     20  C   UNL     1       8.931 -25.280  40.461  1.00  0.00    -0.000 C 
BRANCH  20  21
ATOM     21  C   UNL     1      10.164 -24.556  41.023  1.00  0.00    -0.000 C 
BRANCH  21  22
ATOM     22  C   UNL     1      10.010 -23.023  41.034  1.00  0.00    -0.000 C 
BRANCH  22  23
ATOM     23  C   UNL     1      11.325 -22.234  40.894  1.00  0.00    -0.000 C 
BRANCH  23  24
ATOM     24  C   UNL     1      12.203 -22.731  39.736  1.00  0.00    -0.000 C 
BRANCH  24  25
ATOM     25  C   UNL     1      13.678 -22.793  40.155  1.00  0.00    -0.003 C 
ATOM     26  C   UNL     1      13.818 -23.174  41.626  1.00  0.00     0.004 C 
ENDBRANCH  24  25
ENDBRANCH  23  24
ENDBRANCH  22  23
ENDBRANCH  21  22
ENDBRANCH  20  21
ENDBRANCH  19  20
ENDBRANCH  18  19
ENDBRANCH  17  18
ENDBRANCH  16  17
ENDBRANCH  15  16
ENDBRANCH   1  15
TORSDOF 22
ENDMDL
MODEL 9
REMARK VINA RESULT:    -3.946      1.523      4.636
REMARK INTER + INTRA:         -12.766
REMARK INTER:                  -8.431
REMARK INTRA:                  -4.335
REMARK UNBOUND:                -3.744
REMARK SMILES CCCCCCCCCCCCCCCCCCCCCCCC(=O)[O-]
REMARK SMILES IDX 13 1 14 2 15 3 16 4 17 5 18 6 19 7 20 8 21 9 22 10 23 11
REMARK SMILES IDX 24 12 25 13 26 14 12 15 11 16 10 17 9 18 8 19 7 20 6 21 5 22
REMARK SMILES IDX 4 23 3 24 2 25 1 26
REMARK H PARENT
REMARK Flexibility Score: inf
ROOT
ATOM      1  C   UNL     1       9.893 -24.962  39.352  1.00  0.00     0.000 C 
ENDROOT
BRANCH   1   2
ATOM      2  C   UNL     1      10.217 -26.442  39.615  1.00  0.00     0.000 C 
BRANCH   2   3
ATOM      3  C   UNL     1      11.241 -26.670  40.747  1.00  0.00     0.000 C 
BRANCH   3   4
ATOM      4  C   UNL     1      10.863 -27.860  41.647  1.00  0.00     0.000 C 
BRANCH   4   5
ATOM      5  C   UNL     1      12.091 -28.669  42.095  1.00  0.00     0.000 C 
BRANCH   5   6
ATOM      6  C   UNL     1      11.883 -30.182  41.924  1.00  0.00     0.000 C 
BRANCH   6   7
ATOM      7  C   UNL     1      13.082 -30.830  41.214  1.00  0.00     0.000 C 
BRANCH   7   8
ATOM      8  C   UNL     1      12.845 -31.023  39.707  1.00  0.00     0.000 C 
BRANCH   8   9
ATOM      9  C   UNL     1      13.601 -30.031  38.802  1.00  0.00     0.000 C 
BRANCH   9  10
ATOM     10  C   UNL     1      12.712 -28.902  38.241  1.00  0.00     0.006 C 
BRANCH  10  11
ATOM     11  C   UNL     1      13.532 -27.708  37.734  1.00  0.00     0.053 C 
BRANCH  11  12
ATOM     12  C   UNL     1      12.832 -27.037  36.593  1.00  0.00     0.041 C 
ATOM     13  O   UNL     1      11.707 -27.450  36.207  1.00  0.00    -0.550 OA
ATOM     14  O   UNL     1      13.443 -25.981  35.928  1.00  0.00    -0.550 OA
ENDBRANCH  11  12
ENDBRANCH  10  11
ENDBRANCH   9  10
ENDBRANCH   8   9
ENDBRANCH   7   8
ENDBRANCH   6   7
ENDBRANCH   5   6
ENDBRANCH   4   5
ENDBRANCH   3   4
ENDBRANCH   2   3
ENDBRANCH   1   2
BRANCH   1  15
ATOM     15  C   UNL     1       9.392 -24.229  40.607  1.00  0.00     0.000 C 
BRANCH  15  16
ATOM     16  C   UNL     1      10.115 -22.891  40.840  1.00  0.00     0.000 C 
BRANCH  16  17
ATOM     17  C   UNL     1      11.240 -23.004  41.882  1.00  0.00     0.000 C 
BRANCH  17  18
ATOM     18  C   UNL     1      12.327 -21.932  41.695  1.00  0.00    -0.000 C 
BRANCH  18  19
ATOM     19  C   UNL     1      12.356 -21.365  40.268  1.00  0.00    -0.000 C 
BRANCH  19  20
ATOM     20  C   UNL     1      13.661 -21.736  39.556  1.00  0.00    -0.000 C 
BRANCH  20  21
ATOM     21  C   UNL     1      13.410 -22.753  38.431  1.00  0.00    -0.000 C 
BRANCH  21  22
ATOM     22  C   UNL     1      13.378 -24.209  38.931  1.00  0.00    -0.000 C 
BRANCH  22  23
ATOM     23  C   UNL     1      14.668 -24.692  39.618  1.00  0.00    -0.000 C 
BRANCH  23  24
ATOM     24  C   UNL     1      14.482 -24.977  41.115  1.00  0.00    -0.000 C 
BRANCH  24  25
ATOM     25  C   UNL     1      15.466 -26.050  41.596  1.00  0.00    -0.003 C 
ATOM     26  C   UNL     1      15.331 -27.330  40.775  1.00  0.00     0.004 C 
ENDBRANCH  24  25
ENDBRANCH  23  24
ENDBRANCH  22  23
ENDBRANCH  21  22
ENDBRANCH  20  21
ENDBRANCH  19  20
ENDBRANCH  18  19
ENDBRANCH  17  18
ENDBRANCH  16  17
ENDBRANCH  15  16
ENDBRANCH   1  15
TORSDOF 22
ENDMDL
