MODEL 1
REMARK VINA RESULT:    -2.160      0.000      0.000
REMARK INTER + INTRA:          -2.160
REMARK INTER:                  -2.160
REMARK INTRA:                   0.000
REMARK UNBOUND:                 0.000
REMARK SMILES CC1(C)C(=O)[C@]2(C)CC[C@H]1C2
REMARK SMILES IDX 1 1 2 2 10 3 9 4 8 5 6 6 11 7 4 8 5 9 7 10 3 11
REMARK H PARENT
REMARK Flexibility Score: inf
ROOT
ATOM      1  C   UNL     1     124.669 110.263 131.724  1.00  0.00     0.020 C 
ATOM      2  C   UNL     1     125.361 108.983 132.244  1.00  0.00     0.027 C 
ATOM      3  C   UNL     1     126.885 109.165 132.579  1.00  0.00     0.003 C 
ATOM      4  C   UNL     1     127.121 110.427 133.447  1.00  0.00     0.005 C 
ATOM      5  C   UNL     1     126.467 110.051 134.797  1.00  0.00     0.015 C 
ATOM      6  C   UNL     1     126.032 108.591 134.563  1.00  0.00     0.027 C 
ATOM      7  C   UNL     1     127.125 108.090 133.640  1.00  0.00     0.019 C 
ATOM      8  C   UNL     1     124.868 108.609 133.612  1.00  0.00     0.144 C 
ATOM      9  O   UNL     1     123.699 108.425 133.917  1.00  0.00    -0.298 OA
ATOM     10  C   UNL     1     125.832 107.755 135.829  1.00  0.00     0.020 C 
ATOM     11  C   UNL     1     125.132 107.839 131.234  1.00  0.00     0.020 C 
ENDROOT
TORSDOF 0
ENDMDL
MODEL 2
REMARK VINA RESULT:    -2.106      2.683      4.507
REMARK INTER + INTRA:          -2.106
REMARK INTER:                  -2.106
REMARK INTRA:                   0.000
REMARK UNBOUND:                 0.000
REMARK SMILES CC1(C)C(=O)[C@]2(C)CC[C@H]1C2
REMARK SMILES IDX 1 1 2 2 10 3 9 4 8 5 6 6 11 7 4 8 5 9 7 10 3 11
REMARK H PARENT
REMARK Flexibility Score: inf
ROOT
ATOM      1  C   UNL     1     125.036 112.522 137.011  1.00  0.00     0.020 C 
ATOM      2  C   UNL     1     125.932 111.264 136.954  1.00  0.00     0.027 C 
ATOM      3  C   UNL     1     125.154 109.910 137.121  1.00  0.00     0.003 C 
ATOM      4  C   UNL     1     123.909 109.861 136.198  1.00  0.00     0.005 C 
ATOM      5  C   UNL     1     124.527 109.784 134.782  1.00  0.00     0.015 C 
ATOM      6  C   UNL     1     126.037 109.697 135.080  1.00  0.00     0.027 C 
ATOM      7  C   UNL     1     126.048 108.916 136.379  1.00  0.00     0.019 C 
ATOM      8  C   UNL     1     126.483 111.044 135.574  1.00  0.00     0.144 C 
ATOM      9  O   UNL     1     127.125 111.861 134.931  1.00  0.00    -0.298 OA
ATOM     10  C   UNL     1     126.892 109.092 133.963  1.00  0.00     0.020 C 
ATOM     11  C   UNL     1     127.064 111.403 137.994  1.00  0.00     0.020 C 
ENDROOT
TORSDOF 0
ENDMDL
MODEL 3
REMARK VINA RESULT:    -2.101      1.945      2.981
REMARK INTER + INTRA:          -2.101
REMARK INTER:                  -2.101
REMARK INTRA:                   0.000
REMARK UNBOUND:                 0.000
REMARK SMILES CC1(C)C(=O)[C@]2(C)CC[C@H]1C2
REMARK SMILES IDX 1 1 2 2 10 3 9 4 8 5 6 6 11 7 4 8 5 9 7 10 3 11
REMARK H PARENT
REMARK Flexibility Score: inf
ROOT
ATOM      1  C   UNL     1     124.621 108.833 133.751  1.00  0.00     0.020 C 
ATOM      2  C   UNL     1     125.967 109.516 134.082  1.00  0.00     0.027 C 
ATOM      3  C   UNL     1     126.103 110.978 133.525  1.00  0.00     0.003 C 
ATOM      4  C   UNL     1     124.848 111.824 133.860  1.00  0.00     0.005 C 
ATOM      5  C   UNL     1     124.933 111.982 135.396  1.00  0.00     0.015 C 
ATOM      6  C   UNL     1     126.272 111.297 135.730  1.00  0.00     0.027 C 
ATOM      7  C   UNL     1     127.095 111.616 134.498  1.00  0.00     0.019 C 
ATOM      8  C   UNL     1     126.084 109.817 135.549  1.00  0.00     0.144 C 
ATOM      9  O   UNL     1     125.968 108.999 136.450  1.00  0.00    -0.298 OA
ATOM     10  C   UNL     1     126.912 111.720 137.055  1.00  0.00     0.020 C 
ATOM     11  C   UNL     1     127.123 108.613 133.603  1.00  0.00     0.020 C 
ENDROOT
TORSDOF 0
ENDMDL
MODEL 4
REMARK VINA RESULT:    -2.081      0.996      1.243
REMARK INTER + INTRA:          -2.081
REMARK INTER:                  -2.081
REMARK INTRA:                   0.000
REMARK UNBOUND:                 0.000
REMARK SMILES CC1(C)C(=O)[C@]2(C)CC[C@H]1C2
REMARK SMILES IDX 1 1 2 2 10 3 9 4 8 5 6 6 11 7 4 8 5 9 7 10 3 11
REMARK H PARENT
REMARK Flexibility Score: inf
ROOT
ATOM      1  C   UNL     1     124.423 111.744 132.747  1.00  0.00     0.020 C 
ATOM      2  C   UNL     1     125.231 110.429 132.680  1.00  0.00     0.027 C 
ATOM      3  C   UNL     1     126.753 110.588 133.033  1.00  0.00     0.003 C 
ATOM      4  C   UNL     1     126.944 111.399 134.340  1.00  0.00     0.005 C 
ATOM      5  C   UNL     1     126.389 110.447 135.425  1.00  0.00     0.015 C 
ATOM      6  C   UNL     1     126.048 109.180 134.618  1.00  0.00     0.027 C 
ATOM      7  C   UNL     1     127.124 109.198 133.551  1.00  0.00     0.019 C 
ATOM      8  C   UNL     1     124.837 109.486 133.781  1.00  0.00     0.144 C 
ATOM      9  O   UNL     1     123.702 109.093 134.003  1.00  0.00    -0.298 OA
ATOM     10  C   UNL     1     125.974 107.885 135.430  1.00  0.00     0.020 C 
ATOM     11  C   UNL     1     125.032 109.783 131.292  1.00  0.00     0.020 C 
ENDROOT
TORSDOF 0
ENDMDL
MODEL 5
REMARK VINA RESULT:    -2.042      1.436      2.876
REMARK INTER + INTRA:          -2.042
REMARK INTER:                  -2.042
REMARK INTRA:                   0.000
REMARK UNBOUND:                 0.000
REMARK SMILES CC1(C)C(=O)[C@]2(C)CC[C@H]1C2
REMARK SMILES IDX 1 1 2 2 10 3 9 4 8 5 6 6 11 7 4 8 5 9 7 10 3 11
REMARK H PARENT
REMARK Flexibility Score: inf
ROOT
ATOM      1  C   UNL     1     123.725 107.515 133.012  1.00  0.00     0.020 C 
ATOM      2  C   UNL     1     124.192 108.569 134.041  1.00  0.00     0.027 C 
ATOM      3  C   UNL     1     125.283 108.051 135.045  1.00  0.00     0.003 C 
ATOM      4  C   UNL     1     126.429 107.321 134.299  1.00  0.00     0.005 C 
ATOM      5  C   UNL     1     127.124 108.464 133.523  1.00  0.00     0.015 C 
ATOM      6  C   UNL     1     126.354 109.711 134.001  1.00  0.00     0.027 C 
ATOM      7  C   UNL     1     126.020 109.334 135.430  1.00  0.00     0.019 C 
ATOM      8  C   UNL     1     124.984 109.663 133.385  1.00  0.00     0.144 C 
ATOM      9  O   UNL     1     124.601 110.351 132.450  1.00  0.00    -0.298 OA
ATOM     10  C   UNL     1     127.098 111.039 133.847  1.00  0.00     0.020 C 
ATOM     11  C   UNL     1     122.961 109.135 134.779  1.00  0.00     0.020 C 
ENDROOT
TORSDOF 0
ENDMDL
MODEL 6
REMARK VINA RESULT:    -2.010      0.952      3.220
REMARK INTER + INTRA:          -2.010
REMARK INTER:                  -2.010
REMARK INTRA:                   0.000
REMARK UNBOUND:                 0.000
REMARK SMILES CC1(C)C(=O)[C@]2(C)CC[C@H]1C2
REMARK SMILES IDX 1 1 2 2 10 3 9 4 8 5 6 6 11 7 4 8 5 9 7 10 3 11
REMARK H PARENT
REMARK Flexibility Score: inf
ROOT
ATOM      1  C   UNL     1     125.989 108.260 135.913  1.00  0.00     0.020 C 
ATOM      2  C   UNL     1     126.060 109.209 134.696  1.00  0.00     0.027 C 
ATOM      3  C   UNL     1     127.123 108.795 133.616  1.00  0.00     0.003 C 
ATOM      4  C   UNL     1     127.003 107.291 133.259  1.00  0.00     0.005 C 
ATOM      5  C   UNL     1     125.647 107.215 132.520  1.00  0.00     0.015 C 
ATOM      6  C   UNL     1     125.214 108.694 132.460  1.00  0.00     0.027 C 
ATOM      7  C   UNL     1     126.550 109.398 132.334  1.00  0.00     0.019 C 
ATOM      8  C   UNL     1     124.823 109.111 133.850  1.00  0.00     0.144 C 
ATOM      9  O   UNL     1     123.679 109.270 134.249  1.00  0.00    -0.298 OA
ATOM     10  C   UNL     1     124.203 109.037 131.363  1.00  0.00     0.020 C 
ATOM     11  C   UNL     1     126.285 110.652 135.193  1.00  0.00     0.020 C 
ENDROOT
TORSDOF 0
ENDMDL
MODEL 7
REMARK VINA RESULT:    -2.006      1.290      2.076
REMARK INTER + INTRA:          -2.006
REMARK INTER:                  -2.006
REMARK INTRA:                   0.000
REMARK UNBOUND:                 0.000
REMARK SMILES CC1(C)C(=O)[C@]2(C)CC[C@H]1C2
REMARK SMILES IDX 1 1 2 2 10 3 9 4 8 5 6 6 11 7 4 8 5 9 7 10 3 11
REMARK H PARENT
REMARK Flexibility Score: inf
ROOT
ATOM      1  C   UNL     1     123.593 110.986 134.273  1.00  0.00     0.020 C 
ATOM      2  C   UNL     1     124.867 110.476 133.563  1.00  0.00     0.027 C 
ATOM      3  C   UNL     1     126.200 110.772 134.339  1.00  0.00     0.003 C 
ATOM      4  C   UNL     1     126.083 110.364 135.830  1.00  0.00     0.005 C 
ATOM      5  C   UNL     1     126.003 108.821 135.765  1.00  0.00     0.015 C 
ATOM      6  C   UNL     1     126.186 108.539 134.261  1.00  0.00     0.027 C 
ATOM      7  C   UNL     1     127.125 109.656 133.852  1.00  0.00     0.019 C 
ATOM      8  C   UNL     1     124.930 108.976 133.559  1.00  0.00     0.144 C 
ATOM      9  O   UNL     1     124.064 108.232 133.124  1.00  0.00    -0.298 OA
ATOM     10  C   UNL     1     126.676 107.131 133.913  1.00  0.00     0.020 C 
ATOM     11  C   UNL     1     124.906 111.042 132.128  1.00  0.00     0.020 C 
ENDROOT
TORSDOF 0
ENDMDL
