MODEL 1
REMARK VINA RESULT:    -4.192      0.000      0.000
REMARK INTER + INTRA:          -4.437
REMARK INTER:                  -4.437
REMARK INTRA:                   0.000
REMARK UNBOUND:                 0.000
REMARK SMILES O=c1ccc2cc(O)c(O)cc2o1
REMARK SMILES IDX 4 1 3 2 2 3 1 4 13 5 12 6 11 7 9 8 7 9 6 10 5 11 8 12 10 14
REMARK H PARENT 8 13 10 15
REMARK Flexibility Score: inf
ROOT
ATOM      1  C   UNL     1      20.183  -1.741 -25.595  1.00  0.00     0.019 A 
ATOM      2  C   UNL     1      21.261  -1.591 -24.723  1.00  0.00     0.094 A 
ATOM      3  C   UNL     1      21.774  -0.309 -24.493  1.00  0.00     0.336 A 
ATOM      4  O   UNL     1      22.746  -0.152 -23.710  1.00  0.00    -0.246 OA
ATOM      5  O   UNL     1      21.238   0.748 -25.098  1.00  0.00    -0.423 OA
ATOM      6  C   UNL     1      20.210   0.649 -25.937  1.00  0.00     0.142 A 
ATOM      7  C   UNL     1      19.690   1.796 -26.544  1.00  0.00     0.098 A 
ATOM      8  C   UNL     1      18.606   1.696 -27.429  1.00  0.00     0.161 A 
ATOM      9  C   UNL     1      18.040   0.443 -27.707  1.00  0.00     0.158 A 
ATOM     10  C   UNL     1      18.558  -0.711 -27.102  1.00  0.00     0.062 A 
ATOM     11  C   UNL     1      19.641  -0.613 -26.217  1.00  0.00     0.022 A 
ENDROOT
BRANCH   9  12
ATOM     12  O   UNL     1      16.963   0.354 -28.588  1.00  0.00    -0.504 OA
ATOM     13  H   UNL     1      16.015   0.554 -28.289  1.00  0.00     0.293 HD
ENDBRANCH   9  12
BRANCH   8  14
ATOM     14  O   UNL     1      18.085   2.838 -28.036  1.00  0.00    -0.504 OA
ATOM     15  H   UNL     1      18.426   3.165 -28.932  1.00  0.00     0.293 HD
ENDBRANCH   8  14
TORSDOF 2
ENDMDL
MODEL 2
REMARK VINA RESULT:    -4.115      2.300      2.635
REMARK INTER + INTRA:          -4.356
REMARK INTER:                  -4.356
REMARK INTRA:                   0.000
REMARK UNBOUND:                 0.000
REMARK SMILES O=c1ccc2cc(O)c(O)cc2o1
REMARK SMILES IDX 4 1 3 2 2 3 1 4 13 5 12 6 11 7 9 8 7 9 6 10 5 11 8 12 10 14
REMARK H PARENT 8 13 10 15
REMARK Flexibility Score: inf
ROOT
ATOM      1  C   UNL     1      20.478   1.694 -25.187  1.00  0.00     0.019 A 
ATOM      2  C   UNL     1      21.800   2.098 -25.005  1.00  0.00     0.094 A 
ATOM      3  C   UNL     1      22.596   2.342 -26.130  1.00  0.00     0.336 A 
ATOM      4  O   UNL     1      23.792   2.708 -25.987  1.00  0.00    -0.246 OA
ATOM      5  O   UNL     1      22.096   2.191 -27.354  1.00  0.00    -0.423 OA
ATOM      6  C   UNL     1      20.840   1.807 -27.573  1.00  0.00     0.142 A 
ATOM      7  C   UNL     1      20.370   1.664 -28.881  1.00  0.00     0.098 A 
ATOM      8  C   UNL     1      19.048   1.260 -29.116  1.00  0.00     0.161 A 
ATOM      9  C   UNL     1      18.192   0.998 -28.037  1.00  0.00     0.158 A 
ATOM     10  C   UNL     1      18.658   1.139 -26.721  1.00  0.00     0.062 A 
ATOM     11  C   UNL     1      19.979   1.543 -26.485  1.00  0.00     0.022 A 
ENDROOT
BRANCH   9  12
ATOM     12  O   UNL     1      16.879   0.597 -28.279  1.00  0.00    -0.504 OA
ATOM     13  H   UNL     1      16.511   0.529 -29.222  1.00  0.00     0.293 HD
ENDBRANCH   9  12
BRANCH   8  14
ATOM     14  O   UNL     1      18.576   1.117 -30.420  1.00  0.00    -0.504 OA
ATOM     15  H   UNL     1      18.556   0.215 -30.881  1.00  0.00     0.293 HD
ENDBRANCH   8  14
TORSDOF 2
ENDMDL
MODEL 3
REMARK VINA RESULT:    -4.016      9.323     10.538
REMARK INTER + INTRA:          -4.251
REMARK INTER:                  -4.251
REMARK INTRA:                   0.000
REMARK UNBOUND:                 0.000
REMARK SMILES O=c1ccc2cc(O)c(O)cc2o1
REMARK SMILES IDX 4 1 3 2 2 3 1 4 13 5 12 6 11 7 9 8 7 9 6 10 5 11 8 12 10 14
REMARK H PARENT 8 13 10 15
REMARK Flexibility Score: inf
ROOT
ATOM      1  C   UNL     1      22.081  -5.896 -32.648  1.00  0.00     0.019 A 
ATOM      2  C   UNL     1      21.552  -4.964 -33.541  1.00  0.00     0.094 A 
ATOM      3  C   UNL     1      22.400  -3.996 -34.092  1.00  0.00     0.336 A 
ATOM      4  O   UNL     1      21.943  -3.145 -34.899  1.00  0.00    -0.246 OA
ATOM      5  O   UNL     1      23.690  -3.969 -33.768  1.00  0.00    -0.423 OA
ATOM      6  C   UNL     1      24.235  -4.839 -32.921  1.00  0.00     0.142 A 
ATOM      7  C   UNL     1      25.597  -4.761 -32.618  1.00  0.00     0.098 A 
ATOM      8  C   UNL     1      26.176  -5.676 -31.726  1.00  0.00     0.161 A 
ATOM      9  C   UNL     1      25.387  -6.674 -31.136  1.00  0.00     0.158 A 
ATOM     10  C   UNL     1      24.020  -6.757 -31.435  1.00  0.00     0.062 A 
ATOM     11  C   UNL     1      23.440  -5.844 -32.326  1.00  0.00     0.022 A 
ENDROOT
BRANCH   9  12
ATOM     12  O   UNL     1      25.970  -7.579 -30.250  1.00  0.00    -0.504 OA
ATOM     13  H   UNL     1      26.780  -7.330 -29.693  1.00  0.00     0.293 HD
ENDBRANCH   9  12
BRANCH   8  14
ATOM     14  O   UNL     1      27.534  -5.601 -31.422  1.00  0.00    -0.504 OA
ATOM     15  H   UNL     1      27.897  -4.900 -30.787  1.00  0.00     0.293 HD
ENDBRANCH   8  14
TORSDOF 2
ENDMDL
MODEL 4
REMARK VINA RESULT:    -4.006      1.179      2.393
REMARK INTER + INTRA:          -4.240
REMARK INTER:                  -4.240
REMARK INTRA:                   0.000
REMARK UNBOUND:                 0.000
REMARK SMILES O=c1ccc2cc(O)c(O)cc2o1
REMARK SMILES IDX 4 1 3 2 2 3 1 4 13 5 12 6 11 7 9 8 7 9 6 10 5 11 8 12 10 14
REMARK H PARENT 8 13 10 15
REMARK Flexibility Score: inf
ROOT
ATOM      1  C   UNL     1      20.520   1.952 -25.551  1.00  0.00     0.019 A 
ATOM      2  C   UNL     1      21.651   1.533 -24.852  1.00  0.00     0.094 A 
ATOM      3  C   UNL     1      22.019   0.183 -24.904  1.00  0.00     0.336 A 
ATOM      4  O   UNL     1      23.036  -0.216 -24.279  1.00  0.00    -0.246 OA
ATOM      5  O   UNL     1      21.300  -0.684 -25.612  1.00  0.00    -0.423 OA
ATOM      6  C   UNL     1      20.214  -0.326 -26.294  1.00  0.00     0.142 A 
ATOM      7  C   UNL     1      19.497  -1.281 -27.020  1.00  0.00     0.098 A 
ATOM      8  C   UNL     1      18.353  -0.908 -27.740  1.00  0.00     0.161 A 
ATOM      9  C   UNL     1      17.924   0.427 -27.734  1.00  0.00     0.158 A 
ATOM     10  C   UNL     1      18.639   1.390 -27.007  1.00  0.00     0.062 A 
ATOM     11  C   UNL     1      19.782   1.019 -26.287  1.00  0.00     0.022 A 
ENDROOT
BRANCH   9  12
ATOM     12  O   UNL     1      16.786   0.788 -28.453  1.00  0.00    -0.504 OA
ATOM     13  H   UNL     1      16.517   1.759 -28.567  1.00  0.00     0.293 HD
ENDBRANCH   9  12
BRANCH   8  14
ATOM     14  O   UNL     1      17.637  -1.859 -28.465  1.00  0.00    -0.504 OA
ATOM     15  H   UNL     1      18.055  -2.739 -28.745  1.00  0.00     0.293 HD
ENDBRANCH   8  14
TORSDOF 2
ENDMDL
MODEL 5
REMARK VINA RESULT:    -4.004      9.237     10.600
REMARK INTER + INTRA:          -4.238
REMARK INTER:                  -4.238
REMARK INTRA:                   0.000
REMARK UNBOUND:                 0.000
REMARK SMILES O=c1ccc2cc(O)c(O)cc2o1
REMARK SMILES IDX 4 1 3 2 2 3 1 4 13 5 12 6 11 7 9 8 7 9 6 10 5 11 8 12 10 14
REMARK H PARENT 8 13 10 15
REMARK Flexibility Score: inf
ROOT
ATOM      1  C   UNL     1      25.351  -3.655 -33.438  1.00  0.00     0.019 A 
ATOM      2  C   UNL     1      24.354  -2.916 -34.075  1.00  0.00     0.094 A 
ATOM      3  C   UNL     1      23.023  -3.335 -33.963  1.00  0.00     0.336 A 
ATOM      4  O   UNL     1      22.108  -2.683 -34.530  1.00  0.00    -0.246 OA
ATOM      5  O   UNL     1      22.717  -4.422 -33.258  1.00  0.00    -0.423 OA
ATOM      6  C   UNL     1      23.637  -5.155 -32.636  1.00  0.00     0.142 A 
ATOM      7  C   UNL     1      23.256  -6.288 -31.910  1.00  0.00     0.098 A 
ATOM      8  C   UNL     1      24.222  -7.063 -31.252  1.00  0.00     0.161 A 
ATOM      9  C   UNL     1      25.575  -6.703 -31.321  1.00  0.00     0.158 A 
ATOM     10  C   UNL     1      25.964  -5.568 -32.047  1.00  0.00     0.062 A 
ATOM     11  C   UNL     1      25.000  -4.792 -32.705  1.00  0.00     0.022 A 
ENDROOT
BRANCH   9  12
ATOM     12  O   UNL     1      26.529  -7.479 -30.664  1.00  0.00    -0.504 OA
ATOM     13  H   UNL     1      27.379  -7.071 -30.289  1.00  0.00     0.293 HD
ENDBRANCH   9  12
BRANCH   8  14
ATOM     14  O   UNL     1      23.844  -8.192 -30.528  1.00  0.00    -0.504 OA
ATOM     15  H   UNL     1      22.910  -8.291 -30.148  1.00  0.00     0.293 HD
ENDBRANCH   8  14
TORSDOF 2
ENDMDL
MODEL 6
REMARK VINA RESULT:    -3.974      8.705      9.821
REMARK INTER + INTRA:          -4.207
REMARK INTER:                  -4.207
REMARK INTRA:                   0.000
REMARK UNBOUND:                 0.000
REMARK SMILES O=c1ccc2cc(O)c(O)cc2o1
REMARK SMILES IDX 4 1 3 2 2 3 1 4 13 5 12 6 11 7 9 8 7 9 6 10 5 11 8 12 10 14
REMARK H PARENT 8 13 10 15
REMARK Flexibility Score: inf
ROOT
ATOM      1  C   UNL     1      25.031  -3.328 -33.743  1.00  0.00     0.019 A 
ATOM      2  C   UNL     1      24.647  -1.988 -33.786  1.00  0.00     0.094 A 
ATOM      3  C   UNL     1      24.630  -1.249 -32.597  1.00  0.00     0.336 A 
ATOM      4  O   UNL     1      24.287  -0.038 -32.614  1.00  0.00    -0.246 OA
ATOM      5  O   UNL     1      24.975  -1.819 -31.445  1.00  0.00    -0.423 OA
ATOM      6  C   UNL     1      25.347  -3.094 -31.360  1.00  0.00     0.142 A 
ATOM      7  C   UNL     1      25.699  -3.639 -30.122  1.00  0.00     0.098 A 
ATOM      8  C   UNL     1      26.091  -4.982 -30.028  1.00  0.00     0.161 A 
ATOM      9  C   UNL     1      26.133  -5.784 -31.178  1.00  0.00     0.158 A 
ATOM     10  C   UNL     1      25.781  -5.243 -32.423  1.00  0.00     0.062 A 
ATOM     11  C   UNL     1      25.388  -3.901 -32.519  1.00  0.00     0.022 A 
ENDROOT
BRANCH   9  12
ATOM     12  O   UNL     1      26.524  -7.118 -31.075  1.00  0.00    -0.504 OA
ATOM     13  H   UNL     1      25.892  -7.831 -30.728  1.00  0.00     0.293 HD
ENDBRANCH   9  12
BRANCH   8  14
ATOM     14  O   UNL     1      26.443  -5.528 -28.794  1.00  0.00    -0.504 OA
ATOM     15  H   UNL     1      27.217  -6.175 -28.701  1.00  0.00     0.293 HD
ENDBRANCH   8  14
TORSDOF 2
ENDMDL
MODEL 7
REMARK VINA RESULT:    -3.849      1.490      2.433
REMARK INTER + INTRA:          -4.074
REMARK INTER:                  -4.074
REMARK INTRA:                   0.000
REMARK UNBOUND:                 0.000
REMARK SMILES O=c1ccc2cc(O)c(O)cc2o1
REMARK SMILES IDX 4 1 3 2 2 3 1 4 13 5 12 6 11 7 9 8 7 9 6 10 5 11 8 12 10 14
REMARK H PARENT 8 13 10 15
REMARK Flexibility Score: inf
ROOT
ATOM      1  C   UNL     1      22.645   1.759 -26.587  1.00  0.00     0.019 A 
ATOM      2  C   UNL     1      23.070   1.110 -25.428  1.00  0.00     0.094 A 
ATOM      3  C   UNL     1      22.146   0.355 -24.697  1.00  0.00     0.336 A 
ATOM      4  O   UNL     1      22.509  -0.238 -23.648  1.00  0.00    -0.246 OA
ATOM      5  O   UNL     1      20.883   0.257 -25.104  1.00  0.00    -0.423 OA
ATOM      6  C   UNL     1      20.437   0.860 -26.204  1.00  0.00     0.142 A 
ATOM      7  C   UNL     1      19.098   0.722 -26.583  1.00  0.00     0.098 A 
ATOM      8  C   UNL     1      18.624   1.355 -27.741  1.00  0.00     0.161 A 
ATOM      9  C   UNL     1      19.492   2.129 -28.523  1.00  0.00     0.158 A 
ATOM     10  C   UNL     1      20.836   2.272 -28.149  1.00  0.00     0.062 A 
ATOM     11  C   UNL     1      21.312   1.640 -26.992  1.00  0.00     0.022 A 
ENDROOT
BRANCH   9  12
ATOM     12  O   UNL     1      19.012   2.755 -29.673  1.00  0.00    -0.504 OA
ATOM     13  H   UNL     1      19.639   3.175 -30.350  1.00  0.00     0.293 HD
ENDBRANCH   9  12
BRANCH   8  14
ATOM     14  O   UNL     1      17.289   1.219 -28.121  1.00  0.00    -0.504 OA
ATOM     15  H   UNL     1      17.013   0.599 -28.873  1.00  0.00     0.293 HD
ENDBRANCH   8  14
TORSDOF 2
ENDMDL
MODEL 8
REMARK VINA RESULT:    -3.821      9.449     10.492
REMARK INTER + INTRA:          -4.044
REMARK INTER:                  -4.044
REMARK INTRA:                   0.000
REMARK UNBOUND:                 0.000
REMARK SMILES O=c1ccc2cc(O)c(O)cc2o1
REMARK SMILES IDX 4 1 3 2 2 3 1 4 13 5 12 6 11 7 9 8 7 9 6 10 5 11 8 12 10 14
REMARK H PARENT 8 13 10 15
REMARK Flexibility Score: inf
ROOT
ATOM      1  C   UNL     1      23.025  -4.305 -33.051  1.00  0.00     0.019 A 
ATOM      2  C   UNL     1      23.563  -3.164 -33.644  1.00  0.00     0.094 A 
ATOM      3  C   UNL     1      24.947  -2.960 -33.592  1.00  0.00     0.336 A 
ATOM      4  O   UNL     1      25.453  -1.937 -34.120  1.00  0.00    -0.246 OA
ATOM      5  O   UNL     1      25.735  -3.845 -32.985  1.00  0.00    -0.423 OA
ATOM      6  C   UNL     1      25.262  -4.947 -32.406  1.00  0.00     0.142 A 
ATOM      7  C   UNL     1      26.138  -5.840 -31.783  1.00  0.00     0.098 A 
ATOM      8  C   UNL     1      25.645  -7.003 -31.173  1.00  0.00     0.161 A 
ATOM      9  C   UNL     1      24.269  -7.272 -31.186  1.00  0.00     0.158 A 
ATOM     10  C   UNL     1      23.385  -6.379 -31.809  1.00  0.00     0.062 A 
ATOM     11  C   UNL     1      23.876  -5.218 -32.420  1.00  0.00     0.022 A 
ENDROOT
BRANCH   9  12
ATOM     12  O   UNL     1      23.787  -8.430 -30.577  1.00  0.00    -0.504 OA
ATOM     13  H   UNL     1      24.208  -9.336 -30.751  1.00  0.00     0.293 HD
ENDBRANCH   9  12
BRANCH   8  14
ATOM     14  O   UNL     1      26.516  -7.895 -30.551  1.00  0.00    -0.504 OA
ATOM     15  H   UNL     1      26.179  -8.611 -29.918  1.00  0.00     0.293 HD
ENDBRANCH   8  14
TORSDOF 2
ENDMDL
MODEL 9
REMARK VINA RESULT:    -3.819     16.773     17.757
REMARK INTER + INTRA:          -4.042
REMARK INTER:                  -4.042
REMARK INTRA:                   0.000
REMARK UNBOUND:                 0.000
REMARK SMILES O=c1ccc2cc(O)c(O)cc2o1
REMARK SMILES IDX 4 1 3 2 2 3 1 4 13 5 12 6 11 7 9 8 7 9 6 10 5 11 8 12 10 14
REMARK H PARENT 8 13 10 15
REMARK Flexibility Score: inf
ROOT
ATOM      1  C   UNL     1      18.276 -15.034 -37.504  1.00  0.00     0.019 A 
ATOM      2  C   UNL     1      19.444 -14.854 -36.763  1.00  0.00     0.094 A 
ATOM      3  C   UNL     1      19.829 -13.555 -36.410  1.00  0.00     0.336 A 
ATOM      4  O   UNL     1      20.880 -13.371 -35.742  1.00  0.00    -0.246 OA
ATOM      5  O   UNL     1      19.090 -12.511 -36.776  1.00  0.00    -0.423 OA
ATOM      6  C   UNL     1      17.969 -12.639 -37.483  1.00  0.00     0.142 A 
ATOM      7  C   UNL     1      17.234 -11.505 -37.839  1.00  0.00     0.098 A 
ATOM      8  C   UNL     1      16.052 -11.635 -38.583  1.00  0.00     0.161 A 
ATOM      9  C   UNL     1      15.604 -12.905 -38.972  1.00  0.00     0.158 A 
ATOM     10  C   UNL     1      16.338 -14.047 -38.618  1.00  0.00     0.062 A 
ATOM     11  C   UNL     1      17.519 -13.919 -37.874  1.00  0.00     0.022 A 
ENDROOT
BRANCH   9  12
ATOM     12  O   UNL     1      14.429 -13.025 -39.712  1.00  0.00    -0.504 OA
ATOM     13  H   UNL     1      14.138 -12.306 -40.365  1.00  0.00     0.293 HD
ENDBRANCH   9  12
BRANCH   8  14
ATOM     14  O   UNL     1      15.317 -10.505 -38.940  1.00  0.00    -0.504 OA
ATOM     15  H   UNL     1      14.572 -10.151 -38.352  1.00  0.00     0.293 HD
ENDBRANCH   8  14
TORSDOF 2
ENDMDL
