MODEL 1
REMARK VINA RESULT:    -4.362      0.000      0.000
REMARK INTER + INTRA:         -16.278
REMARK INTER:                 -10.992
REMARK INTRA:                  -5.286
REMARK UNBOUND:                -5.286
REMARK SMILES CCCCCCCCCCCCCCCCCCCCCCCCCCCC(=O)[O-]
REMARK SMILES IDX 15 1 16 2 17 3 18 4 19 5 20 6 21 7 22 8 23 9 24 10 25 11
REMARK SMILES IDX 26 12 27 13 28 14 29 15 30 16 14 17 13 18 12 19 11 20 10 21
REMARK SMILES IDX 9 22 8 23 7 24 6 25 5 26 4 27 3 28 2 29 1 30
REMARK H PARENT
REMARK Flexibility Score: inf
ROOT
ATOM      1  C   UNL     1      12.497  14.110  16.128  1.00  0.00     0.000 C 
ENDROOT
BRANCH   1   2
ATOM      2  C   UNL     1      13.248  13.889  14.801  1.00  0.00     0.000 C 
BRANCH   2   3
ATOM      3  C   UNL     1      13.618  15.198  14.087  1.00  0.00     0.000 C 
BRANCH   3   4
ATOM      4  C   UNL     1      12.630  16.341  14.378  1.00  0.00     0.000 C 
BRANCH   4   5
ATOM      5  C   UNL     1      12.268  17.188  13.140  1.00  0.00     0.000 C 
BRANCH   5   6
ATOM      6  C   UNL     1      12.079  18.676  13.481  1.00  0.00     0.000 C 
BRANCH   6   7
ATOM      7  C   UNL     1      11.521  18.887  14.898  1.00  0.00     0.000 C 
BRANCH   7   8
ATOM      8  C   UNL     1      12.370  19.864  15.729  1.00  0.00     0.000 C 
BRANCH   8   9
ATOM      9  C   UNL     1      13.527  19.170  16.470  1.00  0.00     0.000 C 
BRANCH   9  10
ATOM     10  C   UNL     1      14.921  19.489  15.889  1.00  0.00     0.000 C 
BRANCH  10  11
ATOM     11  C   UNL     1      15.509  18.310  15.095  1.00  0.00     0.000 C 
BRANCH  11  12
ATOM     12  C   UNL     1      15.761  18.643  13.614  1.00  0.00     0.006 C 
BRANCH  12  13
ATOM     13  C   UNL     1      16.514  17.539  12.846  1.00  0.00     0.053 C 
BRANCH  13  14
ATOM     14  C   UNL     1      15.757  17.050  11.649  1.00  0.00     0.041 C 
ATOM     15  O   UNL     1      15.753  15.825  11.355  1.00  0.00    -0.550 OA
ATOM     16  O   UNL     1      15.082  17.952  10.834  1.00  0.00    -0.550 OA
ENDBRANCH  13  14
ENDBRANCH  12  13
ENDBRANCH  11  12
ENDBRANCH  10  11
ENDBRANCH   9  10
ENDBRANCH   8   9
ENDBRANCH   7   8
ENDBRANCH   6   7
ENDBRANCH   5   6
ENDBRANCH   4   5
ENDBRANCH   3   4
ENDBRANCH   2   3
ENDBRANCH   1   2
BRANCH   1  17
ATOM     17  C   UNL     1      11.200  13.296  16.308  1.00  0.00     0.000 C 
BRANCH  17  18
ATOM     18  C   UNL     1      10.192  13.500  15.164  1.00  0.00     0.000 C 
BRANCH  18  19
ATOM     19  C   UNL     1       9.181  14.623  15.467  1.00  0.00     0.000 C 
BRANCH  19  20
ATOM     20  C   UNL     1       9.091  15.708  14.377  1.00  0.00     0.000 C 
BRANCH  20  21
ATOM     21  C   UNL     1       8.378  16.977  14.872  1.00  0.00     0.000 C 
BRANCH  21  22
ATOM     22  C   UNL     1       7.570  17.675  13.765  1.00  0.00    -0.000 C 
BRANCH  22  23
ATOM     23  C   UNL     1       8.249  18.956  13.253  1.00  0.00    -0.000 C 
BRANCH  23  24
ATOM     24  C   UNL     1       8.224  19.019  11.720  1.00  0.00    -0.000 C 
BRANCH  24  25
ATOM     25  C   UNL     1       9.244  18.043  11.114  1.00  0.00    -0.000 C 
BRANCH  25  26
ATOM     26  C   UNL     1       8.613  17.074  10.099  1.00  0.00    -0.000 C 
BRANCH  26  27
ATOM     27  C   UNL     1       8.238  15.687  10.660  1.00  0.00    -0.000 C 
BRANCH  27  28
ATOM     28  C   UNL     1       8.711  14.490   9.817  1.00  0.00    -0.000 C 
BRANCH  28  29
ATOM     29  C   UNL     1      10.210  14.205   9.975  1.00  0.00    -0.003 C 
ATOM     30  C   UNL     1      10.674  14.483  11.401  1.00  0.00     0.004 C 
ENDBRANCH  28  29
ENDBRANCH  27  28
ENDBRANCH  26  27
ENDBRANCH  25  26
ENDBRANCH  24  25
ENDBRANCH  23  24
ENDBRANCH  22  23
ENDBRANCH  21  22
ENDBRANCH  20  21
ENDBRANCH  19  20
ENDBRANCH  18  19
ENDBRANCH  17  18
ENDBRANCH   1  17
TORSDOF 26
ENDMDL
MODEL 2
REMARK VINA RESULT:    -4.277      1.478      3.181
REMARK INTER + INTRA:         -16.063
REMARK INTER:                 -10.842
REMARK INTRA:                  -5.221
REMARK UNBOUND:                -5.286
REMARK SMILES CCCCCCCCCCCCCCCCCCCCCCCCCCCC(=O)[O-]
REMARK SMILES IDX 15 1 16 2 17 3 18 4 19 5 20 6 21 7 22 8 23 9 24 10 25 11
REMARK SMILES IDX 26 12 27 13 28 14 29 15 30 16 14 17 13 18 12 19 11 20 10 21
REMARK SMILES IDX 9 22 8 23 7 24 6 25 5 26 4 27 3 28 2 29 1 30
REMARK H PARENT
REMARK Flexibility Score: inf
ROOT
ATOM      1  C   UNL     1       9.271  14.568  15.358  1.00  0.00     0.000 C 
ENDROOT
BRANCH   1   2
ATOM      2  C   UNL     1      10.243  13.376  15.261  1.00  0.00     0.000 C 
BRANCH   2   3
ATOM      3  C   UNL     1      11.204  13.276  16.455  1.00  0.00     0.000 C 
BRANCH   3   4
ATOM      4  C   UNL     1      12.486  14.106  16.266  1.00  0.00     0.000 C 
BRANCH   4   5
ATOM      5  C   UNL     1      13.203  13.855  14.922  1.00  0.00     0.000 C 
BRANCH   5   6
ATOM      6  C   UNL     1      13.659  15.159  14.246  1.00  0.00     0.000 C 
BRANCH   6   7
ATOM      7  C   UNL     1      12.884  16.386  14.755  1.00  0.00     0.000 C 
BRANCH   7   8
ATOM      8  C   UNL     1      13.683  17.692  14.615  1.00  0.00     0.000 C 
BRANCH   8   9
ATOM      9  C   UNL     1      15.190  17.453  14.411  1.00  0.00     0.000 C 
BRANCH   9  10
ATOM     10  C   UNL     1      15.826  18.359  13.335  1.00  0.00     0.000 C 
BRANCH  10  11
ATOM     11  C   UNL     1      14.877  18.621  12.154  1.00  0.00     0.000 C 
BRANCH  11  12
ATOM     12  C   UNL     1      15.079  17.641  10.986  1.00  0.00     0.006 C 
BRANCH  12  13
ATOM     13  C   UNL     1      16.489  17.020  10.930  1.00  0.00     0.053 C 
BRANCH  13  14
ATOM     14  C   UNL     1      16.457  15.530  10.776  1.00  0.00     0.041 C 
ATOM     15  O   UNL     1      17.387  14.932  10.172  1.00  0.00    -0.550 OA
ATOM     16  O   UNL     1      15.381  14.801  11.270  1.00  0.00    -0.550 OA
ENDBRANCH  13  14
ENDBRANCH  12  13
ENDBRANCH  11  12
ENDBRANCH  10  11
ENDBRANCH   9  10
ENDBRANCH   8   9
ENDBRANCH   7   8
ENDBRANCH   6   7
ENDBRANCH   5   6
ENDBRANCH   4   5
ENDBRANCH   3   4
ENDBRANCH   2   3
ENDBRANCH   1   2
BRANCH   1  17
ATOM     17  C   UNL     1       9.379  15.615  14.233  1.00  0.00     0.000 C 
BRANCH  17  18
ATOM     18  C   UNL     1       8.496  16.853  14.469  1.00  0.00     0.000 C 
BRANCH  18  19
ATOM     19  C   UNL     1       7.674  17.231  13.221  1.00  0.00     0.000 C 
BRANCH  19  20
ATOM     20  C   UNL     1       8.027  16.424  11.958  1.00  0.00     0.000 C 
BRANCH  20  21
ATOM     21  C   UNL     1       7.931  17.268  10.677  1.00  0.00     0.000 C 
BRANCH  21  22
ATOM     22  C   UNL     1       9.308  17.594  10.074  1.00  0.00    -0.000 C 
BRANCH  22  23
ATOM     23  C   UNL     1      10.175  18.454  11.009  1.00  0.00    -0.000 C 
BRANCH  23  24
ATOM     24  C   UNL     1      11.282  17.616  11.662  1.00  0.00    -0.000 C 
BRANCH  24  25
ATOM     25  C   UNL     1      11.712  16.463  10.743  1.00  0.00    -0.000 C 
BRANCH  25  26
ATOM     26  C   UNL     1      11.534  15.081  11.394  1.00  0.00    -0.000 C 
BRANCH  26  27
ATOM     27  C   UNL     1      10.588  14.120  10.646  1.00  0.00    -0.000 C 
BRANCH  27  28
ATOM     28  C   UNL     1      10.571  14.278   9.115  1.00  0.00    -0.000 C 
BRANCH  28  29
ATOM     29  C   UNL     1       9.170  14.108   8.514  1.00  0.00    -0.003 C 
ATOM     30  C   UNL     1       8.379  13.037   9.260  1.00  0.00     0.004 C 
ENDBRANCH  28  29
ENDBRANCH  27  28
ENDBRANCH  26  27
ENDBRANCH  25  26
ENDBRANCH  24  25
ENDBRANCH  23  24
ENDBRANCH  22  23
ENDBRANCH  21  22
ENDBRANCH  20  21
ENDBRANCH  19  20
ENDBRANCH  18  19
ENDBRANCH  17  18
ENDBRANCH   1  17
TORSDOF 26
ENDMDL
MODEL 3
REMARK VINA RESULT:    -4.219      1.400      6.055
REMARK INTER + INTRA:         -15.918
REMARK INTER:                 -10.830
REMARK INTRA:                  -5.088
REMARK UNBOUND:                -5.286
REMARK SMILES CCCCCCCCCCCCCCCCCCCCCCCCCCCC(=O)[O-]
REMARK SMILES IDX 15 1 16 2 17 3 18 4 19 5 20 6 21 7 22 8 23 9 24 10 25 11
REMARK SMILES IDX 26 12 27 13 28 14 29 15 30 16 14 17 13 18 12 19 11 20 10 21
REMARK SMILES IDX 9 22 8 23 7 24 6 25 5 26 4 27 3 28 2 29 1 30
REMARK H PARENT
REMARK Flexibility Score: inf
ROOT
ATOM      1  C   UNL     1      10.047  13.646  15.154  1.00  0.00     0.000 C 
ENDROOT
BRANCH   1   2
ATOM      2  C   UNL     1       9.083  14.800  15.489  1.00  0.00     0.000 C 
BRANCH   2   3
ATOM      3  C   UNL     1       9.079  15.914  14.432  1.00  0.00     0.000 C 
BRANCH   3   4
ATOM      4  C   UNL     1       8.079  17.041  14.749  1.00  0.00     0.000 C 
BRANCH   4   5
ATOM      5  C   UNL     1       8.668  18.461  14.611  1.00  0.00     0.000 C 
BRANCH   5   6
ATOM      6  C   UNL     1       8.114  19.211  13.389  1.00  0.00     0.000 C 
BRANCH   6   7
ATOM      7  C   UNL     1       6.577  19.241  13.367  1.00  0.00     0.000 C 
BRANCH   7   8
ATOM      8  C   UNL     1       5.991  18.672  12.063  1.00  0.00     0.000 C 
BRANCH   8   9
ATOM      9  C   UNL     1       7.026  18.596  10.925  1.00  0.00     0.000 C 
BRANCH   9  10
ATOM     10  C   UNL     1       7.062  17.232  10.204  1.00  0.00     0.000 C 
BRANCH  10  11
ATOM     11  C   UNL     1       7.636  16.114  11.092  1.00  0.00     0.000 C 
BRANCH  11  12
ATOM     12  C   UNL     1       9.000  15.594  10.606  1.00  0.00     0.006 C 
BRANCH  12  13
ATOM     13  C   UNL     1      10.196  16.443  11.081  1.00  0.00     0.053 C 
BRANCH  13  14
ATOM     14  C   UNL     1      11.512  15.883  10.637  1.00  0.00     0.041 C 
ATOM     15  O   UNL     1      12.258  16.543   9.865  1.00  0.00    -0.550 OA
ATOM     16  O   UNL     1      11.905  14.614  11.049  1.00  0.00    -0.550 OA
ENDBRANCH  13  14
ENDBRANCH  12  13
ENDBRANCH  11  12
ENDBRANCH  10  11
ENDBRANCH   9  10
ENDBRANCH   8   9
ENDBRANCH   7   8
ENDBRANCH   6   7
ENDBRANCH   5   6
ENDBRANCH   4   5
ENDBRANCH   3   4
ENDBRANCH   2   3
ENDBRANCH   1   2
BRANCH   1  17
ATOM     17  C   UNL     1      10.992  13.211  16.290  1.00  0.00     0.000 C 
BRANCH  17  18
ATOM     18  C   UNL     1      12.386  13.857  16.201  1.00  0.00     0.000 C 
BRANCH  18  19
ATOM     19  C   UNL     1      12.983  13.768  14.783  1.00  0.00     0.000 C 
BRANCH  19  20
ATOM     20  C   UNL     1      13.413  15.122  14.188  1.00  0.00     0.000 C 
BRANCH  20  21
ATOM     21  C   UNL     1      12.820  16.314  14.957  1.00  0.00     0.000 C 
BRANCH  21  22
ATOM     22  C   UNL     1      12.275  17.411  14.026  1.00  0.00    -0.000 C 
BRANCH  22  23
ATOM     23  C   UNL     1      12.429  18.821  14.618  1.00  0.00    -0.000 C 
BRANCH  23  24
ATOM     24  C   UNL     1      13.314  18.801  15.871  1.00  0.00    -0.000 C 
BRANCH  24  25
ATOM     25  C   UNL     1      14.677  19.451  15.591  1.00  0.00    -0.000 C 
BRANCH  25  26
ATOM     26  C   UNL     1      15.748  18.433  15.161  1.00  0.00    -0.000 C 
BRANCH  26  27
ATOM     27  C   UNL     1      16.157  18.499  13.675  1.00  0.00    -0.000 C 
BRANCH  27  28
ATOM     28  C   UNL     1      16.049  17.169  12.907  1.00  0.00    -0.000 C 
BRANCH  28  29
ATOM     29  C   UNL     1      15.243  17.296  11.607  1.00  0.00    -0.003 C 
ATOM     30  C   UNL     1      14.560  18.658  11.517  1.00  0.00     0.004 C 
ENDBRANCH  28  29
ENDBRANCH  27  28
ENDBRANCH  26  27
ENDBRANCH  25  26
ENDBRANCH  24  25
ENDBRANCH  23  24
ENDBRANCH  22  23
ENDBRANCH  21  22
ENDBRANCH  20  21
ENDBRANCH  19  20
ENDBRANCH  18  19
ENDBRANCH  17  18
ENDBRANCH   1  17
TORSDOF 26
ENDMDL
MODEL 4
REMARK VINA RESULT:    -4.162      1.461      3.902
REMARK INTER + INTRA:         -15.775
REMARK INTER:                 -10.756
REMARK INTRA:                  -5.019
REMARK UNBOUND:                -5.286
REMARK SMILES CCCCCCCCCCCCCCCCCCCCCCCCCCCC(=O)[O-]
REMARK SMILES IDX 15 1 16 2 17 3 18 4 19 5 20 6 21 7 22 8 23 9 24 10 25 11
REMARK SMILES IDX 26 12 27 13 28 14 29 15 30 16 14 17 13 18 12 19 11 20 10 21
REMARK SMILES IDX 9 22 8 23 7 24 6 25 5 26 4 27 3 28 2 29 1 30
REMARK H PARENT
REMARK Flexibility Score: inf
ROOT
ATOM      1  C   UNL     1      11.180  13.277  16.460  1.00  0.00     0.000 C 
ENDROOT
BRANCH   1   2
ATOM      2  C   UNL     1      10.229  13.416  15.256  1.00  0.00     0.000 C 
BRANCH   2   3
ATOM      3  C   UNL     1       9.191  14.536  15.428  1.00  0.00     0.000 C 
BRANCH   3   4
ATOM      4  C   UNL     1       9.397  15.703  14.446  1.00  0.00     0.000 C 
BRANCH   4   5
ATOM      5  C   UNL     1       8.353  16.831  14.585  1.00  0.00     0.000 C 
BRANCH   5   6
ATOM      6  C   UNL     1       8.986  18.231  14.512  1.00  0.00     0.000 C 
BRANCH   6   7
ATOM      7  C   UNL     1      10.191  18.281  13.558  1.00  0.00     0.000 C 
BRANCH   7   8
ATOM      8  C   UNL     1      11.522  18.506  14.296  1.00  0.00     0.000 C 
BRANCH   8   9
ATOM      9  C   UNL     1      11.548  19.822  15.095  1.00  0.00     0.000 C 
BRANCH   9  10
ATOM     10  C   UNL     1      12.661  19.881  16.163  1.00  0.00     0.000 C 
BRANCH  10  11
ATOM     11  C   UNL     1      13.526  18.609  16.180  1.00  0.00     0.000 C 
BRANCH  11  12
ATOM     12  C   UNL     1      15.001  18.875  15.834  1.00  0.00     0.006 C 
BRANCH  12  13
ATOM     13  C   UNL     1      15.481  18.159  14.555  1.00  0.00     0.053 C 
BRANCH  13  14
ATOM     14  C   UNL     1      15.721  19.106  13.419  1.00  0.00     0.041 C 
ATOM     15  O   UNL     1      14.786  19.402  12.628  1.00  0.00    -0.550 OA
ATOM     16  O   UNL     1      16.988  19.638  13.211  1.00  0.00    -0.550 OA
ENDBRANCH  13  14
ENDBRANCH  12  13
ENDBRANCH  11  12
ENDBRANCH  10  11
ENDBRANCH   9  10
ENDBRANCH   8   9
ENDBRANCH   7   8
ENDBRANCH   6   7
ENDBRANCH   5   6
ENDBRANCH   4   5
ENDBRANCH   3   4
ENDBRANCH   2   3
ENDBRANCH   1   2
BRANCH   1  17
ATOM     17  C   UNL     1      12.489  14.087  16.378  1.00  0.00     0.000 C 
BRANCH  17  18
ATOM     18  C   UNL     1      13.195  13.963  15.016  1.00  0.00     0.000 C 
BRANCH  18  19
ATOM     19  C   UNL     1      13.216  15.297  14.244  1.00  0.00     0.000 C 
BRANCH  19  20
ATOM     20  C   UNL     1      12.708  15.200  12.793  1.00  0.00     0.000 C 
BRANCH  20  21
ATOM     21  C   UNL     1      13.370  16.235  11.870  1.00  0.00     0.000 C 
BRANCH  21  22
ATOM     22  C   UNL     1      13.750  15.651  10.498  1.00  0.00    -0.000 C 
BRANCH  22  23
ATOM     23  C   UNL     1      13.343  14.176  10.349  1.00  0.00    -0.000 C 
BRANCH  23  24
ATOM     24  C   UNL     1      12.636  13.930   9.009  1.00  0.00    -0.000 C 
BRANCH  24  25
ATOM     25  C   UNL     1      11.244  14.579   8.996  1.00  0.00    -0.000 C 
BRANCH  25  26
ATOM     26  C   UNL     1      10.327  14.050  10.113  1.00  0.00    -0.000 C 
BRANCH  26  27
ATOM     27  C   UNL     1       9.530  15.129  10.875  1.00  0.00    -0.000 C 
BRANCH  27  28
ATOM     28  C   UNL     1       9.756  16.573  10.391  1.00  0.00    -0.000 C 
BRANCH  28  29
ATOM     29  C   UNL     1       8.456  17.268   9.965  1.00  0.00    -0.003 C 
ATOM     30  C   UNL     1       7.346  17.026  10.983  1.00  0.00     0.004 C 
ENDBRANCH  28  29
ENDBRANCH  27  28
ENDBRANCH  26  27
ENDBRANCH  25  26
ENDBRANCH  24  25
ENDBRANCH  23  24
ENDBRANCH  22  23
ENDBRANCH  21  22
ENDBRANCH  20  21
ENDBRANCH  19  20
ENDBRANCH  18  19
ENDBRANCH  17  18
ENDBRANCH   1  17
TORSDOF 26
ENDMDL
MODEL 5
REMARK VINA RESULT:    -4.156      1.715      3.304
REMARK INTER + INTRA:         -15.759
REMARK INTER:                 -10.696
REMARK INTRA:                  -5.064
REMARK UNBOUND:                -5.286
REMARK SMILES CCCCCCCCCCCCCCCCCCCCCCCCCCCC(=O)[O-]
REMARK SMILES IDX 15 1 16 2 17 3 18 4 19 5 20 6 21 7 22 8 23 9 24 10 25 11
REMARK SMILES IDX 26 12 27 13 28 14 29 15 30 16 14 17 13 18 12 19 11 20 10 21
REMARK SMILES IDX 9 22 8 23 7 24 6 25 5 26 4 27 3 28 2 29 1 30
REMARK H PARENT
REMARK Flexibility Score: inf
ROOT
ATOM      1  C   UNL     1       9.281  14.623  15.449  1.00  0.00     0.000 C 
ENDROOT
BRANCH   1   2
ATOM      2  C   UNL     1      10.193  13.410  15.187  1.00  0.00     0.000 C 
BRANCH   2   3
ATOM      3  C   UNL     1      11.202  13.153  16.316  1.00  0.00     0.000 C 
BRANCH   3   4
ATOM      4  C   UNL     1      12.450  14.049  16.223  1.00  0.00     0.000 C 
BRANCH   4   5
ATOM      5  C   UNL     1      13.212  13.926  14.886  1.00  0.00     0.000 C 
BRANCH   5   6
ATOM      6  C   UNL     1      13.714  15.285  14.368  1.00  0.00     0.000 C 
BRANCH   6   7
ATOM      7  C   UNL     1      12.800  16.447  14.790  1.00  0.00     0.000 C 
BRANCH   7   8
ATOM      8  C   UNL     1      13.396  17.824  14.449  1.00  0.00     0.000 C 
BRANCH   8   9
ATOM      9  C   UNL     1      14.833  18.001  14.973  1.00  0.00     0.000 C 
BRANCH   9  10
ATOM     10  C   UNL     1      15.835  18.476  13.899  1.00  0.00     0.000 C 
BRANCH  10  11
ATOM     11  C   UNL     1      15.447  18.007  12.487  1.00  0.00     0.000 C 
BRANCH  11  12
ATOM     12  C   UNL     1      16.567  17.223  11.781  1.00  0.00     0.006 C 
BRANCH  12  13
ATOM     13  C   UNL     1      17.986  17.722  12.121  1.00  0.00     0.053 C 
BRANCH  13  14
ATOM     14  C   UNL     1      18.980  17.412  11.043  1.00  0.00     0.041 C 
ATOM     15  O   UNL     1      19.508  18.341  10.377  1.00  0.00    -0.550 OA
ATOM     16  O   UNL     1      19.299  16.091  10.749  1.00  0.00    -0.550 OA
ENDBRANCH  13  14
ENDBRANCH  12  13
ENDBRANCH  11  12
ENDBRANCH  10  11
ENDBRANCH   9  10
ENDBRANCH   8   9
ENDBRANCH   7   8
ENDBRANCH   6   7
ENDBRANCH   5   6
ENDBRANCH   4   5
ENDBRANCH   3   4
ENDBRANCH   2   3
ENDBRANCH   1   2
BRANCH   1  17
ATOM     17  C   UNL     1       9.204  15.662  14.313  1.00  0.00     0.000 C 
BRANCH  17  18
ATOM     18  C   UNL     1       8.419  16.927  14.701  1.00  0.00     0.000 C 
BRANCH  18  19
ATOM     19  C   UNL     1       9.273  18.205  14.581  1.00  0.00     0.000 C 
BRANCH  19  20
ATOM     20  C   UNL     1       9.857  18.450  13.177  1.00  0.00     0.000 C 
BRANCH  20  21
ATOM     21  C   UNL     1       8.817  19.027  12.203  1.00  0.00     0.000 C 
BRANCH  21  22
ATOM     22  C   UNL     1       8.634  18.160  10.946  1.00  0.00    -0.000 C 
BRANCH  22  23
ATOM     23  C   UNL     1       7.459  17.176  11.072  1.00  0.00    -0.000 C 
BRANCH  23  24
ATOM     24  C   UNL     1       7.922  15.730  10.846  1.00  0.00    -0.000 C 
BRANCH  24  25
ATOM     25  C   UNL     1       9.226  15.692  10.035  1.00  0.00    -0.000 C 
BRANCH  25  26
ATOM     26  C   UNL     1      10.293  14.776  10.660  1.00  0.00    -0.000 C 
BRANCH  26  27
ATOM     27  C   UNL     1      11.232  15.459  11.675  1.00  0.00    -0.000 C 
BRANCH  27  28
ATOM     28  C   UNL     1      12.367  16.295  11.058  1.00  0.00    -0.000 C 
BRANCH  28  29
ATOM     29  C   UNL     1      13.204  15.506  10.043  1.00  0.00    -0.003 C 
ATOM     30  C   UNL     1      14.054  14.447  10.739  1.00  0.00     0.004 C 
ENDBRANCH  28  29
ENDBRANCH  27  28
ENDBRANCH  26  27
ENDBRANCH  25  26
ENDBRANCH  24  25
ENDBRANCH  23  24
ENDBRANCH  22  23
ENDBRANCH  21  22
ENDBRANCH  20  21
ENDBRANCH  19  20
ENDBRANCH  18  19
ENDBRANCH  17  18
ENDBRANCH   1  17
TORSDOF 26
ENDMDL
MODEL 6
REMARK VINA RESULT:    -4.138      2.020      5.965
REMARK INTER + INTRA:         -15.713
REMARK INTER:                 -10.453
REMARK INTRA:                  -5.260
REMARK UNBOUND:                -5.286
REMARK SMILES CCCCCCCCCCCCCCCCCCCCCCCCCCCC(=O)[O-]
REMARK SMILES IDX 15 1 16 2 17 3 18 4 19 5 20 6 21 7 22 8 23 9 24 10 25 11
REMARK SMILES IDX 26 12 27 13 28 14 29 15 30 16 14 17 13 18 12 19 11 20 10 21
REMARK SMILES IDX 9 22 8 23 7 24 6 25 5 26 4 27 3 28 2 29 1 30
REMARK H PARENT
REMARK Flexibility Score: inf
ROOT
ATOM      1  C   UNL     1      13.621  15.109  14.425  1.00  0.00     0.000 C 
ENDROOT
BRANCH   1   2
ATOM      2  C   UNL     1      12.997  13.755  14.815  1.00  0.00     0.000 C 
BRANCH   2   3
ATOM      3  C   UNL     1      12.225  13.801  16.142  1.00  0.00     0.000 C 
BRANCH   3   4
ATOM      4  C   UNL     1      10.911  13.000  16.101  1.00  0.00     0.000 C 
BRANCH   4   5
ATOM      5  C   UNL     1       9.889  13.523  15.069  1.00  0.00     0.000 C 
BRANCH   5   6
ATOM      6  C   UNL     1       9.172  14.797  15.546  1.00  0.00     0.000 C 
BRANCH   6   7
ATOM      7  C   UNL     1       9.004  15.832  14.420  1.00  0.00     0.000 C 
BRANCH   7   8
ATOM      8  C   UNL     1       8.260  17.096  14.883  1.00  0.00     0.000 C 
BRANCH   8   9
ATOM      9  C   UNL     1       7.956  18.068  13.729  1.00  0.00     0.000 C 
BRANCH   9  10
ATOM     10  C   UNL     1       7.383  17.383  12.470  1.00  0.00     0.000 C 
BRANCH  10  11
ATOM     11  C   UNL     1       8.369  17.406  11.290  1.00  0.00     0.000 C 
BRANCH  11  12
ATOM     12  C   UNL     1       8.343  16.115  10.454  1.00  0.00     0.006 C 
BRANCH  12  13
ATOM     13  C   UNL     1       9.498  15.144  10.770  1.00  0.00     0.053 C 
BRANCH  13  14
ATOM     14  C   UNL     1       9.697  14.116   9.698  1.00  0.00     0.041 C 
ATOM     15  O   UNL     1      10.570  14.286   8.807  1.00  0.00    -0.550 OA
ATOM     16  O   UNL     1       8.892  12.982   9.662  1.00  0.00    -0.550 OA
ENDBRANCH  13  14
ENDBRANCH  12  13
ENDBRANCH  11  12
ENDBRANCH  10  11
ENDBRANCH   9  10
ENDBRANCH   8   9
ENDBRANCH   7   8
ENDBRANCH   6   7
ENDBRANCH   5   6
ENDBRANCH   4   5
ENDBRANCH   3   4
ENDBRANCH   2   3
ENDBRANCH   1   2
BRANCH   1  17
ATOM     17  C   UNL     1      12.717  16.343  14.614  1.00  0.00     0.000 C 
BRANCH  17  18
ATOM     18  C   UNL     1      12.056  16.816  13.307  1.00  0.00     0.000 C 
BRANCH  18  19
ATOM     19  C   UNL     1      11.649  18.302  13.362  1.00  0.00     0.000 C 
BRANCH  19  20
ATOM     20  C   UNL     1      11.554  18.882  14.786  1.00  0.00     0.000 C 
BRANCH  20  21
ATOM     21  C   UNL     1      12.580  20.000  15.032  1.00  0.00     0.000 C 
BRANCH  21  22
ATOM     22  C   UNL     1      13.669  19.596  16.040  1.00  0.00    -0.000 C 
BRANCH  22  23
ATOM     23  C   UNL     1      14.897  18.965  15.364  1.00  0.00    -0.000 C 
BRANCH  23  24
ATOM     24  C   UNL     1      15.282  19.732  14.092  1.00  0.00    -0.000 C 
BRANCH  24  25
ATOM     25  C   UNL     1      15.266  18.807  12.867  1.00  0.00    -0.000 C 
BRANCH  25  26
ATOM     26  C   UNL     1      16.063  17.508  13.086  1.00  0.00    -0.000 C 
BRANCH  26  27
ATOM     27  C   UNL     1      15.918  16.452  11.972  1.00  0.00    -0.000 C 
BRANCH  27  28
ATOM     28  C   UNL     1      14.706  16.643  11.043  1.00  0.00    -0.000 C 
BRANCH  28  29
ATOM     29  C   UNL     1      14.457  15.433  10.132  1.00  0.00    -0.003 C 
ATOM     30  C   UNL     1      13.528  14.426  10.802  1.00  0.00     0.004 C 
ENDBRANCH  28  29
ENDBRANCH  27  28
ENDBRANCH  26  27
ENDBRANCH  25  26
ENDBRANCH  24  25
ENDBRANCH  23  24
ENDBRANCH  22  23
ENDBRANCH  21  22
ENDBRANCH  20  21
ENDBRANCH  19  20
ENDBRANCH  18  19
ENDBRANCH  17  18
ENDBRANCH   1  17
TORSDOF 26
ENDMDL
MODEL 7
REMARK VINA RESULT:    -4.131      1.462      4.464
REMARK INTER + INTRA:         -15.695
REMARK INTER:                 -10.158
REMARK INTRA:                  -5.537
REMARK UNBOUND:                -5.286
REMARK SMILES CCCCCCCCCCCCCCCCCCCCCCCCCCCC(=O)[O-]
REMARK SMILES IDX 15 1 16 2 17 3 18 4 19 5 20 6 21 7 22 8 23 9 24 10 25 11
REMARK SMILES IDX 26 12 27 13 28 14 29 15 30 16 14 17 13 18 12 19 11 20 10 21
REMARK SMILES IDX 9 22 8 23 7 24 6 25 5 26 4 27 3 28 2 29 1 30
REMARK H PARENT
REMARK Flexibility Score: inf
ROOT
ATOM      1  C   UNL     1       7.926  17.180  14.452  1.00  0.00     0.000 C 
ENDROOT
BRANCH   1   2
ATOM      2  C   UNL     1       9.426  16.941  14.195  1.00  0.00     0.000 C 
BRANCH   2   3
ATOM      3  C   UNL     1       9.785  15.457  14.033  1.00  0.00     0.000 C 
BRANCH   3   4
ATOM      4  C   UNL     1       9.425  14.612  15.268  1.00  0.00     0.000 C 
BRANCH   4   5
ATOM      5  C   UNL     1      10.233  13.303  15.390  1.00  0.00     0.000 C 
BRANCH   5   6
ATOM      6  C   UNL     1      11.229  13.334  16.561  1.00  0.00     0.000 C 
BRANCH   6   7
ATOM      7  C   UNL     1      12.518  14.098  16.215  1.00  0.00     0.000 C 
BRANCH   7   8
ATOM      8  C   UNL     1      13.072  13.729  14.829  1.00  0.00     0.000 C 
BRANCH   8   9
ATOM      9  C   UNL     1      13.479  14.960  14.000  1.00  0.00     0.000 C 
BRANCH   9  10
ATOM     10  C   UNL     1      13.277  16.303  14.735  1.00  0.00     0.000 C 
BRANCH  10  11
ATOM     11  C   UNL     1      14.351  17.340  14.367  1.00  0.00     0.000 C 
BRANCH  11  12
ATOM     12  C   UNL     1      15.495  16.753  13.522  1.00  0.00     0.006 C 
BRANCH  12  13
ATOM     13  C   UNL     1      15.637  17.401  12.129  1.00  0.00     0.053 C 
BRANCH  13  14
ATOM     14  C   UNL     1      15.575  16.398  11.018  1.00  0.00     0.041 C 
ATOM     15  O   UNL     1      15.270  16.758   9.851  1.00  0.00    -0.550 OA
ATOM     16  O   UNL     1      15.821  15.054  11.277  1.00  0.00    -0.550 OA
ENDBRANCH  13  14
ENDBRANCH  12  13
ENDBRANCH  11  12
ENDBRANCH  10  11
ENDBRANCH   9  10
ENDBRANCH   8   9
ENDBRANCH   7   8
ENDBRANCH   6   7
ENDBRANCH   5   6
ENDBRANCH   4   5
ENDBRANCH   3   4
ENDBRANCH   2   3
ENDBRANCH   1   2
BRANCH   1  17
ATOM     17  C   UNL     1       7.379  18.551  14.008  1.00  0.00     0.000 C 
BRANCH  17  18
ATOM     18  C   UNL     1       8.437  19.433  13.324  1.00  0.00     0.000 C 
BRANCH  18  19
ATOM     19  C   UNL     1       8.071  19.760  11.863  1.00  0.00     0.000 C 
BRANCH  19  20
ATOM     20  C   UNL     1       8.779  18.878  10.817  1.00  0.00     0.000 C 
BRANCH  20  21
ATOM     21  C   UNL     1       7.816  18.363   9.736  1.00  0.00     0.000 C 
BRANCH  21  22
ATOM     22  C   UNL     1       7.071  17.087  10.162  1.00  0.00    -0.000 C 
BRANCH  22  23
ATOM     23  C   UNL     1       7.968  16.108  10.938  1.00  0.00    -0.000 C 
BRANCH  23  24
ATOM     24  C   UNL     1       8.401  14.933  10.051  1.00  0.00    -0.000 C 
BRANCH  24  25
ATOM     25  C   UNL     1       9.843  14.509  10.369  1.00  0.00    -0.000 C 
BRANCH  25  26
ATOM     26  C   UNL     1      10.867  15.071   9.367  1.00  0.00    -0.000 C 
BRANCH  26  27
ATOM     27  C   UNL     1      11.437  16.460   9.721  1.00  0.00    -0.000 C 
BRANCH  27  28
ATOM     28  C   UNL     1      11.960  16.605  11.161  1.00  0.00    -0.000 C 
BRANCH  28  29
ATOM     29  C   UNL     1      11.959  18.060  11.650  1.00  0.00    -0.003 C 
ATOM     30  C   UNL     1      12.607  18.984  10.624  1.00  0.00     0.004 C 
ENDBRANCH  28  29
ENDBRANCH  27  28
ENDBRANCH  26  27
ENDBRANCH  25  26
ENDBRANCH  24  25
ENDBRANCH  23  24
ENDBRANCH  22  23
ENDBRANCH  21  22
ENDBRANCH  20  21
ENDBRANCH  19  20
ENDBRANCH  18  19
ENDBRANCH  17  18
ENDBRANCH   1  17
TORSDOF 26
ENDMDL
MODEL 8
REMARK VINA RESULT:    -4.101      2.209      5.493
REMARK INTER + INTRA:         -15.620
REMARK INTER:                  -9.849
REMARK INTRA:                  -5.771
REMARK UNBOUND:                -5.286
REMARK SMILES CCCCCCCCCCCCCCCCCCCCCCCCCCCC(=O)[O-]
REMARK SMILES IDX 15 1 16 2 17 3 18 4 19 5 20 6 21 7 22 8 23 9 24 10 25 11
REMARK SMILES IDX 26 12 27 13 28 14 29 15 30 16 14 17 13 18 12 19 11 20 10 21
REMARK SMILES IDX 9 22 8 23 7 24 6 25 5 26 4 27 3 28 2 29 1 30
REMARK H PARENT
REMARK Flexibility Score: inf
ROOT
ATOM      1  C   UNL     1      11.336  13.235  16.465  1.00  0.00     0.000 C 
ENDROOT
BRANCH   1   2
ATOM      2  C   UNL     1      10.220  13.202  15.403  1.00  0.00     0.000 C 
BRANCH   2   3
ATOM      3  C   UNL     1       9.501  14.549  15.236  1.00  0.00     0.000 C 
BRANCH   3   4
ATOM      4  C   UNL     1       9.824  15.241  13.899  1.00  0.00     0.000 C 
BRANCH   4   5
ATOM      5  C   UNL     1       9.773  16.782  13.961  1.00  0.00     0.000 C 
BRANCH   5   6
ATOM      6  C   UNL     1       8.565  17.297  14.761  1.00  0.00     0.000 C 
BRANCH   6   7
ATOM      7  C   UNL     1       8.170  18.731  14.369  1.00  0.00     0.000 C 
BRANCH   7   8
ATOM      8  C   UNL     1       6.931  18.775  13.458  1.00  0.00     0.000 C 
BRANCH   8   9
ATOM      9  C   UNL     1       7.191  19.505  12.128  1.00  0.00     0.000 C 
BRANCH   9  10
ATOM     10  C   UNL     1       7.660  18.576  10.988  1.00  0.00     0.000 C 
BRANCH  10  11
ATOM     11  C   UNL     1       6.891  17.244  10.963  1.00  0.00     0.000 C 
BRANCH  11  12
ATOM     12  C   UNL     1       7.814  16.013  10.959  1.00  0.00     0.006 C 
BRANCH  12  13
ATOM     13  C   UNL     1       8.776  15.959   9.756  1.00  0.00     0.053 C 
BRANCH  13  14
ATOM     14  C   UNL     1       9.445  14.626   9.612  1.00  0.00     0.041 C 
ATOM     15  O   UNL     1       9.267  13.933   8.575  1.00  0.00    -0.550 OA
ATOM     16  O   UNL     1      10.239  14.129  10.639  1.00  0.00    -0.550 OA
ENDBRANCH  13  14
ENDBRANCH  12  13
ENDBRANCH  11  12
ENDBRANCH  10  11
ENDBRANCH   9  10
ENDBRANCH   8   9
ENDBRANCH   7   8
ENDBRANCH   6   7
ENDBRANCH   5   6
ENDBRANCH   4   5
ENDBRANCH   3   4
ENDBRANCH   2   3
ENDBRANCH   1   2
BRANCH   1  17
ATOM     17  C   UNL     1      12.553  14.119  16.132  1.00  0.00     0.000 C 
BRANCH  17  18
ATOM     18  C   UNL     1      13.202  13.774  14.781  1.00  0.00     0.000 C 
BRANCH  18  19
ATOM     19  C   UNL     1      13.559  15.031  13.964  1.00  0.00     0.000 C 
BRANCH  19  20
ATOM     20  C   UNL     1      13.267  16.361  14.685  1.00  0.00     0.000 C 
BRANCH  20  21
ATOM     21  C   UNL     1      14.402  17.383  14.511  1.00  0.00     0.000 C 
BRANCH  21  22
ATOM     22  C   UNL     1      13.990  18.806  14.926  1.00  0.00    -0.000 C 
BRANCH  22  23
ATOM     23  C   UNL     1      12.500  18.908  15.292  1.00  0.00    -0.000 C 
BRANCH  23  24
ATOM     24  C   UNL     1      11.798  19.984  14.453  1.00  0.00    -0.000 C 
BRANCH  24  25
ATOM     25  C   UNL     1      12.210  19.884  12.976  1.00  0.00    -0.000 C 
BRANCH  25  26
ATOM     26  C   UNL     1      11.015  19.640  12.037  1.00  0.00    -0.000 C 
BRANCH  26  27
ATOM     27  C   UNL     1      11.241  18.567  10.952  1.00  0.00    -0.000 C 
BRANCH  27  28
ATOM     28  C   UNL     1      12.134  17.387  11.375  1.00  0.00    -0.000 C 
BRANCH  28  29
ATOM     29  C   UNL     1      12.714  16.621  10.179  1.00  0.00    -0.003 C 
ATOM     30  C   UNL     1      12.191  17.184   8.861  1.00  0.00     0.004 C 
ENDBRANCH  28  29
ENDBRANCH  27  28
ENDBRANCH  26  27
ENDBRANCH  25  26
ENDBRANCH  24  25
ENDBRANCH  23  24
ENDBRANCH  22  23
ENDBRANCH  21  22
ENDBRANCH  20  21
ENDBRANCH  19  20
ENDBRANCH  18  19
ENDBRANCH  17  18
ENDBRANCH   1  17
TORSDOF 26
ENDMDL
MODEL 9
REMARK VINA RESULT:    -4.061      1.066      2.335
REMARK INTER + INTRA:         -15.520
REMARK INTER:                 -10.437
REMARK INTRA:                  -5.083
REMARK UNBOUND:                -5.286
REMARK SMILES CCCCCCCCCCCCCCCCCCCCCCCCCCCC(=O)[O-]
REMARK SMILES IDX 15 1 16 2 17 3 18 4 19 5 20 6 21 7 22 8 23 9 24 10 25 11
REMARK SMILES IDX 26 12 27 13 28 14 29 15 30 16 14 17 13 18 12 19 11 20 10 21
REMARK SMILES IDX 9 22 8 23 7 24 6 25 5 26 4 27 3 28 2 29 1 30
REMARK H PARENT
REMARK Flexibility Score: inf
ROOT
ATOM      1  C   UNL     1      13.720  14.952  14.009  1.00  0.00     0.000 C 
ENDROOT
BRANCH   1   2
ATOM      2  C   UNL     1      13.058  16.313  14.300  1.00  0.00     0.000 C 
BRANCH   2   3
ATOM      3  C   UNL     1      12.622  17.060  13.031  1.00  0.00     0.000 C 
BRANCH   3   4
ATOM      4  C   UNL     1      12.058  18.462  13.323  1.00  0.00     0.000 C 
BRANCH   4   5
ATOM      5  C   UNL     1      11.759  18.720  14.815  1.00  0.00     0.000 C 
BRANCH   5   6
ATOM      6  C   UNL     1      12.549  19.916  15.374  1.00  0.00     0.000 C 
BRANCH   6   7
ATOM      7  C   UNL     1      13.420  19.531  16.581  1.00  0.00     0.000 C 
BRANCH   7   8
ATOM      8  C   UNL     1      14.803  18.998  16.169  1.00  0.00     0.000 C 
BRANCH   8   9
ATOM      9  C   UNL     1      15.323  19.629  14.865  1.00  0.00     0.000 C 
BRANCH   9  10
ATOM     10  C   UNL     1      16.034  18.629  13.928  1.00  0.00     0.000 C 
BRANCH  10  11
ATOM     11  C   UNL     1      15.769  18.928  12.442  1.00  0.00     0.000 C 
BRANCH  11  12
ATOM     12  C   UNL     1      16.420  17.907  11.494  1.00  0.00     0.006 C 
BRANCH  12  13
ATOM     13  C   UNL     1      16.158  16.439  11.885  1.00  0.00     0.053 C 
BRANCH  13  14
ATOM     14  C   UNL     1      16.106  15.527  10.698  1.00  0.00     0.041 C 
ATOM     15  O   UNL     1      17.166  15.181  10.112  1.00  0.00    -0.550 OA
ATOM     16  O   UNL     1      14.880  15.083  10.213  1.00  0.00    -0.550 OA
ENDBRANCH  13  14
ENDBRANCH  12  13
ENDBRANCH  11  12
ENDBRANCH  10  11
ENDBRANCH   9  10
ENDBRANCH   8   9
ENDBRANCH   7   8
ENDBRANCH   6   7
ENDBRANCH   5   6
ENDBRANCH   4   5
ENDBRANCH   3   4
ENDBRANCH   2   3
ENDBRANCH   1   2
BRANCH   1  17
ATOM     17  C   UNL     1      13.099  13.737  14.723  1.00  0.00     0.000 C 
BRANCH  17  18
ATOM     18  C   UNL     1      12.574  14.064  16.132  1.00  0.00     0.000 C 
BRANCH  18  19
ATOM     19  C   UNL     1      11.270  13.311  16.461  1.00  0.00     0.000 C 
BRANCH  19  20
ATOM     20  C   UNL     1      10.223  13.330  15.331  1.00  0.00     0.000 C 
BRANCH  20  21
ATOM     21  C   UNL     1       9.408  14.633  15.307  1.00  0.00     0.000 C 
BRANCH  21  22
ATOM     22  C   UNL     1       9.560  15.405  13.986  1.00  0.00    -0.000 C 
BRANCH  22  23
ATOM     23  C   UNL     1       8.736  16.703  13.961  1.00  0.00    -0.000 C 
BRANCH  23  24
ATOM     24  C   UNL     1       8.057  16.900  12.599  1.00  0.00    -0.000 C 
BRANCH  24  25
ATOM     25  C   UNL     1       9.006  17.588  11.607  1.00  0.00    -0.000 C 
BRANCH  25  26
ATOM     26  C   UNL     1       8.645  17.306  10.138  1.00  0.00    -0.000 C 
BRANCH  26  27
ATOM     27  C   UNL     1       9.639  16.406   9.377  1.00  0.00    -0.000 C 
BRANCH  27  28
ATOM     28  C   UNL     1      10.650  15.654  10.262  1.00  0.00    -0.000 C 
BRANCH  28  29
ATOM     29  C   UNL     1      10.240  14.200  10.530  1.00  0.00    -0.003 C 
ATOM     30  C   UNL     1       9.164  13.743   9.550  1.00  0.00     0.004 C 
ENDBRANCH  28  29
ENDBRANCH  27  28
ENDBRANCH  26  27
ENDBRANCH  25  26
ENDBRANCH  24  25
ENDBRANCH  23  24
ENDBRANCH  22  23
ENDBRANCH  21  22
ENDBRANCH  20  21
ENDBRANCH  19  20
ENDBRANCH  18  19
ENDBRANCH  17  18
ENDBRANCH   1  17
TORSDOF 26
ENDMDL
