MODEL 1
REMARK VINA RESULT:    -6.849      0.000      0.000
REMARK INTER + INTRA:          -8.541
REMARK INTER:                  -8.251
REMARK INTRA:                  -0.290
REMARK UNBOUND:                -0.290
REMARK SMILES O=c1c(O)c(-c2ccc(O)c(O)c2)oc2cc(O)cc(O)c12
REMARK SMILES IDX 5 1 3 2 2 3 1 4 22 5 20 6 19 7 17 8 16 9 15 10 14 11 6 12
REMARK SMILES IDX 7 13 8 14 9 15 13 16 11 17 10 18 12 20 4 22 21 24 18 26
REMARK H PARENT 10 19 12 21 4 23 21 25 18 27
REMARK Flexibility Score: inf
ROOT
ATOM      1  C   UNL     1      27.926   9.285  33.320  1.00  0.00     0.180 A 
ATOM      2  C   UNL     1      27.275  10.231  32.511  1.00  0.00     0.208 A 
ATOM      3  C   UNL     1      27.063  11.525  33.011  1.00  0.00     0.238 A 
ATOM      4  O   UNL     1      26.528  12.384  32.260  1.00  0.00    -0.285 OA
ATOM      5  C   UNL     1      27.489  11.853  34.320  1.00  0.00     0.111 A 
ATOM      6  C   UNL     1      27.290  13.122  34.944  1.00  0.00     0.134 A 
ATOM      7  C   UNL     1      27.869  13.376  36.193  1.00  0.00     0.093 A 
ATOM      8  C   UNL     1      28.585  12.386  36.870  1.00  0.00     0.123 A 
ATOM      9  C   UNL     1      28.734  11.126  36.296  1.00  0.00     0.094 A 
ATOM     10  C   UNL     1      28.199  10.854  35.035  1.00  0.00     0.146 A 
ATOM     11  O   UNL     1      28.373   9.643  34.519  1.00  0.00    -0.452 OA
ENDROOT
BRANCH   1  12
ATOM     12  C   UNL     1      28.163   7.894  32.873  1.00  0.00     0.025 A 
ATOM     13  C   UNL     1      27.128   6.943  32.860  1.00  0.00     0.016 A 
ATOM     14  C   UNL     1      27.381   5.629  32.456  1.00  0.00     0.051 A 
ATOM     15  C   UNL     1      28.672   5.243  32.073  1.00  0.00     0.157 A 
ATOM     16  C   UNL     1      29.460   7.496  32.508  1.00  0.00     0.062 A 
ATOM     17  C   UNL     1      29.717   6.182  32.103  1.00  0.00     0.158 A 
BRANCH  15  18
ATOM     18  O   UNL     1      28.920   3.932  31.669  1.00  0.00    -0.504 OA
ATOM     19  H   UNL     1      29.624   3.361  32.121  1.00  0.00     0.293 HD
ENDBRANCH  15  18
BRANCH  17  20
ATOM     20  O   UNL     1      31.015   5.827  31.736  1.00  0.00    -0.504 OA
ATOM     21  H   UNL     1      31.255   4.885  31.452  1.00  0.00     0.293 HD
ENDBRANCH  17  20
ENDBRANCH   1  12
BRANCH   2  22
ATOM     22  O   UNL     1      26.882   9.892  31.213  1.00  0.00    -0.502 OA
ATOM     23  H   UNL     1      27.543   9.602  30.502  1.00  0.00     0.293 HD
ENDBRANCH   2  22
BRANCH   6  24
ATOM     24  O   UNL     1      26.515  14.148  34.395  1.00  0.00    -0.507 OA
ATOM     25  H   UNL     1      26.887  14.994  33.989  1.00  0.00     0.293 HD
ENDBRANCH   6  24
BRANCH   8  26
ATOM     26  O   UNL     1      29.144  12.642  38.120  1.00  0.00    -0.508 OA
ATOM     27  H   UNL     1      29.149  13.574  38.517  1.00  0.00     0.293 HD
ENDBRANCH   8  26
TORSDOF 6
ENDMDL
MODEL 2
REMARK VINA RESULT:    -6.046      3.908      7.362
REMARK INTER + INTRA:          -7.574
REMARK INTER:                  -7.303
REMARK INTRA:                  -0.271
REMARK UNBOUND:                -0.290
REMARK SMILES O=c1c(O)c(-c2ccc(O)c(O)c2)oc2cc(O)cc(O)c12
REMARK SMILES IDX 5 1 3 2 2 3 1 4 22 5 20 6 19 7 17 8 16 9 15 10 14 11 6 12
REMARK SMILES IDX 7 13 8 14 9 15 13 16 11 17 10 18 12 20 4 22 21 24 18 26
REMARK H PARENT 10 19 12 21 4 23 21 25 18 27
REMARK Flexibility Score: inf
ROOT
ATOM      1  C   UNL     1      28.206   3.124  30.772  1.00  0.00     0.180 A 
ATOM      2  C   UNL     1      29.603   3.098  30.626  1.00  0.00     0.208 A 
ATOM      3  C   UNL     1      30.356   4.196  31.074  1.00  0.00     0.238 A 
ATOM      4  O   UNL     1      31.611   4.143  30.991  1.00  0.00    -0.285 OA
ATOM      5  C   UNL     1      29.701   5.312  31.647  1.00  0.00     0.111 A 
ATOM      6  C   UNL     1      30.360   6.496  32.097  1.00  0.00     0.134 A 
ATOM      7  C   UNL     1      29.626   7.483  32.767  1.00  0.00     0.093 A 
ATOM      8  C   UNL     1      28.246   7.358  32.944  1.00  0.00     0.123 A 
ATOM      9  C   UNL     1      27.585   6.235  32.455  1.00  0.00     0.094 A 
ATOM     10  C   UNL     1      28.295   5.216  31.815  1.00  0.00     0.146 A 
ATOM     11  O   UNL     1      27.627   4.157  31.374  1.00  0.00    -0.452 OA
ENDROOT
BRANCH   1  12
ATOM     12  C   UNL     1      27.343   2.017  30.302  1.00  0.00     0.025 A 
ATOM     13  C   UNL     1      27.250   0.808  31.014  1.00  0.00     0.016 A 
ATOM     14  C   UNL     1      26.447  -0.232  30.538  1.00  0.00     0.051 A 
ATOM     15  C   UNL     1      25.737  -0.086  29.339  1.00  0.00     0.157 A 
ATOM     16  C   UNL     1      26.645   2.150  29.090  1.00  0.00     0.062 A 
ATOM     17  C   UNL     1      25.841   1.111  28.611  1.00  0.00     0.158 A 
BRANCH  15  18
ATOM     18  O   UNL     1      24.936  -1.125  28.869  1.00  0.00    -0.504 OA
ATOM     19  H   UNL     1      25.316  -2.045  28.680  1.00  0.00     0.293 HD
ENDBRANCH  15  18
BRANCH  17  20
ATOM     20  O   UNL     1      25.153   1.285  27.410  1.00  0.00    -0.504 OA
ATOM     21  H   UNL     1      24.361   0.707  27.155  1.00  0.00     0.293 HD
ENDBRANCH  17  20
ENDBRANCH   1  12
BRANCH   2  22
ATOM     22  O   UNL     1      30.232   1.976  30.078  1.00  0.00    -0.502 OA
ATOM     23  H   UNL     1      30.155   1.734  29.097  1.00  0.00     0.293 HD
ENDBRANCH   2  22
BRANCH   6  24
ATOM     24  O   UNL     1      31.717   6.760  31.890  1.00  0.00    -0.507 OA
ATOM     25  H   UNL     1      32.474   6.253  32.324  1.00  0.00     0.293 HD
ENDBRANCH   6  24
BRANCH   8  26
ATOM     26  O   UNL     1      27.521   8.353  33.598  1.00  0.00    -0.508 OA
ATOM     27  H   UNL     1      27.671   9.334  33.399  1.00  0.00     0.293 HD
ENDBRANCH   8  26
TORSDOF 6
ENDMDL
MODEL 3
REMARK VINA RESULT:    -5.924      3.851      9.784
REMARK INTER + INTRA:          -7.427
REMARK INTER:                  -7.545
REMARK INTRA:                   0.119
REMARK UNBOUND:                -0.290
REMARK SMILES O=c1c(O)c(-c2ccc(O)c(O)c2)oc2cc(O)cc(O)c12
REMARK SMILES IDX 5 1 3 2 2 3 1 4 22 5 20 6 19 7 17 8 16 9 15 10 14 11 6 12
REMARK SMILES IDX 7 13 8 14 9 15 13 16 11 17 10 18 12 20 4 22 21 24 18 26
REMARK H PARENT 10 19 12 21 4 23 21 25 18 27
REMARK Flexibility Score: inf
ROOT
ATOM      1  C   UNL     1      28.186   3.725  31.097  1.00  0.00     0.180 A 
ATOM      2  C   UNL     1      29.114   2.688  31.288  1.00  0.00     0.208 A 
ATOM      3  C   UNL     1      28.918   1.467  30.626  1.00  0.00     0.238 A 
ATOM      4  O   UNL     1      29.782   0.560  30.757  1.00  0.00    -0.285 OA
ATOM      5  C   UNL     1      27.786   1.291  29.794  1.00  0.00     0.111 A 
ATOM      6  C   UNL     1      27.465   0.081  29.106  1.00  0.00     0.134 A 
ATOM      7  C   UNL     1      26.391   0.062  28.206  1.00  0.00     0.093 A 
ATOM      8  C   UNL     1      25.588   1.190  28.020  1.00  0.00     0.123 A 
ATOM      9  C   UNL     1      25.857   2.356  28.732  1.00  0.00     0.094 A 
ATOM     10  C   UNL     1      26.943   2.417  29.609  1.00  0.00     0.146 A 
ATOM     11  O   UNL     1      27.170   3.552  30.259  1.00  0.00    -0.452 OA
ENDROOT
BRANCH   1  12
ATOM     12  C   UNL     1      28.311   5.032  31.781  1.00  0.00     0.025 A 
ATOM     13  C   UNL     1      27.197   5.669  32.353  1.00  0.00     0.016 A 
ATOM     14  C   UNL     1      27.335   6.914  32.973  1.00  0.00     0.051 A 
ATOM     15  C   UNL     1      28.585   7.546  33.019  1.00  0.00     0.157 A 
ATOM     16  C   UNL     1      29.558   5.680  31.812  1.00  0.00     0.062 A 
ATOM     17  C   UNL     1      29.700   6.926  32.432  1.00  0.00     0.158 A 
BRANCH  15  18
ATOM     18  O   UNL     1      28.720   8.787  33.640  1.00  0.00    -0.504 OA
ATOM     19  H   UNL     1      29.211   9.553  33.195  1.00  0.00     0.293 HD
ENDBRANCH  15  18
BRANCH  17  20
ATOM     20  O   UNL     1      30.956   7.533  32.453  1.00  0.00    -0.504 OA
ATOM     21  H   UNL     1      31.130   8.391  32.962  1.00  0.00     0.293 HD
ENDBRANCH  17  20
ENDBRANCH   1  12
BRANCH   2  22
ATOM     22  O   UNL     1      30.237   2.891  32.097  1.00  0.00    -0.502 OA
ATOM     23  H   UNL     1      30.372   3.736  32.638  1.00  0.00     0.293 HD
ENDBRANCH   2  22
BRANCH   6  24
ATOM     24  O   UNL     1      28.147  -1.125  29.289  1.00  0.00    -0.507 OA
ATOM     25  H   UNL     1      27.703  -2.016  29.453  1.00  0.00     0.293 HD
ENDBRANCH   6  24
BRANCH   8  26
ATOM     26  O   UNL     1      24.512   1.157  27.135  1.00  0.00    -0.508 OA
ATOM     27  H   UNL     1      23.563   1.017  27.461  1.00  0.00     0.293 HD
ENDBRANCH   8  26
TORSDOF 6
ENDMDL
MODEL 4
REMARK VINA RESULT:    -5.828     14.112     16.252
REMARK INTER + INTRA:          -7.311
REMARK INTER:                  -6.993
REMARK INTRA:                  -0.317
REMARK UNBOUND:                -0.290
REMARK SMILES O=c1c(O)c(-c2ccc(O)c(O)c2)oc2cc(O)cc(O)c12
REMARK SMILES IDX 5 1 3 2 2 3 1 4 22 5 20 6 19 7 17 8 16 9 15 10 14 11 6 12
REMARK SMILES IDX 7 13 8 14 9 15 13 16 11 17 10 18 12 20 4 22 21 24 18 26
REMARK H PARENT 10 19 12 21 4 23 21 25 18 27
REMARK Flexibility Score: inf
ROOT
ATOM      1  C   UNL     1      22.078   3.603  21.395  1.00  0.00     0.180 A 
ATOM      2  C   UNL     1      21.540   3.383  22.674  1.00  0.00     0.208 A 
ATOM      3  C   UNL     1      22.100   2.387  23.488  1.00  0.00     0.238 A 
ATOM      4  O   UNL     1      21.650   2.232  24.654  1.00  0.00    -0.285 OA
ATOM      5  C   UNL     1      23.182   1.610  23.007  1.00  0.00     0.111 A 
ATOM      6  C   UNL     1      23.801   0.546  23.730  1.00  0.00     0.134 A 
ATOM      7  C   UNL     1      24.948  -0.067  23.209  1.00  0.00     0.093 A 
ATOM      8  C   UNL     1      25.458   0.300  21.962  1.00  0.00     0.123 A 
ATOM      9  C   UNL     1      24.825   1.296  21.222  1.00  0.00     0.094 A 
ATOM     10  C   UNL     1      23.701   1.951  21.731  1.00  0.00     0.146 A 
ATOM     11  O   UNL     1      23.135   2.903  20.998  1.00  0.00    -0.452 OA
ENDROOT
BRANCH   1  12
ATOM     12  C   UNL     1      21.525   4.618  20.470  1.00  0.00     0.025 A 
ATOM     13  C   UNL     1      22.046   5.923  20.418  1.00  0.00     0.016 A 
ATOM     14  C   UNL     1      21.493   6.871  19.554  1.00  0.00     0.051 A 
ATOM     15  C   UNL     1      20.404   6.534  18.739  1.00  0.00     0.157 A 
ATOM     16  C   UNL     1      20.421   4.292  19.666  1.00  0.00     0.062 A 
ATOM     17  C   UNL     1      19.864   5.239  18.799  1.00  0.00     0.158 A 
BRANCH  15  18
ATOM     18  O   UNL     1      19.856   7.482  17.876  1.00  0.00    -0.504 OA
ATOM     19  H   UNL     1      20.102   7.512  16.895  1.00  0.00     0.293 HD
ENDBRANCH  15  18
BRANCH  17  20
ATOM     20  O   UNL     1      18.775   4.875  18.007  1.00  0.00    -0.504 OA
ATOM     21  H   UNL     1      17.877   5.336  18.082  1.00  0.00     0.293 HD
ENDBRANCH  17  20
ENDBRANCH   1  12
BRANCH   2  22
ATOM     22  O   UNL     1      20.486   4.177  23.139  1.00  0.00    -0.502 OA
ATOM     23  H   UNL     1      20.497   4.615  24.052  1.00  0.00     0.293 HD
ENDBRANCH   2  22
BRANCH   6  24
ATOM     24  O   UNL     1      23.318   0.040  24.941  1.00  0.00    -0.507 OA
ATOM     25  H   UNL     1      23.671  -0.786  25.399  1.00  0.00     0.293 HD
ENDBRANCH   6  24
BRANCH   8  26
ATOM     26  O   UNL     1      26.589  -0.326  21.444  1.00  0.00    -0.508 OA
ATOM     27  H   UNL     1      26.565  -1.290  21.135  1.00  0.00     0.293 HD
ENDBRANCH   8  26
TORSDOF 6
ENDMDL
MODEL 5
REMARK VINA RESULT:    -5.761     13.553     15.793
REMARK INTER + INTRA:          -7.231
REMARK INTER:                  -6.901
REMARK INTRA:                  -0.330
REMARK UNBOUND:                -0.290
REMARK SMILES O=c1c(O)c(-c2ccc(O)c(O)c2)oc2cc(O)cc(O)c12
REMARK SMILES IDX 5 1 3 2 2 3 1 4 22 5 20 6 19 7 17 8 16 9 15 10 14 11 6 12
REMARK SMILES IDX 7 13 8 14 9 15 13 16 11 17 10 18 12 20 4 22 21 24 18 26
REMARK H PARENT 10 19 12 21 4 23 21 25 18 27
REMARK Flexibility Score: inf
ROOT
ATOM      1  C   UNL     1      22.365   3.239  21.585  1.00  0.00     0.180 A 
ATOM      2  C   UNL     1      21.959   2.942  22.896  1.00  0.00     0.208 A 
ATOM      3  C   UNL     1      22.834   2.238  23.738  1.00  0.00     0.238 A 
ATOM      4  O   UNL     1      22.486   2.023  24.929  1.00  0.00    -0.285 OA
ATOM      5  C   UNL     1      24.098   1.825  23.253  1.00  0.00     0.111 A 
ATOM      6  C   UNL     1      25.048   1.070  24.005  1.00  0.00     0.134 A 
ATOM      7  C   UNL     1      26.320   0.830  23.469  1.00  0.00     0.093 A 
ATOM      8  C   UNL     1      26.651   1.260  22.182  1.00  0.00     0.123 A 
ATOM      9  C   UNL     1      25.710   1.944  21.418  1.00  0.00     0.094 A 
ATOM     10  C   UNL     1      24.446   2.231  21.939  1.00  0.00     0.146 A 
ATOM     11  O   UNL     1      23.583   2.896  21.180  1.00  0.00    -0.452 OA
ENDROOT
BRANCH   1  12
ATOM     12  C   UNL     1      21.489   3.956  20.631  1.00  0.00     0.025 A 
ATOM     13  C   UNL     1      20.539   3.270  19.852  1.00  0.00     0.016 A 
ATOM     14  C   UNL     1      19.739   3.964  18.941  1.00  0.00     0.051 A 
ATOM     15  C   UNL     1      19.884   5.350  18.784  1.00  0.00     0.157 A 
ATOM     16  C   UNL     1      21.643   5.341  20.455  1.00  0.00     0.062 A 
ATOM     17  C   UNL     1      20.844   6.039  19.544  1.00  0.00     0.158 A 
BRANCH  15  18
ATOM     18  O   UNL     1      19.082   6.039  17.876  1.00  0.00    -0.504 OA
ATOM     19  H   UNL     1      19.075   5.805  16.890  1.00  0.00     0.293 HD
ENDBRANCH  15  18
BRANCH  17  20
ATOM     20  O   UNL     1      21.018   7.416  19.406  1.00  0.00    -0.504 OA
ATOM     21  H   UNL     1      21.872   7.816  19.035  1.00  0.00     0.293 HD
ENDBRANCH  17  20
ENDBRANCH   1  12
BRANCH   2  22
ATOM     22  O   UNL     1      20.715   3.379  23.363  1.00  0.00    -0.502 OA
ATOM     23  H   UNL     1      20.502   3.462  24.349  1.00  0.00     0.293 HD
ENDBRANCH   2  22
BRANCH   6  24
ATOM     24  O   UNL     1      24.787   0.517  25.262  1.00  0.00    -0.507 OA
ATOM     25  H   UNL     1      25.481   0.366  25.979  1.00  0.00     0.293 HD
ENDBRANCH   6  24
BRANCH   8  26
ATOM     26  O   UNL     1      27.913   1.002  21.650  1.00  0.00    -0.508 OA
ATOM     27  H   UNL     1      28.080   0.208  21.044  1.00  0.00     0.293 HD
ENDBRANCH   8  26
TORSDOF 6
ENDMDL
MODEL 6
REMARK VINA RESULT:    -5.736     13.390     15.605
REMARK INTER + INTRA:          -7.200
REMARK INTER:                  -6.973
REMARK INTRA:                  -0.227
REMARK UNBOUND:                -0.290
REMARK SMILES O=c1c(O)c(-c2ccc(O)c(O)c2)oc2cc(O)cc(O)c12
REMARK SMILES IDX 5 1 3 2 2 3 1 4 22 5 20 6 19 7 17 8 16 9 15 10 14 11 6 12
REMARK SMILES IDX 7 13 8 14 9 15 13 16 11 17 10 18 12 20 4 22 21 24 18 26
REMARK H PARENT 10 19 12 21 4 23 21 25 18 27
REMARK Flexibility Score: inf
ROOT
ATOM      1  C   UNL     1      22.848   2.051  22.252  1.00  0.00     0.180 A 
ATOM      2  C   UNL     1      22.663   1.718  23.605  1.00  0.00     0.208 A 
ATOM      3  C   UNL     1      23.760   1.256  24.349  1.00  0.00     0.238 A 
ATOM      4  O   UNL     1      23.602   1.012  25.574  1.00  0.00    -0.285 OA
ATOM      5  C   UNL     1      25.024   1.117  23.728  1.00  0.00     0.111 A 
ATOM      6  C   UNL     1      26.196   0.620  24.375  1.00  0.00     0.134 A 
ATOM      7  C   UNL     1      27.423   0.649  23.700  1.00  0.00     0.093 A 
ATOM      8  C   UNL     1      27.508   1.095  22.379  1.00  0.00     0.123 A 
ATOM      9  C   UNL     1      26.360   1.526  21.719  1.00  0.00     0.094 A 
ATOM     10  C   UNL     1      25.128   1.543  22.378  1.00  0.00     0.146 A 
ATOM     11  O   UNL     1      24.060   1.972  21.716  1.00  0.00    -0.452 OA
ENDROOT
BRANCH   1  12
ATOM     12  C   UNL     1      21.734   2.520  21.397  1.00  0.00     0.025 A 
ATOM     13  C   UNL     1      21.213   1.716  20.368  1.00  0.00     0.016 A 
ATOM     14  C   UNL     1      20.177   2.189  19.558  1.00  0.00     0.051 A 
ATOM     15  C   UNL     1      19.657   3.475  19.754  1.00  0.00     0.157 A 
ATOM     16  C   UNL     1      21.222   3.816  21.576  1.00  0.00     0.062 A 
ATOM     17  C   UNL     1      20.186   4.293  20.767  1.00  0.00     0.158 A 
BRANCH  15  18
ATOM     18  O   UNL     1      18.622   3.943  18.945  1.00  0.00    -0.504 OA
ATOM     19  H   UNL     1      18.758   4.114  17.956  1.00  0.00     0.293 HD
ENDBRANCH  15  18
BRANCH  17  20
ATOM     20  O   UNL     1      19.695   5.580  20.983  1.00  0.00    -0.504 OA
ATOM     21  H   UNL     1      18.998   5.999  20.378  1.00  0.00     0.293 HD
ENDBRANCH  17  20
ENDBRANCH   1  12
BRANCH   2  22
ATOM     22  O   UNL     1      21.411   1.884  24.205  1.00  0.00    -0.502 OA
ATOM     23  H   UNL     1      21.166   1.442  25.083  1.00  0.00     0.293 HD
ENDBRANCH   2  22
BRANCH   6  24
ATOM     24  O   UNL     1      26.204   0.068  25.659  1.00  0.00    -0.507 OA
ATOM     25  H   UNL     1      25.627   0.385  26.424  1.00  0.00     0.293 HD
ENDBRANCH   6  24
BRANCH   8  26
ATOM     26  O   UNL     1      28.730   1.105  21.710  1.00  0.00    -0.508 OA
ATOM     27  H   UNL     1      28.928   1.778  20.980  1.00  0.00     0.293 HD
ENDBRANCH   8  26
TORSDOF 6
ENDMDL
MODEL 7
REMARK VINA RESULT:    -5.629     12.909     15.565
REMARK INTER + INTRA:          -7.071
REMARK INTER:                  -6.813
REMARK INTRA:                  -0.258
REMARK UNBOUND:                -0.290
REMARK SMILES O=c1c(O)c(-c2ccc(O)c(O)c2)oc2cc(O)cc(O)c12
REMARK SMILES IDX 5 1 3 2 2 3 1 4 22 5 20 6 19 7 17 8 16 9 15 10 14 11 6 12
REMARK SMILES IDX 7 13 8 14 9 15 13 16 11 17 10 18 12 20 4 22 21 24 18 26
REMARK H PARENT 10 19 12 21 4 23 21 25 18 27
REMARK Flexibility Score: inf
ROOT
ATOM      1  C   UNL     1      22.970   2.082  21.752  1.00  0.00     0.180 A 
ATOM      2  C   UNL     1      24.216   2.016  21.105  1.00  0.00     0.208 A 
ATOM      3  C   UNL     1      25.341   1.601  21.835  1.00  0.00     0.238 A 
ATOM      4  O   UNL     1      26.444   1.491  21.236  1.00  0.00    -0.285 OA
ATOM      5  C   UNL     1      25.211   1.274  23.206  1.00  0.00     0.111 A 
ATOM      6  C   UNL     1      26.291   0.881  24.052  1.00  0.00     0.134 A 
ATOM      7  C   UNL     1      26.024   0.454  25.360  1.00  0.00     0.093 A 
ATOM      8  C   UNL     1      24.724   0.469  25.871  1.00  0.00     0.123 A 
ATOM      9  C   UNL     1      23.672   0.908  25.072  1.00  0.00     0.094 A 
ATOM     10  C   UNL     1      23.901   1.305  23.752  1.00  0.00     0.146 A 
ATOM     11  O   UNL     1      22.868   1.706  23.021  1.00  0.00    -0.452 OA
ENDROOT
BRANCH   1  12
ATOM     12  C   UNL     1      21.744   2.535  21.056  1.00  0.00     0.025 A 
ATOM     13  C   UNL     1      21.085   1.713  20.125  1.00  0.00     0.016 A 
ATOM     14  C   UNL     1      19.942   2.170  19.464  1.00  0.00     0.051 A 
ATOM     15  C   UNL     1      19.449   3.458  19.712  1.00  0.00     0.157 A 
ATOM     16  C   UNL     1      21.257   3.832  21.286  1.00  0.00     0.062 A 
ATOM     17  C   UNL     1      20.113   4.293  20.626  1.00  0.00     0.158 A 
BRANCH  15  18
ATOM     18  O   UNL     1      18.307   3.910  19.052  1.00  0.00    -0.504 OA
ATOM     19  H   UNL     1      17.447   3.375  19.052  1.00  0.00     0.293 HD
ENDBRANCH  15  18
BRANCH  17  20
ATOM     20  O   UNL     1      19.652   5.583  20.889  1.00  0.00    -0.504 OA
ATOM     21  H   UNL     1      19.476   6.252  20.150  1.00  0.00     0.293 HD
ENDBRANCH  17  20
ENDBRANCH   1  12
BRANCH   2  22
ATOM     22  O   UNL     1      24.319   2.322  19.745  1.00  0.00    -0.502 OA
ATOM     23  H   UNL     1      23.523   2.618  19.192  1.00  0.00     0.293 HD
ENDBRANCH   2  22
BRANCH   6  24
ATOM     24  O   UNL     1      27.635   0.916  23.670  1.00  0.00    -0.507 OA
ATOM     25  H   UNL     1      28.083   0.230  23.080  1.00  0.00     0.293 HD
ENDBRANCH   6  24
BRANCH   8  26
ATOM     26  O   UNL     1      24.471   0.058  27.178  1.00  0.00    -0.508 OA
ATOM     27  H   UNL     1      25.106  -0.555  27.673  1.00  0.00     0.293 HD
ENDBRANCH   8  26
TORSDOF 6
ENDMDL
MODEL 8
REMARK VINA RESULT:    -5.574     13.785     16.159
REMARK INTER + INTRA:          -7.005
REMARK INTER:                  -6.703
REMARK INTRA:                  -0.303
REMARK UNBOUND:                -0.290
REMARK SMILES O=c1c(O)c(-c2ccc(O)c(O)c2)oc2cc(O)cc(O)c12
REMARK SMILES IDX 5 1 3 2 2 3 1 4 22 5 20 6 19 7 17 8 16 9 15 10 14 11 6 12
REMARK SMILES IDX 7 13 8 14 9 15 13 16 11 17 10 18 12 20 4 22 21 24 18 26
REMARK H PARENT 10 19 12 21 4 23 21 25 18 27
REMARK Flexibility Score: inf
ROOT
ATOM      1  C   UNL     1      22.519   2.500  21.102  1.00  0.00     0.180 A 
ATOM      2  C   UNL     1      21.570   1.649  20.512  1.00  0.00     0.208 A 
ATOM      3  C   UNL     1      20.519   2.210  19.769  1.00  0.00     0.238 A 
ATOM      4  O   UNL     1      19.703   1.440  19.197  1.00  0.00    -0.285 OA
ATOM      5  C   UNL     1      20.420   3.616  19.640  1.00  0.00     0.111 A 
ATOM      6  C   UNL     1      19.375   4.295  18.944  1.00  0.00     0.134 A 
ATOM      7  C   UNL     1      19.449   5.683  18.769  1.00  0.00     0.093 A 
ATOM      8  C   UNL     1      20.498   6.423  19.320  1.00  0.00     0.123 A 
ATOM      9  C   UNL     1      21.491   5.776  20.051  1.00  0.00     0.094 A 
ATOM     10  C   UNL     1      21.463   4.389  20.212  1.00  0.00     0.146 A 
ATOM     11  O   UNL     1      22.436   3.811  20.907  1.00  0.00    -0.452 OA
ENDROOT
BRANCH   1  12
ATOM     12  C   UNL     1      23.639   1.985  21.920  1.00  0.00     0.025 A 
ATOM     13  C   UNL     1      23.447   1.578  23.252  1.00  0.00     0.016 A 
ATOM     14  C   UNL     1      24.524   1.117  24.013  1.00  0.00     0.051 A 
ATOM     15  C   UNL     1      25.811   1.068  23.460  1.00  0.00     0.157 A 
ATOM     16  C   UNL     1      24.935   1.952  21.378  1.00  0.00     0.062 A 
ATOM     17  C   UNL     1      26.016   1.491  22.136  1.00  0.00     0.158 A 
BRANCH  15  18
ATOM     18  O   UNL     1      26.883   0.605  24.221  1.00  0.00    -0.504 OA
ATOM     19  H   UNL     1      27.636   1.220  24.507  1.00  0.00     0.293 HD
ENDBRANCH  15  18
BRANCH  17  20
ATOM     20  O   UNL     1      27.285   1.461  21.559  1.00  0.00    -0.504 OA
ATOM     21  H   UNL     1      27.796   2.308  21.340  1.00  0.00     0.293 HD
ENDBRANCH  17  20
ENDBRANCH   1  12
BRANCH   2  22
ATOM     22  O   UNL     1      21.698   0.262  20.633  1.00  0.00    -0.502 OA
ATOM     23  H   UNL     1      20.958  -0.378  20.373  1.00  0.00     0.293 HD
ENDBRANCH   2  22
BRANCH   6  24
ATOM     24  O   UNL     1      18.237   3.662  18.434  1.00  0.00    -0.507 OA
ATOM     25  H   UNL     1      18.094   2.663  18.420  1.00  0.00     0.293 HD
ENDBRANCH   6  24
BRANCH   8  26
ATOM     26  O   UNL     1      20.556   7.805  19.154  1.00  0.00    -0.508 OA
ATOM     27  H   UNL     1      21.145   8.229  18.448  1.00  0.00     0.293 HD
ENDBRANCH   8  26
TORSDOF 6
ENDMDL
MODEL 9
REMARK VINA RESULT:    -5.490     13.222     16.057
REMARK INTER + INTRA:          -6.903
REMARK INTER:                  -6.585
REMARK INTRA:                  -0.318
REMARK UNBOUND:                -0.290
REMARK SMILES O=c1c(O)c(-c2ccc(O)c(O)c2)oc2cc(O)cc(O)c12
REMARK SMILES IDX 5 1 3 2 2 3 1 4 22 5 20 6 19 7 17 8 16 9 15 10 14 11 6 12
REMARK SMILES IDX 7 13 8 14 9 15 13 16 11 17 10 18 12 20 4 22 21 24 18 26
REMARK H PARENT 10 19 12 21 4 23 21 25 18 27
REMARK Flexibility Score: inf
ROOT
ATOM      1  C   UNL     1      22.218   3.120  21.789  1.00  0.00     0.180 A 
ATOM      2  C   UNL     1      22.330   4.508  21.598  1.00  0.00     0.208 A 
ATOM      3  C   UNL     1      21.534   5.128  20.622  1.00  0.00     0.238 A 
ATOM      4  O   UNL     1      21.598   6.379  20.494  1.00  0.00    -0.285 OA
ATOM      5  C   UNL     1      20.648   4.351  19.838  1.00  0.00     0.111 A 
ATOM      6  C   UNL     1      19.823   4.869  18.793  1.00  0.00     0.134 A 
ATOM      7  C   UNL     1      18.889   4.030  18.171  1.00  0.00     0.093 A 
ATOM      8  C   UNL     1      18.796   2.679  18.511  1.00  0.00     0.123 A 
ATOM      9  C   UNL     1      19.638   2.151  19.487  1.00  0.00     0.094 A 
ATOM     10  C   UNL     1      20.554   2.970  20.150  1.00  0.00     0.146 A 
ATOM     11  O   UNL     1      21.330   2.429  21.083  1.00  0.00    -0.452 OA
ENDROOT
BRANCH   1  12
ATOM     12  C   UNL     1      23.041   2.391  22.779  1.00  0.00     0.025 A 
ATOM     13  C   UNL     1      24.361   2.003  22.491  1.00  0.00     0.016 A 
ATOM     14  C   UNL     1      25.112   1.295  23.433  1.00  0.00     0.051 A 
ATOM     15  C   UNL     1      24.552   0.953  24.671  1.00  0.00     0.157 A 
ATOM     16  C   UNL     1      22.478   2.028  24.014  1.00  0.00     0.062 A 
ATOM     17  C   UNL     1      23.227   1.320  24.960  1.00  0.00     0.158 A 
BRANCH  15  18
ATOM     18  O   UNL     1      25.304   0.249  25.610  1.00  0.00    -0.504 OA
ATOM     19  H   UNL     1      25.821  -0.585  25.358  1.00  0.00     0.293 HD
ENDBRANCH  15  18
BRANCH  17  20
ATOM     20  O   UNL     1      22.638   0.988  26.180  1.00  0.00    -0.504 OA
ATOM     21  H   UNL     1      22.988   0.235  26.760  1.00  0.00     0.293 HD
ENDBRANCH  17  20
ENDBRANCH   1  12
BRANCH   2  22
ATOM     22  O   UNL     1      23.195   5.259  22.399  1.00  0.00    -0.502 OA
ATOM     23  H   UNL     1      22.989   6.211  22.679  1.00  0.00     0.293 HD
ENDBRANCH   2  22
BRANCH   6  24
ATOM     24  O   UNL     1      19.901   6.180  18.315  1.00  0.00    -0.507 OA
ATOM     25  H   UNL     1      19.925   6.435  17.339  1.00  0.00     0.293 HD
ENDBRANCH   6  24
BRANCH   8  26
ATOM     26  O   UNL     1      17.875   1.849  17.875  1.00  0.00    -0.508 OA
ATOM     27  H   UNL     1      17.668   1.945  16.889  1.00  0.00     0.293 HD
ENDBRANCH   8  26
TORSDOF 6
ENDMDL
