MODEL 1
REMARK VINA RESULT:    -6.220      0.000      0.000
REMARK INTER + INTRA:          -7.784
REMARK INTER:                  -7.493
REMARK INTRA:                  -0.291
REMARK UNBOUND:                -0.291
REMARK SMILES O=c1c(O)c(-c2ccc(O)c(O)c2)oc2cc(O)cc(O)c12
REMARK SMILES IDX 5 1 3 2 2 3 1 4 22 5 20 6 19 7 17 8 16 9 15 10 14 11 6 12
REMARK SMILES IDX 7 13 8 14 9 15 13 16 11 17 10 18 12 20 4 22 21 24 18 26
REMARK H PARENT 10 19 12 21 4 23 21 25 18 27
REMARK Flexibility Score: inf
ROOT
ATOM      1  C   UNL     1     -37.088  17.121 -19.009  1.00  0.00     0.180 A 
ATOM      2  C   UNL     1     -37.198  18.265 -18.200  1.00  0.00     0.208 A 
ATOM      3  C   UNL     1     -38.341  18.428 -17.402  1.00  0.00     0.238 A 
ATOM      4  O   UNL     1     -38.409  19.426 -16.639  1.00  0.00    -0.285 OA
ATOM      5  C   UNL     1     -39.368  17.452 -17.435  1.00  0.00     0.111 A 
ATOM      6  C   UNL     1     -40.587  17.535 -16.699  1.00  0.00     0.134 A 
ATOM      7  C   UNL     1     -41.473  16.451 -16.707  1.00  0.00     0.093 A 
ATOM      8  C   UNL     1     -41.216  15.315 -17.475  1.00  0.00     0.123 A 
ATOM      9  C   UNL     1     -40.055  15.249 -18.245  1.00  0.00     0.094 A 
ATOM     10  C   UNL     1     -39.134  16.299 -18.229  1.00  0.00     0.146 A 
ATOM     11  O   UNL     1     -38.036  16.192 -18.969  1.00  0.00    -0.452 OA
ENDROOT
BRANCH   1  12
ATOM     12  C   UNL     1     -35.924  16.892 -19.896  1.00  0.00     0.025 A 
ATOM     13  C   UNL     1     -36.000  17.130 -21.280  1.00  0.00     0.016 A 
ATOM     14  C   UNL     1     -34.898  16.884 -22.101  1.00  0.00     0.051 A 
ATOM     15  C   UNL     1     -33.709  16.384 -21.559  1.00  0.00     0.157 A 
ATOM     16  C   UNL     1     -34.735  16.370 -19.358  1.00  0.00     0.062 A 
ATOM     17  C   UNL     1     -33.627  16.123 -20.181  1.00  0.00     0.158 A 
BRANCH  15  18
ATOM     18  O   UNL     1     -32.624  16.150 -22.403  1.00  0.00    -0.504 OA
ATOM     19  H   UNL     1     -31.697  15.951 -22.046  1.00  0.00     0.293 HD
ENDBRANCH  15  18
BRANCH  17  20
ATOM     20  O   UNL     1     -32.448  15.618 -19.634  1.00  0.00    -0.504 OA
ATOM     21  H   UNL     1     -32.310  15.560 -18.632  1.00  0.00     0.293 HD
ENDBRANCH  17  20
ENDBRANCH   1  12
BRANCH   2  22
ATOM     22  O   UNL     1     -36.163  19.203 -18.166  1.00  0.00    -0.502 OA
ATOM     23  H   UNL     1     -35.728  19.503 -17.302  1.00  0.00     0.293 HD
ENDBRANCH   2  22
BRANCH   6  24
ATOM     24  O   UNL     1     -40.986  18.661 -15.971  1.00  0.00    -0.507 OA
ATOM     25  H   UNL     1     -41.666  19.335 -16.285  1.00  0.00     0.293 HD
ENDBRANCH   6  24
BRANCH   8  26
ATOM     26  O   UNL     1     -42.127  14.262 -17.471  1.00  0.00    -0.508 OA
ATOM     27  H   UNL     1     -42.421  13.812 -18.330  1.00  0.00     0.293 HD
ENDBRANCH   8  26
TORSDOF 6
ENDMDL
MODEL 2
REMARK VINA RESULT:    -6.215      2.590      4.032
REMARK INTER + INTRA:          -7.778
REMARK INTER:                  -7.799
REMARK INTRA:                   0.021
REMARK UNBOUND:                -0.291
REMARK SMILES O=c1c(O)c(-c2ccc(O)c(O)c2)oc2cc(O)cc(O)c12
REMARK SMILES IDX 5 1 3 2 2 3 1 4 22 5 20 6 19 7 17 8 16 9 15 10 14 11 6 12
REMARK SMILES IDX 7 13 8 14 9 15 13 16 11 17 10 18 12 20 4 22 21 24 18 26
REMARK H PARENT 10 19 12 21 4 23 21 25 18 27
REMARK Flexibility Score: inf
ROOT
ATOM      1  C   UNL     1     -40.148  16.504 -19.012  1.00  0.00     0.180 A 
ATOM      2  C   UNL     1     -40.360  15.424 -18.139  1.00  0.00     0.208 A 
ATOM      3  C   UNL     1     -41.647  15.210 -17.620  1.00  0.00     0.238 A 
ATOM      4  O   UNL     1     -41.843  14.209 -16.882  1.00  0.00    -0.285 OA
ATOM      5  C   UNL     1     -42.701  16.090 -17.967  1.00  0.00     0.111 A 
ATOM      6  C   UNL     1     -44.035  15.992 -17.468  1.00  0.00     0.134 A 
ATOM      7  C   UNL     1     -45.027  16.837 -17.981  1.00  0.00     0.093 A 
ATOM      8  C   UNL     1     -44.721  17.818 -18.924  1.00  0.00     0.123 A 
ATOM      9  C   UNL     1     -43.409  17.961 -19.374  1.00  0.00     0.094 A 
ATOM     10  C   UNL     1     -42.404  17.109 -18.909  1.00  0.00     0.146 A 
ATOM     11  O   UNL     1     -41.170  17.272 -19.371  1.00  0.00    -0.452 OA
ENDROOT
BRANCH   1  12
ATOM     12  C   UNL     1     -38.814  16.808 -19.580  1.00  0.00     0.025 A 
ATOM     13  C   UNL     1     -38.626  16.963 -20.965  1.00  0.00     0.016 A 
ATOM     14  C   UNL     1     -37.355  17.225 -21.481  1.00  0.00     0.051 A 
ATOM     15  C   UNL     1     -36.252  17.322 -20.628  1.00  0.00     0.157 A 
ATOM     16  C   UNL     1     -37.699  16.885 -18.728  1.00  0.00     0.062 A 
ATOM     17  C   UNL     1     -36.423  17.149 -19.245  1.00  0.00     0.158 A 
BRANCH  15  18
ATOM     18  O   UNL     1     -34.995  17.586 -21.172  1.00  0.00    -0.504 OA
ATOM     19  H   UNL     1     -34.555  18.496 -21.095  1.00  0.00     0.293 HD
ENDBRANCH  15  18
BRANCH  17  20
ATOM     20  O   UNL     1     -35.326  17.237 -18.388  1.00  0.00    -0.504 OA
ATOM     21  H   UNL     1     -35.107  18.094 -17.893  1.00  0.00     0.293 HD
ENDBRANCH  17  20
ENDBRANCH   1  12
BRANCH   2  22
ATOM     22  O   UNL     1     -39.311  14.555 -17.828  1.00  0.00    -0.502 OA
ATOM     23  H   UNL     1     -39.069  13.763 -18.410  1.00  0.00     0.293 HD
ENDBRANCH   2  22
BRANCH   6  24
ATOM     24  O   UNL     1     -44.428  15.108 -16.458  1.00  0.00    -0.507 OA
ATOM     25  H   UNL     1     -45.118  14.382 -16.568  1.00  0.00     0.293 HD
ENDBRANCH   6  24
BRANCH   8  26
ATOM     26  O   UNL     1     -45.731  18.652 -19.401  1.00  0.00    -0.508 OA
ATOM     27  H   UNL     1     -45.825  19.607 -19.079  1.00  0.00     0.293 HD
ENDBRANCH   8  26
TORSDOF 6
ENDMDL
MODEL 3
REMARK VINA RESULT:    -6.159      4.015      9.745
REMARK INTER + INTRA:          -7.710
REMARK INTER:                  -7.580
REMARK INTRA:                  -0.131
REMARK UNBOUND:                -0.291
REMARK SMILES O=c1c(O)c(-c2ccc(O)c(O)c2)oc2cc(O)cc(O)c12
REMARK SMILES IDX 5 1 3 2 2 3 1 4 22 5 20 6 19 7 17 8 16 9 15 10 14 11 6 12
REMARK SMILES IDX 7 13 8 14 9 15 13 16 11 17 10 18 12 20 4 22 21 24 18 26
REMARK H PARENT 10 19 12 21 4 23 21 25 18 27
REMARK Flexibility Score: inf
ROOT
ATOM      1  C   UNL     1     -43.991  16.965 -16.287  1.00  0.00     0.180 A 
ATOM      2  C   UNL     1     -43.626  15.614 -16.407  1.00  0.00     0.208 A 
ATOM      3  C   UNL     1     -42.314  15.294 -16.789  1.00  0.00     0.238 A 
ATOM      4  O   UNL     1     -41.977  14.082 -16.842  1.00  0.00    -0.285 OA
ATOM      5  C   UNL     1     -41.388  16.330 -17.062  1.00  0.00     0.111 A 
ATOM      6  C   UNL     1     -40.044  16.122 -17.495  1.00  0.00     0.134 A 
ATOM      7  C   UNL     1     -39.178  17.217 -17.609  1.00  0.00     0.093 A 
ATOM      8  C   UNL     1     -39.624  18.516 -17.369  1.00  0.00     0.123 A 
ATOM      9  C   UNL     1     -40.951  18.736 -17.002  1.00  0.00     0.094 A 
ATOM     10  C   UNL     1     -41.830  17.661 -16.845  1.00  0.00     0.146 A 
ATOM     11  O   UNL     1     -43.082  17.913 -16.484  1.00  0.00    -0.452 OA
ENDROOT
BRANCH   1  12
ATOM     12  C   UNL     1     -45.363  17.381 -15.912  1.00  0.00     0.025 A 
ATOM     13  C   UNL     1     -45.618  18.071 -14.714  1.00  0.00     0.016 A 
ATOM     14  C   UNL     1     -46.922  18.432 -14.369  1.00  0.00     0.051 A 
ATOM     15  C   UNL     1     -47.992  18.098 -15.206  1.00  0.00     0.157 A 
ATOM     16  C   UNL     1     -46.443  17.029 -16.739  1.00  0.00     0.062 A 
ATOM     17  C   UNL     1     -47.753  17.391 -16.395  1.00  0.00     0.158 A 
BRANCH  15  18
ATOM     18  O   UNL     1     -49.284  18.474 -14.836  1.00  0.00    -0.504 OA
ATOM     19  H   UNL     1     -49.773  18.034 -14.066  1.00  0.00     0.293 HD
ENDBRANCH  15  18
BRANCH  17  20
ATOM     20  O   UNL     1     -48.816  17.049 -17.231  1.00  0.00    -0.504 OA
ATOM     21  H   UNL     1     -49.171  17.693 -17.929  1.00  0.00     0.293 HD
ENDBRANCH  17  20
ENDBRANCH   1  12
BRANCH   2  22
ATOM     22  O   UNL     1     -44.550  14.607 -16.112  1.00  0.00    -0.502 OA
ATOM     23  H   UNL     1     -44.314  13.802 -15.544  1.00  0.00     0.293 HD
ENDBRANCH   2  22
BRANCH   6  24
ATOM     24  O   UNL     1     -39.522  14.874 -17.850  1.00  0.00    -0.507 OA
ATOM     25  H   UNL     1     -38.618  14.528 -17.569  1.00  0.00     0.293 HD
ENDBRANCH   6  24
BRANCH   8  26
ATOM     26  O   UNL     1     -38.738  19.583 -17.506  1.00  0.00    -0.508 OA
ATOM     27  H   UNL     1     -38.502  20.179 -16.723  1.00  0.00     0.293 HD
ENDBRANCH   8  26
TORSDOF 6
ENDMDL
MODEL 4
REMARK VINA RESULT:    -6.121      2.072      7.032
REMARK INTER + INTRA:          -7.665
REMARK INTER:                  -7.415
REMARK INTRA:                  -0.250
REMARK UNBOUND:                -0.291
REMARK SMILES O=c1c(O)c(-c2ccc(O)c(O)c2)oc2cc(O)cc(O)c12
REMARK SMILES IDX 5 1 3 2 2 3 1 4 22 5 20 6 19 7 17 8 16 9 15 10 14 11 6 12
REMARK SMILES IDX 7 13 8 14 9 15 13 16 11 17 10 18 12 20 4 22 21 24 18 26
REMARK H PARENT 10 19 12 21 4 23 21 25 18 27
REMARK Flexibility Score: inf
ROOT
ATOM      1  C   UNL     1     -36.269  17.277 -20.329  1.00  0.00     0.180 A 
ATOM      2  C   UNL     1     -35.529  18.290 -19.697  1.00  0.00     0.208 A 
ATOM      3  C   UNL     1     -34.171  18.442 -20.016  1.00  0.00     0.238 A 
ATOM      4  O   UNL     1     -33.527  19.387 -19.488  1.00  0.00    -0.285 OA
ATOM      5  C   UNL     1     -33.565  17.568 -20.952  1.00  0.00     0.111 A 
ATOM      6  C   UNL     1     -32.187  17.605 -21.320  1.00  0.00     0.134 A 
ATOM      7  C   UNL     1     -31.726  16.777 -22.352  1.00  0.00     0.093 A 
ATOM      8  C   UNL     1     -32.577  15.870 -22.982  1.00  0.00     0.123 A 
ATOM      9  C   UNL     1     -33.912  15.784 -22.588  1.00  0.00     0.094 A 
ATOM     10  C   UNL     1     -34.410  16.622 -21.588  1.00  0.00     0.146 A 
ATOM     11  O   UNL     1     -35.690  16.515 -21.250  1.00  0.00    -0.452 OA
ENDROOT
BRANCH   1  12
ATOM     12  C   UNL     1     -37.699  17.039 -20.025  1.00  0.00     0.025 A 
ATOM     13  C   UNL     1     -38.712  17.436 -20.916  1.00  0.00     0.016 A 
ATOM     14  C   UNL     1     -40.055  17.224 -20.598  1.00  0.00     0.051 A 
ATOM     15  C   UNL     1     -40.410  16.627 -19.384  1.00  0.00     0.157 A 
ATOM     16  C   UNL     1     -38.060  16.459 -18.797  1.00  0.00     0.062 A 
ATOM     17  C   UNL     1     -39.408  16.244 -18.477  1.00  0.00     0.158 A 
BRANCH  15  18
ATOM     18  O   UNL     1     -41.759  16.426 -19.095  1.00  0.00    -0.504 OA
ATOM     19  H   UNL     1     -42.206  15.523 -19.209  1.00  0.00     0.293 HD
ENDBRANCH  15  18
BRANCH  17  20
ATOM     20  O   UNL     1     -39.754  15.655 -17.262  1.00  0.00    -0.504 OA
ATOM     21  H   UNL     1     -40.309  16.147 -16.572  1.00  0.00     0.293 HD
ENDBRANCH  17  20
ENDBRANCH   1  12
BRANCH   2  22
ATOM     22  O   UNL     1     -36.152  19.156 -18.794  1.00  0.00    -0.502 OA
ATOM     23  H   UNL     1     -36.284  20.142 -18.987  1.00  0.00     0.293 HD
ENDBRANCH   2  22
BRANCH   6  24
ATOM     24  O   UNL     1     -31.231  18.409 -20.691  1.00  0.00    -0.507 OA
ATOM     25  H   UNL     1     -30.926  18.299 -19.737  1.00  0.00     0.293 HD
ENDBRANCH   6  24
BRANCH   8  26
ATOM     26  O   UNL     1     -32.080  15.051 -23.994  1.00  0.00    -0.508 OA
ATOM     27  H   UNL     1     -31.110  14.760 -24.012  1.00  0.00     0.293 HD
ENDBRANCH   8  26
TORSDOF 6
ENDMDL
MODEL 5
REMARK VINA RESULT:    -5.994      6.065     11.401
REMARK INTER + INTRA:          -7.512
REMARK INTER:                  -7.212
REMARK INTRA:                  -0.300
REMARK UNBOUND:                -0.291
REMARK SMILES O=c1c(O)c(-c2ccc(O)c(O)c2)oc2cc(O)cc(O)c12
REMARK SMILES IDX 5 1 3 2 2 3 1 4 22 5 20 6 19 7 17 8 16 9 15 10 14 11 6 12
REMARK SMILES IDX 7 13 8 14 9 15 13 16 11 17 10 18 12 20 4 22 21 24 18 26
REMARK H PARENT 10 19 12 21 4 23 21 25 18 27
REMARK Flexibility Score: inf
ROOT
ATOM      1  C   UNL     1     -46.621  17.187 -16.423  1.00  0.00     0.180 A 
ATOM      2  C   UNL     1     -46.574  17.883 -17.642  1.00  0.00     0.208 A 
ATOM      3  C   UNL     1     -45.424  17.783 -18.440  1.00  0.00     0.238 A 
ATOM      4  O   UNL     1     -45.409  18.364 -19.557  1.00  0.00    -0.285 OA
ATOM      5  C   UNL     1     -44.328  17.000 -18.001  1.00  0.00     0.111 A 
ATOM      6  C   UNL     1     -43.097  16.860 -18.710  1.00  0.00     0.134 A 
ATOM      7  C   UNL     1     -42.133  15.957 -18.246  1.00  0.00     0.093 A 
ATOM      8  C   UNL     1     -42.327  15.238 -17.066  1.00  0.00     0.123 A 
ATOM      9  C   UNL     1     -43.501  15.413 -16.334  1.00  0.00     0.094 A 
ATOM     10  C   UNL     1     -44.498  16.279 -16.790  1.00  0.00     0.146 A 
ATOM     11  O   UNL     1     -45.605  16.408 -16.069  1.00  0.00    -0.452 OA
ENDROOT
BRANCH   1  12
ATOM     12  C   UNL     1     -47.790  17.263 -15.516  1.00  0.00     0.025 A 
ATOM     13  C   UNL     1     -47.784  18.096 -14.383  1.00  0.00     0.016 A 
ATOM     14  C   UNL     1     -48.888  18.135 -13.529  1.00  0.00     0.051 A 
ATOM     15  C   UNL     1     -50.006  17.334 -13.782  1.00  0.00     0.157 A 
ATOM     16  C   UNL     1     -48.907  16.444 -15.755  1.00  0.00     0.062 A 
ATOM     17  C   UNL     1     -50.016  16.482 -14.898  1.00  0.00     0.158 A 
BRANCH  15  18
ATOM     18  O   UNL     1     -51.095  17.395 -12.911  1.00  0.00    -0.504 OA
ATOM     19  H   UNL     1     -50.992  17.275 -11.911  1.00  0.00     0.293 HD
ENDBRANCH  15  18
BRANCH  17  20
ATOM     20  O   UNL     1     -51.125  15.675 -15.153  1.00  0.00    -0.504 OA
ATOM     21  H   UNL     1     -52.061  16.059 -15.196  1.00  0.00     0.293 HD
ENDBRANCH  17  20
ENDBRANCH   1  12
BRANCH   2  22
ATOM     22  O   UNL     1     -47.675  18.632 -18.067  1.00  0.00    -0.502 OA
ATOM     23  H   UNL     1     -48.126  19.320 -17.476  1.00  0.00     0.293 HD
ENDBRANCH   2  22
BRANCH   6  24
ATOM     24  O   UNL     1     -42.764  17.598 -19.849  1.00  0.00    -0.507 OA
ATOM     25  H   UNL     1     -43.293  18.380 -20.202  1.00  0.00     0.293 HD
ENDBRANCH   6  24
BRANCH   8  26
ATOM     26  O   UNL     1     -41.339  14.360 -16.626  1.00  0.00    -0.508 OA
ATOM     27  H   UNL     1     -40.355  14.567 -16.745  1.00  0.00     0.293 HD
ENDBRANCH   8  26
TORSDOF 6
ENDMDL
MODEL 6
REMARK VINA RESULT:    -5.943      4.078      6.979
REMARK INTER + INTRA:          -7.450
REMARK INTER:                  -7.167
REMARK INTRA:                  -0.284
REMARK UNBOUND:                -0.291
REMARK SMILES O=c1c(O)c(-c2ccc(O)c(O)c2)oc2cc(O)cc(O)c12
REMARK SMILES IDX 5 1 3 2 2 3 1 4 22 5 20 6 19 7 17 8 16 9 15 10 14 11 6 12
REMARK SMILES IDX 7 13 8 14 9 15 13 16 11 17 10 18 12 20 4 22 21 24 18 26
REMARK H PARENT 10 19 12 21 4 23 21 25 18 27
REMARK Flexibility Score: inf
ROOT
ATOM      1  C   UNL     1     -43.255  17.407 -17.116  1.00  0.00     0.180 A 
ATOM      2  C   UNL     1     -44.525  16.842 -17.321  1.00  0.00     0.208 A 
ATOM      3  C   UNL     1     -45.565  17.165 -16.436  1.00  0.00     0.238 A 
ATOM      4  O   UNL     1     -46.714  16.699 -16.656  1.00  0.00    -0.285 OA
ATOM      5  C   UNL     1     -45.318  18.036 -15.346  1.00  0.00     0.111 A 
ATOM      6  C   UNL     1     -46.288  18.400 -14.364  1.00  0.00     0.134 A 
ATOM      7  C   UNL     1     -45.969  19.370 -13.407  1.00  0.00     0.093 A 
ATOM      8  C   UNL     1     -44.698  19.942 -13.355  1.00  0.00     0.123 A 
ATOM      9  C   UNL     1     -43.725  19.549 -14.273  1.00  0.00     0.094 A 
ATOM     10  C   UNL     1     -44.023  18.610 -15.264  1.00  0.00     0.146 A 
ATOM     11  O   UNL     1     -43.071  18.272 -16.125  1.00  0.00    -0.452 OA
ENDROOT
BRANCH   1  12
ATOM     12  C   UNL     1     -42.102  17.096 -17.993  1.00  0.00     0.025 A 
ATOM     13  C   UNL     1     -41.965  17.688 -19.260  1.00  0.00     0.016 A 
ATOM     14  C   UNL     1     -40.883  17.361 -20.080  1.00  0.00     0.051 A 
ATOM     15  C   UNL     1     -39.931  16.429 -19.656  1.00  0.00     0.157 A 
ATOM     16  C   UNL     1     -41.155  16.144 -17.579  1.00  0.00     0.062 A 
ATOM     17  C   UNL     1     -40.067  15.815 -18.401  1.00  0.00     0.158 A 
BRANCH  15  18
ATOM     18  O   UNL     1     -38.859  16.124 -20.496  1.00  0.00    -0.504 OA
ATOM     19  H   UNL     1     -38.016  15.679 -20.153  1.00  0.00     0.293 HD
ENDBRANCH  15  18
BRANCH  17  20
ATOM     20  O   UNL     1     -39.126  14.879 -17.974  1.00  0.00    -0.504 OA
ATOM     21  H   UNL     1     -39.223  13.893 -18.187  1.00  0.00     0.293 HD
ENDBRANCH  17  20
ENDBRANCH   1  12
BRANCH   2  22
ATOM     22  O   UNL     1     -44.752  16.003 -18.415  1.00  0.00    -0.502 OA
ATOM     23  H   UNL     1     -44.025  15.424 -18.818  1.00  0.00     0.293 HD
ENDBRANCH   2  22
BRANCH   6  24
ATOM     24  O   UNL     1     -47.558  17.822 -14.270  1.00  0.00    -0.507 OA
ATOM     25  H   UNL     1     -48.203  17.977 -13.511  1.00  0.00     0.293 HD
ENDBRANCH   6  24
BRANCH   8  26
ATOM     26  O   UNL     1     -44.412  20.893 -12.379  1.00  0.00    -0.508 OA
ATOM     27  H   UNL     1     -45.142  21.306 -11.811  1.00  0.00     0.293 HD
ENDBRANCH   8  26
TORSDOF 6
ENDMDL
MODEL 7
REMARK VINA RESULT:    -5.909      5.643      8.808
REMARK INTER + INTRA:          -7.409
REMARK INTER:                  -7.086
REMARK INTRA:                  -0.322
REMARK UNBOUND:                -0.291
REMARK SMILES O=c1c(O)c(-c2ccc(O)c(O)c2)oc2cc(O)cc(O)c12
REMARK SMILES IDX 5 1 3 2 2 3 1 4 22 5 20 6 19 7 17 8 16 9 15 10 14 11 6 12
REMARK SMILES IDX 7 13 8 14 9 15 13 16 11 17 10 18 12 20 4 22 21 24 18 26
REMARK H PARENT 10 19 12 21 4 23 21 25 18 27
REMARK Flexibility Score: inf
ROOT
ATOM      1  C   UNL     1     -45.092  17.127 -15.778  1.00  0.00     0.180 A 
ATOM      2  C   UNL     1     -44.918  18.153 -14.833  1.00  0.00     0.208 A 
ATOM      3  C   UNL     1     -46.049  18.700 -14.207  1.00  0.00     0.238 A 
ATOM      4  O   UNL     1     -45.883  19.580 -13.322  1.00  0.00    -0.285 OA
ATOM      5  C   UNL     1     -47.340  18.226 -14.545  1.00  0.00     0.111 A 
ATOM      6  C   UNL     1     -48.557  18.736 -14.002  1.00  0.00     0.134 A 
ATOM      7  C   UNL     1     -49.768  18.104 -14.310  1.00  0.00     0.093 A 
ATOM      8  C   UNL     1     -49.814  17.023 -15.190  1.00  0.00     0.123 A 
ATOM      9  C   UNL     1     -48.636  16.555 -15.773  1.00  0.00     0.094 A 
ATOM     10  C   UNL     1     -47.408  17.141 -15.457  1.00  0.00     0.146 A 
ATOM     11  O   UNL     1     -46.309  16.658 -16.025  1.00  0.00    -0.452 OA
ENDROOT
BRANCH   1  12
ATOM     12  C   UNL     1     -43.950  16.517 -16.498  1.00  0.00     0.025 A 
ATOM     13  C   UNL     1     -43.290  15.381 -15.997  1.00  0.00     0.016 A 
ATOM     14  C   UNL     1     -42.201  14.837 -16.680  1.00  0.00     0.051 A 
ATOM     15  C   UNL     1     -41.743  15.425 -17.864  1.00  0.00     0.157 A 
ATOM     16  C   UNL     1     -43.474  17.117 -17.676  1.00  0.00     0.062 A 
ATOM     17  C   UNL     1     -42.380  16.572 -18.364  1.00  0.00     0.158 A 
BRANCH  15  18
ATOM     18  O   UNL     1     -40.654  14.858 -18.526  1.00  0.00    -0.504 OA
ATOM     19  H   UNL     1     -40.703  13.943 -18.958  1.00  0.00     0.293 HD
ENDBRANCH  15  18
BRANCH  17  20
ATOM     20  O   UNL     1     -41.926  17.168 -19.540  1.00  0.00    -0.504 OA
ATOM     21  H   UNL     1     -41.888  16.656 -20.414  1.00  0.00     0.293 HD
ENDBRANCH  17  20
ENDBRANCH   1  12
BRANCH   2  22
ATOM     22  O   UNL     1     -43.634  18.590 -14.499  1.00  0.00    -0.502 OA
ATOM     23  H   UNL     1     -42.822  17.987 -14.555  1.00  0.00     0.293 HD
ENDBRANCH   2  22
BRANCH   6  24
ATOM     24  O   UNL     1     -48.634  19.868 -13.185  1.00  0.00    -0.507 OA
ATOM     25  H   UNL     1     -49.263  19.971 -12.404  1.00  0.00     0.293 HD
ENDBRANCH   6  24
BRANCH   8  26
ATOM     26  O   UNL     1     -51.038  16.428 -15.486  1.00  0.00    -0.508 OA
ATOM     27  H   UNL     1     -51.913  16.837 -15.179  1.00  0.00     0.293 HD
ENDBRANCH   8  26
TORSDOF 6
ENDMDL
MODEL 8
REMARK VINA RESULT:    -5.889      1.857      7.095
REMARK INTER + INTRA:          -7.385
REMARK INTER:                  -7.055
REMARK INTRA:                  -0.330
REMARK UNBOUND:                -0.291
REMARK SMILES O=c1c(O)c(-c2ccc(O)c(O)c2)oc2cc(O)cc(O)c12
REMARK SMILES IDX 5 1 3 2 2 3 1 4 22 5 20 6 19 7 17 8 16 9 15 10 14 11 6 12
REMARK SMILES IDX 7 13 8 14 9 15 13 16 11 17 10 18 12 20 4 22 21 24 18 26
REMARK H PARENT 10 19 12 21 4 23 21 25 18 27
REMARK Flexibility Score: inf
ROOT
ATOM      1  C   UNL     1     -38.928  16.908 -19.583  1.00  0.00     0.180 A 
ATOM      2  C   UNL     1     -39.142  17.338 -20.904  1.00  0.00     0.208 A 
ATOM      3  C   UNL     1     -38.035  17.529 -21.746  1.00  0.00     0.238 A 
ATOM      4  O   UNL     1     -38.236  17.861 -22.944  1.00  0.00    -0.285 OA
ATOM      5  C   UNL     1     -36.727  17.304 -21.252  1.00  0.00     0.111 A 
ATOM      6  C   UNL     1     -35.531  17.505 -22.005  1.00  0.00     0.134 A 
ATOM      7  C   UNL     1     -34.299  17.126 -21.457  1.00  0.00     0.093 A 
ATOM      8  C   UNL     1     -34.213  16.615 -20.162  1.00  0.00     0.123 A 
ATOM      9  C   UNL     1     -35.369  16.471 -19.396  1.00  0.00     0.094 A 
ATOM     10  C   UNL     1     -36.617  16.805 -19.928  1.00  0.00     0.146 A 
ATOM     11  O   UNL     1     -37.694  16.642 -19.169  1.00  0.00    -0.452 OA
ENDROOT
BRANCH   1  12
ATOM     12  C   UNL     1     -40.043  16.709 -18.629  1.00  0.00     0.025 A 
ATOM     13  C   UNL     1     -40.555  17.774 -17.867  1.00  0.00     0.016 A 
ATOM     14  C   UNL     1     -41.590  17.558 -16.955  1.00  0.00     0.051 A 
ATOM     15  C   UNL     1     -42.121  16.276 -16.779  1.00  0.00     0.157 A 
ATOM     16  C   UNL     1     -40.564  15.419 -18.433  1.00  0.00     0.062 A 
ATOM     17  C   UNL     1     -41.604  15.200 -17.519  1.00  0.00     0.158 A 
BRANCH  15  18
ATOM     18  O   UNL     1     -43.156  16.091 -15.863  1.00  0.00    -0.504 OA
ATOM     19  H   UNL     1     -43.346  15.190 -15.440  1.00  0.00     0.293 HD
ENDBRANCH  15  18
BRANCH  17  20
ATOM     20  O   UNL     1     -42.124  13.918 -17.343  1.00  0.00    -0.504 OA
ATOM     21  H   UNL     1     -42.143  13.474 -16.432  1.00  0.00     0.293 HD
ENDBRANCH  17  20
ENDBRANCH   1  12
BRANCH   2  22
ATOM     22  O   UNL     1     -40.442  17.532 -21.377  1.00  0.00    -0.502 OA
ATOM     23  H   UNL     1     -41.136  18.061 -20.862  1.00  0.00     0.293 HD
ENDBRANCH   2  22
BRANCH   6  24
ATOM     24  O   UNL     1     -35.496  18.094 -23.273  1.00  0.00    -0.507 OA
ATOM     25  H   UNL     1     -36.260  18.086 -23.930  1.00  0.00     0.293 HD
ENDBRANCH   6  24
BRANCH   8  26
ATOM     26  O   UNL     1     -32.968  16.263 -19.644  1.00  0.00    -0.508 OA
ATOM     27  H   UNL     1     -32.823  16.147 -18.649  1.00  0.00     0.293 HD
ENDBRANCH   8  26
TORSDOF 6
ENDMDL
MODEL 9
REMARK VINA RESULT:    -5.808      2.952      7.627
REMARK INTER + INTRA:          -7.287
REMARK INTER:                  -6.990
REMARK INTRA:                  -0.297
REMARK UNBOUND:                -0.291
REMARK SMILES O=c1c(O)c(-c2ccc(O)c(O)c2)oc2cc(O)cc(O)c12
REMARK SMILES IDX 5 1 3 2 2 3 1 4 22 5 20 6 19 7 17 8 16 9 15 10 14 11 6 12
REMARK SMILES IDX 7 13 8 14 9 15 13 16 11 17 10 18 12 20 4 22 21 24 18 26
REMARK H PARENT 10 19 12 21 4 23 21 25 18 27
REMARK Flexibility Score: inf
ROOT
ATOM      1  C   UNL     1     -40.913  17.299 -18.409  1.00  0.00     0.180 A 
ATOM      2  C   UNL     1     -39.598  16.994 -18.017  1.00  0.00     0.208 A 
ATOM      3  C   UNL     1     -38.587  16.966 -18.990  1.00  0.00     0.238 A 
ATOM      4  O   UNL     1     -37.402  16.747 -18.624  1.00  0.00    -0.285 OA
ATOM      5  C   UNL     1     -38.905  17.227 -20.345  1.00  0.00     0.111 A 
ATOM      6  C   UNL     1     -37.967  17.186 -21.420  1.00  0.00     0.134 A 
ATOM      7  C   UNL     1     -38.367  17.589 -22.700  1.00  0.00     0.093 A 
ATOM      8  C   UNL     1     -39.683  17.969 -22.958  1.00  0.00     0.123 A 
ATOM      9  C   UNL     1     -40.622  17.955 -21.927  1.00  0.00     0.094 A 
ATOM     10  C   UNL     1     -40.246  17.593 -20.631  1.00  0.00     0.146 A 
ATOM     11  O   UNL     1     -41.168  17.604 -19.676  1.00  0.00    -0.452 OA
ENDROOT
BRANCH   1  12
ATOM     12  C   UNL     1     -42.037  17.323 -17.445  1.00  0.00     0.025 A 
ATOM     13  C   UNL     1     -42.270  18.438 -16.620  1.00  0.00     0.016 A 
ATOM     14  C   UNL     1     -43.321  18.430 -15.701  1.00  0.00     0.051 A 
ATOM     15  C   UNL     1     -44.147  17.307 -15.580  1.00  0.00     0.157 A 
ATOM     16  C   UNL     1     -42.855  16.189 -17.306  1.00  0.00     0.062 A 
ATOM     17  C   UNL     1     -43.911  16.179 -16.384  1.00  0.00     0.158 A 
BRANCH  15  18
ATOM     18  O   UNL     1     -45.190  17.328 -14.655  1.00  0.00    -0.504 OA
ATOM     19  H   UNL     1     -45.264  16.644 -13.911  1.00  0.00     0.293 HD
ENDBRANCH  15  18
BRANCH  17  20
ATOM     20  O   UNL     1     -44.725  15.054 -16.264  1.00  0.00    -0.504 OA
ATOM     21  H   UNL     1     -45.646  15.017 -16.687  1.00  0.00     0.293 HD
ENDBRANCH  17  20
ENDBRANCH   1  12
BRANCH   2  22
ATOM     22  O   UNL     1     -39.302  16.762 -16.671  1.00  0.00    -0.502 OA
ATOM     23  H   UNL     1     -39.641  15.948 -16.172  1.00  0.00     0.293 HD
ENDBRANCH   2  22
BRANCH   6  24
ATOM     24  O   UNL     1     -36.650  16.735 -21.290  1.00  0.00    -0.507 OA
ATOM     25  H   UNL     1     -35.970  17.123 -20.655  1.00  0.00     0.293 HD
ENDBRANCH   6  24
BRANCH   8  26
ATOM     26  O   UNL     1     -40.049  18.349 -24.247  1.00  0.00    -0.508 OA
ATOM     27  H   UNL     1     -40.922  18.046 -24.661  1.00  0.00     0.293 HD
ENDBRANCH   8  26
TORSDOF 6
ENDMDL
