MODEL 1
REMARK VINA RESULT:    -4.497      0.000      0.000
REMARK INTER + INTRA:         -10.699
REMARK INTER:                  -8.440
REMARK INTRA:                  -2.259
REMARK UNBOUND:                -2.259
REMARK SMILES CCCCCCCCC=CCCCCCCCC(=O)[O-]
REMARK SMILES IDX 10 1 9 2 11 3 12 4 13 5 14 6 15 7 16 8 17 9 18 10 19 11
REMARK SMILES IDX 20 12 8 13 7 14 6 15 5 16 4 17 3 18 2 19 1 20
REMARK H PARENT
REMARK Flexibility Score: inf
ROOT
ATOM      1  C   UNL     1     106.864  95.684 117.562  1.00  0.00    -0.031 C 
ATOM      2  C   UNL     1     107.544  96.829 117.755  1.00  0.00    -0.031 C 
ENDROOT
BRANCH   1   3
ATOM      3  C   UNL     1     107.247  94.616 116.567  1.00  0.00     0.027 C 
BRANCH   3   4
ATOM      4  C   UNL     1     107.623  93.297 117.255  1.00  0.00     0.004 C 
BRANCH   4   5
ATOM      5  C   UNL     1     106.715  92.135 116.818  1.00  0.00     0.000 C 
BRANCH   5   6
ATOM      6  C   UNL     1     105.220  92.447 117.039  1.00  0.00     0.000 C 
BRANCH   6   7
ATOM      7  C   UNL     1     104.316  91.983 115.883  1.00  0.00     0.000 C 
BRANCH   7   8
ATOM      8  C   UNL     1     103.839  93.140 114.994  1.00  0.00     0.006 C 
BRANCH   8   9
ATOM      9  C   UNL     1     104.891  93.490 113.936  1.00  0.00     0.053 C 
BRANCH   9  10
ATOM     10  C   UNL     1     104.990  92.397 112.918  1.00  0.00     0.041 C 
ATOM     11  O   UNL     1     106.104  92.106 112.407  1.00  0.00    -0.550 OA
ATOM     12  O   UNL     1     103.844  91.742 112.488  1.00  0.00    -0.550 OA
ENDBRANCH   9  10
ENDBRANCH   8   9
ENDBRANCH   7   8
ENDBRANCH   6   7
ENDBRANCH   5   6
ENDBRANCH   4   5
ENDBRANCH   3   4
ENDBRANCH   1   3
BRANCH   2  13
ATOM     13  C   UNL     1     108.741  97.260 116.946  1.00  0.00     0.027 C 
BRANCH  13  14
ATOM     14  C   UNL     1     109.982  97.395 117.842  1.00  0.00     0.004 C 
BRANCH  14  15
ATOM     15  C   UNL     1     111.173  96.571 117.327  1.00  0.00     0.000 C 
BRANCH  15  16
ATOM     16  C   UNL     1     110.962  95.059 117.496  1.00  0.00     0.000 C 
BRANCH  16  17
ATOM     17  C   UNL     1     110.995  94.347 116.134  1.00  0.00    -0.000 C 
BRANCH  17  18
ATOM     18  C   UNL     1     111.967  95.008 115.144  1.00  0.00    -0.000 C 
BRANCH  18  19
ATOM     19  C   UNL     1     111.245  95.701 113.980  1.00  0.00    -0.003 C 
ATOM     20  C   UNL     1     109.773  95.299 113.930  1.00  0.00     0.004 C 
ENDBRANCH  18  19
ENDBRANCH  17  18
ENDBRANCH  16  17
ENDBRANCH  15  16
ENDBRANCH  14  15
ENDBRANCH  13  14
ENDBRANCH   2  13
TORSDOF 15
ENDMDL
MODEL 2
REMARK VINA RESULT:    -4.472      1.671      2.177
REMARK INTER + INTRA:         -10.653
REMARK INTER:                  -9.030
REMARK INTRA:                  -1.623
REMARK UNBOUND:                -2.259
REMARK SMILES CCCCCCCCC=CCCCCCCCC(=O)[O-]
REMARK SMILES IDX 10 1 9 2 11 3 12 4 13 5 14 6 15 7 16 8 17 9 18 10 19 11
REMARK SMILES IDX 20 12 8 13 7 14 6 15 5 16 4 17 3 18 2 19 1 20
REMARK H PARENT
REMARK Flexibility Score: inf
ROOT
ATOM      1  C   UNL     1     106.954  95.502 117.514  1.00  0.00    -0.031 C 
ATOM      2  C   UNL     1     107.602  96.668 117.691  1.00  0.00    -0.031 C 
ENDROOT
BRANCH   1   3
ATOM      3  C   UNL     1     107.319  94.465 116.480  1.00  0.00     0.027 C 
BRANCH   3   4
ATOM      4  C   UNL     1     107.670  93.114 117.120  1.00  0.00     0.004 C 
BRANCH   4   5
ATOM      5  C   UNL     1     106.589  92.051 116.859  1.00  0.00     0.000 C 
BRANCH   5   6
ATOM      6  C   UNL     1     105.179  92.667 116.747  1.00  0.00     0.000 C 
BRANCH   6   7
ATOM      7  C   UNL     1     104.327  92.060 115.619  1.00  0.00     0.000 C 
BRANCH   7   8
ATOM      8  C   UNL     1     104.607  92.696 114.250  1.00  0.00     0.006 C 
BRANCH   8   9
ATOM      9  C   UNL     1     103.302  92.998 113.506  1.00  0.00     0.053 C 
BRANCH   9  10
ATOM     10  C   UNL     1     102.339  93.706 114.407  1.00  0.00     0.041 C 
ATOM     11  O   UNL     1     101.280  93.134 114.776  1.00  0.00    -0.550 OA
ATOM     12  O   UNL     1     102.582  95.019 114.787  1.00  0.00    -0.550 OA
ENDBRANCH   9  10
ENDBRANCH   8   9
ENDBRANCH   7   8
ENDBRANCH   6   7
ENDBRANCH   5   6
ENDBRANCH   4   5
ENDBRANCH   3   4
ENDBRANCH   1   3
BRANCH   2  13
ATOM     13  C   UNL     1     108.738  97.154 116.827  1.00  0.00     0.027 C 
BRANCH  13  14
ATOM     14  C   UNL     1     110.032  97.277 117.647  1.00  0.00     0.004 C 
BRANCH  14  15
ATOM     15  C   UNL     1     111.151  96.363 117.123  1.00  0.00     0.000 C 
BRANCH  15  16
ATOM     16  C   UNL     1     111.025  94.921 117.636  1.00  0.00     0.000 C 
BRANCH  16  17
ATOM     17  C   UNL     1     111.128  93.917 116.477  1.00  0.00    -0.000 C 
BRANCH  17  18
ATOM     18  C   UNL     1     111.854  94.498 115.253  1.00  0.00    -0.000 C 
BRANCH  18  19
ATOM     19  C   UNL     1     113.018  93.615 114.783  1.00  0.00    -0.003 C 
ATOM     20  C   UNL     1     114.344  94.368 114.858  1.00  0.00     0.004 C 
ENDBRANCH  18  19
ENDBRANCH  17  18
ENDBRANCH  16  17
ENDBRANCH  15  16
ENDBRANCH  14  15
ENDBRANCH  13  14
ENDBRANCH   2  13
TORSDOF 15
ENDMDL
MODEL 3
REMARK VINA RESULT:    -4.334      3.009      6.484
REMARK INTER + INTRA:         -10.393
REMARK INTER:                  -8.261
REMARK INTRA:                  -2.133
REMARK UNBOUND:                -2.259
REMARK SMILES CCCCCCCCC=CCCCCCCCC(=O)[O-]
REMARK SMILES IDX 10 1 9 2 11 3 12 4 13 5 14 6 15 7 16 8 17 9 18 10 19 11
REMARK SMILES IDX 20 12 8 13 7 14 6 15 5 16 4 17 3 18 2 19 1 20
REMARK H PARENT
REMARK Flexibility Score: inf
ROOT
ATOM      1  C   UNL     1     111.149  96.210 117.363  1.00  0.00    -0.031 C 
ATOM      2  C   UNL     1     110.445  97.346 117.522  1.00  0.00    -0.031 C 
ENDROOT
BRANCH   1   3
ATOM      3  C   UNL     1     110.679  94.842 117.798  1.00  0.00     0.027 C 
BRANCH   3   4
ATOM      4  C   UNL     1     110.817  93.805 116.675  1.00  0.00     0.004 C 
BRANCH   4   5
ATOM      5  C   UNL     1     111.287  94.438 115.354  1.00  0.00     0.000 C 
BRANCH   5   6
ATOM      6  C   UNL     1     112.633  93.856 114.875  1.00  0.00     0.000 C 
BRANCH   6   7
ATOM      7  C   UNL     1     113.809  94.842 114.992  1.00  0.00     0.000 C 
BRANCH   7   8
ATOM      8  C   UNL     1     114.067  95.621 113.695  1.00  0.00     0.006 C 
BRANCH   8   9
ATOM      9  C   UNL     1     113.353  96.976 113.715  1.00  0.00     0.053 C 
BRANCH   9  10
ATOM     10  C   UNL     1     112.361  97.061 112.598  1.00  0.00     0.041 C 
ATOM     11  O   UNL     1     111.884  96.010 112.094  1.00  0.00    -0.550 OA
ATOM     12  O   UNL     1     112.011  98.297 112.071  1.00  0.00    -0.550 OA
ENDBRANCH   9  10
ENDBRANCH   8   9
ENDBRANCH   7   8
ENDBRANCH   6   7
ENDBRANCH   5   6
ENDBRANCH   4   5
ENDBRANCH   3   4
ENDBRANCH   1   3
BRANCH   2  13
ATOM     13  C   UNL     1     109.119  97.439 118.235  1.00  0.00     0.027 C 
BRANCH  13  14
ATOM     14  C   UNL     1     107.989  97.748 117.241  1.00  0.00     0.004 C 
BRANCH  14  15
ATOM     15  C   UNL     1     106.663  97.073 117.628  1.00  0.00     0.000 C 
BRANCH  15  16
ATOM     16  C   UNL     1     106.766  95.541 117.650  1.00  0.00     0.000 C 
BRANCH  16  17
ATOM     17  C   UNL     1     107.248  95.005 116.292  1.00  0.00    -0.000 C 
BRANCH  17  18
ATOM     18  C   UNL     1     107.167  93.474 116.197  1.00  0.00    -0.000 C 
BRANCH  18  19
ATOM     19  C   UNL     1     106.407  92.848 117.376  1.00  0.00    -0.003 C 
ATOM     20  C   UNL     1     104.974  92.499 116.982  1.00  0.00     0.004 C 
ENDBRANCH  18  19
ENDBRANCH  17  18
ENDBRANCH  16  17
ENDBRANCH  15  16
ENDBRANCH  14  15
ENDBRANCH  13  14
ENDBRANCH   2  13
TORSDOF 15
ENDMDL
MODEL 4
REMARK VINA RESULT:    -4.332      2.298      6.127
REMARK INTER + INTRA:         -10.390
REMARK INTER:                  -8.350
REMARK INTRA:                  -2.040
REMARK UNBOUND:                -2.259
REMARK SMILES CCCCCCCCC=CCCCCCCCC(=O)[O-]
REMARK SMILES IDX 10 1 9 2 11 3 12 4 13 5 14 6 15 7 16 8 17 9 18 10 19 11
REMARK SMILES IDX 20 12 8 13 7 14 6 15 5 16 4 17 3 18 2 19 1 20
REMARK H PARENT
REMARK Flexibility Score: inf
ROOT
ATOM      1  C   UNL     1     109.198  97.092 117.296  1.00  0.00    -0.031 C 
ATOM      2  C   UNL     1     108.019  97.268 117.922  1.00  0.00    -0.031 C 
ENDROOT
BRANCH   1   3
ATOM      3  C   UNL     1     109.519  95.935 116.382  1.00  0.00     0.027 C 
BRANCH   3   4
ATOM      4  C   UNL     1     110.310  94.835 117.104  1.00  0.00     0.004 C 
BRANCH   4   5
ATOM      5  C   UNL     1     111.768  95.249 117.371  1.00  0.00     0.000 C 
BRANCH   5   6
ATOM      6  C   UNL     1     112.462  95.790 116.103  1.00  0.00     0.000 C 
BRANCH   6   7
ATOM      7  C   UNL     1     113.416  94.779 115.442  1.00  0.00     0.000 C 
BRANCH   7   8
ATOM      8  C   UNL     1     112.756  93.990 114.303  1.00  0.00     0.006 C 
BRANCH   8   9
ATOM      9  C   UNL     1     111.744  94.858 113.547  1.00  0.00     0.053 C 
BRANCH   9  10
ATOM     10  C   UNL     1     111.501  94.304 112.178  1.00  0.00     0.041 C 
ATOM     11  O   UNL     1     110.325  94.103 111.776  1.00  0.00    -0.550 OA
ATOM     12  O   UNL     1     112.574  93.952 111.370  1.00  0.00    -0.550 OA
ENDBRANCH   9  10
ENDBRANCH   8   9
ENDBRANCH   7   8
ENDBRANCH   6   7
ENDBRANCH   5   6
ENDBRANCH   4   5
ENDBRANCH   3   4
ENDBRANCH   1   3
BRANCH   2  13
ATOM     13  C   UNL     1     106.871  96.292 117.872  1.00  0.00     0.027 C 
BRANCH  13  14
ATOM     14  C   UNL     1     105.668  96.905 117.137  1.00  0.00     0.004 C 
BRANCH  14  15
ATOM     15  C   UNL     1     105.609  96.491 115.659  1.00  0.00     0.000 C 
BRANCH  15  16
ATOM     16  C   UNL     1     104.767  95.226 115.433  1.00  0.00     0.000 C 
BRANCH  16  17
ATOM     17  C   UNL     1     105.657  94.042 115.025  1.00  0.00    -0.000 C 
BRANCH  17  18
ATOM     18  C   UNL     1     105.347  92.765 115.822  1.00  0.00    -0.000 C 
BRANCH  18  19
ATOM     19  C   UNL     1     105.771  92.872 117.295  1.00  0.00    -0.003 C 
ATOM     20  C   UNL     1     107.274  92.659 117.451  1.00  0.00     0.004 C 
ENDBRANCH  18  19
ENDBRANCH  17  18
ENDBRANCH  16  17
ENDBRANCH  15  16
ENDBRANCH  14  15
ENDBRANCH  13  14
ENDBRANCH   2  13
TORSDOF 15
ENDMDL
MODEL 5
REMARK VINA RESULT:    -4.301      3.533      4.366
REMARK INTER + INTRA:         -10.331
REMARK INTER:                  -8.257
REMARK INTRA:                  -2.074
REMARK UNBOUND:                -2.259
REMARK SMILES CCCCCCCCC=CCCCCCCCC(=O)[O-]
REMARK SMILES IDX 10 1 9 2 11 3 12 4 13 5 14 6 15 7 16 8 17 9 18 10 19 11
REMARK SMILES IDX 20 12 8 13 7 14 6 15 5 16 4 17 3 18 2 19 1 20
REMARK H PARENT
REMARK Flexibility Score: inf
ROOT
ATOM      1  C   UNL     1     109.194  94.820 115.922  1.00  0.00    -0.031 C 
ATOM      2  C   UNL     1     109.682  96.022 116.281  1.00  0.00    -0.031 C 
ENDROOT
BRANCH   1   3
ATOM      3  C   UNL     1     109.204  93.593 116.801  1.00  0.00     0.027 C 
BRANCH   3   4
ATOM      4  C   UNL     1     107.803  92.987 116.957  1.00  0.00     0.004 C 
BRANCH   4   5
ATOM      5  C   UNL     1     106.792  94.001 117.520  1.00  0.00     0.000 C 
BRANCH   5   6
ATOM      6  C   UNL     1     105.578  94.193 116.586  1.00  0.00     0.000 C 
BRANCH   6   7
ATOM      7  C   UNL     1     105.443  95.624 116.037  1.00  0.00     0.000 C 
BRANCH   7   8
ATOM      8  C   UNL     1     105.926  96.693 117.027  1.00  0.00     0.006 C 
BRANCH   8   9
ATOM      9  C   UNL     1     105.699  98.102 116.470  1.00  0.00     0.053 C 
BRANCH   9  10
ATOM     10  C   UNL     1     106.037  99.133 117.501  1.00  0.00     0.041 C 
ATOM     11  O   UNL     1     107.175  99.138 118.042  1.00  0.00    -0.550 OA
ATOM     12  O   UNL     1     105.076 100.047 117.911  1.00  0.00    -0.550 OA
ENDBRANCH   9  10
ENDBRANCH   8   9
ENDBRANCH   7   8
ENDBRANCH   6   7
ENDBRANCH   5   6
ENDBRANCH   4   5
ENDBRANCH   3   4
ENDBRANCH   1   3
BRANCH   2  13
ATOM     13  C   UNL     1     110.391  96.304 117.582  1.00  0.00     0.027 C 
BRANCH  13  14
ATOM     14  C   UNL     1     111.838  96.752 117.326  1.00  0.00     0.004 C 
BRANCH  14  15
ATOM     15  C   UNL     1     112.335  96.365 115.925  1.00  0.00     0.000 C 
BRANCH  15  16
ATOM     16  C   UNL     1     113.283  95.156 115.948  1.00  0.00     0.000 C 
BRANCH  16  17
ATOM     17  C   UNL     1     112.861  94.110 114.904  1.00  0.00    -0.000 C 
BRANCH  17  18
ATOM     18  C   UNL     1     112.673  94.715 113.503  1.00  0.00    -0.000 C 
BRANCH  18  19
ATOM     19  C   UNL     1     111.884  93.792 112.563  1.00  0.00    -0.003 C 
ATOM     20  C   UNL     1     110.637  94.490 112.028  1.00  0.00     0.004 C 
ENDBRANCH  18  19
ENDBRANCH  17  18
ENDBRANCH  16  17
ENDBRANCH  15  16
ENDBRANCH  14  15
ENDBRANCH  13  14
ENDBRANCH   2  13
TORSDOF 15
ENDMDL
MODEL 6
REMARK VINA RESULT:    -4.256      1.793      3.505
REMARK INTER + INTRA:         -10.248
REMARK INTER:                  -8.273
REMARK INTRA:                  -1.975
REMARK UNBOUND:                -2.259
REMARK SMILES CCCCCCCCC=CCCCCCCCC(=O)[O-]
REMARK SMILES IDX 10 1 9 2 11 3 12 4 13 5 14 6 15 7 16 8 17 9 18 10 19 11
REMARK SMILES IDX 20 12 8 13 7 14 6 15 5 16 4 17 3 18 2 19 1 20
REMARK H PARENT
REMARK Flexibility Score: inf
ROOT
ATOM      1  C   UNL     1     110.980  95.239 117.552  1.00  0.00    -0.031 C 
ATOM      2  C   UNL     1     112.172  95.838 117.376  1.00  0.00    -0.031 C 
ENDROOT
BRANCH   1   3
ATOM      3  C   UNL     1     110.517  94.014 116.801  1.00  0.00     0.027 C 
BRANCH   3   4
ATOM      4  C   UNL     1     109.157  94.237 116.124  1.00  0.00     0.004 C 
BRANCH   4   5
ATOM      5  C   UNL     1     108.271  95.218 116.910  1.00  0.00     0.000 C 
BRANCH   5   6
ATOM      6  C   UNL     1     106.912  94.596 117.295  1.00  0.00     0.000 C 
BRANCH   6   7
ATOM      7  C   UNL     1     106.983  93.086 117.580  1.00  0.00     0.000 C 
BRANCH   7   8
ATOM      8  C   UNL     1     106.099  92.257 116.637  1.00  0.00     0.006 C 
BRANCH   8   9
ATOM      9  C   UNL     1     105.507  93.132 115.527  1.00  0.00     0.053 C 
BRANCH   9  10
ATOM     10  C   UNL     1     104.059  92.811 115.326  1.00  0.00     0.041 C 
ATOM     11  O   UNL     1     103.600  91.698 115.693  1.00  0.00    -0.550 OA
ATOM     12  O   UNL     1     103.231  93.717 114.677  1.00  0.00    -0.550 OA
ENDBRANCH   9  10
ENDBRANCH   8   9
ENDBRANCH   7   8
ENDBRANCH   6   7
ENDBRANCH   5   6
ENDBRANCH   4   5
ENDBRANCH   3   4
ENDBRANCH   1   3
BRANCH   2  13
ATOM     13  C   UNL     1     113.190  95.430 116.341  1.00  0.00     0.027 C 
BRANCH  13  14
ATOM     14  C   UNL     1     112.888  96.097 114.990  1.00  0.00     0.004 C 
BRANCH  14  15
ATOM     15  C   UNL     1     113.362  95.251 113.797  1.00  0.00     0.000 C 
BRANCH  15  16
ATOM     16  C   UNL     1     112.547  93.961 113.627  1.00  0.00     0.000 C 
BRANCH  16  17
ATOM     17  C   UNL     1     111.666  94.032 112.370  1.00  0.00    -0.000 C 
BRANCH  17  18
ATOM     18  C   UNL     1     110.373  94.831 112.597  1.00  0.00    -0.000 C 
BRANCH  18  19
ATOM     19  C   UNL     1     110.331  96.131 111.782  1.00  0.00    -0.003 C 
ATOM     20  C   UNL     1     110.047  97.333 112.680  1.00  0.00     0.004 C 
ENDBRANCH  18  19
ENDBRANCH  17  18
ENDBRANCH  16  17
ENDBRANCH  15  16
ENDBRANCH  14  15
ENDBRANCH  13  14
ENDBRANCH   2  13
TORSDOF 15
ENDMDL
MODEL 7
REMARK VINA RESULT:    -4.235      2.936      6.303
REMARK INTER + INTRA:         -10.209
REMARK INTER:                  -7.601
REMARK INTRA:                  -2.608
REMARK UNBOUND:                -2.259
REMARK SMILES CCCCCCCCC=CCCCCCCCC(=O)[O-]
REMARK SMILES IDX 10 1 9 2 11 3 12 4 13 5 14 6 15 7 16 8 17 9 18 10 19 11
REMARK SMILES IDX 20 12 8 13 7 14 6 15 5 16 4 17 3 18 2 19 1 20
REMARK H PARENT
REMARK Flexibility Score: inf
ROOT
ATOM      1  C   UNL     1     104.799  94.041 113.908  1.00  0.00    -0.031 C 
ATOM      2  C   UNL     1     104.066  93.497 114.897  1.00  0.00    -0.031 C 
ENDROOT
BRANCH   1   3
ATOM      3  C   UNL     1     105.988  93.378 113.257  1.00  0.00     0.027 C 
BRANCH   3   4
ATOM      4  C   UNL     1     107.012  94.404 112.751  1.00  0.00     0.004 C 
BRANCH   4   5
ATOM      5  C   UNL     1     107.412  95.411 113.843  1.00  0.00     0.000 C 
BRANCH   5   6
ATOM      6  C   UNL     1     108.925  95.372 114.146  1.00  0.00     0.000 C 
BRANCH   6   7
ATOM      7  C   UNL     1     109.409  96.540 115.023  1.00  0.00     0.000 C 
BRANCH   7   8
ATOM      8  C   UNL     1     110.575  96.154 115.944  1.00  0.00     0.006 C 
BRANCH   8   9
ATOM      9  C   UNL     1     110.967  94.685 115.749  1.00  0.00     0.053 C 
BRANCH   9  10
ATOM     10  C   UNL     1     112.447  94.559 115.571  1.00  0.00     0.041 C 
ATOM     11  O   UNL     1     112.917  93.736 114.741  1.00  0.00    -0.550 OA
ATOM     12  O   UNL     1     113.309  95.304 116.364  1.00  0.00    -0.550 OA
ENDBRANCH   9  10
ENDBRANCH   8   9
ENDBRANCH   7   8
ENDBRANCH   6   7
ENDBRANCH   5   6
ENDBRANCH   4   5
ENDBRANCH   3   4
ENDBRANCH   1   3
BRANCH   2  13
ATOM     13  C   UNL     1     104.374  92.180 115.564  1.00  0.00     0.027 C 
BRANCH  13  14
ATOM     14  C   UNL     1     105.055  92.406 116.923  1.00  0.00     0.004 C 
BRANCH  14  15
ATOM     15  C   UNL     1     106.574  92.183 116.865  1.00  0.00     0.000 C 
BRANCH  15  16
ATOM     16  C   UNL     1     107.367  93.496 116.936  1.00  0.00     0.000 C 
BRANCH  16  17
ATOM     17  C   UNL     1     106.453  94.666 117.335  1.00  0.00    -0.000 C 
BRANCH  17  18
ATOM     18  C   UNL     1     107.234  95.960 117.610  1.00  0.00    -0.000 C 
BRANCH  18  19
ATOM     19  C   UNL     1     106.350  97.213 117.523  1.00  0.00    -0.003 C 
ATOM     20  C   UNL     1     107.198  98.481 117.471  1.00  0.00     0.004 C 
ENDBRANCH  18  19
ENDBRANCH  17  18
ENDBRANCH  16  17
ENDBRANCH  15  16
ENDBRANCH  14  15
ENDBRANCH  13  14
ENDBRANCH   2  13
TORSDOF 15
ENDMDL
MODEL 8
REMARK VINA RESULT:    -4.216      2.728      5.850
REMARK INTER + INTRA:         -10.173
REMARK INTER:                  -7.437
REMARK INTRA:                  -2.737
REMARK UNBOUND:                -2.259
REMARK SMILES CCCCCCCCC=CCCCCCCCC(=O)[O-]
REMARK SMILES IDX 10 1 9 2 11 3 12 4 13 5 14 6 15 7 16 8 17 9 18 10 19 11
REMARK SMILES IDX 20 12 8 13 7 14 6 15 5 16 4 17 3 18 2 19 1 20
REMARK H PARENT
REMARK Flexibility Score: inf
ROOT
ATOM      1  C   UNL     1     111.968  93.995 115.620  1.00  0.00    -0.031 C 
ATOM      2  C   UNL     1     111.016  94.202 116.550  1.00  0.00    -0.031 C 
ENDROOT
BRANCH   1   3
ATOM      3  C   UNL     1     113.275  94.746 115.550  1.00  0.00     0.027 C 
BRANCH   3   4
ATOM      4  C   UNL     1     113.489  95.399 114.177  1.00  0.00     0.004 C 
BRANCH   4   5
ATOM      5  C   UNL     1     112.902  96.819 114.111  1.00  0.00     0.000 C 
BRANCH   5   6
ATOM      6  C   UNL     1     111.821  96.953 113.017  1.00  0.00     0.000 C 
BRANCH   6   7
ATOM      7  C   UNL     1     110.385  96.796 113.546  1.00  0.00     0.000 C 
BRANCH   7   8
ATOM      8  C   UNL     1     109.759  95.442 113.187  1.00  0.00     0.006 C 
BRANCH   8   9
ATOM      9  C   UNL     1     109.514  95.332 111.678  1.00  0.00     0.053 C 
BRANCH   9  10
ATOM     10  C   UNL     1     110.299  94.194 111.103  1.00  0.00     0.041 C 
ATOM     11  O   UNL     1     110.008  93.735 109.967  1.00  0.00    -0.550 OA
ATOM     12  O   UNL     1     111.310  93.602 111.847  1.00  0.00    -0.550 OA
ENDBRANCH   9  10
ENDBRANCH   8   9
ENDBRANCH   7   8
ENDBRANCH   6   7
ENDBRANCH   5   6
ENDBRANCH   4   5
ENDBRANCH   3   4
ENDBRANCH   1   3
BRANCH   2  13
ATOM     13  C   UNL     1     111.074  95.273 117.609  1.00  0.00     0.027 C 
BRANCH  13  14
ATOM     14  C   UNL     1     110.423  96.571 117.106  1.00  0.00     0.004 C 
BRANCH  14  15
ATOM     15  C   UNL     1     108.949  96.690 117.524  1.00  0.00     0.000 C 
BRANCH  15  16
ATOM     16  C   UNL     1     107.986  96.567 116.333  1.00  0.00     0.000 C 
BRANCH  16  17
ATOM     17  C   UNL     1     107.391  95.152 116.255  1.00  0.00    -0.000 C 
BRANCH  17  18
ATOM     18  C   UNL     1     106.558  94.790 117.495  1.00  0.00    -0.000 C 
BRANCH  18  19
ATOM     19  C   UNL     1     106.520  93.278 117.760  1.00  0.00    -0.003 C 
ATOM     20  C   UNL     1     107.563  92.547 116.919  1.00  0.00     0.004 C 
ENDBRANCH  18  19
ENDBRANCH  17  18
ENDBRANCH  16  17
ENDBRANCH  15  16
ENDBRANCH  14  15
ENDBRANCH  13  14
ENDBRANCH   2  13
TORSDOF 15
ENDMDL
MODEL 9
REMARK VINA RESULT:    -4.214      2.890      5.791
REMARK INTER + INTRA:         -10.169
REMARK INTER:                  -7.210
REMARK INTRA:                  -2.960
REMARK UNBOUND:                -2.259
REMARK SMILES CCCCCCCCC=CCCCCCCCC(=O)[O-]
REMARK SMILES IDX 10 1 9 2 11 3 12 4 13 5 14 6 15 7 16 8 17 9 18 10 19 11
REMARK SMILES IDX 20 12 8 13 7 14 6 15 5 16 4 17 3 18 2 19 1 20
REMARK H PARENT
REMARK Flexibility Score: inf
ROOT
ATOM      1  C   UNL     1     106.025  99.383 115.731  1.00  0.00    -0.031 C 
ATOM      2  C   UNL     1     106.677  99.091 114.590  1.00  0.00    -0.031 C 
ENDROOT
BRANCH   1   3
ATOM      3  C   UNL     1     106.480  98.969 117.109  1.00  0.00     0.027 C 
BRANCH   3   4
ATOM      4  C   UNL     1     105.934  97.590 117.503  1.00  0.00     0.004 C 
BRANCH   4   5
ATOM      5  C   UNL     1     107.057  96.605 117.872  1.00  0.00     0.000 C 
BRANCH   5   6
ATOM      6  C   UNL     1     108.401  97.320 118.124  1.00  0.00     0.000 C 
BRANCH   6   7
ATOM      7  C   UNL     1     109.608  96.606 117.491  1.00  0.00     0.000 C 
BRANCH   7   8
ATOM      8  C   UNL     1     109.252  95.230 116.910  1.00  0.00     0.006 C 
BRANCH   8   9
ATOM      9  C   UNL     1     110.477  94.310 116.884  1.00  0.00     0.053 C 
BRANCH   9  10
ATOM     10  C   UNL     1     111.179  94.412 115.565  1.00  0.00     0.041 C 
ATOM     11  O   UNL     1     110.592  94.918 114.573  1.00  0.00    -0.550 OA
ATOM     12  O   UNL     1     112.457  93.891 115.417  1.00  0.00    -0.550 OA
ENDBRANCH   9  10
ENDBRANCH   8   9
ENDBRANCH   7   8
ENDBRANCH   6   7
ENDBRANCH   5   6
ENDBRANCH   4   5
ENDBRANCH   3   4
ENDBRANCH   1   3
BRANCH   2  13
ATOM     13  C   UNL     1     107.914  98.232 114.508  1.00  0.00     0.027 C 
BRANCH  13  14
ATOM     14  C   UNL     1     107.555  96.802 114.078  1.00  0.00     0.004 C 
BRANCH  14  15
ATOM     15  C   UNL     1     106.041  96.601 113.905  1.00  0.00     0.000 C 
BRANCH  15  16
ATOM     16  C   UNL     1     105.528  95.338 114.612  1.00  0.00     0.000 C 
BRANCH  16  17
ATOM     17  C   UNL     1     106.442  94.138 114.318  1.00  0.00    -0.000 C 
BRANCH  17  18
ATOM     18  C   UNL     1     106.281  93.006 115.345  1.00  0.00    -0.000 C 
BRANCH  18  19
ATOM     19  C   UNL     1     105.613  93.478 116.645  1.00  0.00    -0.003 C 
ATOM     20  C   UNL     1     106.392  93.001 117.867  1.00  0.00     0.004 C 
ENDBRANCH  18  19
ENDBRANCH  17  18
ENDBRANCH  16  17
ENDBRANCH  15  16
ENDBRANCH  14  15
ENDBRANCH  13  14
ENDBRANCH   2  13
TORSDOF 15
ENDMDL
