MODEL 1
REMARK VINA RESULT:    -4.328      0.000      0.000
REMARK INTER + INTRA:         -10.127
REMARK INTER:                  -8.124
REMARK INTRA:                  -2.003
REMARK UNBOUND:                -2.003
REMARK SMILES CCCCCCCCC=CCCCCCCCC(=O)[O-]
REMARK SMILES IDX 10 1 9 2 11 3 12 4 13 5 14 6 15 7 16 8 17 9 18 10 19 11
REMARK SMILES IDX 20 12 8 13 7 14 6 15 5 16 4 17 3 18 2 19 1 20
REMARK H PARENT
REMARK Flexibility Score: inf
ROOT
ATOM      1  C   UNL     1       5.836  -7.688  13.467  1.00  0.00    -0.031 C 
ATOM      2  C   UNL     1       5.693  -6.983  12.331  1.00  0.00    -0.031 C 
ENDROOT
BRANCH   1   3
ATOM      3  C   UNL     1       6.760  -7.285  14.589  1.00  0.00     0.027 C 
BRANCH   3   4
ATOM      4  C   UNL     1       6.308  -7.898  15.923  1.00  0.00     0.004 C 
BRANCH   4   5
ATOM      5  C   UNL     1       6.914  -7.184  17.142  1.00  0.00     0.000 C 
BRANCH   5   6
ATOM      6  C   UNL     1       6.015  -7.279  18.387  1.00  0.00     0.000 C 
BRANCH   6   7
ATOM      7  C   UNL     1       6.781  -7.020  19.695  1.00  0.00     0.000 C 
BRANCH   7   8
ATOM      8  C   UNL     1       6.020  -6.100  20.661  1.00  0.00     0.006 C 
BRANCH   8   9
ATOM      9  C   UNL     1       6.896  -4.924  21.105  1.00  0.00     0.053 C 
BRANCH   9  10
ATOM     10  C   UNL     1       6.489  -3.660  20.410  1.00  0.00     0.041 C 
ATOM     11  O   UNL     1       7.053  -2.570  20.698  1.00  0.00    -0.550 OA
ATOM     12  O   UNL     1       5.473  -3.679  19.459  1.00  0.00    -0.550 OA
ENDBRANCH   9  10
ENDBRANCH   8   9
ENDBRANCH   7   8
ENDBRANCH   6   7
ENDBRANCH   5   6
ENDBRANCH   4   5
ENDBRANCH   3   4
ENDBRANCH   1   3
BRANCH   2  13
ATOM     13  C   UNL     1       6.379  -5.666  12.055  1.00  0.00     0.027 C 
BRANCH  13  14
ATOM     14  C   UNL     1       5.527  -4.755  11.157  1.00  0.00     0.004 C 
BRANCH  14  15
ATOM     15  C   UNL     1       5.568  -3.289  11.626  1.00  0.00     0.000 C 
BRANCH  15  16
ATOM     16  C   UNL     1       6.444  -3.091  12.874  1.00  0.00     0.000 C 
BRANCH  16  17
ATOM     17  C   UNL     1       5.835  -2.091  13.873  1.00  0.00    -0.000 C 
BRANCH  17  18
ATOM     18  C   UNL     1       4.639  -2.678  14.638  1.00  0.00    -0.000 C 
BRANCH  18  19
ATOM     19  C   UNL     1       4.972  -4.006  15.335  1.00  0.00    -0.003 C 
ATOM     20  C   UNL     1       3.854  -5.026  15.138  1.00  0.00     0.004 C 
ENDBRANCH  18  19
ENDBRANCH  17  18
ENDBRANCH  16  17
ENDBRANCH  15  16
ENDBRANCH  14  15
ENDBRANCH  13  14
ENDBRANCH   2  13
TORSDOF 15
ENDMDL
MODEL 2
REMARK VINA RESULT:    -4.324      9.378     11.685
REMARK INTER + INTRA:         -10.118
REMARK INTER:                  -7.470
REMARK INTRA:                  -2.648
REMARK UNBOUND:                -2.003
REMARK SMILES CCCCCCCCC=CCCCCCCCC(=O)[O-]
REMARK SMILES IDX 10 1 9 2 11 3 12 4 13 5 14 6 15 7 16 8 17 9 18 10 19 11
REMARK SMILES IDX 20 12 8 13 7 14 6 15 5 16 4 17 3 18 2 19 1 20
REMARK H PARENT
REMARK Flexibility Score: inf
ROOT
ATOM      1  C   UNL     1       0.947   0.660  15.444  1.00  0.00    -0.031 C 
ATOM      2  C   UNL     1       1.484   1.878  15.633  1.00  0.00    -0.031 C 
ENDROOT
BRANCH   1   3
ATOM      3  C   UNL     1      -0.506   0.432  15.106  1.00  0.00     0.027 C 
BRANCH   3   4
ATOM      4  C   UNL     1      -1.224  -0.316  16.239  1.00  0.00     0.004 C 
BRANCH   4   5
ATOM      5  C   UNL     1      -0.844   0.208  17.634  1.00  0.00     0.000 C 
BRANCH   5   6
ATOM      6  C   UNL     1      -2.028   0.873  18.356  1.00  0.00     0.000 C 
BRANCH   6   7
ATOM      7  C   UNL     1      -3.370   0.182  18.060  1.00  0.00     0.000 C 
BRANCH   7   8
ATOM      8  C   UNL     1      -4.419   1.139  17.476  1.00  0.00     0.006 C 
BRANCH   8   9
ATOM      9  C   UNL     1      -4.552   2.400  18.336  1.00  0.00     0.053 C 
BRANCH   9  10
ATOM     10  C   UNL     1      -5.888   2.448  19.014  1.00  0.00     0.041 C 
ATOM     11  O   UNL     1      -6.372   3.553  19.379  1.00  0.00    -0.550 OA
ATOM     12  O   UNL     1      -6.590   1.273  19.263  1.00  0.00    -0.550 OA
ENDBRANCH   9  10
ENDBRANCH   8   9
ENDBRANCH   7   8
ENDBRANCH   6   7
ENDBRANCH   5   6
ENDBRANCH   4   5
ENDBRANCH   3   4
ENDBRANCH   1   3
BRANCH   2  13
ATOM     13  C   UNL     1       0.730   3.177  15.463  1.00  0.00     0.027 C 
BRANCH  13  14
ATOM     14  C   UNL     1       0.375   3.812  16.817  1.00  0.00     0.004 C 
BRANCH  14  15
ATOM     15  C   UNL     1      -1.113   4.200  16.893  1.00  0.00     0.000 C 
BRANCH  15  16
ATOM     16  C   UNL     1      -1.968   3.479  15.837  1.00  0.00     0.000 C 
BRANCH  16  17
ATOM     17  C   UNL     1      -2.810   4.452  14.993  1.00  0.00    -0.000 C 
BRANCH  17  18
ATOM     18  C   UNL     1      -2.460   4.389  13.498  1.00  0.00    -0.000 C 
BRANCH  18  19
ATOM     19  C   UNL     1      -2.329   2.949  12.978  1.00  0.00    -0.003 C 
ATOM     20  C   UNL     1      -3.700   2.321  12.746  1.00  0.00     0.004 C 
ENDBRANCH  18  19
ENDBRANCH  17  18
ENDBRANCH  16  17
ENDBRANCH  15  16
ENDBRANCH  14  15
ENDBRANCH  13  14
ENDBRANCH   2  13
TORSDOF 15
ENDMDL
MODEL 3
REMARK VINA RESULT:    -4.292      9.942     11.914
REMARK INTER + INTRA:         -10.060
REMARK INTER:                  -7.381
REMARK INTRA:                  -2.678
REMARK UNBOUND:                -2.003
REMARK SMILES CCCCCCCCC=CCCCCCCCC(=O)[O-]
REMARK SMILES IDX 10 1 9 2 11 3 12 4 13 5 14 6 15 7 16 8 17 9 18 10 19 11
REMARK SMILES IDX 20 12 8 13 7 14 6 15 5 16 4 17 3 18 2 19 1 20
REMARK H PARENT
REMARK Flexibility Score: inf
ROOT
ATOM      1  C   UNL     1      -1.102   0.277  16.581  1.00  0.00    -0.031 C 
ATOM      2  C   UNL     1      -0.200   0.675  15.667  1.00  0.00    -0.031 C 
ENDROOT
BRANCH   1   3
ATOM      3  C   UNL     1      -1.014   0.624  18.046  1.00  0.00     0.027 C 
BRANCH   3   4
ATOM      4  C   UNL     1      -2.259   0.137  18.803  1.00  0.00     0.004 C 
BRANCH   4   5
ATOM      5  C   UNL     1      -3.546   0.848  18.353  1.00  0.00     0.000 C 
BRANCH   5   6
ATOM      6  C   UNL     1      -3.689   2.251  18.965  1.00  0.00     0.000 C 
BRANCH   6   7
ATOM      7  C   UNL     1      -5.089   2.506  19.549  1.00  0.00     0.000 C 
BRANCH   7   8
ATOM      8  C   UNL     1      -5.385   1.647  20.787  1.00  0.00     0.006 C 
BRANCH   8   9
ATOM      9  C   UNL     1      -5.725   2.524  21.997  1.00  0.00     0.053 C 
BRANCH   9  10
ATOM     10  C   UNL     1      -4.511   3.255  22.487  1.00  0.00     0.041 C 
ATOM     11  O   UNL     1      -4.577   4.486  22.747  1.00  0.00    -0.550 OA
ATOM     12  O   UNL     1      -3.302   2.583  22.636  1.00  0.00    -0.550 OA
ENDBRANCH   9  10
ENDBRANCH   8   9
ENDBRANCH   7   8
ENDBRANCH   6   7
ENDBRANCH   5   6
ENDBRANCH   4   5
ENDBRANCH   3   4
ENDBRANCH   1   3
BRANCH   2  13
ATOM     13  C   UNL     1       0.974   1.577  15.966  1.00  0.00     0.027 C 
BRANCH  13  14
ATOM     14  C   UNL     1       0.739   3.009  15.461  1.00  0.00     0.004 C 
BRANCH  14  15
ATOM     15  C   UNL     1       0.415   3.976  16.615  1.00  0.00     0.000 C 
BRANCH  15  16
ATOM     16  C   UNL     1      -1.092   4.067  16.906  1.00  0.00     0.000 C 
BRANCH  16  17
ATOM     17  C   UNL     1      -1.932   4.249  15.629  1.00  0.00    -0.000 C 
BRANCH  17  18
ATOM     18  C   UNL     1      -3.217   3.407  15.644  1.00  0.00    -0.000 C 
BRANCH  18  19
ATOM     19  C   UNL     1      -3.316   2.451  14.446  1.00  0.00    -0.003 C 
ATOM     20  C   UNL     1      -2.339   2.848  13.343  1.00  0.00     0.004 C 
ENDBRANCH  18  19
ENDBRANCH  17  18
ENDBRANCH  16  17
ENDBRANCH  15  16
ENDBRANCH  14  15
ENDBRANCH  13  14
ENDBRANCH   2  13
TORSDOF 15
ENDMDL
MODEL 4
REMARK VINA RESULT:    -4.246      1.120      2.034
REMARK INTER + INTRA:          -9.973
REMARK INTER:                  -6.932
REMARK INTRA:                  -3.041
REMARK UNBOUND:                -2.003
REMARK SMILES CCCCCCCCC=CCCCCCCCC(=O)[O-]
REMARK SMILES IDX 10 1 9 2 11 3 12 4 13 5 14 6 15 7 16 8 17 9 18 10 19 11
REMARK SMILES IDX 20 12 8 13 7 14 6 15 5 16 4 17 3 18 2 19 1 20
REMARK H PARENT
REMARK Flexibility Score: inf
ROOT
ATOM      1  C   UNL     1       4.991  -6.598  12.700  1.00  0.00    -0.031 C 
ATOM      2  C   UNL     1       4.736  -5.523  11.934  1.00  0.00    -0.031 C 
ENDROOT
BRANCH   1   3
ATOM      3  C   UNL     1       6.374  -7.160  12.916  1.00  0.00     0.027 C 
BRANCH   3   4
ATOM      4  C   UNL     1       6.599  -7.515  14.394  1.00  0.00     0.004 C 
BRANCH   4   5
ATOM      5  C   UNL     1       5.347  -8.109  15.061  1.00  0.00     0.000 C 
BRANCH   5   6
ATOM      6  C   UNL     1       5.511  -8.272  16.581  1.00  0.00     0.000 C 
BRANCH   6   7
ATOM      7  C   UNL     1       6.656  -7.418  17.151  1.00  0.00     0.000 C 
BRANCH   7   8
ATOM      8  C   UNL     1       6.616  -7.311  18.683  1.00  0.00     0.006 C 
BRANCH   8   9
ATOM      9  C   UNL     1       5.409  -6.489  19.145  1.00  0.00     0.053 C 
BRANCH   9  10
ATOM     10  C   UNL     1       5.835  -5.370  20.047  1.00  0.00     0.041 C 
ATOM     11  O   UNL     1       6.221  -5.617  21.221  1.00  0.00    -0.550 OA
ATOM     12  O   UNL     1       5.786  -4.053  19.601  1.00  0.00    -0.550 OA
ENDBRANCH   9  10
ENDBRANCH   8   9
ENDBRANCH   7   8
ENDBRANCH   6   7
ENDBRANCH   5   6
ENDBRANCH   4   5
ENDBRANCH   3   4
ENDBRANCH   1   3
BRANCH   2  13
ATOM     13  C   UNL     1       5.799  -4.695  11.250  1.00  0.00     0.027 C 
BRANCH  13  14
ATOM     14  C   UNL     1       5.923  -3.296  11.874  1.00  0.00     0.004 C 
BRANCH  14  15
ATOM     15  C   UNL     1       7.108  -3.209  12.852  1.00  0.00     0.000 C 
BRANCH  15  16
ATOM     16  C   UNL     1       6.666  -2.906  14.293  1.00  0.00     0.000 C 
BRANCH  16  17
ATOM     17  C   UNL     1       6.780  -4.131  15.217  1.00  0.00    -0.000 C 
BRANCH  17  18
ATOM     18  C   UNL     1       5.559  -4.291  16.136  1.00  0.00    -0.000 C 
BRANCH  18  19
ATOM     19  C   UNL     1       4.228  -4.078  15.398  1.00  0.00    -0.003 C 
ATOM     20  C   UNL     1       3.254  -5.218  15.681  1.00  0.00     0.004 C 
ENDBRANCH  18  19
ENDBRANCH  17  18
ENDBRANCH  16  17
ENDBRANCH  15  16
ENDBRANCH  14  15
ENDBRANCH  13  14
ENDBRANCH   2  13
TORSDOF 15
ENDMDL
MODEL 5
REMARK VINA RESULT:    -4.242      2.134      6.864
REMARK INTER + INTRA:          -9.966
REMARK INTER:                  -8.529
REMARK INTRA:                  -1.437
REMARK UNBOUND:                -2.003
REMARK SMILES CCCCCCCCC=CCCCCCCCC(=O)[O-]
REMARK SMILES IDX 10 1 9 2 11 3 12 4 13 5 14 6 15 7 16 8 17 9 18 10 19 11
REMARK SMILES IDX 20 12 8 13 7 14 6 15 5 16 4 17 3 18 2 19 1 20
REMARK H PARENT
REMARK Flexibility Score: inf
ROOT
ATOM      1  C   UNL     1       5.857  -6.554  15.843  1.00  0.00    -0.031 C 
ATOM      2  C   UNL     1       6.088  -6.483  17.165  1.00  0.00    -0.031 C 
ENDROOT
BRANCH   1   3
ATOM      3  C   UNL     1       6.608  -7.473  14.912  1.00  0.00     0.027 C 
BRANCH   3   4
ATOM      4  C   UNL     1       6.153  -7.277  13.458  1.00  0.00     0.004 C 
BRANCH   4   5
ATOM      5  C   UNL     1       5.594  -5.870  13.194  1.00  0.00     0.000 C 
BRANCH   5   6
ATOM      6  C   UNL     1       6.305  -5.163  12.028  1.00  0.00     0.000 C 
BRANCH   6   7
ATOM      7  C   UNL     1       6.905  -3.805  12.431  1.00  0.00     0.000 C 
BRANCH   7   8
ATOM      8  C   UNL     1       6.487  -3.363  13.841  1.00  0.00     0.006 C 
BRANCH   8   9
ATOM      9  C   UNL     1       5.804  -1.991  13.807  1.00  0.00     0.053 C 
BRANCH   9  10
ATOM     10  C   UNL     1       4.398  -2.079  14.318  1.00  0.00     0.041 C 
ATOM     11  O   UNL     1       4.098  -2.929  15.199  1.00  0.00    -0.550 OA
ATOM     12  O   UNL     1       3.413  -1.239  13.808  1.00  0.00    -0.550 OA
ENDBRANCH   9  10
ENDBRANCH   8   9
ENDBRANCH   7   8
ENDBRANCH   6   7
ENDBRANCH   5   6
ENDBRANCH   4   5
ENDBRANCH   3   4
ENDBRANCH   1   3
BRANCH   2  13
ATOM     13  C   UNL     1       7.072  -7.358  17.905  1.00  0.00     0.027 C 
BRANCH  13  14
ATOM     14  C   UNL     1       6.949  -7.195  19.429  1.00  0.00     0.004 C 
BRANCH  14  15
ATOM     15  C   UNL     1       5.479  -7.116  19.878  1.00  0.00     0.000 C 
BRANCH  15  16
ATOM     16  C   UNL     1       5.149  -5.795  20.594  1.00  0.00     0.000 C 
BRANCH  16  17
ATOM     17  C   UNL     1       6.310  -4.786  20.538  1.00  0.00    -0.000 C 
BRANCH  17  18
ATOM     18  C   UNL     1       7.040  -4.652  21.883  1.00  0.00    -0.000 C 
BRANCH  18  19
ATOM     19  C   UNL     1       6.216  -5.189  23.063  1.00  0.00    -0.003 C 
ATOM     20  C   UNL     1       6.626  -4.519  24.371  1.00  0.00     0.004 C 
ENDBRANCH  18  19
ENDBRANCH  17  18
ENDBRANCH  16  17
ENDBRANCH  15  16
ENDBRANCH  14  15
ENDBRANCH  13  14
ENDBRANCH   2  13
TORSDOF 15
ENDMDL
MODEL 6
REMARK VINA RESULT:    -4.232      1.777      3.668
REMARK INTER + INTRA:          -9.946
REMARK INTER:                  -6.742
REMARK INTRA:                  -3.203
REMARK UNBOUND:                -2.003
REMARK SMILES CCCCCCCCC=CCCCCCCCC(=O)[O-]
REMARK SMILES IDX 10 1 9 2 11 3 12 4 13 5 14 6 15 7 16 8 17 9 18 10 19 11
REMARK SMILES IDX 20 12 8 13 7 14 6 15 5 16 4 17 3 18 2 19 1 20
REMARK H PARENT
REMARK Flexibility Score: inf
ROOT
ATOM      1  C   UNL     1       4.725  -4.585  11.628  1.00  0.00    -0.031 C 
ATOM      2  C   UNL     1       5.411  -3.499  12.023  1.00  0.00    -0.031 C 
ENDROOT
BRANCH   1   3
ATOM      3  C   UNL     1       5.333  -5.960  11.509  1.00  0.00     0.027 C 
BRANCH   3   4
ATOM      4  C   UNL     1       5.171  -6.749  12.816  1.00  0.00     0.004 C 
BRANCH   4   5
ATOM      5  C   UNL     1       6.409  -7.593  13.160  1.00  0.00     0.000 C 
BRANCH   5   6
ATOM      6  C   UNL     1       6.553  -7.840  14.671  1.00  0.00     0.000 C 
BRANCH   6   7
ATOM      7  C   UNL     1       5.225  -8.237  15.339  1.00  0.00     0.000 C 
BRANCH   7   8
ATOM      8  C   UNL     1       5.304  -8.235  16.872  1.00  0.00     0.006 C 
BRANCH   8   9
ATOM      9  C   UNL     1       6.480  -7.383  17.362  1.00  0.00     0.053 C 
BRANCH   9  10
ATOM     10  C   UNL     1       6.278  -6.957  18.785  1.00  0.00     0.041 C 
ATOM     11  O   UNL     1       5.623  -5.912  19.045  1.00  0.00    -0.550 OA
ATOM     12  O   UNL     1       6.830  -7.700  19.823  1.00  0.00    -0.550 OA
ENDBRANCH   9  10
ENDBRANCH   8   9
ENDBRANCH   7   8
ENDBRANCH   6   7
ENDBRANCH   5   6
ENDBRANCH   4   5
ENDBRANCH   3   4
ENDBRANCH   1   3
BRANCH   2  13
ATOM     13  C   UNL     1       6.855  -3.521  12.467  1.00  0.00     0.027 C 
BRANCH  13  14
ATOM     14  C   UNL     1       7.009  -3.091  13.935  1.00  0.00     0.004 C 
BRANCH  14  15
ATOM     15  C   UNL     1       6.819  -4.274  14.900  1.00  0.00     0.000 C 
BRANCH  15  16
ATOM     16  C   UNL     1       5.782  -3.983  15.998  1.00  0.00     0.000 C 
BRANCH  16  17
ATOM     17  C   UNL     1       4.444  -4.703  15.754  1.00  0.00    -0.000 C 
BRANCH  17  18
ATOM     18  C   UNL     1       3.440  -3.835  14.980  1.00  0.00    -0.000 C 
BRANCH  18  19
ATOM     19  C   UNL     1       3.412  -2.379  15.469  1.00  0.00    -0.003 C 
ATOM     20  C   UNL     1       3.571  -1.405  14.305  1.00  0.00     0.004 C 
ENDBRANCH  18  19
ENDBRANCH  17  18
ENDBRANCH  16  17
ENDBRANCH  15  16
ENDBRANCH  14  15
ENDBRANCH  13  14
ENDBRANCH   2  13
TORSDOF 15
ENDMDL
MODEL 7
REMARK VINA RESULT:    -4.194     15.309     17.515
REMARK INTER + INTRA:          -9.875
REMARK INTER:                  -7.244
REMARK INTRA:                  -2.631
REMARK UNBOUND:                -2.003
REMARK SMILES CCCCCCCCC=CCCCCCCCC(=O)[O-]
REMARK SMILES IDX 10 1 9 2 11 3 12 4 13 5 14 6 15 7 16 8 17 9 18 10 19 11
REMARK SMILES IDX 20 12 8 13 7 14 6 15 5 16 4 17 3 18 2 19 1 20
REMARK H PARENT
REMARK Flexibility Score: inf
ROOT
ATOM      1  C   UNL     1     -11.232  -5.650  10.978  1.00  0.00    -0.031 C 
ATOM      2  C   UNL     1     -10.976  -6.832  10.391  1.00  0.00    -0.031 C 
ENDROOT
BRANCH   1   3
ATOM      3  C   UNL     1     -12.585  -4.983  10.956  1.00  0.00     0.027 C 
BRANCH   3   4
ATOM      4  C   UNL     1     -12.994  -4.521  12.362  1.00  0.00     0.004 C 
BRANCH   4   5
ATOM      5  C   UNL     1     -11.985  -4.940  13.444  1.00  0.00     0.000 C 
BRANCH   5   6
ATOM      6  C   UNL     1     -11.853  -3.894  14.564  1.00  0.00     0.000 C 
BRANCH   6   7
ATOM      7  C   UNL     1     -10.900  -4.339  15.686  1.00  0.00     0.000 C 
BRANCH   7   8
ATOM      8  C   UNL     1      -9.515  -3.685  15.587  1.00  0.00     0.006 C 
BRANCH   8   9
ATOM      9  C   UNL     1      -9.611  -2.281  14.981  1.00  0.00     0.053 C 
BRANCH   9  10
ATOM     10  C   UNL     1      -8.284  -1.585  15.024  1.00  0.00     0.041 C 
ATOM     11  O   UNL     1      -7.257  -2.155  14.569  1.00  0.00    -0.550 OA
ATOM     12  O   UNL     1      -8.176  -0.317  15.586  1.00  0.00    -0.550 OA
ENDBRANCH   9  10
ENDBRANCH   8   9
ENDBRANCH   7   8
ENDBRANCH   6   7
ENDBRANCH   5   6
ENDBRANCH   4   5
ENDBRANCH   3   4
ENDBRANCH   1   3
BRANCH   2  13
ATOM     13  C   UNL     1     -12.015  -7.680   9.696  1.00  0.00     0.027 C 
BRANCH  13  14
ATOM     14  C   UNL     1     -12.869  -8.474  10.699  1.00  0.00     0.004 C 
BRANCH  14  15
ATOM     15  C   UNL     1     -12.030  -8.987  11.883  1.00  0.00     0.000 C 
BRANCH  15  16
ATOM     16  C   UNL     1     -12.669  -8.666  13.244  1.00  0.00     0.000 C 
BRANCH  16  17
ATOM     17  C   UNL     1     -11.634  -8.229  14.296  1.00  0.00    -0.000 C 
BRANCH  17  18
ATOM     18  C   UNL     1     -10.188  -8.441  13.822  1.00  0.00    -0.000 C 
BRANCH  18  19
ATOM     19  C   UNL     1      -9.203  -7.443  14.452  1.00  0.00    -0.003 C 
ATOM     20  C   UNL     1      -8.573  -6.548  13.389  1.00  0.00     0.004 C 
ENDBRANCH  18  19
ENDBRANCH  17  18
ENDBRANCH  16  17
ENDBRANCH  15  16
ENDBRANCH  14  15
ENDBRANCH  13  14
ENDBRANCH   2  13
TORSDOF 15
ENDMDL
MODEL 8
REMARK VINA RESULT:    -4.117      2.673      6.174
REMARK INTER + INTRA:          -9.730
REMARK INTER:                  -6.820
REMARK INTRA:                  -2.910
REMARK UNBOUND:                -2.003
REMARK SMILES CCCCCCCCC=CCCCCCCCC(=O)[O-]
REMARK SMILES IDX 10 1 9 2 11 3 12 4 13 5 14 6 15 7 16 8 17 9 18 10 19 11
REMARK SMILES IDX 20 12 8 13 7 14 6 15 5 16 4 17 3 18 2 19 1 20
REMARK H PARENT
REMARK Flexibility Score: inf
ROOT
ATOM      1  C   UNL     1       5.863  -6.934  20.346  1.00  0.00    -0.031 C 
ATOM      2  C   UNL     1       5.712  -5.763  20.990  1.00  0.00    -0.031 C 
ENDROOT
BRANCH   1   3
ATOM      3  C   UNL     1       7.089  -7.295  19.545  1.00  0.00     0.027 C 
BRANCH   3   4
ATOM      4  C   UNL     1       6.776  -7.323  18.042  1.00  0.00     0.004 C 
BRANCH   4   5
ATOM      5  C   UNL     1       5.423  -7.983  17.727  1.00  0.00     0.000 C 
BRANCH   5   6
ATOM      6  C   UNL     1       5.126  -8.029  16.219  1.00  0.00     0.000 C 
BRANCH   6   7
ATOM      7  C   UNL     1       6.402  -8.105  15.363  1.00  0.00     0.000 C 
BRANCH   7   8
ATOM      8  C   UNL     1       6.448  -7.035  14.262  1.00  0.00     0.006 C 
BRANCH   8   9
ATOM      9  C   UNL     1       6.586  -5.633  14.864  1.00  0.00     0.053 C 
BRANCH   9  10
ATOM     10  C   UNL     1       6.010  -4.596  13.947  1.00  0.00     0.041 C 
ATOM     11  O   UNL     1       4.760  -4.485  13.826  1.00  0.00    -0.550 OA
ATOM     12  O   UNL     1       6.850  -3.767  13.211  1.00  0.00    -0.550 OA
ENDBRANCH   9  10
ENDBRANCH   8   9
ENDBRANCH   7   8
ENDBRANCH   6   7
ENDBRANCH   5   6
ENDBRANCH   4   5
ENDBRANCH   3   4
ENDBRANCH   1   3
BRANCH   2  13
ATOM     13  C   UNL     1       6.771  -4.688  21.059  1.00  0.00     0.027 C 
BRANCH  13  14
ATOM     14  C   UNL     1       6.388  -3.454  20.226  1.00  0.00     0.004 C 
BRANCH  14  15
ATOM     15  C   UNL     1       5.033  -3.640  19.519  1.00  0.00     0.000 C 
BRANCH  15  16
ATOM     16  C   UNL     1       5.185  -3.948  18.020  1.00  0.00     0.000 C 
BRANCH  16  17
ATOM     17  C   UNL     1       3.967  -4.691  17.442  1.00  0.00    -0.000 C 
BRANCH  17  18
ATOM     18  C   UNL     1       2.836  -4.857  18.469  1.00  0.00    -0.000 C 
BRANCH  18  19
ATOM     19  C   UNL     1       2.422  -6.323  18.666  1.00  0.00    -0.003 C 
ATOM     20  C   UNL     1       2.142  -6.623  20.136  1.00  0.00     0.004 C 
ENDBRANCH  18  19
ENDBRANCH  17  18
ENDBRANCH  16  17
ENDBRANCH  15  16
ENDBRANCH  14  15
ENDBRANCH  13  14
ENDBRANCH   2  13
TORSDOF 15
ENDMDL
MODEL 9
REMARK VINA RESULT:    -4.111      2.004      4.273
REMARK INTER + INTRA:          -9.719
REMARK INTER:                  -6.767
REMARK INTRA:                  -2.952
REMARK UNBOUND:                -2.003
REMARK SMILES CCCCCCCCC=CCCCCCCCC(=O)[O-]
REMARK SMILES IDX 10 1 9 2 11 3 12 4 13 5 14 6 15 7 16 8 17 9 18 10 19 11
REMARK SMILES IDX 20 12 8 13 7 14 6 15 5 16 4 17 3 18 2 19 1 20
REMARK H PARENT
REMARK Flexibility Score: inf
ROOT
ATOM      1  C   UNL     1       3.372  -4.736  14.531  1.00  0.00    -0.031 C 
ATOM      2  C   UNL     1       4.215  -3.917  15.183  1.00  0.00    -0.031 C 
ENDROOT
BRANCH   1   3
ATOM      3  C   UNL     1       3.624  -6.211  14.337  1.00  0.00     0.027 C 
BRANCH   3   4
ATOM      4  C   UNL     1       4.112  -6.503  12.910  1.00  0.00     0.004 C 
BRANCH   4   5
ATOM      5  C   UNL     1       5.572  -6.982  12.866  1.00  0.00     0.000 C 
BRANCH   5   6
ATOM      6  C   UNL     1       5.830  -8.173  13.805  1.00  0.00     0.000 C 
BRANCH   6   7
ATOM      7  C   UNL     1       6.739  -7.810  14.991  1.00  0.00     0.000 C 
BRANCH   7   8
ATOM      8  C   UNL     1       6.069  -8.049  16.352  1.00  0.00     0.006 C 
BRANCH   8   9
ATOM      9  C   UNL     1       6.834  -7.339  17.474  1.00  0.00     0.053 C 
BRANCH   9  10
ATOM     10  C   UNL     1       6.004  -7.253  18.719  1.00  0.00     0.041 C 
ATOM     11  O   UNL     1       6.397  -7.808  19.780  1.00  0.00    -0.550 OA
ATOM     12  O   UNL     1       4.786  -6.580  18.704  1.00  0.00    -0.550 OA
ENDBRANCH   9  10
ENDBRANCH   8   9
ENDBRANCH   7   8
ENDBRANCH   6   7
ENDBRANCH   5   6
ENDBRANCH   4   5
ENDBRANCH   3   4
ENDBRANCH   1   3
BRANCH   2  13
ATOM     13  C   UNL     1       5.484  -4.369  15.865  1.00  0.00     0.027 C 
BRANCH  13  14
ATOM     14  C   UNL     1       6.723  -4.123  14.990  1.00  0.00     0.004 C 
BRANCH  14  15
ATOM     15  C   UNL     1       6.490  -2.988  13.976  1.00  0.00     0.000 C 
BRANCH  15  16
ATOM     16  C   UNL     1       6.721  -3.436  12.523  1.00  0.00     0.000 C 
BRANCH  16  17
ATOM     17  C   UNL     1       5.451  -3.325  11.661  1.00  0.00    -0.000 C 
BRANCH  17  18
ATOM     18  C   UNL     1       5.640  -3.915  10.255  1.00  0.00    -0.000 C 
BRANCH  18  19
ATOM     19  C   UNL     1       6.916  -4.762  10.133  1.00  0.00    -0.003 C 
ATOM     20  C   UNL     1       6.649  -6.048   9.354  1.00  0.00     0.004 C 
ENDBRANCH  18  19
ENDBRANCH  17  18
ENDBRANCH  16  17
ENDBRANCH  15  16
ENDBRANCH  14  15
ENDBRANCH  13  14
ENDBRANCH   2  13
TORSDOF 15
ENDMDL
