MODEL 1
REMARK VINA RESULT:    -4.701      0.000      0.000
REMARK INTER + INTRA:         -10.025
REMARK INTER:                  -7.999
REMARK INTRA:                  -2.026
REMARK UNBOUND:                -2.026
REMARK SMILES CCCCCCCCCCCCCC(=O)[O-]
REMARK SMILES IDX 8 1 9 2 10 3 11 4 12 5 13 6 14 7 15 8 16 9 7 10 6 11 5 12
REMARK SMILES IDX 4 13 3 14 2 15 1 16
REMARK H PARENT
REMARK Flexibility Score: inf
ROOT
ATOM      1  C   UNL     1       4.375   2.006  13.260  1.00  0.00     0.000 C 
ENDROOT
BRANCH   1   2
ATOM      2  C   UNL     1       4.106   3.346  13.961  1.00  0.00     0.000 C 
BRANCH   2   3
ATOM      3  C   UNL     1       4.347   3.278  15.479  1.00  0.00     0.000 C 
BRANCH   3   4
ATOM      4  C   UNL     1       3.590   2.118  16.147  1.00  0.00     0.000 C 
BRANCH   4   5
ATOM      5  C   UNL     1       4.178   1.736  17.516  1.00  0.00     0.006 C 
BRANCH   5   6
ATOM      6  C   UNL     1       5.332   0.733  17.390  1.00  0.00     0.053 C 
BRANCH   6   7
ATOM      7  C   UNL     1       5.387  -0.207  18.556  1.00  0.00     0.041 C 
ATOM      8  O   UNL     1       4.731   0.043  19.601  1.00  0.00    -0.550 OA
ATOM      9  O   UNL     1       6.187  -1.341  18.499  1.00  0.00    -0.550 OA
ENDBRANCH   6   7
ENDBRANCH   5   6
ENDBRANCH   4   5
ENDBRANCH   3   4
ENDBRANCH   2   3
ENDBRANCH   1   2
BRANCH   1  10
ATOM     10  C   UNL     1       5.838   1.547  13.390  1.00  0.00     0.000 C 
BRANCH  10  11
ATOM     11  C   UNL     1       5.950   0.043  13.721  1.00  0.00    -0.000 C 
BRANCH  11  12
ATOM     12  C   UNL     1       4.611  -0.710  13.624  1.00  0.00    -0.000 C 
BRANCH  12  13
ATOM     13  C   UNL     1       4.359  -1.639  14.818  1.00  0.00    -0.000 C 
BRANCH  13  14
ATOM     14  C   UNL     1       2.939  -1.449  15.372  1.00  0.00    -0.000 C 
BRANCH  14  15
ATOM     15  C   UNL     1       1.960  -0.915  14.316  1.00  0.00    -0.003 C 
ATOM     16  C   UNL     1       0.876  -0.019  14.913  1.00  0.00     0.004 C 
ENDBRANCH  14  15
ENDBRANCH  13  14
ENDBRANCH  12  13
ENDBRANCH  11  12
ENDBRANCH  10  11
ENDBRANCH   1  10
TORSDOF 12
ENDMDL
MODEL 2
REMARK VINA RESULT:    -4.670      2.218      4.548
REMARK INTER + INTRA:          -9.972
REMARK INTER:                  -7.912
REMARK INTRA:                  -2.059
REMARK UNBOUND:                -2.026
REMARK SMILES CCCCCCCCCCCCCC(=O)[O-]
REMARK SMILES IDX 8 1 9 2 10 3 11 4 12 5 13 6 14 7 15 8 16 9 7 10 6 11 5 12
REMARK SMILES IDX 4 13 3 14 2 15 1 16
REMARK H PARENT
REMARK Flexibility Score: inf
ROOT
ATOM      1  C   UNL     1       5.551   1.541  13.263  1.00  0.00     0.000 C 
ENDROOT
BRANCH   1   2
ATOM      2  C   UNL     1       5.499   0.046  12.914  1.00  0.00     0.000 C 
BRANCH   2   3
ATOM      3  C   UNL     1       6.268  -0.824  13.923  1.00  0.00     0.000 C 
BRANCH   3   4
ATOM      4  C   UNL     1       5.335  -1.645  14.827  1.00  0.00     0.000 C 
BRANCH   4   5
ATOM      5  C   UNL     1       3.864  -1.580  14.378  1.00  0.00     0.006 C 
BRANCH   5   6
ATOM      6  C   UNL     1       2.913  -1.305  15.550  1.00  0.00     0.053 C 
BRANCH   6   7
ATOM      7  C   UNL     1       1.794  -0.389  15.160  1.00  0.00     0.041 C 
ATOM      8  O   UNL     1       1.201  -0.547  14.060  1.00  0.00    -0.550 OA
ATOM      9  O   UNL     1       1.427   0.657  15.996  1.00  0.00    -0.550 OA
ENDBRANCH   6   7
ENDBRANCH   5   6
ENDBRANCH   4   5
ENDBRANCH   3   4
ENDBRANCH   2   3
ENDBRANCH   1   2
BRANCH   1  10
ATOM     10  C   UNL     1       4.203   2.082  13.775  1.00  0.00     0.000 C 
BRANCH  10  11
ATOM     11  C   UNL     1       4.328   2.733  15.170  1.00  0.00    -0.000 C 
BRANCH  11  12
ATOM     12  C   UNL     1       4.936   1.800  16.232  1.00  0.00    -0.000 C 
BRANCH  12  13
ATOM     13  C   UNL     1       4.207   1.872  17.580  1.00  0.00    -0.000 C 
BRANCH  13  14
ATOM     14  C   UNL     1       4.736   0.804  18.548  1.00  0.00    -0.000 C 
BRANCH  14  15
ATOM     15  C   UNL     1       5.920   0.015  17.967  1.00  0.00    -0.003 C 
ATOM     16  C   UNL     1       6.039  -1.391  18.555  1.00  0.00     0.004 C 
ENDBRANCH  14  15
ENDBRANCH  13  14
ENDBRANCH  12  13
ENDBRANCH  11  12
ENDBRANCH  10  11
ENDBRANCH   1  10
TORSDOF 12
ENDMDL
MODEL 3
REMARK VINA RESULT:    -4.506      1.147      2.651
REMARK INTER + INTRA:          -9.693
REMARK INTER:                  -7.822
REMARK INTRA:                  -1.871
REMARK UNBOUND:                -2.026
REMARK SMILES CCCCCCCCCCCCCC(=O)[O-]
REMARK SMILES IDX 8 1 9 2 10 3 11 4 12 5 13 6 14 7 15 8 16 9 7 10 6 11 5 12
REMARK SMILES IDX 4 13 3 14 2 15 1 16
REMARK H PARENT
REMARK Flexibility Score: inf
ROOT
ATOM      1  C   UNL     1       4.933   1.791  12.883  1.00  0.00     0.000 C 
ENDROOT
BRANCH   1   2
ATOM      2  C   UNL     1       6.223   1.056  13.275  1.00  0.00     0.000 C 
BRANCH   2   3
ATOM      3  C   UNL     1       6.241   0.640  14.756  1.00  0.00     0.000 C 
BRANCH   3   4
ATOM      4  C   UNL     1       5.989  -0.864  14.951  1.00  0.00     0.000 C 
BRANCH   4   5
ATOM      5  C   UNL     1       5.501  -1.206  16.370  1.00  0.00     0.006 C 
BRANCH   5   6
ATOM      6  C   UNL     1       5.737  -0.053  17.355  1.00  0.00     0.053 C 
BRANCH   6   7
ATOM      7  C   UNL     1       5.597  -0.498  18.779  1.00  0.00     0.041 C 
ATOM      8  O   UNL     1       4.666  -0.045  19.496  1.00  0.00    -0.550 OA
ATOM      9  O   UNL     1       6.514  -1.388  19.324  1.00  0.00    -0.550 OA
ENDBRANCH   6   7
ENDBRANCH   5   6
ENDBRANCH   4   5
ENDBRANCH   3   4
ENDBRANCH   2   3
ENDBRANCH   1   2
BRANCH   1  10
ATOM     10  C   UNL     1       4.756   3.126  13.629  1.00  0.00     0.000 C 
BRANCH  10  11
ATOM     11  C   UNL     1       3.437   3.175  14.430  1.00  0.00    -0.000 C 
BRANCH  11  12
ATOM     12  C   UNL     1       3.565   2.622  15.861  1.00  0.00    -0.000 C 
BRANCH  12  13
ATOM     13  C   UNL     1       2.776   1.324  16.074  1.00  0.00    -0.000 C 
BRANCH  13  14
ATOM     14  C   UNL     1       2.026   0.921  14.795  1.00  0.00    -0.000 C 
BRANCH  14  15
ATOM     15  C   UNL     1       2.458  -0.456  14.266  1.00  0.00    -0.003 C 
ATOM     16  C   UNL     1       1.812  -1.611  15.030  1.00  0.00     0.004 C 
ENDBRANCH  14  15
ENDBRANCH  13  14
ENDBRANCH  12  13
ENDBRANCH  11  12
ENDBRANCH  10  11
ENDBRANCH   1  10
TORSDOF 12
ENDMDL
MODEL 4
REMARK VINA RESULT:    -4.443      0.898      2.843
REMARK INTER + INTRA:          -9.586
REMARK INTER:                  -7.498
REMARK INTRA:                  -2.088
REMARK UNBOUND:                -2.026
REMARK SMILES CCCCCCCCCCCCCC(=O)[O-]
REMARK SMILES IDX 8 1 9 2 10 3 11 4 12 5 13 6 14 7 15 8 16 9 7 10 6 11 5 12
REMARK SMILES IDX 4 13 3 14 2 15 1 16
REMARK H PARENT
REMARK Flexibility Score: inf
ROOT
ATOM      1  C   UNL     1       2.136   1.269  15.589  1.00  0.00     0.000 C 
ENDROOT
BRANCH   1   2
ATOM      2  C   UNL     1       2.919   2.459  15.013  1.00  0.00     0.000 C 
BRANCH   2   3
ATOM      3  C   UNL     1       4.157   2.815  15.853  1.00  0.00     0.000 C 
BRANCH   3   4
ATOM      4  C   UNL     1       4.328   1.895  17.073  1.00  0.00     0.000 C 
BRANCH   4   5
ATOM      5  C   UNL     1       5.606   1.041  16.999  1.00  0.00     0.006 C 
BRANCH   5   6
ATOM      6  C   UNL     1       5.343  -0.425  17.369  1.00  0.00     0.053 C 
BRANCH   6   7
ATOM      7  C   UNL     1       5.516  -0.671  18.837  1.00  0.00     0.041 C 
ATOM      8  O   UNL     1       4.684  -0.205  19.659  1.00  0.00    -0.550 OA
ATOM      9  O   UNL     1       6.614  -1.386  19.298  1.00  0.00    -0.550 OA
ENDBRANCH   6   7
ENDBRANCH   5   6
ENDBRANCH   4   5
ENDBRANCH   3   4
ENDBRANCH   2   3
ENDBRANCH   1   2
BRANCH   1  10
ATOM     10  C   UNL     1       2.011   0.100  14.596  1.00  0.00     0.000 C 
BRANCH  10  11
ATOM     11  C   UNL     1       2.668  -1.191  15.131  1.00  0.00    -0.000 C 
BRANCH  11  12
ATOM     12  C   UNL     1       3.794  -1.728  14.230  1.00  0.00    -0.000 C 
BRANCH  12  13
ATOM     13  C   UNL     1       4.512  -0.623  13.446  1.00  0.00    -0.000 C 
BRANCH  13  14
ATOM     14  C   UNL     1       6.033  -0.708  13.645  1.00  0.00    -0.000 C 
BRANCH  14  15
ATOM     15  C   UNL     1       6.732   0.645  13.440  1.00  0.00    -0.003 C 
ATOM     16  C   UNL     1       5.795   1.716  12.882  1.00  0.00     0.004 C 
ENDBRANCH  14  15
ENDBRANCH  13  14
ENDBRANCH  12  13
ENDBRANCH  11  12
ENDBRANCH  10  11
ENDBRANCH   1  10
TORSDOF 12
ENDMDL
MODEL 5
REMARK VINA RESULT:    -4.441      2.081      4.386
REMARK INTER + INTRA:          -9.581
REMARK INTER:                  -7.774
REMARK INTRA:                  -1.807
REMARK UNBOUND:                -2.026
REMARK SMILES CCCCCCCCCCCCCC(=O)[O-]
REMARK SMILES IDX 8 1 9 2 10 3 11 4 12 5 13 6 14 7 15 8 16 9 7 10 6 11 5 12
REMARK SMILES IDX 4 13 3 14 2 15 1 16
REMARK H PARENT
REMARK Flexibility Score: inf
ROOT
ATOM      1  C   UNL     1       4.347   3.337  14.836  1.00  0.00     0.000 C 
ENDROOT
BRANCH   1   2
ATOM      2  C   UNL     1       4.760   3.136  13.370  1.00  0.00     0.000 C 
BRANCH   2   3
ATOM      3  C   UNL     1       4.791   1.653  12.961  1.00  0.00     0.000 C 
BRANCH   3   4
ATOM      4  C   UNL     1       5.696   0.809  13.873  1.00  0.00     0.000 C 
BRANCH   4   5
ATOM      5  C   UNL     1       4.999  -0.462  14.389  1.00  0.00     0.006 C 
BRANCH   5   6
ATOM      6  C   UNL     1       3.637  -0.687  13.719  1.00  0.00     0.053 C 
BRANCH   6   7
ATOM      7  C   UNL     1       2.619  -1.213  14.684  1.00  0.00     0.041 C 
ATOM      8  O   UNL     1       1.418  -1.344  14.329  1.00  0.00    -0.550 OA
ATOM      9  O   UNL     1       2.990  -1.529  15.985  1.00  0.00    -0.550 OA
ENDBRANCH   6   7
ENDBRANCH   5   6
ENDBRANCH   4   5
ENDBRANCH   3   4
ENDBRANCH   2   3
ENDBRANCH   1   2
BRANCH   1  10
ATOM     10  C   UNL     1       2.933   2.809  15.135  1.00  0.00     0.000 C 
BRANCH  10  11
ATOM     11  C   UNL     1       2.898   1.919  16.397  1.00  0.00    -0.000 C 
BRANCH  11  12
ATOM     12  C   UNL     1       4.249   1.837  17.129  1.00  0.00    -0.000 C 
BRANCH  12  13
ATOM     13  C   UNL     1       4.098   1.686  18.648  1.00  0.00    -0.000 C 
BRANCH  13  14
ATOM     14  C   UNL     1       4.911   0.489  19.165  1.00  0.00    -0.000 C 
BRANCH  14  15
ATOM     15  C   UNL     1       5.856  -0.087  18.098  1.00  0.00    -0.003 C 
ATOM     16  C   UNL     1       5.878  -1.615  18.092  1.00  0.00     0.004 C 
ENDBRANCH  14  15
ENDBRANCH  13  14
ENDBRANCH  12  13
ENDBRANCH  11  12
ENDBRANCH  10  11
ENDBRANCH   1  10
TORSDOF 12
ENDMDL
MODEL 6
REMARK VINA RESULT:    -4.422      1.193      3.670
REMARK INTER + INTRA:          -9.550
REMARK INTER:                  -7.534
REMARK INTRA:                  -2.016
REMARK UNBOUND:                -2.026
REMARK SMILES CCCCCCCCCCCCCC(=O)[O-]
REMARK SMILES IDX 8 1 9 2 10 3 11 4 12 5 13 6 14 7 15 8 16 9 7 10 6 11 5 12
REMARK SMILES IDX 4 13 3 14 2 15 1 16
REMARK H PARENT
REMARK Flexibility Score: inf
ROOT
ATOM      1  C   UNL     1       3.668   0.032  13.220  1.00  0.00     0.000 C 
ENDROOT
BRANCH   1   2
ATOM      2  C   UNL     1       5.154  -0.306  13.025  1.00  0.00     0.000 C 
BRANCH   2   3
ATOM      3  C   UNL     1       5.958  -0.216  14.333  1.00  0.00     0.000 C 
BRANCH   3   4
ATOM      4  C   UNL     1       6.365  -1.597  14.873  1.00  0.00     0.000 C 
BRANCH   4   5
ATOM      5  C   UNL     1       5.874  -1.840  16.311  1.00  0.00     0.006 C 
BRANCH   5   6
ATOM      6  C   UNL     1       5.753  -0.535  17.109  1.00  0.00     0.053 C 
BRANCH   6   7
ATOM      7  C   UNL     1       5.690  -0.786  18.585  1.00  0.00     0.041 C 
ATOM      8  O   UNL     1       6.460  -1.628  19.118  1.00  0.00    -0.550 OA
ATOM      9  O   UNL     1       4.759  -0.113  19.366  1.00  0.00    -0.550 OA
ENDBRANCH   6   7
ENDBRANCH   5   6
ENDBRANCH   4   5
ENDBRANCH   3   4
ENDBRANCH   2   3
ENDBRANCH   1   2
BRANCH   1  10
ATOM     10  C   UNL     1       2.917  -1.034  14.037  1.00  0.00     0.000 C 
BRANCH  10  11
ATOM     11  C   UNL     1       2.458  -0.499  15.411  1.00  0.00    -0.000 C 
BRANCH  11  12
ATOM     12  C   UNL     1       2.160   1.011  15.415  1.00  0.00    -0.000 C 
BRANCH  12  13
ATOM     13  C   UNL     1       2.974   1.779  16.463  1.00  0.00    -0.000 C 
BRANCH  13  14
ATOM     14  C   UNL     1       4.068   2.627  15.796  1.00  0.00    -0.000 C 
BRANCH  14  15
ATOM     15  C   UNL     1       3.516   3.536  14.687  1.00  0.00    -0.003 C 
ATOM     16  C   UNL     1       4.373   3.513  13.422  1.00  0.00     0.004 C 
ENDBRANCH  14  15
ENDBRANCH  13  14
ENDBRANCH  12  13
ENDBRANCH  11  12
ENDBRANCH  10  11
ENDBRANCH   1  10
TORSDOF 12
ENDMDL
MODEL 7
REMARK VINA RESULT:    -4.261      2.594      3.753
REMARK INTER + INTRA:          -9.276
REMARK INTER:                  -7.623
REMARK INTRA:                  -1.653
REMARK UNBOUND:                -2.026
REMARK SMILES CCCCCCCCCCCCCC(=O)[O-]
REMARK SMILES IDX 8 1 9 2 10 3 11 4 12 5 13 6 14 7 15 8 16 9 7 10 6 11 5 12
REMARK SMILES IDX 4 13 3 14 2 15 1 16
REMARK H PARENT
REMARK Flexibility Score: inf
ROOT
ATOM      1  C   UNL     1       5.209   3.072  12.942  1.00  0.00     0.000 C 
ENDROOT
BRANCH   1   2
ATOM      2  C   UNL     1       4.553   3.714  14.174  1.00  0.00     0.000 C 
BRANCH   2   3
ATOM      3  C   UNL     1       3.271   2.983  14.609  1.00  0.00     0.000 C 
BRANCH   3   4
ATOM      4  C   UNL     1       3.357   2.444  16.046  1.00  0.00     0.000 C 
BRANCH   4   5
ATOM      5  C   UNL     1       2.579   1.129  16.235  1.00  0.00     0.006 C 
BRANCH   5   6
ATOM      6  C   UNL     1       2.499   0.314  14.938  1.00  0.00     0.053 C 
BRANCH   6   7
ATOM      7  C   UNL     1       1.194  -0.411  14.812  1.00  0.00     0.041 C 
ATOM      8  O   UNL     1       0.118   0.165  15.120  1.00  0.00    -0.550 OA
ATOM      9  O   UNL     1       1.170  -1.733  14.386  1.00  0.00    -0.550 OA
ENDBRANCH   6   7
ENDBRANCH   5   6
ENDBRANCH   4   5
ENDBRANCH   3   4
ENDBRANCH   2   3
ENDBRANCH   1   2
BRANCH   1  10
ATOM     10  C   UNL     1       5.062   1.540  12.917  1.00  0.00     0.000 C 
BRANCH  10  11
ATOM     11  C   UNL     1       6.312   0.826  13.476  1.00  0.00    -0.000 C 
BRANCH  11  12
ATOM     12  C   UNL     1       6.195   0.455  14.965  1.00  0.00    -0.000 C 
BRANCH  12  13
ATOM     13  C   UNL     1       6.151  -1.060  15.203  1.00  0.00    -0.000 C 
BRANCH  13  14
ATOM     14  C   UNL     1       5.340  -1.395  16.464  1.00  0.00    -0.000 C 
BRANCH  14  15
ATOM     15  C   UNL     1       5.557  -0.375  17.593  1.00  0.00    -0.003 C 
ATOM     16  C   UNL     1       6.230  -0.986  18.821  1.00  0.00     0.004 C 
ENDBRANCH  14  15
ENDBRANCH  13  14
ENDBRANCH  12  13
ENDBRANCH  11  12
ENDBRANCH  10  11
ENDBRANCH   1  10
TORSDOF 12
ENDMDL
MODEL 8
REMARK VINA RESULT:    -4.226      1.576      2.610
REMARK INTER + INTRA:          -9.216
REMARK INTER:                  -7.532
REMARK INTRA:                  -1.684
REMARK UNBOUND:                -2.026
REMARK SMILES CCCCCCCCCCCCCC(=O)[O-]
REMARK SMILES IDX 8 1 9 2 10 3 11 4 12 5 13 6 14 7 15 8 16 9 7 10 6 11 5 12
REMARK SMILES IDX 4 13 3 14 2 15 1 16
REMARK H PARENT
REMARK Flexibility Score: inf
ROOT
ATOM      1  C   UNL     1       6.457   0.366  14.338  1.00  0.00     0.000 C 
ENDROOT
BRANCH   1   2
ATOM      2  C   UNL     1       5.714   1.095  13.207  1.00  0.00     0.000 C 
BRANCH   2   3
ATOM      3  C   UNL     1       5.397   2.560  13.556  1.00  0.00     0.000 C 
BRANCH   3   4
ATOM      4  C   UNL     1       3.887   2.828  13.660  1.00  0.00     0.000 C 
BRANCH   4   5
ATOM      5  C   UNL     1       3.458   3.262  15.073  1.00  0.00     0.006 C 
BRANCH   5   6
ATOM      6  C   UNL     1       4.370   2.679  16.159  1.00  0.00     0.053 C 
BRANCH   6   7
ATOM      7  C   UNL     1       3.591   1.959  17.217  1.00  0.00     0.041 C 
ATOM      8  O   UNL     1       4.163   1.567  18.269  1.00  0.00    -0.550 OA
ATOM      9  O   UNL     1       2.241   1.692  17.027  1.00  0.00    -0.550 OA
ENDBRANCH   6   7
ENDBRANCH   5   6
ENDBRANCH   4   5
ENDBRANCH   3   4
ENDBRANCH   2   3
ENDBRANCH   1   2
BRANCH   1  10
ATOM     10  C   UNL     1       6.602  -1.144  14.080  1.00  0.00     0.000 C 
BRANCH  10  11
ATOM     11  C   UNL     1       5.875  -1.990  15.148  1.00  0.00    -0.000 C 
BRANCH  11  12
ATOM     12  C   UNL     1       4.948  -1.166  16.059  1.00  0.00    -0.000 C 
BRANCH  12  13
ATOM     13  C   UNL     1       3.461  -1.456  15.817  1.00  0.00    -0.000 C 
BRANCH  13  14
ATOM     14  C   UNL     1       3.122  -1.374  14.321  1.00  0.00    -0.000 C 
BRANCH  14  15
ATOM     15  C   UNL     1       2.114  -0.257  14.005  1.00  0.00    -0.003 C 
ATOM     16  C   UNL     1       0.857  -0.332  14.870  1.00  0.00     0.004 C 
ENDBRANCH  14  15
ENDBRANCH  13  14
ENDBRANCH  12  13
ENDBRANCH  11  12
ENDBRANCH  10  11
ENDBRANCH   1  10
TORSDOF 12
ENDMDL
