MODEL 1
REMARK VINA RESULT:    -3.530      0.000      0.000
REMARK INTER + INTRA:         -13.323
REMARK INTER:                  -9.307
REMARK INTRA:                  -4.015
REMARK UNBOUND:                -4.015
REMARK SMILES CCCCCCCCCCCCCCCCCCCCCCCCCCCCCC(=O)[O-]
REMARK SMILES IDX 16 1 17 2 18 3 19 4 20 5 21 6 22 7 23 8 24 9 25 10 26 11
REMARK SMILES IDX 27 12 28 13 29 14 30 15 31 16 32 17 15 18 14 19 13 20 12 21
REMARK SMILES IDX 11 22 10 23 9 24 8 25 7 26 6 27 5 28 4 29 3 30 2 31 1 32
REMARK H PARENT
REMARK Flexibility Score: inf
ROOT
ATOM      1  C   UNL     1       2.242   4.650  16.644  1.00  0.00     0.000 C 
ENDROOT
BRANCH   1   2
ATOM      2  C   UNL     1       1.832   6.126  16.486  1.00  0.00     0.000 C 
BRANCH   2   3
ATOM      3  C   UNL     1       0.307   6.320  16.453  1.00  0.00     0.000 C 
BRANCH   3   4
ATOM      4  C   UNL     1      -0.232   6.623  15.042  1.00  0.00     0.000 C 
BRANCH   4   5
ATOM      5  C   UNL     1       0.648   7.551  14.185  1.00  0.00     0.000 C 
BRANCH   5   6
ATOM      6  C   UNL     1       1.116   6.897  12.874  1.00  0.00     0.000 C 
BRANCH   6   7
ATOM      7  C   UNL     1       0.951   5.368  12.888  1.00  0.00     0.000 C 
BRANCH   7   8
ATOM      8  C   UNL     1       2.021   4.650  12.046  1.00  0.00     0.000 C 
BRANCH   8   9
ATOM      9  C   UNL     1       1.557   4.384  10.605  1.00  0.00     0.000 C 
BRANCH   9  10
ATOM     10  C   UNL     1       2.019   3.015  10.077  1.00  0.00     0.000 C 
BRANCH  10  11
ATOM     11  C   UNL     1       2.564   2.113  11.206  1.00  0.00     0.000 C 
BRANCH  11  12
ATOM     12  C   UNL     1       2.849   0.670  10.756  1.00  0.00     0.000 C 
BRANCH  12  13
ATOM     13  C   UNL     1       1.654  -0.272  10.975  1.00  0.00     0.006 C 
BRANCH  13  14
ATOM     14  C   UNL     1       1.747  -1.034  12.303  1.00  0.00     0.053 C 
BRANCH  14  15
ATOM     15  C   UNL     1       2.971  -1.896  12.368  1.00  0.00     0.041 C 
ATOM     16  O   UNL     1       3.914  -1.601  13.149  1.00  0.00    -0.550 OA
ATOM     17  O   UNL     1       3.080  -3.014  11.549  1.00  0.00    -0.550 OA
ENDBRANCH  14  15
ENDBRANCH  13  14
ENDBRANCH  12  13
ENDBRANCH  11  12
ENDBRANCH  10  11
ENDBRANCH   9  10
ENDBRANCH   8   9
ENDBRANCH   7   8
ENDBRANCH   6   7
ENDBRANCH   5   6
ENDBRANCH   4   5
ENDBRANCH   3   4
ENDBRANCH   2   3
ENDBRANCH   1   2
BRANCH   1  18
ATOM     18  C   UNL     1       1.073   3.655  16.792  1.00  0.00     0.000 C 
BRANCH  18  19
ATOM     19  C   UNL     1       1.296   2.273  16.149  1.00  0.00     0.000 C 
BRANCH  19  20
ATOM     20  C   UNL     1       2.212   2.330  14.914  1.00  0.00     0.000 C 
BRANCH  20  21
ATOM     21  C   UNL     1       3.442   1.411  15.039  1.00  0.00     0.000 C 
BRANCH  21  22
ATOM     22  C   UNL     1       4.309   1.650  16.288  1.00  0.00     0.000 C 
BRANCH  22  23
ATOM     23  C   UNL     1       4.685   0.350  17.015  1.00  0.00     0.000 C 
BRANCH  23  24
ATOM     24  C   UNL     1       4.127   0.337  18.446  1.00  0.00    -0.000 C 
BRANCH  24  25
ATOM     25  C   UNL     1       3.738   1.737  18.956  1.00  0.00    -0.000 C 
BRANCH  25  26
ATOM     26  C   UNL     1       2.373   1.821  19.664  1.00  0.00    -0.000 C 
BRANCH  26  27
ATOM     27  C   UNL     1       1.632   0.474  19.704  1.00  0.00    -0.000 C 
BRANCH  27  28
ATOM     28  C   UNL     1       0.356   0.528  20.561  1.00  0.00    -0.000 C 
BRANCH  28  29
ATOM     29  C   UNL     1      -0.540  -0.709  20.376  1.00  0.00    -0.000 C 
BRANCH  29  30
ATOM     30  C   UNL     1      -1.121  -1.213  21.714  1.00  0.00    -0.000 C 
BRANCH  30  31
ATOM     31  C   UNL     1      -0.223  -2.237  22.429  1.00  0.00    -0.003 C 
ATOM     32  C   UNL     1       0.447  -1.674  23.681  1.00  0.00     0.004 C 
ENDBRANCH  30  31
ENDBRANCH  29  30
ENDBRANCH  28  29
ENDBRANCH  27  28
ENDBRANCH  26  27
ENDBRANCH  25  26
ENDBRANCH  24  25
ENDBRANCH  23  24
ENDBRANCH  22  23
ENDBRANCH  21  22
ENDBRANCH  20  21
ENDBRANCH  19  20
ENDBRANCH  18  19
ENDBRANCH   1  18
TORSDOF 28
ENDMDL
MODEL 2
REMARK VINA RESULT:    -3.485      4.703      8.545
REMARK INTER + INTRA:         -13.204
REMARK INTER:                  -8.072
REMARK INTRA:                  -5.132
REMARK UNBOUND:                -4.015
REMARK SMILES CCCCCCCCCCCCCCCCCCCCCCCCCCCCCC(=O)[O-]
REMARK SMILES IDX 16 1 17 2 18 3 19 4 20 5 21 6 22 7 23 8 24 9 25 10 26 11
REMARK SMILES IDX 27 12 28 13 29 14 30 15 31 16 32 17 15 18 14 19 13 20 12 21
REMARK SMILES IDX 11 22 10 23 9 24 8 25 7 26 6 27 5 28 4 29 3 30 2 31 1 32
REMARK H PARENT
REMARK Flexibility Score: inf
ROOT
ATOM      1  C   UNL     1       9.003  -2.088  19.874  1.00  0.00     0.000 C 
ENDROOT
BRANCH   1   2
ATOM      2  C   UNL     1       7.491  -1.974  20.144  1.00  0.00     0.000 C 
BRANCH   2   3
ATOM      3  C   UNL     1       6.645  -2.769  19.136  1.00  0.00     0.000 C 
BRANCH   3   4
ATOM      4  C   UNL     1       5.597  -1.903  18.412  1.00  0.00     0.000 C 
BRANCH   4   5
ATOM      5  C   UNL     1       5.535  -0.431  18.860  1.00  0.00     0.000 C 
BRANCH   5   6
ATOM      6  C   UNL     1       4.307   0.315  18.309  1.00  0.00     0.000 C 
BRANCH   6   7
ATOM      7  C   UNL     1       4.616   1.780  17.961  1.00  0.00     0.000 C 
BRANCH   7   8
ATOM      8  C   UNL     1       3.373   2.683  18.051  1.00  0.00     0.000 C 
BRANCH   8   9
ATOM      9  C   UNL     1       2.107   1.998  17.514  1.00  0.00     0.000 C 
BRANCH   9  10
ATOM     10  C   UNL     1       1.567   2.666  16.238  1.00  0.00     0.000 C 
BRANCH  10  11
ATOM     11  C   UNL     1       1.819   1.805  14.981  1.00  0.00     0.000 C 
BRANCH  11  12
ATOM     12  C   UNL     1       3.270   1.863  14.476  1.00  0.00     0.000 C 
BRANCH  12  13
ATOM     13  C   UNL     1       3.970   0.494  14.506  1.00  0.00     0.006 C 
BRANCH  13  14
ATOM     14  C   UNL     1       4.370   0.013  13.105  1.00  0.00     0.053 C 
BRANCH  14  15
ATOM     15  C   UNL     1       3.475  -1.083  12.614  1.00  0.00     0.041 C 
ATOM     16  O   UNL     1       3.910  -1.941  11.800  1.00  0.00    -0.550 OA
ATOM     17  O   UNL     1       2.153  -1.146  13.039  1.00  0.00    -0.550 OA
ENDBRANCH  14  15
ENDBRANCH  13  14
ENDBRANCH  12  13
ENDBRANCH  11  12
ENDBRANCH  10  11
ENDBRANCH   9  10
ENDBRANCH   8   9
ENDBRANCH   7   8
ENDBRANCH   6   7
ENDBRANCH   5   6
ENDBRANCH   4   5
ENDBRANCH   3   4
ENDBRANCH   2   3
ENDBRANCH   1   2
BRANCH   1  18
ATOM     18  C   UNL     1       9.757  -3.095  20.767  1.00  0.00     0.000 C 
BRANCH  18  19
ATOM     19  C   UNL     1      10.663  -4.091  20.020  1.00  0.00     0.000 C 
BRANCH  19  20
ATOM     20  C   UNL     1      10.292  -5.558  20.295  1.00  0.00     0.000 C 
BRANCH  20  21
ATOM     21  C   UNL     1       9.319  -6.135  19.250  1.00  0.00     0.000 C 
BRANCH  21  22
ATOM     22  C   UNL     1       9.985  -6.703  17.984  1.00  0.00     0.000 C 
BRANCH  22  23
ATOM     23  C   UNL     1       9.769  -5.821  16.745  1.00  0.00     0.000 C 
BRANCH  23  24
ATOM     24  C   UNL     1       8.644  -4.802  16.982  1.00  0.00    -0.000 C 
BRANCH  24  25
ATOM     25  C   UNL     1       8.589  -3.702  15.906  1.00  0.00    -0.000 C 
BRANCH  25  26
ATOM     26  C   UNL     1       9.293  -2.384  16.280  1.00  0.00    -0.000 C 
BRANCH  26  27
ATOM     27  C   UNL     1       8.354  -1.166  16.233  1.00  0.00    -0.000 C 
BRANCH  27  28
ATOM     28  C   UNL     1       8.887   0.021  17.051  1.00  0.00    -0.000 C 
BRANCH  28  29
ATOM     29  C   UNL     1       8.104   1.321  16.795  1.00  0.00    -0.000 C 
BRANCH  29  30
ATOM     30  C   UNL     1       8.190   2.297  17.988  1.00  0.00    -0.000 C 
BRANCH  30  31
ATOM     31  C   UNL     1       8.597   1.621  19.308  1.00  0.00    -0.003 C 
ATOM     32  C   UNL     1       7.671   1.974  20.471  1.00  0.00     0.004 C 
ENDBRANCH  30  31
ENDBRANCH  29  30
ENDBRANCH  28  29
ENDBRANCH  27  28
ENDBRANCH  26  27
ENDBRANCH  25  26
ENDBRANCH  24  25
ENDBRANCH  23  24
ENDBRANCH  22  23
ENDBRANCH  21  22
ENDBRANCH  20  21
ENDBRANCH  19  20
ENDBRANCH  18  19
ENDBRANCH   1  18
TORSDOF 28
ENDMDL
MODEL 3
REMARK VINA RESULT:    -3.470      7.416     12.161
REMARK INTER + INTRA:         -13.166
REMARK INTER:                  -7.831
REMARK INTRA:                  -5.335
REMARK UNBOUND:                -4.015
REMARK SMILES CCCCCCCCCCCCCCCCCCCCCCCCCCCCCC(=O)[O-]
REMARK SMILES IDX 16 1 17 2 18 3 19 4 20 5 21 6 22 7 23 8 24 9 25 10 26 11
REMARK SMILES IDX 27 12 28 13 29 14 30 15 31 16 32 17 15 18 14 19 13 20 12 21
REMARK SMILES IDX 11 22 10 23 9 24 8 25 7 26 6 27 5 28 4 29 3 30 2 31 1 32
REMARK H PARENT
REMARK Flexibility Score: inf
ROOT
ATOM      1  C   UNL     1       3.712   0.565  25.545  1.00  0.00     0.000 C 
ENDROOT
BRANCH   1   2
ATOM      2  C   UNL     1       2.317  -0.023  25.826  1.00  0.00     0.000 C 
BRANCH   2   3
ATOM      3  C   UNL     1       1.885  -1.060  24.777  1.00  0.00     0.000 C 
BRANCH   3   4
ATOM      4  C   UNL     1       1.642  -2.458  25.376  1.00  0.00     0.000 C 
BRANCH   4   5
ATOM      5  C   UNL     1       1.619  -3.616  24.361  1.00  0.00     0.000 C 
BRANCH   5   6
ATOM      6  C   UNL     1       0.409  -4.549  24.538  1.00  0.00     0.000 C 
BRANCH   6   7
ATOM      7  C   UNL     1      -0.613  -4.002  25.548  1.00  0.00     0.000 C 
BRANCH   7   8
ATOM      8  C   UNL     1      -1.875  -3.442  24.868  1.00  0.00     0.000 C 
BRANCH   8   9
ATOM      9  C   UNL     1      -2.030  -1.926  25.072  1.00  0.00     0.000 C 
BRANCH   9  10
ATOM     10  C   UNL     1      -1.636  -1.117  23.825  1.00  0.00     0.000 C 
BRANCH  10  11
ATOM     11  C   UNL     1      -1.604  -1.992  22.553  1.00  0.00     0.000 C 
BRANCH  11  12
ATOM     12  C   UNL     1      -0.267  -1.927  21.795  1.00  0.00     0.000 C 
BRANCH  12  13
ATOM     13  C   UNL     1      -0.232  -0.809  20.740  1.00  0.00     0.006 C 
BRANCH  13  14
ATOM     14  C   UNL     1       0.617   0.389  21.186  1.00  0.00     0.053 C 
BRANCH  14  15
ATOM     15  C   UNL     1      -0.167   1.665  21.172  1.00  0.00     0.041 C 
ATOM     16  O   UNL     1       0.353   2.724  20.731  1.00  0.00    -0.550 OA
ATOM     17  O   UNL     1      -1.465   1.690  21.668  1.00  0.00    -0.550 OA
ENDBRANCH  14  15
ENDBRANCH  13  14
ENDBRANCH  12  13
ENDBRANCH  11  12
ENDBRANCH  10  11
ENDBRANCH   9  10
ENDBRANCH   8   9
ENDBRANCH   7   8
ENDBRANCH   6   7
ENDBRANCH   5   6
ENDBRANCH   4   5
ENDBRANCH   3   4
ENDBRANCH   2   3
ENDBRANCH   1   2
BRANCH   1  18
ATOM     18  C   UNL     1       4.898  -0.360  25.888  1.00  0.00     0.000 C 
BRANCH  18  19
ATOM     19  C   UNL     1       4.955  -0.848  27.348  1.00  0.00     0.000 C 
BRANCH  19  20
ATOM     20  C   UNL     1       4.911  -2.381  27.467  1.00  0.00     0.000 C 
BRANCH  20  21
ATOM     21  C   UNL     1       5.766  -3.088  26.399  1.00  0.00     0.000 C 
BRANCH  21  22
ATOM     22  C   UNL     1       6.906  -3.963  26.951  1.00  0.00     0.000 C 
BRANCH  22  23
ATOM     23  C   UNL     1       6.868  -4.102  28.480  1.00  0.00     0.000 C 
BRANCH  23  24
ATOM     24  C   UNL     1       8.043  -3.358  29.131  1.00  0.00    -0.000 C 
BRANCH  24  25
ATOM     25  C   UNL     1       7.637  -2.002  29.738  1.00  0.00    -0.000 C 
BRANCH  25  26
ATOM     26  C   UNL     1       8.237  -0.766  29.041  1.00  0.00    -0.000 C 
BRANCH  26  27
ATOM     27  C   UNL     1       9.102  -1.123  27.821  1.00  0.00    -0.000 C 
BRANCH  27  28
ATOM     28  C   UNL     1       8.572  -0.499  26.519  1.00  0.00    -0.000 C 
BRANCH  28  29
ATOM     29  C   UNL     1       8.924  -1.330  25.273  1.00  0.00    -0.000 C 
BRANCH  29  30
ATOM     30  C   UNL     1       8.330  -0.726  23.983  1.00  0.00    -0.000 C 
BRANCH  30  31
ATOM     31  C   UNL     1       8.158   0.802  24.041  1.00  0.00    -0.003 C 
ATOM     32  C   UNL     1       6.919   1.292  23.294  1.00  0.00     0.004 C 
ENDBRANCH  30  31
ENDBRANCH  29  30
ENDBRANCH  28  29
ENDBRANCH  27  28
ENDBRANCH  26  27
ENDBRANCH  25  26
ENDBRANCH  24  25
ENDBRANCH  23  24
ENDBRANCH  22  23
ENDBRANCH  21  22
ENDBRANCH  20  21
ENDBRANCH  19  20
ENDBRANCH  18  19
ENDBRANCH   1  18
TORSDOF 28
ENDMDL
MODEL 4
REMARK VINA RESULT:    -3.454      2.615      6.090
REMARK INTER + INTRA:         -13.123
REMARK INTER:                  -8.619
REMARK INTRA:                  -4.504
REMARK UNBOUND:                -4.015
REMARK SMILES CCCCCCCCCCCCCCCCCCCCCCCCCCCCCC(=O)[O-]
REMARK SMILES IDX 16 1 17 2 18 3 19 4 20 5 21 6 22 7 23 8 24 9 25 10 26 11
REMARK SMILES IDX 27 12 28 13 29 14 30 15 31 16 32 17 15 18 14 19 13 20 12 21
REMARK SMILES IDX 11 22 10 23 9 24 8 25 7 26 6 27 5 28 4 29 3 30 2 31 1 32
REMARK H PARENT
REMARK Flexibility Score: inf
ROOT
ATOM      1  C   UNL     1       5.544  -2.003  18.508  1.00  0.00     0.000 C 
ENDROOT
BRANCH   1   2
ATOM      2  C   UNL     1       6.780  -1.923  19.423  1.00  0.00     0.000 C 
BRANCH   2   3
ATOM      3  C   UNL     1       7.993  -2.676  18.852  1.00  0.00     0.000 C 
BRANCH   3   4
ATOM      4  C   UNL     1       7.694  -3.373  17.512  1.00  0.00     0.000 C 
BRANCH   4   5
ATOM      5  C   UNL     1       8.492  -2.850  16.304  1.00  0.00     0.000 C 
BRANCH   5   6
ATOM      6  C   UNL     1       8.443  -1.319  16.166  1.00  0.00     0.000 C 
BRANCH   6   7
ATOM      7  C   UNL     1       7.134  -0.827  15.524  1.00  0.00     0.000 C 
BRANCH   7   8
ATOM      8  C   UNL     1       6.935   0.691  15.677  1.00  0.00     0.000 C 
BRANCH   8   9
ATOM      9  C   UNL     1       5.589   1.168  15.110  1.00  0.00     0.000 C 
BRANCH   9  10
ATOM     10  C   UNL     1       5.418   0.826  13.620  1.00  0.00     0.000 C 
BRANCH  10  11
ATOM     11  C   UNL     1       4.161   1.486  13.013  1.00  0.00     0.000 C 
BRANCH  11  12
ATOM     12  C   UNL     1       2.854   1.077  13.714  1.00  0.00     0.000 C 
BRANCH  12  13
ATOM     13  C   UNL     1       2.046   0.041  12.916  1.00  0.00     0.006 C 
BRANCH  13  14
ATOM     14  C   UNL     1       2.836  -0.527  11.729  1.00  0.00     0.053 C 
BRANCH  14  15
ATOM     15  C   UNL     1       3.238  -1.952  11.957  1.00  0.00     0.041 C 
ATOM     16  O   UNL     1       3.226  -2.775  11.003  1.00  0.00    -0.550 OA
ATOM     17  O   UNL     1       3.605  -2.378  13.228  1.00  0.00    -0.550 OA
ENDBRANCH  14  15
ENDBRANCH  13  14
ENDBRANCH  12  13
ENDBRANCH  11  12
ENDBRANCH  10  11
ENDBRANCH   9  10
ENDBRANCH   8   9
ENDBRANCH   7   8
ENDBRANCH   6   7
ENDBRANCH   5   6
ENDBRANCH   4   5
ENDBRANCH   3   4
ENDBRANCH   2   3
ENDBRANCH   1   2
BRANCH   1  18
ATOM     18  C   UNL     1       4.727  -0.700  18.390  1.00  0.00     0.000 C 
BRANCH  18  19
ATOM     19  C   UNL     1       5.385   0.551  19.003  1.00  0.00     0.000 C 
BRANCH  19  20
ATOM     20  C   UNL     1       4.390   1.705  19.215  1.00  0.00     0.000 C 
BRANCH  20  21
ATOM     21  C   UNL     1       4.683   2.919  18.315  1.00  0.00     0.000 C 
BRANCH  21  22
ATOM     22  C   UNL     1       3.595   3.237  17.275  1.00  0.00     0.000 C 
BRANCH  22  23
ATOM     23  C   UNL     1       2.579   2.098  17.102  1.00  0.00     0.000 C 
BRANCH  23  24
ATOM     24  C   UNL     1       1.141   2.609  17.271  1.00  0.00    -0.000 C 
BRANCH  24  25
ATOM     25  C   UNL     1       1.051   3.888  18.124  1.00  0.00    -0.000 C 
BRANCH  25  26
ATOM     26  C   UNL     1       0.356   3.719  19.488  1.00  0.00    -0.000 C 
BRANCH  26  27
ATOM     27  C   UNL     1       1.162   2.854  20.472  1.00  0.00    -0.000 C 
BRANCH  27  28
ATOM     28  C   UNL     1       0.416   1.573  20.878  1.00  0.00    -0.000 C 
BRANCH  28  29
ATOM     29  C   UNL     1       0.877   0.337  20.085  1.00  0.00    -0.000 C 
BRANCH  29  30
ATOM     30  C   UNL     1       0.049  -0.918  20.429  1.00  0.00    -0.000 C 
BRANCH  30  31
ATOM     31  C   UNL     1      -0.328  -1.019  21.918  1.00  0.00    -0.003 C 
ATOM     32  C   UNL     1      -0.104  -2.414  22.498  1.00  0.00     0.004 C 
ENDBRANCH  30  31
ENDBRANCH  29  30
ENDBRANCH  28  29
ENDBRANCH  27  28
ENDBRANCH  26  27
ENDBRANCH  25  26
ENDBRANCH  24  25
ENDBRANCH  23  24
ENDBRANCH  22  23
ENDBRANCH  21  22
ENDBRANCH  20  21
ENDBRANCH  19  20
ENDBRANCH  18  19
ENDBRANCH   1  18
TORSDOF 28
ENDMDL
MODEL 5
REMARK VINA RESULT:    -3.424      5.581      8.217
REMARK INTER + INTRA:         -13.044
REMARK INTER:                  -9.227
REMARK INTRA:                  -3.816
REMARK UNBOUND:                -4.015
REMARK SMILES CCCCCCCCCCCCCCCCCCCCCCCCCCCCCC(=O)[O-]
REMARK SMILES IDX 16 1 17 2 18 3 19 4 20 5 21 6 22 7 23 8 24 9 25 10 26 11
REMARK SMILES IDX 27 12 28 13 29 14 30 15 31 16 32 17 15 18 14 19 13 20 12 21
REMARK SMILES IDX 11 22 10 23 9 24 8 25 7 26 6 27 5 28 4 29 3 30 2 31 1 32
REMARK H PARENT
REMARK Flexibility Score: inf
ROOT
ATOM      1  C   UNL     1       5.927  -1.505  18.067  1.00  0.00     0.000 C 
ENDROOT
BRANCH   1   2
ATOM      2  C   UNL     1       5.808  -0.188  18.855  1.00  0.00     0.000 C 
BRANCH   2   3
ATOM      3  C   UNL     1       6.765   0.901  18.343  1.00  0.00     0.000 C 
BRANCH   3   4
ATOM      4  C   UNL     1       6.614   1.176  16.835  1.00  0.00     0.000 C 
BRANCH   4   5
ATOM      5  C   UNL     1       5.391   2.024  16.438  1.00  0.00     0.000 C 
BRANCH   5   6
ATOM      6  C   UNL     1       5.080   3.142  17.448  1.00  0.00     0.000 C 
BRANCH   6   7
ATOM      7  C   UNL     1       3.617   3.117  17.922  1.00  0.00     0.000 C 
BRANCH   7   8
ATOM      8  C   UNL     1       2.860   1.868  17.436  1.00  0.00     0.000 C 
BRANCH   8   9
ATOM      9  C   UNL     1       1.437   2.193  16.953  1.00  0.00     0.000 C 
BRANCH   9  10
ATOM     10  C   UNL     1       1.422   3.204  15.793  1.00  0.00     0.000 C 
BRANCH  10  11
ATOM     11  C   UNL     1       2.249   2.713  14.586  1.00  0.00     0.000 C 
BRANCH  11  12
ATOM     12  C   UNL     1       2.087   1.211  14.299  1.00  0.00     0.000 C 
BRANCH  12  13
ATOM     13  C   UNL     1       2.796   0.768  13.009  1.00  0.00     0.006 C 
BRANCH  13  14
ATOM     14  C   UNL     1       2.276  -0.579  12.490  1.00  0.00     0.053 C 
BRANCH  14  15
ATOM     15  C   UNL     1       3.374  -1.592  12.369  1.00  0.00     0.041 C 
ATOM     16  O   UNL     1       3.251  -2.727  12.902  1.00  0.00    -0.550 OA
ATOM     17  O   UNL     1       4.542  -1.275  11.686  1.00  0.00    -0.550 OA
ENDBRANCH  14  15
ENDBRANCH  13  14
ENDBRANCH  12  13
ENDBRANCH  11  12
ENDBRANCH  10  11
ENDBRANCH   9  10
ENDBRANCH   8   9
ENDBRANCH   7   8
ENDBRANCH   6   7
ENDBRANCH   5   6
ENDBRANCH   4   5
ENDBRANCH   3   4
ENDBRANCH   2   3
ENDBRANCH   1   2
BRANCH   1  18
ATOM     18  C   UNL     1       6.222  -2.757  18.918  1.00  0.00     0.000 C 
BRANCH  18  19
ATOM     19  C   UNL     1       7.454  -3.574  18.486  1.00  0.00     0.000 C 
BRANCH  19  20
ATOM     20  C   UNL     1       8.462  -2.749  17.668  1.00  0.00     0.000 C 
BRANCH  20  21
ATOM     21  C   UNL     1       9.829  -2.614  18.364  1.00  0.00     0.000 C 
BRANCH  21  22
ATOM     22  C   UNL     1       9.769  -2.189  19.842  1.00  0.00     0.000 C 
BRANCH  22  23
ATOM     23  C   UNL     1      10.294  -3.270  20.798  1.00  0.00     0.000 C 
BRANCH  23  24
ATOM     24  C   UNL     1      10.980  -4.406  20.025  1.00  0.00    -0.000 C 
BRANCH  24  25
ATOM     25  C   UNL     1      10.451  -5.801  20.406  1.00  0.00    -0.000 C 
BRANCH  25  26
ATOM     26  C   UNL     1       9.615  -6.505  19.321  1.00  0.00    -0.000 C 
BRANCH  26  27
ATOM     27  C   UNL     1      10.169  -6.292  17.902  1.00  0.00    -0.000 C 
BRANCH  27  28
ATOM     28  C   UNL     1       9.095  -6.476  16.816  1.00  0.00    -0.000 C 
BRANCH  28  29
ATOM     29  C   UNL     1       7.834  -7.187  17.339  1.00  0.00    -0.000 C 
BRANCH  29  30
ATOM     30  C   UNL     1       7.472  -8.427  16.496  1.00  0.00    -0.000 C 
BRANCH  30  31
ATOM     31  C   UNL     1       8.603  -9.467  16.414  1.00  0.00    -0.003 C 
ATOM     32  C   UNL     1       8.406 -10.640  17.373  1.00  0.00     0.004 C 
ENDBRANCH  30  31
ENDBRANCH  29  30
ENDBRANCH  28  29
ENDBRANCH  27  28
ENDBRANCH  26  27
ENDBRANCH  25  26
ENDBRANCH  24  25
ENDBRANCH  23  24
ENDBRANCH  22  23
ENDBRANCH  21  22
ENDBRANCH  20  21
ENDBRANCH  19  20
ENDBRANCH  18  19
ENDBRANCH   1  18
TORSDOF 28
ENDMDL
MODEL 6
REMARK VINA RESULT:    -3.381      2.056      5.331
REMARK INTER + INTRA:         -12.930
REMARK INTER:                  -7.492
REMARK INTRA:                  -5.437
REMARK UNBOUND:                -4.015
REMARK SMILES CCCCCCCCCCCCCCCCCCCCCCCCCCCCCC(=O)[O-]
REMARK SMILES IDX 16 1 17 2 18 3 19 4 20 5 21 6 22 7 23 8 24 9 25 10 26 11
REMARK SMILES IDX 27 12 28 13 29 14 30 15 31 16 32 17 15 18 14 19 13 20 12 21
REMARK SMILES IDX 11 22 10 23 9 24 8 25 7 26 6 27 5 28 4 29 3 30 2 31 1 32
REMARK H PARENT
REMARK Flexibility Score: inf
ROOT
ATOM      1  C   UNL     1       0.281   6.264  17.003  1.00  0.00     0.000 C 
ENDROOT
BRANCH   1   2
ATOM      2  C   UNL     1       1.548   5.900  17.797  1.00  0.00     0.000 C 
BRANCH   2   3
ATOM      3  C   UNL     1       2.843   6.248  17.044  1.00  0.00     0.000 C 
BRANCH   3   4
ATOM      4  C   UNL     1       4.090   5.571  17.643  1.00  0.00     0.000 C 
BRANCH   4   5
ATOM      5  C   UNL     1       5.114   5.049  16.618  1.00  0.00     0.000 C 
BRANCH   5   6
ATOM      6  C   UNL     1       6.316   4.346  17.272  1.00  0.00     0.000 C 
BRANCH   6   7
ATOM      7  C   UNL     1       6.070   2.844  17.493  1.00  0.00     0.000 C 
BRANCH   7   8
ATOM      8  C   UNL     1       5.780   2.502  18.965  1.00  0.00     0.000 C 
BRANCH   8   9
ATOM      9  C   UNL     1       5.717   0.988  19.218  1.00  0.00     0.000 C 
BRANCH   9  10
ATOM     10  C   UNL     1       6.199   0.166  18.010  1.00  0.00     0.000 C 
BRANCH  10  11
ATOM     11  C   UNL     1       5.133  -0.847  17.537  1.00  0.00     0.000 C 
BRANCH  11  12
ATOM     12  C   UNL     1       5.312  -1.291  16.075  1.00  0.00     0.000 C 
BRANCH  12  13
ATOM     13  C   UNL     1       5.915  -0.190  15.186  1.00  0.00     0.006 C 
BRANCH  13  14
ATOM     14  C   UNL     1       4.840   0.610  14.439  1.00  0.00     0.053 C 
BRANCH  14  15
ATOM     15  C   UNL     1       4.080  -0.244  13.471  1.00  0.00     0.041 C 
ATOM     16  O   UNL     1       4.689  -0.878  12.569  1.00  0.00    -0.550 OA
ATOM     17  O   UNL     1       2.694  -0.324  13.552  1.00  0.00    -0.550 OA
ENDBRANCH  14  15
ENDBRANCH  13  14
ENDBRANCH  12  13
ENDBRANCH  11  12
ENDBRANCH  10  11
ENDBRANCH   9  10
ENDBRANCH   8   9
ENDBRANCH   7   8
ENDBRANCH   6   7
ENDBRANCH   5   6
ENDBRANCH   4   5
ENDBRANCH   3   4
ENDBRANCH   2   3
ENDBRANCH   1   2
BRANCH   1  18
ATOM     18  C   UNL     1       0.241   7.704  16.450  1.00  0.00     0.000 C 
BRANCH  18  19
ATOM     19  C   UNL     1       0.169   7.821  14.916  1.00  0.00     0.000 C 
BRANCH  19  20
ATOM     20  C   UNL     1      -0.218   6.498  14.234  1.00  0.00     0.000 C 
BRANCH  20  21
ATOM     21  C   UNL     1       0.521   6.275  12.901  1.00  0.00     0.000 C 
BRANCH  21  22
ATOM     22  C   UNL     1       1.253   4.927  12.780  1.00  0.00     0.000 C 
BRANCH  22  23
ATOM     23  C   UNL     1       2.617   4.920  13.486  1.00  0.00     0.000 C 
BRANCH  23  24
ATOM     24  C   UNL     1       2.773   3.677  14.375  1.00  0.00    -0.000 C 
BRANCH  24  25
ATOM     25  C   UNL     1       1.487   3.321  15.145  1.00  0.00    -0.000 C 
BRANCH  25  26
ATOM     26  C   UNL     1       1.585   2.073  16.042  1.00  0.00    -0.000 C 
BRANCH  26  27
ATOM     27  C   UNL     1       2.510   2.275  17.254  1.00  0.00    -0.000 C 
BRANCH  27  28
ATOM     28  C   UNL     1       1.770   2.123  18.593  1.00  0.00    -0.000 C 
BRANCH  28  29
ATOM     29  C   UNL     1       2.034   0.767  19.270  1.00  0.00    -0.000 C 
BRANCH  29  30
ATOM     30  C   UNL     1       0.769   0.198  19.948  1.00  0.00    -0.000 C 
BRANCH  30  31
ATOM     31  C   UNL     1       0.128   1.162  20.962  1.00  0.00    -0.003 C 
ATOM     32  C   UNL     1       0.648   0.964  22.385  1.00  0.00     0.004 C 
ENDBRANCH  30  31
ENDBRANCH  29  30
ENDBRANCH  28  29
ENDBRANCH  27  28
ENDBRANCH  26  27
ENDBRANCH  25  26
ENDBRANCH  24  25
ENDBRANCH  23  24
ENDBRANCH  22  23
ENDBRANCH  21  22
ENDBRANCH  20  21
ENDBRANCH  19  20
ENDBRANCH  18  19
ENDBRANCH   1  18
TORSDOF 28
ENDMDL
MODEL 7
REMARK VINA RESULT:    -3.372      5.010      9.708
REMARK INTER + INTRA:         -12.907
REMARK INTER:                  -6.990
REMARK INTRA:                  -5.918
REMARK UNBOUND:                -4.015
REMARK SMILES CCCCCCCCCCCCCCCCCCCCCCCCCCCCCC(=O)[O-]
REMARK SMILES IDX 16 1 17 2 18 3 19 4 20 5 21 6 22 7 23 8 24 9 25 10 26 11
REMARK SMILES IDX 27 12 28 13 29 14 30 15 31 16 32 17 15 18 14 19 13 20 12 21
REMARK SMILES IDX 11 22 10 23 9 24 8 25 7 26 6 27 5 28 4 29 3 30 2 31 1 32
REMARK H PARENT
REMARK Flexibility Score: inf
ROOT
ATOM      1  C   UNL     1       6.250  -1.412  18.877  1.00  0.00     0.000 C 
ENDROOT
BRANCH   1   2
ATOM      2  C   UNL     1       6.708  -2.698  19.588  1.00  0.00     0.000 C 
BRANCH   2   3
ATOM      3  C   UNL     1       8.044  -3.234  19.049  1.00  0.00     0.000 C 
BRANCH   3   4
ATOM      4  C   UNL     1       7.871  -4.212  17.872  1.00  0.00     0.000 C 
BRANCH   4   5
ATOM      5  C   UNL     1       8.382  -3.704  16.511  1.00  0.00     0.000 C 
BRANCH   5   6
ATOM      6  C   UNL     1       9.578  -2.744  16.637  1.00  0.00     0.000 C 
BRANCH   6   7
ATOM      7  C   UNL     1       9.401  -1.471  15.793  1.00  0.00     0.000 C 
BRANCH   7   8
ATOM      8  C   UNL     1       9.019  -0.246  16.643  1.00  0.00     0.000 C 
BRANCH   8   9
ATOM      9  C   UNL     1       9.782  -0.193  17.976  1.00  0.00     0.000 C 
BRANCH   9  10
ATOM     10  C   UNL     1       9.154   0.790  18.980  1.00  0.00     0.000 C 
BRANCH  10  11
ATOM     11  C   UNL     1       9.567   0.476  20.434  1.00  0.00     0.000 C 
BRANCH  11  12
ATOM     12  C   UNL     1      10.405  -0.806  20.572  1.00  0.00     0.000 C 
BRANCH  12  13
ATOM     13  C   UNL     1       9.991  -1.664  21.779  1.00  0.00     0.006 C 
BRANCH  13  14
ATOM     14  C   UNL     1       8.603  -1.289  22.314  1.00  0.00     0.053 C 
BRANCH  14  15
ATOM     15  C   UNL     1       8.623  -1.035  23.790  1.00  0.00     0.041 C 
ATOM     16  O   UNL     1       8.064  -0.011  24.266  1.00  0.00    -0.550 OA
ATOM     17  O   UNL     1       9.280  -1.918  24.640  1.00  0.00    -0.550 OA
ENDBRANCH  14  15
ENDBRANCH  13  14
ENDBRANCH  12  13
ENDBRANCH  11  12
ENDBRANCH  10  11
ENDBRANCH   9  10
ENDBRANCH   8   9
ENDBRANCH   7   8
ENDBRANCH   6   7
ENDBRANCH   5   6
ENDBRANCH   4   5
ENDBRANCH   3   4
ENDBRANCH   2   3
ENDBRANCH   1   2
BRANCH   1  18
ATOM     18  C   UNL     1       5.095  -1.592  17.871  1.00  0.00     0.000 C 
BRANCH  18  19
ATOM     19  C   UNL     1       5.435  -1.259  16.407  1.00  0.00     0.000 C 
BRANCH  19  20
ATOM     20  C   UNL     1       4.801   0.060  15.931  1.00  0.00     0.000 C 
BRANCH  20  21
ATOM     21  C   UNL     1       5.808   1.224  15.886  1.00  0.00     0.000 C 
BRANCH  21  22
ATOM     22  C   UNL     1       6.039   1.940  17.229  1.00  0.00     0.000 C 
BRANCH  22  23
ATOM     23  C   UNL     1       5.220   3.232  17.368  1.00  0.00     0.000 C 
BRANCH  23  24
ATOM     24  C   UNL     1       4.367   3.211  18.644  1.00  0.00    -0.000 C 
BRANCH  24  25
ATOM     25  C   UNL     1       3.973   1.789  19.084  1.00  0.00    -0.000 C 
BRANCH  25  26
ATOM     26  C   UNL     1       2.505   1.403  18.820  1.00  0.00    -0.000 C 
BRANCH  26  27
ATOM     27  C   UNL     1       1.714   2.507  18.098  1.00  0.00    -0.000 C 
BRANCH  27  28
ATOM     28  C   UNL     1       1.190   2.055  16.725  1.00  0.00    -0.000 C 
BRANCH  28  29
ATOM     29  C   UNL     1       1.399   3.114  15.629  1.00  0.00    -0.000 C 
BRANCH  29  30
ATOM     30  C   UNL     1       2.707   2.887  14.841  1.00  0.00    -0.000 C 
BRANCH  30  31
ATOM     31  C   UNL     1       2.485   2.298  13.437  1.00  0.00    -0.003 C 
ATOM     32  C   UNL     1       2.350   0.776  13.443  1.00  0.00     0.004 C 
ENDBRANCH  30  31
ENDBRANCH  29  30
ENDBRANCH  28  29
ENDBRANCH  27  28
ENDBRANCH  26  27
ENDBRANCH  25  26
ENDBRANCH  24  25
ENDBRANCH  23  24
ENDBRANCH  22  23
ENDBRANCH  21  22
ENDBRANCH  20  21
ENDBRANCH  19  20
ENDBRANCH  18  19
ENDBRANCH   1  18
TORSDOF 28
ENDMDL
MODEL 8
REMARK VINA RESULT:    -3.370      2.973      8.870
REMARK INTER + INTRA:         -12.903
REMARK INTER:                  -8.250
REMARK INTRA:                  -4.653
REMARK UNBOUND:                -4.015
REMARK SMILES CCCCCCCCCCCCCCCCCCCCCCCCCCCCCC(=O)[O-]
REMARK SMILES IDX 16 1 17 2 18 3 19 4 20 5 21 6 22 7 23 8 24 9 25 10 26 11
REMARK SMILES IDX 27 12 28 13 29 14 30 15 31 16 32 17 15 18 14 19 13 20 12 21
REMARK SMILES IDX 11 22 10 23 9 24 8 25 7 26 6 27 5 28 4 29 3 30 2 31 1 32
REMARK H PARENT
REMARK Flexibility Score: inf
ROOT
ATOM      1  C   UNL     1       4.829   1.755  14.613  1.00  0.00     0.000 C 
ENDROOT
BRANCH   1   2
ATOM      2  C   UNL     1       4.643   0.229  14.673  1.00  0.00     0.000 C 
BRANCH   2   3
ATOM      3  C   UNL     1       5.849  -0.494  15.296  1.00  0.00     0.000 C 
BRANCH   3   4
ATOM      4  C   UNL     1       5.445  -1.684  16.186  1.00  0.00     0.000 C 
BRANCH   4   5
ATOM      5  C   UNL     1       5.779  -1.534  17.681  1.00  0.00     0.000 C 
BRANCH   5   6
ATOM      6  C   UNL     1       4.656  -0.856  18.485  1.00  0.00     0.000 C 
BRANCH   6   7
ATOM      7  C   UNL     1       4.931   0.635  18.739  1.00  0.00     0.000 C 
BRANCH   7   8
ATOM      8  C   UNL     1       3.791   1.540  18.239  1.00  0.00     0.000 C 
BRANCH   8   9
ATOM      9  C   UNL     1       3.381   2.598  19.275  1.00  0.00     0.000 C 
BRANCH   9  10
ATOM     10  C   UNL     1       2.038   2.275  19.953  1.00  0.00     0.000 C 
BRANCH  10  11
ATOM     11  C   UNL     1       1.264   1.167  19.206  1.00  0.00     0.000 C 
BRANCH  11  12
ATOM     12  C   UNL     1       1.190  -0.160  19.979  1.00  0.00     0.000 C 
BRANCH  12  13
ATOM     13  C   UNL     1      -0.247  -0.549  20.364  1.00  0.00     0.006 C 
BRANCH  13  14
ATOM     14  C   UNL     1      -0.589  -0.163  21.809  1.00  0.00     0.053 C 
BRANCH  14  15
ATOM     15  C   UNL     1      -0.365  -1.300  22.759  1.00  0.00     0.041 C 
ATOM     16  O   UNL     1      -0.161  -2.463  22.319  1.00  0.00    -0.550 OA
ATOM     17  O   UNL     1      -0.402  -1.079  24.131  1.00  0.00    -0.550 OA
ENDBRANCH  14  15
ENDBRANCH  13  14
ENDBRANCH  12  13
ENDBRANCH  11  12
ENDBRANCH  10  11
ENDBRANCH   9  10
ENDBRANCH   8   9
ENDBRANCH   7   8
ENDBRANCH   6   7
ENDBRANCH   5   6
ENDBRANCH   4   5
ENDBRANCH   3   4
ENDBRANCH   2   3
ENDBRANCH   1   2
BRANCH   1  18
ATOM     18  C   UNL     1       3.525   2.573  14.506  1.00  0.00     0.000 C 
BRANCH  18  19
ATOM     19  C   UNL     1       2.239   1.820  14.893  1.00  0.00     0.000 C 
BRANCH  19  20
ATOM     20  C   UNL     1       1.322   2.640  15.816  1.00  0.00     0.000 C 
BRANCH  20  21
ATOM     21  C   UNL     1       1.861   4.056  16.089  1.00  0.00     0.000 C 
BRANCH  21  22
ATOM     22  C   UNL     1       0.785   5.147  16.231  1.00  0.00     0.000 C 
BRANCH  22  23
ATOM     23  C   UNL     1       1.010   6.338  15.286  1.00  0.00     0.000 C 
BRANCH  23  24
ATOM     24  C   UNL     1      -0.024   6.344  14.151  1.00  0.00    -0.000 C 
BRANCH  24  25
ATOM     25  C   UNL     1       0.610   6.190  12.756  1.00  0.00    -0.000 C 
BRANCH  25  26
ATOM     26  C   UNL     1       1.351   4.861  12.515  1.00  0.00    -0.000 C 
BRANCH  26  27
ATOM     27  C   UNL     1       2.482   4.982  11.479  1.00  0.00    -0.000 C 
BRANCH  27  28
ATOM     28  C   UNL     1       3.140   3.628  11.165  1.00  0.00    -0.000 C 
BRANCH  28  29
ATOM     29  C   UNL     1       2.117   2.491  11.002  1.00  0.00    -0.000 C 
BRANCH  29  30
ATOM     30  C   UNL     1       2.769   1.098  11.125  1.00  0.00    -0.000 C 
BRANCH  30  31
ATOM     31  C   UNL     1       1.758  -0.061  11.086  1.00  0.00    -0.003 C 
ATOM     32  C   UNL     1       1.670  -0.822  12.408  1.00  0.00     0.004 C 
ENDBRANCH  30  31
ENDBRANCH  29  30
ENDBRANCH  28  29
ENDBRANCH  27  28
ENDBRANCH  26  27
ENDBRANCH  25  26
ENDBRANCH  24  25
ENDBRANCH  23  24
ENDBRANCH  22  23
ENDBRANCH  21  22
ENDBRANCH  20  21
ENDBRANCH  19  20
ENDBRANCH  18  19
ENDBRANCH   1  18
TORSDOF 28
ENDMDL
MODEL 9
REMARK VINA RESULT:    -3.356      7.222     10.941
REMARK INTER + INTRA:         -12.865
REMARK INTER:                  -7.173
REMARK INTRA:                  -5.692
REMARK UNBOUND:                -4.015
REMARK SMILES CCCCCCCCCCCCCCCCCCCCCCCCCCCCCC(=O)[O-]
REMARK SMILES IDX 16 1 17 2 18 3 19 4 20 5 21 6 22 7 23 8 24 9 25 10 26 11
REMARK SMILES IDX 27 12 28 13 29 14 30 15 31 16 32 17 15 18 14 19 13 20 12 21
REMARK SMILES IDX 11 22 10 23 9 24 8 25 7 26 6 27 5 28 4 29 3 30 2 31 1 32
REMARK H PARENT
REMARK Flexibility Score: inf
ROOT
ATOM      1  C   UNL     1      -1.079  -0.926  20.782  1.00  0.00     0.000 C 
ENDROOT
BRANCH   1   2
ATOM      2  C   UNL     1       0.374  -0.628  20.371  1.00  0.00     0.000 C 
BRANCH   2   3
ATOM      3  C   UNL     1       0.691   0.877  20.353  1.00  0.00     0.000 C 
BRANCH   3   4
ATOM      4  C   UNL     1      -0.068   1.666  21.435  1.00  0.00     0.000 C 
BRANCH   4   5
ATOM      5  C   UNL     1       0.489   1.531  22.865  1.00  0.00     0.000 C 
BRANCH   5   6
ATOM      6  C   UNL     1      -0.553   1.852  23.950  1.00  0.00     0.000 C 
BRANCH   6   7
ATOM      7  C   UNL     1      -0.418   0.942  25.183  1.00  0.00     0.000 C 
BRANCH   7   8
ATOM      8  C   UNL     1      -1.615  -0.012  25.347  1.00  0.00     0.000 C 
BRANCH   8   9
ATOM      9  C   UNL     1      -2.549   0.407  26.494  1.00  0.00     0.000 C 
BRANCH   9  10
ATOM     10  C   UNL     1      -3.736   1.257  26.011  1.00  0.00     0.000 C 
BRANCH  10  11
ATOM     11  C   UNL     1      -4.464   0.609  24.813  1.00  0.00     0.000 C 
BRANCH  11  12
ATOM     12  C   UNL     1      -4.574   1.532  23.588  1.00  0.00     0.000 C 
BRANCH  12  13
ATOM     13  C   UNL     1      -3.709   1.065  22.406  1.00  0.00     0.006 C 
BRANCH  13  14
ATOM     14  C   UNL     1      -4.207   1.617  21.064  1.00  0.00     0.053 C 
BRANCH  14  15
ATOM     15  C   UNL     1      -4.061   3.106  20.984  1.00  0.00     0.041 C 
ATOM     16  O   UNL     1      -2.944   3.646  21.202  1.00  0.00    -0.550 OA
ATOM     17  O   UNL     1      -5.163   3.899  20.690  1.00  0.00    -0.550 OA
ENDBRANCH  14  15
ENDBRANCH  13  14
ENDBRANCH  12  13
ENDBRANCH  11  12
ENDBRANCH  10  11
ENDBRANCH   9  10
ENDBRANCH   8   9
ENDBRANCH   7   8
ENDBRANCH   6   7
ENDBRANCH   5   6
ENDBRANCH   4   5
ENDBRANCH   3   4
ENDBRANCH   2   3
ENDBRANCH   1   2
BRANCH   1  18
ATOM     18  C   UNL     1      -1.244  -1.692  22.110  1.00  0.00     0.000 C 
BRANCH  18  19
ATOM     19  C   UNL     1      -0.106  -2.671  22.454  1.00  0.00     0.000 C 
BRANCH  19  20
ATOM     20  C   UNL     1       0.688  -2.249  23.702  1.00  0.00     0.000 C 
BRANCH  20  21
ATOM     21  C   UNL     1       1.230  -3.450  24.500  1.00  0.00     0.000 C 
BRANCH  21  22
ATOM     22  C   UNL     1       0.883  -4.831  23.915  1.00  0.00     0.000 C 
BRANCH  22  23
ATOM     23  C   UNL     1      -0.026  -5.660  24.834  1.00  0.00     0.000 C 
BRANCH  23  24
ATOM     24  C   UNL     1      -0.803  -4.758  25.803  1.00  0.00    -0.000 C 
BRANCH  24  25
ATOM     25  C   UNL     1      -2.313  -4.711  25.507  1.00  0.00    -0.000 C 
BRANCH  25  26
ATOM     26  C   UNL     1      -2.825  -3.384  24.916  1.00  0.00    -0.000 C 
BRANCH  26  27
ATOM     27  C   UNL     1      -4.358  -3.327  24.803  1.00  0.00    -0.000 C 
BRANCH  27  28
ATOM     28  C   UNL     1      -4.851  -3.545  23.363  1.00  0.00    -0.000 C 
BRANCH  28  29
ATOM     29  C   UNL     1      -4.818  -2.258  22.519  1.00  0.00    -0.000 C 
BRANCH  29  30
ATOM     30  C   UNL     1      -4.670  -2.553  21.012  1.00  0.00    -0.000 C 
BRANCH  30  31
ATOM     31  C   UNL     1      -5.881  -3.284  20.406  1.00  0.00    -0.003 C 
ATOM     32  C   UNL     1      -5.491  -4.529  19.611  1.00  0.00     0.004 C 
ENDBRANCH  30  31
ENDBRANCH  29  30
ENDBRANCH  28  29
ENDBRANCH  27  28
ENDBRANCH  26  27
ENDBRANCH  25  26
ENDBRANCH  24  25
ENDBRANCH  23  24
ENDBRANCH  22  23
ENDBRANCH  21  22
ENDBRANCH  20  21
ENDBRANCH  19  20
ENDBRANCH  18  19
ENDBRANCH   1  18
TORSDOF 28
ENDMDL
