MODEL 1
REMARK VINA RESULT:    -2.909      0.000      0.000
REMARK INTER + INTRA:         -10.410
REMARK INTER:                  -6.311
REMARK INTRA:                  -4.099
REMARK UNBOUND:                -4.099
REMARK SMILES CCCCCCCCCCCCCCCCCCCCCC(=O)[O-]
REMARK SMILES IDX 12 1 11 2 10 3 9 4 8 5 7 6 6 7 5 8 4 9 3 10 2 11 1 12 13 13
REMARK SMILES IDX 14 14 15 15 16 16 17 17 18 18 19 19 20 20 21 21 22 22 23 23
REMARK SMILES IDX 24 24
REMARK H PARENT
REMARK Flexibility Score: inf
ROOT
ATOM      1  C   UNL     1      58.692  25.816  53.200  1.00  0.00     0.000 C 
ENDROOT
BRANCH   1   2
ATOM      2  C   UNL     1      57.899  24.876  52.279  1.00  0.00     0.000 C 
BRANCH   2   3
ATOM      3  C   UNL     1      56.510  25.448  51.965  1.00  0.00     0.000 C 
BRANCH   3   4
ATOM      4  C   UNL     1      56.130  25.295  50.483  1.00  0.00    -0.000 C 
BRANCH   4   5
ATOM      5  C   UNL     1      55.172  26.399  50.001  1.00  0.00    -0.000 C 
BRANCH   5   6
ATOM      6  C   UNL     1      54.701  27.312  51.154  1.00  0.00    -0.000 C 
BRANCH   6   7
ATOM      7  C   UNL     1      54.672  28.809  50.790  1.00  0.00    -0.000 C 
BRANCH   7   8
ATOM      8  C   UNL     1      54.395  29.754  51.971  1.00  0.00    -0.000 C 
BRANCH   8   9
ATOM      9  C   UNL     1      55.133  29.330  53.252  1.00  0.00    -0.000 C 
BRANCH   9  10
ATOM     10  C   UNL     1      55.323  30.496  54.235  1.00  0.00    -0.000 C 
BRANCH  10  11
ATOM     11  C   UNL     1      56.438  31.457  53.797  1.00  0.00    -0.003 C 
ATOM     12  C   UNL     1      57.648  31.354  54.721  1.00  0.00     0.004 C 
ENDBRANCH  10  11
ENDBRANCH   9  10
ENDBRANCH   8   9
ENDBRANCH   7   8
ENDBRANCH   6   7
ENDBRANCH   5   6
ENDBRANCH   4   5
ENDBRANCH   3   4
ENDBRANCH   2   3
ENDBRANCH   1   2
BRANCH   1  13
ATOM     13  C   UNL     1      58.087  27.229  53.287  1.00  0.00     0.000 C 
BRANCH  13  14
ATOM     14  C   UNL     1      59.039  28.379  52.910  1.00  0.00     0.000 C 
BRANCH  14  15
ATOM     15  C   UNL     1      58.530  29.223  51.729  1.00  0.00     0.000 C 
BRANCH  15  16
ATOM     16  C   UNL     1      58.278  28.386  50.461  1.00  0.00     0.000 C 
BRANCH  16  17
ATOM     17  C   UNL     1      59.530  28.072  49.621  1.00  0.00     0.000 C 
BRANCH  17  18
ATOM     18  C   UNL     1      59.964  26.602  49.717  1.00  0.00     0.000 C 
BRANCH  18  19
ATOM     19  C   UNL     1      61.471  26.494  49.994  1.00  0.00     0.000 C 
BRANCH  19  20
ATOM     20  C   UNL     1      61.993  27.627  50.889  1.00  0.00     0.006 C 
BRANCH  20  21
ATOM     21  C   UNL     1      63.107  28.445  50.222  1.00  0.00     0.053 C 
BRANCH  21  22
ATOM     22  C   UNL     1      62.825  29.910  50.340  1.00  0.00     0.041 C 
ATOM     23  O   UNL     1      61.880  30.318  51.067  1.00  0.00    -0.550 OA
ATOM     24  O   UNL     1      63.625  30.829  49.672  1.00  0.00    -0.550 OA
ENDBRANCH  21  22
ENDBRANCH  20  21
ENDBRANCH  19  20
ENDBRANCH  18  19
ENDBRANCH  17  18
ENDBRANCH  16  17
ENDBRANCH  15  16
ENDBRANCH  14  15
ENDBRANCH  13  14
ENDBRANCH   1  13
TORSDOF 20
ENDMDL
MODEL 2
REMARK VINA RESULT:    -2.883      8.394     11.539
REMARK INTER + INTRA:         -10.354
REMARK INTER:                  -6.097
REMARK INTRA:                  -4.256
REMARK UNBOUND:                -4.099
REMARK SMILES CCCCCCCCCCCCCCCCCCCCCC(=O)[O-]
REMARK SMILES IDX 12 1 11 2 10 3 9 4 8 5 7 6 6 7 5 8 4 9 3 10 2 11 1 12 13 13
REMARK SMILES IDX 14 14 15 15 16 16 17 17 18 18 19 19 20 20 21 21 22 22 23 23
REMARK SMILES IDX 24 24
REMARK H PARENT
REMARK Flexibility Score: inf
ROOT
ATOM      1  C   UNL     1      61.899  34.275  58.438  1.00  0.00     0.000 C 
ENDROOT
BRANCH   1   2
ATOM      2  C   UNL     1      61.357  34.609  59.836  1.00  0.00     0.000 C 
BRANCH   2   3
ATOM      3  C   UNL     1      62.499  34.779  60.848  1.00  0.00     0.000 C 
BRANCH   3   4
ATOM      4  C   UNL     1      63.858  34.336  60.282  1.00  0.00    -0.000 C 
BRANCH   4   5
ATOM      5  C   UNL     1      64.357  33.019  60.903  1.00  0.00    -0.000 C 
BRANCH   5   6
ATOM      6  C   UNL     1      65.044  32.104  59.867  1.00  0.00    -0.000 C 
BRANCH   6   7
ATOM      7  C   UNL     1      65.199  32.748  58.475  1.00  0.00    -0.000 C 
BRANCH   7   8
ATOM      8  C   UNL     1      64.877  31.816  57.294  1.00  0.00    -0.000 C 
BRANCH   8   9
ATOM      9  C   UNL     1      64.238  30.492  57.744  1.00  0.00    -0.000 C 
BRANCH   9  10
ATOM     10  C   UNL     1      63.325  29.884  56.669  1.00  0.00    -0.000 C 
BRANCH  10  11
ATOM     11  C   UNL     1      63.222  28.356  56.783  1.00  0.00    -0.003 C 
ATOM     12  C   UNL     1      61.991  27.945  57.585  1.00  0.00     0.004 C 
ENDBRANCH  10  11
ENDBRANCH   9  10
ENDBRANCH   8   9
ENDBRANCH   7   8
ENDBRANCH   6   7
ENDBRANCH   5   6
ENDBRANCH   4   5
ENDBRANCH   3   4
ENDBRANCH   2   3
ENDBRANCH   1   2
BRANCH   1  13
ATOM     13  C   UNL     1      61.433  32.901  57.921  1.00  0.00     0.000 C 
BRANCH  13  14
ATOM     14  C   UNL     1      60.598  32.071  58.914  1.00  0.00     0.000 C 
BRANCH  14  15
ATOM     15  C   UNL     1      61.407  30.960  59.603  1.00  0.00     0.000 C 
BRANCH  15  16
ATOM     16  C   UNL     1      61.329  31.027  61.140  1.00  0.00     0.000 C 
BRANCH  16  17
ATOM     17  C   UNL     1      61.879  29.794  61.880  1.00  0.00     0.000 C 
BRANCH  17  18
ATOM     18  C   UNL     1      63.361  29.525  61.580  1.00  0.00     0.000 C 
BRANCH  18  19
ATOM     19  C   UNL     1      63.584  28.056  61.189  1.00  0.00     0.000 C 
BRANCH  19  20
ATOM     20  C   UNL     1      64.710  27.881  60.161  1.00  0.00     0.006 C 
BRANCH  20  21
ATOM     21  C   UNL     1      65.969  28.682  60.517  1.00  0.00     0.053 C 
BRANCH  21  22
ATOM     22  C   UNL     1      67.043  27.773  61.029  1.00  0.00     0.041 C 
ATOM     23  O   UNL     1      67.043  26.553  60.717  1.00  0.00    -0.550 OA
ATOM     24  O   UNL     1      68.061  28.279  61.827  1.00  0.00    -0.550 OA
ENDBRANCH  21  22
ENDBRANCH  20  21
ENDBRANCH  19  20
ENDBRANCH  18  19
ENDBRANCH  17  18
ENDBRANCH  16  17
ENDBRANCH  15  16
ENDBRANCH  14  15
ENDBRANCH  13  14
ENDBRANCH   1  13
TORSDOF 20
ENDMDL
MODEL 3
REMARK VINA RESULT:    -2.882      7.800     11.101
REMARK INTER + INTRA:         -10.351
REMARK INTER:                  -6.425
REMARK INTRA:                  -3.927
REMARK UNBOUND:                -4.099
REMARK SMILES CCCCCCCCCCCCCCCCCCCCCC(=O)[O-]
REMARK SMILES IDX 12 1 11 2 10 3 9 4 8 5 7 6 6 7 5 8 4 9 3 10 2 11 1 12 13 13
REMARK SMILES IDX 14 14 15 15 16 16 17 17 18 18 19 19 20 20 21 21 22 22 23 23
REMARK SMILES IDX 24 24
REMARK H PARENT
REMARK Flexibility Score: inf
ROOT
ATOM      1  C   UNL     1      64.976  30.286  60.284  1.00  0.00     0.000 C 
ENDROOT
BRANCH   1   2
ATOM      2  C   UNL     1      64.815  31.799  60.071  1.00  0.00     0.000 C 
BRANCH   2   3
ATOM      3  C   UNL     1      65.244  32.209  58.655  1.00  0.00     0.000 C 
BRANCH   3   4
ATOM      4  C   UNL     1      65.115  33.723  58.415  1.00  0.00    -0.000 C 
BRANCH   4   5
ATOM      5  C   UNL     1      63.847  34.090  57.624  1.00  0.00    -0.000 C 
BRANCH   5   6
ATOM      6  C   UNL     1      63.553  35.605  57.658  1.00  0.00    -0.000 C 
BRANCH   6   7
ATOM      7  C   UNL     1      62.153  35.956  58.199  1.00  0.00    -0.000 C 
BRANCH   7   8
ATOM      8  C   UNL     1      61.536  34.895  59.126  1.00  0.00    -0.000 C 
BRANCH   8   9
ATOM      9  C   UNL     1      61.672  35.260  60.613  1.00  0.00    -0.000 C 
BRANCH   9  10
ATOM     10  C   UNL     1      62.983  34.747  61.228  1.00  0.00    -0.000 C 
BRANCH  10  11
ATOM     11  C   UNL     1      63.984  35.878  61.505  1.00  0.00    -0.003 C 
ATOM     12  C   UNL     1      65.341  35.322  61.928  1.00  0.00     0.004 C 
ENDBRANCH  10  11
ENDBRANCH   9  10
ENDBRANCH   8   9
ENDBRANCH   7   8
ENDBRANCH   6   7
ENDBRANCH   5   6
ENDBRANCH   4   5
ENDBRANCH   3   4
ENDBRANCH   2   3
ENDBRANCH   1   2
BRANCH   1  13
ATOM     13  C   UNL     1      64.226  29.767  61.524  1.00  0.00     0.000 C 
BRANCH  13  14
ATOM     14  C   UNL     1      63.268  28.587  61.271  1.00  0.00     0.000 C 
BRANCH  14  15
ATOM     15  C   UNL     1      61.788  29.007  61.238  1.00  0.00     0.000 C 
BRANCH  15  16
ATOM     16  C   UNL     1      61.551  30.411  61.823  1.00  0.00     0.000 C 
BRANCH  16  17
ATOM     17  C   UNL     1      61.210  31.503  60.793  1.00  0.00     0.000 C 
BRANCH  17  18
ATOM     18  C   UNL     1      60.675  30.935  59.470  1.00  0.00     0.000 C 
BRANCH  18  19
ATOM     19  C   UNL     1      61.618  31.276  58.306  1.00  0.00     0.000 C 
BRANCH  19  20
ATOM     20  C   UNL     1      60.877  31.862  57.095  1.00  0.00     0.006 C 
BRANCH  20  21
ATOM     21  C   UNL     1      59.407  32.178  57.395  1.00  0.00     0.053 C 
BRANCH  21  22
ATOM     22  C   UNL     1      58.898  33.239  56.470  1.00  0.00     0.041 C 
ATOM     23  O   UNL     1      59.526  34.324  56.343  1.00  0.00    -0.550 OA
ATOM     24  O   UNL     1      57.745  33.019  55.726  1.00  0.00    -0.550 OA
ENDBRANCH  21  22
ENDBRANCH  20  21
ENDBRANCH  19  20
ENDBRANCH  18  19
ENDBRANCH  17  18
ENDBRANCH  16  17
ENDBRANCH  15  16
ENDBRANCH  14  15
ENDBRANCH  13  14
ENDBRANCH   1  13
TORSDOF 20
ENDMDL
MODEL 4
REMARK VINA RESULT:    -2.859      7.943     10.965
REMARK INTER + INTRA:         -10.301
REMARK INTER:                  -6.060
REMARK INTRA:                  -4.241
REMARK UNBOUND:                -4.099
REMARK SMILES CCCCCCCCCCCCCCCCCCCCCC(=O)[O-]
REMARK SMILES IDX 12 1 11 2 10 3 9 4 8 5 7 6 6 7 5 8 4 9 3 10 2 11 1 12 13 13
REMARK SMILES IDX 14 14 15 15 16 16 17 17 18 18 19 19 20 20 21 21 22 22 23 23
REMARK SMILES IDX 24 24
REMARK H PARENT
REMARK Flexibility Score: inf
ROOT
ATOM      1  C   UNL     1      65.015  30.353  60.069  1.00  0.00     0.000 C 
ENDROOT
BRANCH   1   2
ATOM      2  C   UNL     1      64.830  31.867  59.886  1.00  0.00     0.000 C 
BRANCH   2   3
ATOM      3  C   UNL     1      65.337  32.326  58.512  1.00  0.00     0.000 C 
BRANCH   3   4
ATOM      4  C   UNL     1      65.080  33.821  58.258  1.00  0.00    -0.000 C 
BRANCH   4   5
ATOM      5  C   UNL     1      63.733  34.080  57.559  1.00  0.00    -0.000 C 
BRANCH   5   6
ATOM      6  C   UNL     1      63.366  35.578  57.530  1.00  0.00    -0.000 C 
BRANCH   6   7
ATOM      7  C   UNL     1      61.977  35.890  58.121  1.00  0.00    -0.000 C 
BRANCH   7   8
ATOM      8  C   UNL     1      61.404  34.792  59.033  1.00  0.00    -0.000 C 
BRANCH   8   9
ATOM      9  C   UNL     1      61.549  35.128  60.526  1.00  0.00    -0.000 C 
BRANCH   9  10
ATOM     10  C   UNL     1      62.847  34.572  61.131  1.00  0.00    -0.000 C 
BRANCH  10  11
ATOM     11  C   UNL     1      63.885  35.670  61.404  1.00  0.00    -0.003 C 
ATOM     12  C   UNL     1      65.221  35.071  61.835  1.00  0.00     0.004 C 
ENDBRANCH  10  11
ENDBRANCH   9  10
ENDBRANCH   8   9
ENDBRANCH   7   8
ENDBRANCH   6   7
ENDBRANCH   5   6
ENDBRANCH   4   5
ENDBRANCH   3   4
ENDBRANCH   2   3
ENDBRANCH   1   2
BRANCH   1  13
ATOM     13  C   UNL     1      64.391  29.821  61.373  1.00  0.00     0.000 C 
BRANCH  13  14
ATOM     14  C   UNL     1      63.512  28.565  61.219  1.00  0.00     0.000 C 
BRANCH  14  15
ATOM     15  C   UNL     1      62.006  28.869  61.297  1.00  0.00     0.000 C 
BRANCH  15  16
ATOM     16  C   UNL     1      61.705  30.255  61.898  1.00  0.00     0.000 C 
BRANCH  16  17
ATOM     17  C   UNL     1      61.168  31.300  60.903  1.00  0.00     0.000 C 
BRANCH  17  18
ATOM     18  C   UNL     1      60.737  30.687  59.562  1.00  0.00     0.000 C 
BRANCH  18  19
ATOM     19  C   UNL     1      61.622  31.197  58.415  1.00  0.00     0.000 C 
BRANCH  19  20
ATOM     20  C   UNL     1      61.760  30.179  57.274  1.00  0.00     0.006 C 
BRANCH  20  21
ATOM     21  C   UNL     1      63.117  29.465  57.278  1.00  0.00     0.053 C 
BRANCH  21  22
ATOM     22  C   UNL     1      62.934  27.989  57.447  1.00  0.00     0.041 C 
ATOM     23  O   UNL     1      63.821  27.189  57.046  1.00  0.00    -0.550 OA
ATOM     24  O   UNL     1      61.796  27.496  58.073  1.00  0.00    -0.550 OA
ENDBRANCH  21  22
ENDBRANCH  20  21
ENDBRANCH  19  20
ENDBRANCH  18  19
ENDBRANCH  17  18
ENDBRANCH  16  17
ENDBRANCH  15  16
ENDBRANCH  14  15
ENDBRANCH  13  14
ENDBRANCH   1  13
TORSDOF 20
ENDMDL
MODEL 5
REMARK VINA RESULT:    -2.820      2.368      6.977
REMARK INTER + INTRA:         -10.216
REMARK INTER:                  -6.575
REMARK INTRA:                  -3.641
REMARK UNBOUND:                -4.099
REMARK SMILES CCCCCCCCCCCCCCCCCCCCCC(=O)[O-]
REMARK SMILES IDX 12 1 11 2 10 3 9 4 8 5 7 6 6 7 5 8 4 9 3 10 2 11 1 12 13 13
REMARK SMILES IDX 14 14 15 15 16 16 17 17 18 18 19 19 20 20 21 21 22 22 23 23
REMARK SMILES IDX 24 24
REMARK H PARENT
REMARK Flexibility Score: inf
ROOT
ATOM      1  C   UNL     1      59.985  25.847  50.823  1.00  0.00     0.000 C 
ENDROOT
BRANCH   1   2
ATOM      2  C   UNL     1      60.061  26.789  49.611  1.00  0.00     0.000 C 
BRANCH   2   3
ATOM      3  C   UNL     1      60.839  28.068  49.951  1.00  0.00     0.000 C 
BRANCH   3   4
ATOM      4  C   UNL     1      61.309  28.100  51.415  1.00  0.00    -0.000 C 
BRANCH   4   5
ATOM      5  C   UNL     1      62.401  29.157  51.663  1.00  0.00    -0.000 C 
BRANCH   5   6
ATOM      6  C   UNL     1      62.307  30.340  50.675  1.00  0.00    -0.000 C 
BRANCH   6   7
ATOM      7  C   UNL     1      63.630  30.649  49.947  1.00  0.00    -0.000 C 
BRANCH   7   8
ATOM      8  C   UNL     1      64.646  29.495  49.940  1.00  0.00    -0.000 C 
BRANCH   8   9
ATOM      9  C   UNL     1      64.765  28.821  48.563  1.00  0.00    -0.000 C 
BRANCH   9  10
ATOM     10  C   UNL     1      64.206  27.391  48.558  1.00  0.00    -0.000 C 
BRANCH  10  11
ATOM     11  C   UNL     1      64.798  26.525  49.680  1.00  0.00    -0.003 C 
ATOM     12  C   UNL     1      63.735  25.618  50.294  1.00  0.00     0.004 C 
ENDBRANCH  10  11
ENDBRANCH   9  10
ENDBRANCH   8   9
ENDBRANCH   7   8
ENDBRANCH   6   7
ENDBRANCH   5   6
ENDBRANCH   4   5
ENDBRANCH   3   4
ENDBRANCH   2   3
ENDBRANCH   1   2
BRANCH   1  13
ATOM     13  C   UNL     1      58.805  24.860  50.748  1.00  0.00     0.000 C 
BRANCH  13  14
ATOM     14  C   UNL     1      57.852  24.876  51.958  1.00  0.00     0.000 C 
BRANCH  14  15
ATOM     15  C   UNL     1      56.383  25.110  51.568  1.00  0.00     0.000 C 
BRANCH  15  16
ATOM     16  C   UNL     1      56.231  25.952  50.287  1.00  0.00     0.000 C 
BRANCH  16  17
ATOM     17  C   UNL     1      55.160  27.057  50.350  1.00  0.00     0.000 C 
BRANCH  17  18
ATOM     18  C   UNL     1      55.636  28.313  51.095  1.00  0.00     0.000 C 
BRANCH  18  19
ATOM     19  C   UNL     1      57.157  28.486  50.960  1.00  0.00     0.000 C 
BRANCH  19  20
ATOM     20  C   UNL     1      57.872  28.529  52.318  1.00  0.00     0.006 C 
BRANCH  20  21
ATOM     21  C   UNL     1      58.322  29.943  52.707  1.00  0.00     0.053 C 
BRANCH  21  22
ATOM     22  C   UNL     1      57.438  30.500  53.779  1.00  0.00     0.041 C 
ATOM     23  O   UNL     1      57.837  30.539  54.973  1.00  0.00    -0.550 OA
ATOM     24  O   UNL     1      56.184  31.003  53.455  1.00  0.00    -0.550 OA
ENDBRANCH  21  22
ENDBRANCH  20  21
ENDBRANCH  19  20
ENDBRANCH  18  19
ENDBRANCH  17  18
ENDBRANCH  16  17
ENDBRANCH  15  16
ENDBRANCH  14  15
ENDBRANCH  13  14
ENDBRANCH   1  13
TORSDOF 20
ENDMDL
MODEL 6
REMARK VINA RESULT:    -2.794      3.291      5.456
REMARK INTER + INTRA:         -10.159
REMARK INTER:                  -5.970
REMARK INTRA:                  -4.190
REMARK UNBOUND:                -4.099
REMARK SMILES CCCCCCCCCCCCCCCCCCCCCC(=O)[O-]
REMARK SMILES IDX 12 1 11 2 10 3 9 4 8 5 7 6 6 7 5 8 4 9 3 10 2 11 1 12 13 13
REMARK SMILES IDX 14 14 15 15 16 16 17 17 18 18 19 19 20 20 21 21 22 22 23 23
REMARK SMILES IDX 24 24
REMARK H PARENT
REMARK Flexibility Score: inf
ROOT
ATOM      1  C   UNL     1      58.883  25.749  50.037  1.00  0.00     0.000 C 
ENDROOT
BRANCH   1   2
ATOM      2  C   UNL     1      60.083  26.658  49.729  1.00  0.00     0.000 C 
BRANCH   2   3
ATOM      3  C   UNL     1      59.643  28.118  49.553  1.00  0.00     0.000 C 
BRANCH   3   4
ATOM      4  C   UNL     1      60.496  29.095  50.379  1.00  0.00    -0.000 C 
BRANCH   4   5
ATOM      5  C   UNL     1      60.368  28.857  51.894  1.00  0.00    -0.000 C 
BRANCH   5   6
ATOM      6  C   UNL     1      58.962  29.208  52.426  1.00  0.00    -0.000 C 
BRANCH   6   7
ATOM      7  C   UNL     1      58.303  28.076  53.239  1.00  0.00    -0.000 C 
BRANCH   7   8
ATOM      8  C   UNL     1      56.961  27.577  52.678  1.00  0.00    -0.000 C 
BRANCH   8   9
ATOM      9  C   UNL     1      56.423  28.471  51.550  1.00  0.00    -0.000 C 
BRANCH   9  10
ATOM     10  C   UNL     1      55.586  27.689  50.526  1.00  0.00    -0.000 C 
BRANCH  10  11
ATOM     11  C   UNL     1      55.363  26.228  50.945  1.00  0.00    -0.003 C 
ATOM     12  C   UNL     1      55.162  25.330  49.727  1.00  0.00     0.004 C 
ENDBRANCH  10  11
ENDBRANCH   9  10
ENDBRANCH   8   9
ENDBRANCH   7   8
ENDBRANCH   6   7
ENDBRANCH   5   6
ENDBRANCH   4   5
ENDBRANCH   3   4
ENDBRANCH   2   3
ENDBRANCH   1   2
BRANCH   1  13
ATOM     13  C   UNL     1      59.273  24.473  50.806  1.00  0.00     0.000 C 
BRANCH  13  14
ATOM     14  C   UNL     1      58.929  24.476  52.307  1.00  0.00     0.000 C 
BRANCH  14  15
ATOM     15  C   UNL     1      60.151  24.226  53.208  1.00  0.00     0.000 C 
BRANCH  15  16
ATOM     16  C   UNL     1      60.506  25.441  54.085  1.00  0.00     0.000 C 
BRANCH  16  17
ATOM     17  C   UNL     1      61.904  26.041  53.842  1.00  0.00     0.000 C 
BRANCH  17  18
ATOM     18  C   UNL     1      62.414  25.814  52.411  1.00  0.00     0.000 C 
BRANCH  18  19
ATOM     19  C   UNL     1      63.795  25.141  52.423  1.00  0.00     0.000 C 
BRANCH  19  20
ATOM     20  C   UNL     1      63.999  24.187  51.237  1.00  0.00     0.006 C 
BRANCH  20  21
ATOM     21  C   UNL     1      62.676  23.687  50.642  1.00  0.00     0.053 C 
BRANCH  21  22
ATOM     22  C   UNL     1      62.508  22.221  50.892  1.00  0.00     0.041 C 
ATOM     23  O   UNL     1      63.425  21.564  51.454  1.00  0.00    -0.550 OA
ATOM     24  O   UNL     1      61.327  21.584  50.530  1.00  0.00    -0.550 OA
ENDBRANCH  21  22
ENDBRANCH  20  21
ENDBRANCH  19  20
ENDBRANCH  18  19
ENDBRANCH  17  18
ENDBRANCH  16  17
ENDBRANCH  15  16
ENDBRANCH  14  15
ENDBRANCH  13  14
ENDBRANCH   1  13
TORSDOF 20
ENDMDL
MODEL 7
REMARK VINA RESULT:    -2.781      1.832      2.336
REMARK INTER + INTRA:         -10.131
REMARK INTER:                  -5.827
REMARK INTRA:                  -4.304
REMARK UNBOUND:                -4.099
REMARK SMILES CCCCCCCCCCCCCCCCCCCCCC(=O)[O-]
REMARK SMILES IDX 12 1 11 2 10 3 9 4 8 5 7 6 6 7 5 8 4 9 3 10 2 11 1 12 13 13
REMARK SMILES IDX 14 14 15 15 16 16 17 17 18 18 19 19 20 20 21 21 22 22 23 23
REMARK SMILES IDX 24 24
REMARK H PARENT
REMARK Flexibility Score: inf
ROOT
ATOM      1  C   UNL     1      56.742  25.578  53.651  1.00  0.00     0.000 C 
ENDROOT
BRANCH   1   2
ATOM      2  C   UNL     1      55.896  25.048  52.482  1.00  0.00     0.000 C 
BRANCH   2   3
ATOM      3  C   UNL     1      56.622  25.236  51.142  1.00  0.00     0.000 C 
BRANCH   3   4
ATOM      4  C   UNL     1      55.694  25.771  50.039  1.00  0.00    -0.000 C 
BRANCH   4   5
ATOM      5  C   UNL     1      54.495  26.554  50.603  1.00  0.00    -0.000 C 
BRANCH   5   6
ATOM      6  C   UNL     1      54.707  28.081  50.534  1.00  0.00    -0.000 C 
BRANCH   6   7
ATOM      7  C   UNL     1      54.314  28.824  51.826  1.00  0.00    -0.000 C 
BRANCH   7   8
ATOM      8  C   UNL     1      53.798  27.918  52.957  1.00  0.00    -0.000 C 
BRANCH   8   9
ATOM      9  C   UNL     1      53.907  28.581  54.340  1.00  0.00    -0.000 C 
BRANCH   9  10
ATOM     10  C   UNL     1      55.364  28.815  54.767  1.00  0.00    -0.000 C 
BRANCH  10  11
ATOM     11  C   UNL     1      55.636  30.278  55.148  1.00  0.00    -0.003 C 
ATOM     12  C   UNL     1      56.381  31.008  54.033  1.00  0.00     0.004 C 
ENDBRANCH  10  11
ENDBRANCH   9  10
ENDBRANCH   8   9
ENDBRANCH   7   8
ENDBRANCH   6   7
ENDBRANCH   5   6
ENDBRANCH   4   5
ENDBRANCH   3   4
ENDBRANCH   2   3
ENDBRANCH   1   2
BRANCH   1  13
ATOM     13  C   UNL     1      58.129  26.085  53.212  1.00  0.00     0.000 C 
BRANCH  13  14
ATOM     14  C   UNL     1      58.511  27.486  53.724  1.00  0.00     0.000 C 
BRANCH  14  15
ATOM     15  C   UNL     1      59.126  28.381  52.634  1.00  0.00     0.000 C 
BRANCH  15  16
ATOM     16  C   UNL     1      58.109  28.788  51.551  1.00  0.00     0.000 C 
BRANCH  16  17
ATOM     17  C   UNL     1      58.523  28.459  50.105  1.00  0.00     0.000 C 
BRANCH  17  18
ATOM     18  C   UNL     1      59.891  27.767  50.014  1.00  0.00     0.000 C 
BRANCH  18  19
ATOM     19  C   UNL     1      59.731  26.283  49.652  1.00  0.00     0.000 C 
BRANCH  19  20
ATOM     20  C   UNL     1      60.616  25.365  50.508  1.00  0.00     0.006 C 
BRANCH  20  21
ATOM     21  C   UNL     1      61.836  26.091  51.090  1.00  0.00     0.053 C 
BRANCH  21  22
ATOM     22  C   UNL     1      63.051  25.826  50.257  1.00  0.00     0.041 C 
ATOM     23  O   UNL     1      63.426  26.666  49.397  1.00  0.00    -0.550 OA
ATOM     24  O   UNL     1      63.788  24.665  50.451  1.00  0.00    -0.550 OA
ENDBRANCH  21  22
ENDBRANCH  20  21
ENDBRANCH  19  20
ENDBRANCH  18  19
ENDBRANCH  17  18
ENDBRANCH  16  17
ENDBRANCH  15  16
ENDBRANCH  14  15
ENDBRANCH  13  14
ENDBRANCH   1  13
TORSDOF 20
ENDMDL
MODEL 8
REMARK VINA RESULT:    -2.750      3.001      4.640
REMARK INTER + INTRA:         -10.064
REMARK INTER:                  -6.150
REMARK INTRA:                  -3.914
REMARK UNBOUND:                -4.099
REMARK SMILES CCCCCCCCCCCCCCCCCCCCCC(=O)[O-]
REMARK SMILES IDX 12 1 11 2 10 3 9 4 8 5 7 6 6 7 5 8 4 9 3 10 2 11 1 12 13 13
REMARK SMILES IDX 14 14 15 15 16 16 17 17 18 18 19 19 20 20 21 21 22 22 23 23
REMARK SMILES IDX 24 24
REMARK H PARENT
REMARK Flexibility Score: inf
ROOT
ATOM      1  C   UNL     1      58.578  27.843  54.059  1.00  0.00     0.000 C 
ENDROOT
BRANCH   1   2
ATOM      2  C   UNL     1      57.090  27.462  54.013  1.00  0.00     0.000 C 
BRANCH   2   3
ATOM      3  C   UNL     1      56.272  28.305  55.002  1.00  0.00     0.000 C 
BRANCH   3   4
ATOM      4  C   UNL     1      54.756  28.110  54.829  1.00  0.00    -0.000 C 
BRANCH   4   5
ATOM      5  C   UNL     1      54.414  27.071  53.746  1.00  0.00    -0.000 C 
BRANCH   5   6
ATOM      6  C   UNL     1      53.435  27.627  52.689  1.00  0.00    -0.000 C 
BRANCH   6   7
ATOM      7  C   UNL     1      54.076  28.636  51.717  1.00  0.00    -0.000 C 
BRANCH   7   8
ATOM      8  C   UNL     1      54.639  28.018  50.425  1.00  0.00    -0.000 C 
BRANCH   8   9
ATOM      9  C   UNL     1      53.890  26.743  50.005  1.00  0.00    -0.000 C 
BRANCH   9  10
ATOM     10  C   UNL     1      54.834  25.550  49.790  1.00  0.00    -0.000 C 
BRANCH  10  11
ATOM     11  C   UNL     1      56.282  25.869  50.189  1.00  0.00    -0.003 C 
ATOM     12  C   UNL     1      56.695  25.090  51.435  1.00  0.00     0.004 C 
ENDBRANCH  10  11
ENDBRANCH   9  10
ENDBRANCH   8   9
ENDBRANCH   7   8
ENDBRANCH   6   7
ENDBRANCH   5   6
ENDBRANCH   4   5
ENDBRANCH   3   4
ENDBRANCH   2   3
ENDBRANCH   1   2
BRANCH   1  13
ATOM     13  C   UNL     1      59.027  28.672  52.841  1.00  0.00     0.000 C 
BRANCH  13  14
ATOM     14  C   UNL     1      57.976  28.831  51.727  1.00  0.00     0.000 C 
BRANCH  14  15
ATOM     15  C   UNL     1      58.552  28.610  50.317  1.00  0.00     0.000 C 
BRANCH  15  16
ATOM     16  C   UNL     1      60.091  28.573  50.298  1.00  0.00     0.000 C 
BRANCH  16  17
ATOM     17  C   UNL     1      60.710  27.354  49.591  1.00  0.00     0.000 C 
BRANCH  17  18
ATOM     18  C   UNL     1      59.830  26.098  49.680  1.00  0.00     0.000 C 
BRANCH  18  19
ATOM     19  C   UNL     1      60.609  24.925  50.295  1.00  0.00     0.000 C 
BRANCH  19  20
ATOM     20  C   UNL     1      61.127  25.234  51.708  1.00  0.00     0.006 C 
BRANCH  20  21
ATOM     21  C   UNL     1      60.130  24.838  52.805  1.00  0.00     0.053 C 
BRANCH  21  22
ATOM     22  C   UNL     1      60.152  23.359  53.027  1.00  0.00     0.041 C 
ATOM     23  O   UNL     1      61.172  22.807  53.519  1.00  0.00    -0.550 OA
ATOM     24  O   UNL     1      59.036  22.591  52.717  1.00  0.00    -0.550 OA
ENDBRANCH  21  22
ENDBRANCH  20  21
ENDBRANCH  19  20
ENDBRANCH  18  19
ENDBRANCH  17  18
ENDBRANCH  16  17
ENDBRANCH  15  16
ENDBRANCH  14  15
ENDBRANCH  13  14
ENDBRANCH   1  13
TORSDOF 20
ENDMDL
MODEL 9
REMARK VINA RESULT:    -2.745      2.915      3.673
REMARK INTER + INTRA:         -10.053
REMARK INTER:                  -5.818
REMARK INTRA:                  -4.234
REMARK UNBOUND:                -4.099
REMARK SMILES CCCCCCCCCCCCCCCCCCCCCC(=O)[O-]
REMARK SMILES IDX 12 1 11 2 10 3 9 4 8 5 7 6 6 7 5 8 4 9 3 10 2 11 1 12 13 13
REMARK SMILES IDX 14 14 15 15 16 16 17 17 18 18 19 19 20 20 21 21 22 22 23 23
REMARK SMILES IDX 24 24
REMARK H PARENT
REMARK Flexibility Score: inf
ROOT
ATOM      1  C   UNL     1      58.904  25.976  53.467  1.00  0.00     0.000 C 
ENDROOT
BRANCH   1   2
ATOM      2  C   UNL     1      57.988  25.022  52.685  1.00  0.00     0.000 C 
BRANCH   2   3
ATOM      3  C   UNL     1      56.739  25.751  52.169  1.00  0.00     0.000 C 
BRANCH   3   4
ATOM      4  C   UNL     1      56.343  25.309  50.750  1.00  0.00    -0.000 C 
BRANCH   4   5
ATOM      5  C   UNL     1      55.490  26.362  50.019  1.00  0.00    -0.000 C 
BRANCH   5   6
ATOM      6  C   UNL     1      54.607  27.176  50.988  1.00  0.00    -0.000 C 
BRANCH   6   7
ATOM      7  C   UNL     1      54.678  28.700  50.764  1.00  0.00    -0.000 C 
BRANCH   7   8
ATOM      8  C   UNL     1      54.403  29.548  52.017  1.00  0.00    -0.000 C 
BRANCH   8   9
ATOM      9  C   UNL     1      55.379  29.241  53.164  1.00  0.00    -0.000 C 
BRANCH   9  10
ATOM     10  C   UNL     1      54.657  28.894  54.475  1.00  0.00    -0.000 C 
BRANCH  10  11
ATOM     11  C   UNL     1      55.053  27.512  55.016  1.00  0.00    -0.003 C 
ATOM     12  C   UNL     1      54.044  26.446  54.598  1.00  0.00     0.004 C 
ENDBRANCH  10  11
ENDBRANCH   9  10
ENDBRANCH   8   9
ENDBRANCH   7   8
ENDBRANCH   6   7
ENDBRANCH   5   6
ENDBRANCH   4   5
ENDBRANCH   3   4
ENDBRANCH   2   3
ENDBRANCH   1   2
BRANCH   1  13
ATOM     13  C   UNL     1      58.422  27.438  53.437  1.00  0.00     0.000 C 
BRANCH  13  14
ATOM     14  C   UNL     1      59.422  28.451  52.848  1.00  0.00     0.000 C 
BRANCH  14  15
ATOM     15  C   UNL     1      58.799  29.362  51.776  1.00  0.00     0.000 C 
BRANCH  15  16
ATOM     16  C   UNL     1      58.383  28.595  50.507  1.00  0.00     0.000 C 
BRANCH  16  17
ATOM     17  C   UNL     1      59.545  28.095  49.630  1.00  0.00     0.000 C 
BRANCH  17  18
ATOM     18  C   UNL     1      59.742  26.573  49.706  1.00  0.00     0.000 C 
BRANCH  18  19
ATOM     19  C   UNL     1      61.069  26.226  50.397  1.00  0.00     0.000 C 
BRANCH  19  20
ATOM     20  C   UNL     1      61.475  24.758  50.198  1.00  0.00     0.006 C 
BRANCH  20  21
ATOM     21  C   UNL     1      61.295  23.916  51.468  1.00  0.00     0.053 C 
BRANCH  21  22
ATOM     22  C   UNL     1      60.755  22.562  51.129  1.00  0.00     0.041 C 
ATOM     23  O   UNL     1      60.965  22.062  49.992  1.00  0.00    -0.550 OA
ATOM     24  O   UNL     1      60.044  21.838  52.078  1.00  0.00    -0.550 OA
ENDBRANCH  21  22
ENDBRANCH  20  21
ENDBRANCH  19  20
ENDBRANCH  18  19
ENDBRANCH  17  18
ENDBRANCH  16  17
ENDBRANCH  15  16
ENDBRANCH  14  15
ENDBRANCH  13  14
ENDBRANCH   1  13
TORSDOF 20
ENDMDL
