MODEL 1
REMARK VINA RESULT:    -5.018      0.000      0.000
REMARK INTER + INTRA:          -6.458
REMARK INTER:                  -6.045
REMARK INTRA:                  -0.413
REMARK UNBOUND:                -0.413
REMARK SMILES O=c1c(O)c(-c2ccc(O)cc2O)oc2cc(O)cc(O)c12
REMARK SMILES IDX 5 1 3 2 2 3 1 4 22 5 20 6 19 7 17 8 16 9 15 10 14 11 6 12
REMARK SMILES IDX 8 13 7 14 9 15 11 16 12 17 10 18 13 20 4 22 21 24 18 26
REMARK H PARENT 10 19 13 21 4 23 21 25 18 27
REMARK Flexibility Score: inf
ROOT
ATOM      1  C   UNL     1     118.887 106.177 122.064  1.00  0.00     0.184 A 
ATOM      2  C   UNL     1     119.414 105.255 121.146  1.00  0.00     0.208 A 
ATOM      3  C   UNL     1     120.796 105.255 120.899  1.00  0.00     0.238 A 
ATOM      4  O   UNL     1     121.255 104.462 120.035  1.00  0.00    -0.285 OA
ATOM      5  C   UNL     1     121.634 106.166 121.586  1.00  0.00     0.111 A 
ATOM      6  C   UNL     1     123.052 106.228 121.444  1.00  0.00     0.134 A 
ATOM      7  C   UNL     1     123.766 107.255 122.074  1.00  0.00     0.093 A 
ATOM      8  C   UNL     1     123.122 108.182 122.892  1.00  0.00     0.123 A 
ATOM      9  C   UNL     1     121.743 108.096 123.086  1.00  0.00     0.094 A 
ATOM     10  C   UNL     1     120.999 107.104 122.442  1.00  0.00     0.146 A 
ATOM     11  O   UNL     1     119.687 107.063 122.644  1.00  0.00    -0.451 OA
ENDROOT
BRANCH   1  12
ATOM     12  C   UNL     1     117.445 106.219 122.382  1.00  0.00     0.063 A 
ATOM     13  C   UNL     1     115.258 107.205 121.985  1.00  0.00     0.047 A 
ATOM     14  C   UNL     1     116.625 107.135 121.704  1.00  0.00     0.020 A 
ATOM     15  C   UNL     1     114.695 106.372 122.955  1.00  0.00     0.119 A 
ATOM     16  C   UNL     1     115.509 105.470 123.654  1.00  0.00     0.093 A 
ATOM     17  C   UNL     1     116.884 105.398 123.382  1.00  0.00     0.130 A 
BRANCH  15  18
ATOM     18  O   UNL     1     113.330 106.449 123.222  1.00  0.00    -0.508 OA
ATOM     19  H   UNL     1     112.848 107.339 123.261  1.00  0.00     0.293 HD
ENDBRANCH  15  18
BRANCH  17  20
ATOM     20  O   UNL     1     117.691 104.532 124.119  1.00  0.00    -0.507 OA
ATOM     21  H   UNL     1     118.505 104.862 124.623  1.00  0.00     0.293 HD
ENDBRANCH  17  20
ENDBRANCH   1  12
BRANCH   2  22
ATOM     22  O   UNL     1     118.562 104.379 120.469  1.00  0.00    -0.502 OA
ATOM     23  H   UNL     1     117.566 104.339 120.651  1.00  0.00     0.293 HD
ENDBRANCH   2  22
BRANCH   6  24
ATOM     24  O   UNL     1     123.806 105.296 120.723  1.00  0.00    -0.507 OA
ATOM     25  H   UNL     1     124.311 104.525 121.133  1.00  0.00     0.293 HD
ENDBRANCH   6  24
BRANCH   8  26
ATOM     26  O   UNL     1     123.866 109.182 123.516  1.00  0.00    -0.508 OA
ATOM     27  H   UNL     1     124.810 109.402 123.223  1.00  0.00     0.293 HD
ENDBRANCH   8  26
TORSDOF 6
ENDMDL
MODEL 2
REMARK VINA RESULT:    -4.695     15.729     18.221
REMARK INTER + INTRA:          -6.069
REMARK INTER:                  -5.662
REMARK INTRA:                  -0.407
REMARK UNBOUND:                -0.413
REMARK SMILES O=c1c(O)c(-c2ccc(O)cc2O)oc2cc(O)cc(O)c12
REMARK SMILES IDX 5 1 3 2 2 3 1 4 22 5 20 6 19 7 17 8 16 9 15 10 14 11 6 12
REMARK SMILES IDX 8 13 7 14 9 15 11 16 12 17 10 18 13 20 4 22 21 24 18 26
REMARK H PARENT 10 19 13 21 4 23 21 25 18 27
REMARK Flexibility Score: inf
ROOT
ATOM      1  C   UNL     1     126.203 115.869 109.406  1.00  0.00     0.184 A 
ATOM      2  C   UNL     1     126.254 114.611 108.787  1.00  0.00     0.208 A 
ATOM      3  C   UNL     1     125.080 113.845 108.705  1.00  0.00     0.238 A 
ATOM      4  O   UNL     1     125.143 112.695 108.196  1.00  0.00    -0.285 OA
ATOM      5  C   UNL     1     123.869 114.355 109.230  1.00  0.00     0.111 A 
ATOM      6  C   UNL     1     122.611 113.684 109.166  1.00  0.00     0.134 A 
ATOM      7  C   UNL     1     121.504 114.224 109.833  1.00  0.00     0.093 A 
ATOM      8  C   UNL     1     121.593 115.443 110.505  1.00  0.00     0.123 A 
ATOM      9  C   UNL     1     122.802 116.138 110.523  1.00  0.00     0.094 A 
ATOM     10  C   UNL     1     123.933 115.607 109.898  1.00  0.00     0.146 A 
ATOM     11  O   UNL     1     125.069 116.294 109.948  1.00  0.00    -0.451 OA
ENDROOT
BRANCH   1  12
ATOM     12  C   UNL     1     127.398 116.732 109.512  1.00  0.00     0.063 A 
ATOM     13  C   UNL     1     129.559 117.171 110.534  1.00  0.00     0.047 A 
ATOM     14  C   UNL     1     128.419 116.374 110.405  1.00  0.00     0.020 A 
ATOM     15  C   UNL     1     129.688 118.342 109.781  1.00  0.00     0.119 A 
ATOM     16  C   UNL     1     128.664 118.720 108.904  1.00  0.00     0.093 A 
ATOM     17  C   UNL     1     127.513 117.928 108.774  1.00  0.00     0.130 A 
BRANCH  15  18
ATOM     18  O   UNL     1     130.832 119.125 109.917  1.00  0.00    -0.508 OA
ATOM     19  H   UNL     1     131.065 119.578 110.792  1.00  0.00     0.293 HD
ENDBRANCH  15  18
BRANCH  17  20
ATOM     20  O   UNL     1     126.479 118.341 107.933  1.00  0.00    -0.507 OA
ATOM     21  H   UNL     1     126.011 117.695 107.309  1.00  0.00     0.293 HD
ENDBRANCH  17  20
ENDBRANCH   1  12
BRANCH   2  22
ATOM     22  O   UNL     1     127.467 114.123 108.294  1.00  0.00    -0.502 OA
ATOM     23  H   UNL     1     127.823 113.206 108.535  1.00  0.00     0.293 HD
ENDBRANCH   2  22
BRANCH   6  24
ATOM     24  O   UNL     1     122.390 112.506 108.445  1.00  0.00    -0.507 OA
ATOM     25  H   UNL     1     121.522 111.991 108.438  1.00  0.00     0.293 HD
ENDBRANCH   6  24
BRANCH   8  26
ATOM     26  O   UNL     1     120.468 115.959 111.144  1.00  0.00    -0.508 OA
ATOM     27  H   UNL     1     120.283 115.776 112.123  1.00  0.00     0.293 HD
ENDBRANCH   8  26
TORSDOF 6
ENDMDL
MODEL 3
REMARK VINA RESULT:    -4.458      2.561      3.969
REMARK INTER + INTRA:          -5.783
REMARK INTER:                  -5.522
REMARK INTRA:                  -0.261
REMARK UNBOUND:                -0.413
REMARK SMILES O=c1c(O)c(-c2ccc(O)cc2O)oc2cc(O)cc(O)c12
REMARK SMILES IDX 5 1 3 2 2 3 1 4 22 5 20 6 19 7 17 8 16 9 15 10 14 11 6 12
REMARK SMILES IDX 8 13 7 14 9 15 11 16 12 17 10 18 13 20 4 22 21 24 18 26
REMARK H PARENT 10 19 13 21 4 23 21 25 18 27
REMARK Flexibility Score: inf
ROOT
ATOM      1  C   UNL     1     120.300 106.507 121.915  1.00  0.00     0.184 A 
ATOM      2  C   UNL     1     119.441 107.536 121.503  1.00  0.00     0.208 A 
ATOM      3  C   UNL     1     119.937 108.847 121.427  1.00  0.00     0.238 A 
ATOM      4  O   UNL     1     119.148 109.775 121.108  1.00  0.00    -0.285 OA
ATOM      5  C   UNL     1     121.291 109.107 121.749  1.00  0.00     0.111 A 
ATOM      6  C   UNL     1     121.912 110.389 121.669  1.00  0.00     0.134 A 
ATOM      7  C   UNL     1     123.222 110.554 122.137  1.00  0.00     0.093 A 
ATOM      8  C   UNL     1     123.954 109.471 122.621  1.00  0.00     0.123 A 
ATOM      9  C   UNL     1     123.378 108.200 122.648  1.00  0.00     0.094 A 
ATOM     10  C   UNL     1     122.061 108.012 122.222  1.00  0.00     0.146 A 
ATOM     11  O   UNL     1     121.546 106.789 122.275  1.00  0.00    -0.451 OA
ENDROOT
BRANCH   1  12
ATOM     12  C   UNL     1     119.845 105.103 122.002  1.00  0.00     0.063 A 
ATOM     13  C   UNL     1     119.972 102.823 121.166  1.00  0.00     0.047 A 
ATOM     14  C   UNL     1     120.384 104.157 121.116  1.00  0.00     0.020 A 
ATOM     15  C   UNL     1     119.007 102.420 122.093  1.00  0.00     0.119 A 
ATOM     16  C   UNL     1     118.445 103.361 122.966  1.00  0.00     0.093 A 
ATOM     17  C   UNL     1     118.850 104.704 122.917  1.00  0.00     0.130 A 
BRANCH  15  18
ATOM     18  O   UNL     1     118.608 101.086 122.135  1.00  0.00    -0.508 OA
ATOM     19  H   UNL     1     118.689 100.535 122.981  1.00  0.00     0.293 HD
ENDBRANCH  15  18
BRANCH  17  20
ATOM     20  O   UNL     1     118.248 105.640 123.758  1.00  0.00    -0.507 OA
ATOM     21  H   UNL     1     118.175 105.488 124.757  1.00  0.00     0.293 HD
ENDBRANCH  17  20
ENDBRANCH   1  12
BRANCH   2  22
ATOM     22  O   UNL     1     118.104 107.255 121.208  1.00  0.00    -0.502 OA
ATOM     23  H   UNL     1     117.348 107.475 121.845  1.00  0.00     0.293 HD
ENDBRANCH   2  22
BRANCH   6  24
ATOM     24  O   UNL     1     121.300 111.520 121.118  1.00  0.00    -0.507 OA
ATOM     25  H   UNL     1     121.209 112.409 121.587  1.00  0.00     0.293 HD
ENDBRANCH   6  24
BRANCH   8  26
ATOM     26  O   UNL     1     125.261 109.667 123.063  1.00  0.00    -0.508 OA
ATOM     27  H   UNL     1     125.465 110.232 123.879  1.00  0.00     0.293 HD
ENDBRANCH   8  26
TORSDOF 6
ENDMDL
MODEL 4
REMARK VINA RESULT:    -4.440     14.646     17.208
REMARK INTER + INTRA:          -5.762
REMARK INTER:                  -5.345
REMARK INTRA:                  -0.417
REMARK UNBOUND:                -0.413
REMARK SMILES O=c1c(O)c(-c2ccc(O)cc2O)oc2cc(O)cc(O)c12
REMARK SMILES IDX 5 1 3 2 2 3 1 4 22 5 20 6 19 7 17 8 16 9 15 10 14 11 6 12
REMARK SMILES IDX 8 13 7 14 9 15 11 16 12 17 10 18 13 20 4 22 21 24 18 26
REMARK H PARENT 10 19 13 21 4 23 21 25 18 27
REMARK Flexibility Score: inf
ROOT
ATOM      1  C   UNL     1     125.956 114.550 109.490  1.00  0.00     0.184 A 
ATOM      2  C   UNL     1     124.964 114.580 108.498  1.00  0.00     0.208 A 
ATOM      3  C   UNL     1     124.108 113.477 108.358  1.00  0.00     0.238 A 
ATOM      4  O   UNL     1     123.254 113.487 107.432  1.00  0.00    -0.285 OA
ATOM      5  C   UNL     1     124.245 112.365 109.224  1.00  0.00     0.111 A 
ATOM      6  C   UNL     1     123.408 111.210 109.199  1.00  0.00     0.134 A 
ATOM      7  C   UNL     1     123.717 110.114 110.015  1.00  0.00     0.093 A 
ATOM      8  C   UNL     1     124.793 110.156 110.900  1.00  0.00     0.123 A 
ATOM      9  C   UNL     1     125.584 111.303 110.976  1.00  0.00     0.094 A 
ATOM     10  C   UNL     1     125.322 112.399 110.149  1.00  0.00     0.146 A 
ATOM     11  O   UNL     1     126.105 113.468 110.243  1.00  0.00    -0.451 OA
ENDROOT
BRANCH   1  12
ATOM     12  C   UNL     1     126.879 115.684 109.700  1.00  0.00     0.063 A 
ATOM     13  C   UNL     1     127.277 117.894 110.634  1.00  0.00     0.047 A 
ATOM     14  C   UNL     1     126.431 116.802 110.422  1.00  0.00     0.020 A 
ATOM     15  C   UNL     1     128.575 117.889 110.117  1.00  0.00     0.119 A 
ATOM     16  C   UNL     1     129.024 116.789 109.375  1.00  0.00     0.093 A 
ATOM     17  C   UNL     1     128.179 115.691 109.153  1.00  0.00     0.130 A 
BRANCH  15  18
ATOM     18  O   UNL     1     129.408 118.983 110.339  1.00  0.00    -0.508 OA
ATOM     19  H   UNL     1     129.308 119.568 111.160  1.00  0.00     0.293 HD
ENDBRANCH  15  18
BRANCH  17  20
ATOM     20  O   UNL     1     128.621 114.623 108.372  1.00  0.00    -0.507 OA
ATOM     21  H   UNL     1     129.325 113.976 108.705  1.00  0.00     0.293 HD
ENDBRANCH  17  20
ENDBRANCH   1  12
BRANCH   2  22
ATOM     22  O   UNL     1     124.861 115.683 107.646  1.00  0.00    -0.502 OA
ATOM     23  H   UNL     1     124.139 115.759 106.940  1.00  0.00     0.293 HD
ENDBRANCH   2  22
BRANCH   6  24
ATOM     24  O   UNL     1     122.253 111.099 108.418  1.00  0.00    -0.507 OA
ATOM     25  H   UNL     1     121.386 110.688 108.729  1.00  0.00     0.293 HD
ENDBRANCH   6  24
BRANCH   8  26
ATOM     26  O   UNL     1     125.063 109.054 111.708  1.00  0.00    -0.508 OA
ATOM     27  H   UNL     1     125.897 108.494 111.581  1.00  0.00     0.293 HD
ENDBRANCH   8  26
TORSDOF 6
ENDMDL
MODEL 5
REMARK VINA RESULT:    -4.386     15.670     18.306
REMARK INTER + INTRA:          -5.696
REMARK INTER:                  -5.401
REMARK INTRA:                  -0.296
REMARK UNBOUND:                -0.413
REMARK SMILES O=c1c(O)c(-c2ccc(O)cc2O)oc2cc(O)cc(O)c12
REMARK SMILES IDX 5 1 3 2 2 3 1 4 22 5 20 6 19 7 17 8 16 9 15 10 14 11 6 12
REMARK SMILES IDX 8 13 7 14 9 15 11 16 12 17 10 18 13 20 4 22 21 24 18 26
REMARK H PARENT 10 19 13 21 4 23 21 25 18 27
REMARK Flexibility Score: inf
ROOT
ATOM      1  C   UNL     1     126.103 115.972 109.536  1.00  0.00     0.184 A 
ATOM      2  C   UNL     1     124.844 116.450 109.930  1.00  0.00     0.208 A 
ATOM      3  C   UNL     1     123.730 115.603 109.823  1.00  0.00     0.238 A 
ATOM      4  O   UNL     1     122.595 116.055 110.128  1.00  0.00    -0.285 OA
ATOM      5  C   UNL     1     123.894 114.282 109.340  1.00  0.00     0.111 A 
ATOM      6  C   UNL     1     122.843 113.324 109.228  1.00  0.00     0.134 A 
ATOM      7  C   UNL     1     123.095 112.090 108.614  1.00  0.00     0.093 A 
ATOM      8  C   UNL     1     124.373 111.756 108.168  1.00  0.00     0.123 A 
ATOM      9  C   UNL     1     125.422 112.662 108.327  1.00  0.00     0.094 A 
ATOM     10  C   UNL     1     125.194 113.914 108.902  1.00  0.00     0.146 A 
ATOM     11  O   UNL     1     126.217 114.753 109.025  1.00  0.00    -0.451 OA
ENDROOT
BRANCH   1  12
ATOM     12  C   UNL     1     127.318 116.807 109.638  1.00  0.00     0.063 A 
ATOM     13  C   UNL     1     129.454 117.244 110.712  1.00  0.00     0.047 A 
ATOM     14  C   UNL     1     128.297 116.472 110.586  1.00  0.00     0.020 A 
ATOM     15  C   UNL     1     129.643 118.367 109.902  1.00  0.00     0.119 A 
ATOM     16  C   UNL     1     128.661 118.723 108.968  1.00  0.00     0.093 A 
ATOM     17  C   UNL     1     127.493 117.956 108.840  1.00  0.00     0.130 A 
BRANCH  15  18
ATOM     18  O   UNL     1     130.804 119.125 110.035  1.00  0.00    -0.508 OA
ATOM     19  H   UNL     1     131.599 118.991 109.422  1.00  0.00     0.293 HD
ENDBRANCH  15  18
BRANCH  17  20
ATOM     20  O   UNL     1     126.502 118.349 107.940  1.00  0.00    -0.507 OA
ATOM     21  H   UNL     1     126.616 118.237 106.940  1.00  0.00     0.293 HD
ENDBRANCH  17  20
ENDBRANCH   1  12
BRANCH   2  22
ATOM     22  O   UNL     1     124.707 117.764 110.387  1.00  0.00    -0.502 OA
ATOM     23  H   UNL     1     124.124 118.446 109.917  1.00  0.00     0.293 HD
ENDBRANCH   2  22
BRANCH   6  24
ATOM     24  O   UNL     1     121.550 113.521 109.723  1.00  0.00    -0.507 OA
ATOM     25  H   UNL     1     120.794 112.858 109.636  1.00  0.00     0.293 HD
ENDBRANCH   6  24
BRANCH   8  26
ATOM     26  O   UNL     1     124.592 110.513 107.577  1.00  0.00    -0.508 OA
ATOM     27  H   UNL     1     125.473 110.024 107.681  1.00  0.00     0.293 HD
ENDBRANCH   8  26
TORSDOF 6
ENDMDL
MODEL 6
REMARK VINA RESULT:    -4.361      1.759      6.562
REMARK INTER + INTRA:          -5.666
REMARK INTER:                  -5.436
REMARK INTRA:                  -0.230
REMARK UNBOUND:                -0.413
REMARK SMILES O=c1c(O)c(-c2ccc(O)cc2O)oc2cc(O)cc(O)c12
REMARK SMILES IDX 5 1 3 2 2 3 1 4 22 5 20 6 19 7 17 8 16 9 15 10 14 11 6 12
REMARK SMILES IDX 8 13 7 14 9 15 11 16 12 17 10 18 13 20 4 22 21 24 18 26
REMARK H PARENT 10 19 13 21 4 23 21 25 18 27
REMARK Flexibility Score: inf
ROOT
ATOM      1  C   UNL     1     118.728 106.262 122.336  1.00  0.00     0.184 A 
ATOM      2  C   UNL     1     118.894 104.897 122.054  1.00  0.00     0.208 A 
ATOM      3  C   UNL     1     117.780 104.046 122.134  1.00  0.00     0.238 A 
ATOM      4  O   UNL     1     117.945 102.814 121.931  1.00  0.00    -0.285 OA
ATOM      5  C   UNL     1     116.513 104.576 122.478  1.00  0.00     0.111 A 
ATOM      6  C   UNL     1     115.309 103.814 122.549  1.00  0.00     0.134 A 
ATOM      7  C   UNL     1     114.138 104.415 123.027  1.00  0.00     0.093 A 
ATOM      8  C   UNL     1     114.112 105.765 123.375  1.00  0.00     0.123 A 
ATOM      9  C   UNL     1     115.269 106.535 123.253  1.00  0.00     0.094 A 
ATOM     10  C   UNL     1     116.461 105.954 122.813  1.00  0.00     0.146 A 
ATOM     11  O   UNL     1     117.544 106.719 122.722  1.00  0.00    -0.451 OA
ENDROOT
BRANCH   1  12
ATOM     12  C   UNL     1     119.856 107.214 122.256  1.00  0.00     0.063 A 
ATOM     13  C   UNL     1     122.109 107.827 122.931  1.00  0.00     0.047 A 
ATOM     14  C   UNL     1     121.027 106.944 122.980  1.00  0.00     0.020 A 
ATOM     15  C   UNL     1     122.030 108.996 122.169  1.00  0.00     0.119 A 
ATOM     16  C   UNL     1     120.856 109.286 121.461  1.00  0.00     0.093 A 
ATOM     17  C   UNL     1     119.763 108.408 121.510  1.00  0.00     0.130 A 
BRANCH  15  18
ATOM     18  O   UNL     1     123.118 109.865 122.126  1.00  0.00    -0.508 OA
ATOM     19  H   UNL     1     123.981 109.659 122.614  1.00  0.00     0.293 HD
ENDBRANCH  15  18
BRANCH  17  20
ATOM     20  O   UNL     1     118.583 108.732 120.841  1.00  0.00    -0.507 OA
ATOM     21  H   UNL     1     117.763 109.060 121.337  1.00  0.00     0.293 HD
ENDBRANCH  17  20
ENDBRANCH   1  12
BRANCH   2  22
ATOM     22  O   UNL     1     120.159 104.398 121.733  1.00  0.00    -0.502 OA
ATOM     23  H   UNL     1     120.554 103.584 122.189  1.00  0.00     0.293 HD
ENDBRANCH   2  22
BRANCH   6  24
ATOM     24  O   UNL     1     115.203 102.481 122.141  1.00  0.00    -0.507 OA
ATOM     25  H   UNL     1     114.343 102.032 121.861  1.00  0.00     0.293 HD
ENDBRANCH   6  24
BRANCH   8  26
ATOM     26  O   UNL     1     112.925 106.335 123.832  1.00  0.00    -0.508 OA
ATOM     27  H   UNL     1     112.677 107.292 123.611  1.00  0.00     0.293 HD
ENDBRANCH   8  26
TORSDOF 6
ENDMDL
MODEL 7
REMARK VINA RESULT:    -4.267     15.564     17.633
REMARK INTER + INTRA:          -5.554
REMARK INTER:                  -5.262
REMARK INTRA:                  -0.292
REMARK UNBOUND:                -0.413
REMARK SMILES O=c1c(O)c(-c2ccc(O)cc2O)oc2cc(O)cc(O)c12
REMARK SMILES IDX 5 1 3 2 2 3 1 4 22 5 20 6 19 7 17 8 16 9 15 10 14 11 6 12
REMARK SMILES IDX 8 13 7 14 9 15 11 16 12 17 10 18 13 20 4 22 21 24 18 26
REMARK H PARENT 10 19 13 21 4 23 21 25 18 27
REMARK Flexibility Score: inf
ROOT
ATOM      1  C   UNL     1     126.758 114.999 109.615  1.00  0.00     0.184 A 
ATOM      2  C   UNL     1     126.607 116.280 110.169  1.00  0.00     0.208 A 
ATOM      3  C   UNL     1     127.753 117.044 110.438  1.00  0.00     0.238 A 
ATOM      4  O   UNL     1     127.615 118.171 110.984  1.00  0.00    -0.285 OA
ATOM      5  C   UNL     1     129.034 116.523 110.135  1.00  0.00     0.111 A 
ATOM      6  C   UNL     1     130.261 117.225 110.328  1.00  0.00     0.134 A 
ATOM      7  C   UNL     1     131.477 116.563 110.115  1.00  0.00     0.093 A 
ATOM      8  C   UNL     1     131.510 115.247 109.654  1.00  0.00     0.123 A 
ATOM      9  C   UNL     1     130.316 114.570 109.404  1.00  0.00     0.094 A 
ATOM     10  C   UNL     1     129.087 115.192 109.642  1.00  0.00     0.146 A 
ATOM     11  O   UNL     1     127.973 114.509 109.403  1.00  0.00    -0.451 OA
ENDROOT
BRANCH   1  12
ATOM     12  C   UNL     1     125.593 114.149 109.293  1.00  0.00     0.063 A 
ATOM     13  C   UNL     1     124.333 112.110 109.699  1.00  0.00     0.047 A 
ATOM     14  C   UNL     1     125.420 112.940 109.984  1.00  0.00     0.020 A 
ATOM     15  C   UNL     1     123.411 112.472 108.713  1.00  0.00     0.119 A 
ATOM     16  C   UNL     1     123.587 113.666 108.001  1.00  0.00     0.093 A 
ATOM     17  C   UNL     1     124.680 114.501 108.277  1.00  0.00     0.130 A 
BRANCH  15  18
ATOM     18  O   UNL     1     122.329 111.637 108.443  1.00  0.00    -0.508 OA
ATOM     19  H   UNL     1     121.748 111.771 107.624  1.00  0.00     0.293 HD
ENDBRANCH  15  18
BRANCH  17  20
ATOM     20  O   UNL     1     124.871 115.663 107.528  1.00  0.00    -0.507 OA
ATOM     21  H   UNL     1     124.925 115.641 106.517  1.00  0.00     0.293 HD
ENDBRANCH  17  20
ENDBRANCH   1  12
BRANCH   2  22
ATOM     22  O   UNL     1     125.332 116.763 110.475  1.00  0.00    -0.502 OA
ATOM     23  H   UNL     1     124.872 116.564 111.355  1.00  0.00     0.293 HD
ENDBRANCH   2  22
BRANCH   6  24
ATOM     24  O   UNL     1     130.341 118.570 110.699  1.00  0.00    -0.507 OA
ATOM     25  H   UNL     1     130.383 118.902 111.652  1.00  0.00     0.293 HD
ENDBRANCH   6  24
BRANCH   8  26
ATOM     26  O   UNL     1     132.737 114.624 109.437  1.00  0.00    -0.508 OA
ATOM     27  H   UNL     1     133.612 115.087 109.653  1.00  0.00     0.293 HD
ENDBRANCH   8  26
TORSDOF 6
ENDMDL
MODEL 8
REMARK VINA RESULT:    -4.267     15.254     16.919
REMARK INTER + INTRA:          -5.553
REMARK INTER:                  -5.189
REMARK INTRA:                  -0.364
REMARK UNBOUND:                -0.413
REMARK SMILES O=c1c(O)c(-c2ccc(O)cc2O)oc2cc(O)cc(O)c12
REMARK SMILES IDX 5 1 3 2 2 3 1 4 22 5 20 6 19 7 17 8 16 9 15 10 14 11 6 12
REMARK SMILES IDX 8 13 7 14 9 15 11 16 12 17 10 18 13 20 4 22 21 24 18 26
REMARK H PARENT 10 19 13 21 4 23 21 25 18 27
REMARK Flexibility Score: inf
ROOT
ATOM      1  C   UNL     1     125.212 114.144 109.398  1.00  0.00     0.184 A 
ATOM      2  C   UNL     1     126.356 114.893 109.083  1.00  0.00     0.208 A 
ATOM      3  C   UNL     1     126.373 116.265 109.380  1.00  0.00     0.238 A 
ATOM      4  O   UNL     1     127.381 116.943 109.048  1.00  0.00    -0.285 OA
ATOM      5  C   UNL     1     125.252 116.865 110.002  1.00  0.00     0.111 A 
ATOM      6  C   UNL     1     125.175 118.238 110.385  1.00  0.00     0.134 A 
ATOM      7  C   UNL     1     123.968 118.753 110.874  1.00  0.00     0.093 A 
ATOM      8  C   UNL     1     122.856 117.931 111.055  1.00  0.00     0.123 A 
ATOM      9  C   UNL     1     122.938 116.575 110.741  1.00  0.00     0.094 A 
ATOM     10  C   UNL     1     124.117 116.039 110.217  1.00  0.00     0.146 A 
ATOM     11  O   UNL     1     124.150 114.745 109.919  1.00  0.00    -0.451 OA
ENDROOT
BRANCH   1  12
ATOM     12  C   UNL     1     125.134 112.693 109.126  1.00  0.00     0.063 A 
ATOM     13  C   UNL     1     125.987 110.455 109.538  1.00  0.00     0.047 A 
ATOM     14  C   UNL     1     126.030 111.831 109.777  1.00  0.00     0.020 A 
ATOM     15  C   UNL     1     125.059 109.925 108.638  1.00  0.00     0.119 A 
ATOM     16  C   UNL     1     124.177 110.780 107.966  1.00  0.00     0.093 A 
ATOM     17  C   UNL     1     124.217 112.164 108.195  1.00  0.00     0.130 A 
BRANCH  15  18
ATOM     18  O   UNL     1     125.026 108.550 108.413  1.00  0.00    -0.508 OA
ATOM     19  H   UNL     1     124.180 108.084 108.107  1.00  0.00     0.293 HD
ENDBRANCH  15  18
BRANCH  17  20
ATOM     20  O   UNL     1     123.366 113.010 107.483  1.00  0.00    -0.507 OA
ATOM     21  H   UNL     1     123.530 113.233 106.509  1.00  0.00     0.293 HD
ENDBRANCH  17  20
ENDBRANCH   1  12
BRANCH   2  22
ATOM     22  O   UNL     1     127.442 114.280 108.454  1.00  0.00    -0.502 OA
ATOM     23  H   UNL     1     127.409 113.972 107.489  1.00  0.00     0.293 HD
ENDBRANCH   2  22
BRANCH   6  24
ATOM     24  O   UNL     1     126.255 119.125 110.330  1.00  0.00    -0.507 OA
ATOM     25  H   UNL     1     126.761 119.363 109.489  1.00  0.00     0.293 HD
ENDBRANCH   6  24
BRANCH   8  26
ATOM     26  O   UNL     1     121.676 118.473 111.560  1.00  0.00    -0.508 OA
ATOM     27  H   UNL     1     121.437 119.448 111.419  1.00  0.00     0.293 HD
ENDBRANCH   8  26
TORSDOF 6
ENDMDL
MODEL 9
REMARK VINA RESULT:    -4.085      2.083      6.738
REMARK INTER + INTRA:          -5.334
REMARK INTER:                  -5.078
REMARK INTRA:                  -0.256
REMARK UNBOUND:                -0.413
REMARK SMILES O=c1c(O)c(-c2ccc(O)cc2O)oc2cc(O)cc(O)c12
REMARK SMILES IDX 5 1 3 2 2 3 1 4 22 5 20 6 19 7 17 8 16 9 15 10 14 11 6 12
REMARK SMILES IDX 8 13 7 14 9 15 11 16 12 17 10 18 13 20 4 22 21 24 18 26
REMARK H PARENT 10 19 13 21 4 23 21 25 18 27
REMARK Flexibility Score: inf
ROOT
ATOM      1  C   UNL     1     120.109 107.846 121.810  1.00  0.00     0.184 A 
ATOM      2  C   UNL     1     119.031 108.519 121.214  1.00  0.00     0.208 A 
ATOM      3  C   UNL     1     117.737 107.994 121.359  1.00  0.00     0.238 A 
ATOM      4  O   UNL     1     116.781 108.573 120.778  1.00  0.00    -0.285 OA
ATOM      5  C   UNL     1     117.538 106.811 122.111  1.00  0.00     0.111 A 
ATOM      6  C   UNL     1     116.266 106.212 122.357  1.00  0.00     0.134 A 
ATOM      7  C   UNL     1     116.200 104.972 123.004  1.00  0.00     0.093 A 
ATOM      8  C   UNL     1     117.352 104.341 123.471  1.00  0.00     0.123 A 
ATOM      9  C   UNL     1     118.596 104.946 123.289  1.00  0.00     0.094 A 
ATOM     10  C   UNL     1     118.698 106.166 122.615  1.00  0.00     0.146 A 
ATOM     11  O   UNL     1     119.901 106.704 122.453  1.00  0.00    -0.451 OA
ENDROOT
BRANCH   1  12
ATOM     12  C   UNL     1     121.493 108.353 121.709  1.00  0.00     0.063 A 
ATOM     13  C   UNL     1     123.352 109.054 120.308  1.00  0.00     0.047 A 
ATOM     14  C   UNL     1     122.044 108.581 120.439  1.00  0.00     0.020 A 
ATOM     15  C   UNL     1     124.130 109.294 121.444  1.00  0.00     0.119 A 
ATOM     16  C   UNL     1     123.597 109.048 122.716  1.00  0.00     0.093 A 
ATOM     17  C   UNL     1     122.287 108.566 122.855  1.00  0.00     0.130 A 
BRANCH  15  18
ATOM     18  O   UNL     1     125.431 109.770 121.299  1.00  0.00    -0.508 OA
ATOM     19  H   UNL     1     126.008 109.505 120.510  1.00  0.00     0.293 HD
ENDBRANCH  15  18
BRANCH  17  20
ATOM     20  O   UNL     1     121.785 108.279 124.125  1.00  0.00    -0.507 OA
ATOM     21  H   UNL     1     121.242 108.955 124.648  1.00  0.00     0.293 HD
ENDBRANCH  17  20
ENDBRANCH   1  12
BRANCH   2  22
ATOM     22  O   UNL     1     119.259 109.675 120.463  1.00  0.00    -0.502 OA
ATOM     23  H   UNL     1     120.178 109.931 120.123  1.00  0.00     0.293 HD
ENDBRANCH   2  22
BRANCH   6  24
ATOM     24  O   UNL     1     115.046 106.802 122.012  1.00  0.00    -0.507 OA
ATOM     25  H   UNL     1     114.155 106.326 122.021  1.00  0.00     0.293 HD
ENDBRANCH   6  24
BRANCH   8  26
ATOM     26  O   UNL     1     117.248 103.115 124.125  1.00  0.00    -0.508 OA
ATOM     27  H   UNL     1     117.784 102.308 123.827  1.00  0.00     0.293 HD
ENDBRANCH   8  26
TORSDOF 6
ENDMDL
