MODEL 1
REMARK VINA RESULT:    -5.036      0.000      0.000
REMARK INTER + INTRA:         -12.019
REMARK INTER:                  -9.452
REMARK INTRA:                  -2.567
REMARK UNBOUND:                -2.567
REMARK SMILES CCCCCCCCC=CCCCCCCCC(=O)[O-]
REMARK SMILES IDX 10 1 9 2 11 3 12 4 13 5 14 6 15 7 16 8 17 9 18 10 19 11
REMARK SMILES IDX 20 12 8 13 7 14 6 15 5 16 4 17 3 18 2 19 1 20
REMARK H PARENT
REMARK Flexibility Score: inf
ROOT
ATOM      1  C   UNL     1      15.041  -5.017 -14.124  1.00  0.00    -0.031 C 
ATOM      2  C   UNL     1      15.487  -4.086 -14.991  1.00  0.00    -0.031 C 
ENDROOT
BRANCH   1   3
ATOM      3  C   UNL     1      15.691  -6.358 -13.869  1.00  0.00     0.027 C 
BRANCH   3   4
ATOM      4  C   UNL     1      16.544  -6.338 -12.593  1.00  0.00     0.004 C 
BRANCH   4   5
ATOM      5  C   UNL     1      17.935  -6.951 -12.808  1.00  0.00     0.000 C 
BRANCH   5   6
ATOM      6  C   UNL     1      18.166  -7.277 -14.291  1.00  0.00     0.000 C 
BRANCH   6   7
ATOM      7  C   UNL     1      19.479  -8.036 -14.542  1.00  0.00     0.000 C 
BRANCH   7   8
ATOM      8  C   UNL     1      20.551  -7.875 -13.445  1.00  0.00     0.006 C 
BRANCH   8   9
ATOM      9  C   UNL     1      21.240  -9.195 -13.044  1.00  0.00     0.053 C 
BRANCH   9  10
ATOM     10  C   UNL     1      20.586  -9.851 -11.866  1.00  0.00     0.041 C 
ATOM     11  O   UNL     1      19.362 -10.150 -11.902  1.00  0.00    -0.550 OA
ATOM     12  O   UNL     1      21.338 -10.177 -10.744  1.00  0.00    -0.550 OA
ENDBRANCH   9  10
ENDBRANCH   8   9
ENDBRANCH   7   8
ENDBRANCH   6   7
ENDBRANCH   5   6
ENDBRANCH   4   5
ENDBRANCH   3   4
ENDBRANCH   1   3
BRANCH   2  13
ATOM     13  C   UNL     1      16.691  -4.239 -15.887  1.00  0.00     0.027 C 
BRANCH  13  14
ATOM     14  C   UNL     1      17.981  -3.802 -15.180  1.00  0.00     0.004 C 
BRANCH  14  15
ATOM     15  C   UNL     1      18.732  -2.752 -16.007  1.00  0.00     0.000 C 
BRANCH  15  16
ATOM     16  C   UNL     1      20.202  -3.154 -16.199  1.00  0.00     0.000 C 
BRANCH  16  17
ATOM     17  C   UNL     1      20.510  -4.552 -15.642  1.00  0.00    -0.000 C 
BRANCH  17  18
ATOM     18  C   UNL     1      21.133  -5.483 -16.692  1.00  0.00    -0.000 C 
BRANCH  18  19
ATOM     19  C   UNL     1      20.290  -5.506 -17.973  1.00  0.00    -0.003 C 
ATOM     20  C   UNL     1      19.042  -6.367 -17.798  1.00  0.00     0.004 C 
ENDBRANCH  18  19
ENDBRANCH  17  18
ENDBRANCH  16  17
ENDBRANCH  15  16
ENDBRANCH  14  15
ENDBRANCH  13  14
ENDBRANCH   2  13
TORSDOF 15
ENDMDL
MODEL 2
REMARK VINA RESULT:    -4.949      3.514      5.788
REMARK INTER + INTRA:         -11.856
REMARK INTER:                  -9.978
REMARK INTRA:                  -1.878
REMARK UNBOUND:                -2.567
REMARK SMILES CCCCCCCCC=CCCCCCCCC(=O)[O-]
REMARK SMILES IDX 10 1 9 2 11 3 12 4 13 5 14 6 15 7 16 8 17 9 18 10 19 11
REMARK SMILES IDX 20 12 8 13 7 14 6 15 5 16 4 17 3 18 2 19 1 20
REMARK H PARENT
REMARK Flexibility Score: inf
ROOT
ATOM      1  C   UNL     1      20.118  -4.188 -15.559  1.00  0.00    -0.031 C 
ATOM      2  C   UNL     1      19.170  -3.407 -16.114  1.00  0.00    -0.031 C 
ENDROOT
BRANCH   1   3
ATOM      3  C   UNL     1      20.250  -5.680 -15.758  1.00  0.00     0.027 C 
BRANCH   3   4
ATOM      4  C   UNL     1      20.338  -6.423 -14.417  1.00  0.00     0.004 C 
BRANCH   4   5
ATOM      5  C   UNL     1      19.313  -7.561 -14.308  1.00  0.00     0.000 C 
BRANCH   5   6
ATOM      6  C   UNL     1      18.034  -7.222 -15.090  1.00  0.00     0.000 C 
BRANCH   6   7
ATOM      7  C   UNL     1      16.816  -6.999 -14.180  1.00  0.00     0.000 C 
BRANCH   7   8
ATOM      8  C   UNL     1      17.096  -6.207 -12.888  1.00  0.00     0.006 C 
BRANCH   8   9
ATOM      9  C   UNL     1      16.229  -4.943 -12.727  1.00  0.00     0.053 C 
BRANCH   9  10
ATOM     10  C   UNL     1      14.761  -5.243 -12.761  1.00  0.00     0.041 C 
ATOM     11  O   UNL     1      14.178  -5.686 -11.735  1.00  0.00    -0.550 OA
ATOM     12  O   UNL     1      14.025  -4.991 -13.911  1.00  0.00    -0.550 OA
ENDBRANCH   9  10
ENDBRANCH   8   9
ENDBRANCH   7   8
ENDBRANCH   6   7
ENDBRANCH   5   6
ENDBRANCH   4   5
ENDBRANCH   3   4
ENDBRANCH   1   3
BRANCH   2  13
ATOM     13  C   UNL     1      18.051  -3.897 -17.000  1.00  0.00     0.027 C 
BRANCH  13  14
ATOM     14  C   UNL     1      16.726  -3.999 -16.233  1.00  0.00     0.004 C 
BRANCH  14  15
ATOM     15  C   UNL     1      15.672  -3.059 -16.829  1.00  0.00     0.000 C 
BRANCH  15  16
ATOM     16  C   UNL     1      15.705  -3.099 -18.363  1.00  0.00     0.000 C 
BRANCH  16  17
ATOM     17  C   UNL     1      15.516  -1.712 -18.996  1.00  0.00    -0.000 C 
BRANCH  17  18
ATOM     18  C   UNL     1      14.522  -0.837 -18.218  1.00  0.00    -0.000 C 
BRANCH  18  19
ATOM     19  C   UNL     1      13.234  -0.624 -19.023  1.00  0.00    -0.003 C 
ATOM     20  C   UNL     1      12.319   0.390 -18.343  1.00  0.00     0.004 C 
ENDBRANCH  18  19
ENDBRANCH  17  18
ENDBRANCH  16  17
ENDBRANCH  15  16
ENDBRANCH  14  15
ENDBRANCH  13  14
ENDBRANCH   2  13
TORSDOF 15
ENDMDL
MODEL 3
REMARK VINA RESULT:    -4.933      3.808      5.565
REMARK INTER + INTRA:         -11.826
REMARK INTER:                 -10.386
REMARK INTRA:                  -1.440
REMARK UNBOUND:                -2.567
REMARK SMILES CCCCCCCCC=CCCCCCCCC(=O)[O-]
REMARK SMILES IDX 10 1 9 2 11 3 12 4 13 5 14 6 15 7 16 8 17 9 18 10 19 11
REMARK SMILES IDX 20 12 8 13 7 14 6 15 5 16 4 17 3 18 2 19 1 20
REMARK H PARENT
REMARK Flexibility Score: inf
ROOT
ATOM      1  C   UNL     1      15.116  -5.202 -14.155  1.00  0.00    -0.031 C 
ATOM      2  C   UNL     1      15.553  -4.167 -14.901  1.00  0.00    -0.031 C 
ENDROOT
BRANCH   1   3
ATOM      3  C   UNL     1      15.888  -6.474 -13.885  1.00  0.00     0.027 C 
BRANCH   3   4
ATOM      4  C   UNL     1      16.807  -6.328 -12.664  1.00  0.00     0.004 C 
BRANCH   4   5
ATOM      5  C   UNL     1      17.994  -7.301 -12.703  1.00  0.00     0.000 C 
BRANCH   5   6
ATOM      6  C   UNL     1      18.968  -6.931 -13.832  1.00  0.00     0.000 C 
BRANCH   6   7
ATOM      7  C   UNL     1      19.467  -8.153 -14.619  1.00  0.00     0.000 C 
BRANCH   7   8
ATOM      8  C   UNL     1      18.906  -8.288 -16.049  1.00  0.00     0.006 C 
BRANCH   8   9
ATOM      9  C   UNL     1      19.025  -7.004 -16.893  1.00  0.00     0.053 C 
BRANCH   9  10
ATOM     10  C   UNL     1      18.956  -7.274 -18.365  1.00  0.00     0.041 C 
ATOM     11  O   UNL     1      19.454  -8.329 -18.843  1.00  0.00    -0.550 OA
ATOM     12  O   UNL     1      18.301  -6.384 -19.206  1.00  0.00    -0.550 OA
ENDBRANCH   9  10
ENDBRANCH   8   9
ENDBRANCH   7   8
ENDBRANCH   6   7
ENDBRANCH   5   6
ENDBRANCH   4   5
ENDBRANCH   3   4
ENDBRANCH   1   3
BRANCH   2  13
ATOM     13  C   UNL     1      16.872  -4.118 -15.629  1.00  0.00     0.027 C 
BRANCH  13  14
ATOM     14  C   UNL     1      16.678  -3.922 -17.139  1.00  0.00     0.004 C 
BRANCH  14  15
ATOM     15  C   UNL     1      16.423  -2.448 -17.474  1.00  0.00     0.000 C 
BRANCH  15  16
ATOM     16  C   UNL     1      15.003  -2.248 -18.024  1.00  0.00     0.000 C 
BRANCH  16  17
ATOM     17  C   UNL     1      14.490  -0.813 -17.831  1.00  0.00    -0.000 C 
BRANCH  17  18
ATOM     18  C   UNL     1      13.662  -0.315 -19.024  1.00  0.00    -0.000 C 
BRANCH  18  19
ATOM     19  C   UNL     1      12.438   0.477 -18.548  1.00  0.00    -0.003 C 
ATOM     20  C   UNL     1      11.143  -0.277 -18.840  1.00  0.00     0.004 C 
ENDBRANCH  18  19
ENDBRANCH  17  18
ENDBRANCH  16  17
ENDBRANCH  15  16
ENDBRANCH  14  15
ENDBRANCH  13  14
ENDBRANCH   2  13
TORSDOF 15
ENDMDL
MODEL 4
REMARK VINA RESULT:    -4.924      1.513      3.899
REMARK INTER + INTRA:         -11.810
REMARK INTER:                  -9.543
REMARK INTRA:                  -2.267
REMARK UNBOUND:                -2.567
REMARK SMILES CCCCCCCCC=CCCCCCCCC(=O)[O-]
REMARK SMILES IDX 10 1 9 2 11 3 12 4 13 5 14 6 15 7 16 8 17 9 18 10 19 11
REMARK SMILES IDX 20 12 8 13 7 14 6 15 5 16 4 17 3 18 2 19 1 20
REMARK H PARENT
REMARK Flexibility Score: inf
ROOT
ATOM      1  C   UNL     1      19.146  -7.916 -16.148  1.00  0.00    -0.031 C 
ATOM      2  C   UNL     1      18.994  -7.193 -17.276  1.00  0.00    -0.031 C 
ENDROOT
BRANCH   1   3
ATOM      3  C   UNL     1      18.737  -7.472 -14.762  1.00  0.00     0.027 C 
BRANCH   3   4
ATOM      4  C   UNL     1      19.907  -6.825 -14.007  1.00  0.00     0.004 C 
BRANCH   4   5
ATOM      5  C   UNL     1      20.222  -7.544 -12.687  1.00  0.00     0.000 C 
BRANCH   5   6
ATOM      6  C   UNL     1      19.076  -8.487 -12.290  1.00  0.00     0.000 C 
BRANCH   6   7
ATOM      7  C   UNL     1      19.548  -9.924 -12.016  1.00  0.00     0.000 C 
BRANCH   7   8
ATOM      8  C   UNL     1      21.016 -10.058 -11.564  1.00  0.00     0.006 C 
BRANCH   8   9
ATOM      9  C   UNL     1      21.183 -10.602 -10.132  1.00  0.00     0.053 C 
BRANCH   9  10
ATOM     10  C   UNL     1      21.299  -9.511  -9.111  1.00  0.00     0.041 C 
ATOM     11  O   UNL     1      21.558  -8.330  -9.468  1.00  0.00    -0.550 OA
ATOM     12  O   UNL     1      21.074  -9.787  -7.768  1.00  0.00    -0.550 OA
ENDBRANCH   9  10
ENDBRANCH   8   9
ENDBRANCH   7   8
ENDBRANCH   6   7
ENDBRANCH   5   6
ENDBRANCH   4   5
ENDBRANCH   3   4
ENDBRANCH   1   3
BRANCH   2  13
ATOM     13  C   UNL     1      18.424  -5.798 -17.343  1.00  0.00     0.027 C 
BRANCH  13  14
ATOM     14  C   UNL     1      19.500  -4.735 -17.088  1.00  0.00     0.004 C 
BRANCH  14  15
ATOM     15  C   UNL     1      19.130  -3.855 -15.887  1.00  0.00     0.000 C 
BRANCH  15  16
ATOM     16  C   UNL     1      17.606  -3.745 -15.738  1.00  0.00     0.000 C 
BRANCH  16  17
ATOM     17  C   UNL     1      17.105  -4.269 -14.383  1.00  0.00    -0.000 C 
BRANCH  17  18
ATOM     18  C   UNL     1      15.695  -4.871 -14.465  1.00  0.00    -0.000 C 
BRANCH  18  19
ATOM     19  C   UNL     1      15.606  -6.170 -13.655  1.00  0.00    -0.003 C 
ATOM     20  C   UNL     1      16.265  -6.015 -12.287  1.00  0.00     0.004 C 
ENDBRANCH  18  19
ENDBRANCH  17  18
ENDBRANCH  16  17
ENDBRANCH  15  16
ENDBRANCH  14  15
ENDBRANCH  13  14
ENDBRANCH   2  13
TORSDOF 15
ENDMDL
MODEL 5
REMARK VINA RESULT:    -4.921      4.248      6.285
REMARK INTER + INTRA:         -11.803
REMARK INTER:                  -9.327
REMARK INTRA:                  -2.477
REMARK UNBOUND:                -2.567
REMARK SMILES CCCCCCCCC=CCCCCCCCC(=O)[O-]
REMARK SMILES IDX 10 1 9 2 11 3 12 4 13 5 14 6 15 7 16 8 17 9 18 10 19 11
REMARK SMILES IDX 20 12 8 13 7 14 6 15 5 16 4 17 3 18 2 19 1 20
REMARK H PARENT
REMARK Flexibility Score: inf
ROOT
ATOM      1  C   UNL     1      17.653  -7.119 -12.891  1.00  0.00    -0.031 C 
ATOM      2  C   UNL     1      18.960  -7.443 -12.814  1.00  0.00    -0.031 C 
ENDROOT
BRANCH   1   3
ATOM      3  C   UNL     1      16.905  -6.795 -14.163  1.00  0.00     0.027 C 
BRANCH   3   4
ATOM      4  C   UNL     1      15.446  -6.409 -13.878  1.00  0.00     0.004 C 
BRANCH   4   5
ATOM      5  C   UNL     1      15.232  -4.889 -13.872  1.00  0.00     0.000 C 
BRANCH   5   6
ATOM      6  C   UNL     1      16.267  -4.187 -14.765  1.00  0.00     0.000 C 
BRANCH   6   7
ATOM      7  C   UNL     1      15.652  -3.588 -16.040  1.00  0.00     0.000 C 
BRANCH   7   8
ATOM      8  C   UNL     1      16.662  -3.210 -17.141  1.00  0.00     0.006 C 
BRANCH   8   9
ATOM      9  C   UNL     1      16.201  -3.574 -18.566  1.00  0.00     0.053 C 
BRANCH   9  10
ATOM     10  C   UNL     1      15.410  -2.478 -19.213  1.00  0.00     0.041 C 
ATOM     11  O   UNL     1      15.951  -1.370 -19.473  1.00  0.00    -0.550 OA
ATOM     12  O   UNL     1      14.086  -2.694 -19.574  1.00  0.00    -0.550 OA
ENDBRANCH   9  10
ENDBRANCH   8   9
ENDBRANCH   7   8
ENDBRANCH   6   7
ENDBRANCH   5   6
ENDBRANCH   4   5
ENDBRANCH   3   4
ENDBRANCH   1   3
BRANCH   2  13
ATOM     13  C   UNL     1      19.911  -7.497 -13.984  1.00  0.00     0.027 C 
BRANCH  13  14
ATOM     14  C   UNL     1      21.186  -6.688 -13.713  1.00  0.00     0.004 C 
BRANCH  14  15
ATOM     15  C   UNL     1      21.400  -5.620 -14.793  1.00  0.00     0.000 C 
BRANCH  15  16
ATOM     16  C   UNL     1      20.062  -4.999 -15.221  1.00  0.00     0.000 C 
BRANCH  16  17
ATOM     17  C   UNL     1      20.133  -4.340 -16.607  1.00  0.00    -0.000 C 
BRANCH  17  18
ATOM     18  C   UNL     1      19.803  -5.316 -17.745  1.00  0.00    -0.000 C 
BRANCH  18  19
ATOM     19  C   UNL     1      18.730  -6.322 -17.309  1.00  0.00    -0.003 C 
ATOM     20  C   UNL     1      19.166  -7.756 -17.595  1.00  0.00     0.004 C 
ENDBRANCH  18  19
ENDBRANCH  17  18
ENDBRANCH  16  17
ENDBRANCH  15  16
ENDBRANCH  14  15
ENDBRANCH  13  14
ENDBRANCH   2  13
TORSDOF 15
ENDMDL
MODEL 6
REMARK VINA RESULT:    -4.893      3.916      5.594
REMARK INTER + INTRA:         -11.750
REMARK INTER:                  -9.917
REMARK INTRA:                  -1.833
REMARK UNBOUND:                -2.567
REMARK SMILES CCCCCCCCC=CCCCCCCCC(=O)[O-]
REMARK SMILES IDX 10 1 9 2 11 3 12 4 13 5 14 6 15 7 16 8 17 9 18 10 19 11
REMARK SMILES IDX 20 12 8 13 7 14 6 15 5 16 4 17 3 18 2 19 1 20
REMARK H PARENT
REMARK Flexibility Score: inf
ROOT
ATOM      1  C   UNL     1      15.286  -5.407 -13.914  1.00  0.00    -0.031 C 
ATOM      2  C   UNL     1      15.488  -4.290 -14.642  1.00  0.00    -0.031 C 
ENDROOT
BRANCH   1   3
ATOM      3  C   UNL     1      16.078  -6.688 -14.040  1.00  0.00     0.027 C 
BRANCH   3   4
ATOM      4  C   UNL     1      17.228  -6.743 -13.024  1.00  0.00     0.004 C 
BRANCH   4   5
ATOM      5  C   UNL     1      18.599  -6.908 -13.698  1.00  0.00     0.000 C 
BRANCH   5   6
ATOM      6  C   UNL     1      18.443  -7.423 -15.137  1.00  0.00     0.000 C 
BRANCH   6   7
ATOM      7  C   UNL     1      19.196  -6.565 -16.166  1.00  0.00     0.000 C 
BRANCH   7   8
ATOM      8  C   UNL     1      19.895  -5.316 -15.595  1.00  0.00     0.006 C 
BRANCH   8   9
ATOM      9  C   UNL     1      20.437  -4.354 -16.670  1.00  0.00     0.053 C 
BRANCH   9  10
ATOM     10  C   UNL     1      20.517  -2.937 -16.189  1.00  0.00     0.041 C 
ATOM     11  O   UNL     1      19.487  -2.354 -15.755  1.00  0.00    -0.550 OA
ATOM     12  O   UNL     1      21.737  -2.274 -16.174  1.00  0.00    -0.550 OA
ENDBRANCH   9  10
ENDBRANCH   8   9
ENDBRANCH   7   8
ENDBRANCH   6   7
ENDBRANCH   5   6
ENDBRANCH   4   5
ENDBRANCH   3   4
ENDBRANCH   1   3
BRANCH   2  13
ATOM     13  C   UNL     1      16.514  -4.140 -15.736  1.00  0.00     0.027 C 
BRANCH  13  14
ATOM     14  C   UNL     1      15.969  -3.322 -16.914  1.00  0.00     0.004 C 
BRANCH  14  15
ATOM     15  C   UNL     1      16.506  -3.855 -18.249  1.00  0.00     0.000 C 
BRANCH  15  16
ATOM     16  C   UNL     1      15.639  -3.372 -19.421  1.00  0.00     0.000 C 
BRANCH  16  17
ATOM     17  C   UNL     1      14.297  -2.783 -18.960  1.00  0.00    -0.000 C 
BRANCH  17  18
ATOM     18  C   UNL     1      14.065  -1.358 -19.483  1.00  0.00    -0.000 C 
BRANCH  18  19
ATOM     19  C   UNL     1      13.830  -0.381 -18.325  1.00  0.00    -0.003 C 
ATOM     20  C   UNL     1      12.570   0.451 -18.550  1.00  0.00     0.004 C 
ENDBRANCH  18  19
ENDBRANCH  17  18
ENDBRANCH  16  17
ENDBRANCH  15  16
ENDBRANCH  14  15
ENDBRANCH  13  14
ENDBRANCH   2  13
TORSDOF 15
ENDMDL
MODEL 7
REMARK VINA RESULT:    -4.827      0.906      4.174
REMARK INTER + INTRA:         -11.626
REMARK INTER:                  -9.067
REMARK INTRA:                  -2.560
REMARK UNBOUND:                -2.567
REMARK SMILES CCCCCCCCC=CCCCCCCCC(=O)[O-]
REMARK SMILES IDX 10 1 9 2 11 3 12 4 13 5 14 6 15 7 16 8 17 9 18 10 19 11
REMARK SMILES IDX 20 12 8 13 7 14 6 15 5 16 4 17 3 18 2 19 1 20
REMARK H PARENT
REMARK Flexibility Score: inf
ROOT
ATOM      1  C   UNL     1      21.026  -5.344 -16.690  1.00  0.00    -0.031 C 
ATOM      2  C   UNL     1      21.076  -4.173 -16.023  1.00  0.00    -0.031 C 
ENDROOT
BRANCH   1   3
ATOM      3  C   UNL     1      20.120  -5.646 -17.861  1.00  0.00     0.027 C 
BRANCH   3   4
ATOM      4  C   UNL     1      18.913  -6.495 -17.438  1.00  0.00     0.004 C 
BRANCH   4   5
ATOM      5  C   UNL     1      19.316  -7.912 -17.004  1.00  0.00     0.000 C 
BRANCH   5   6
ATOM      6  C   UNL     1      18.690  -8.268 -15.647  1.00  0.00     0.000 C 
BRANCH   6   7
ATOM      7  C   UNL     1      18.627  -7.072 -14.683  1.00  0.00     0.000 C 
BRANCH   7   8
ATOM      8  C   UNL     1      19.738  -7.030 -13.615  1.00  0.00     0.006 C 
BRANCH   8   9
ATOM      9  C   UNL     1      20.462  -8.375 -13.410  1.00  0.00     0.053 C 
BRANCH   9  10
ATOM     10  C   UNL     1      20.074  -9.048 -12.128  1.00  0.00     0.041 C 
ATOM     11  O   UNL     1      19.163  -9.918 -12.117  1.00  0.00    -0.550 OA
ATOM     12  O   UNL     1      20.751  -8.749 -10.953  1.00  0.00    -0.550 OA
ENDBRANCH   9  10
ENDBRANCH   8   9
ENDBRANCH   7   8
ENDBRANCH   6   7
ENDBRANCH   5   6
ENDBRANCH   4   5
ENDBRANCH   3   4
ENDBRANCH   1   3
BRANCH   2  13
ATOM     13  C   UNL     1      20.207  -2.974 -16.307  1.00  0.00     0.027 C 
BRANCH  13  14
ATOM     14  C   UNL     1      18.822  -3.114 -15.662  1.00  0.00     0.004 C 
BRANCH  14  15
ATOM     15  C   UNL     1      17.713  -3.043 -16.719  1.00  0.00     0.000 C 
BRANCH  15  16
ATOM     16  C   UNL     1      16.493  -3.870 -16.290  1.00  0.00     0.000 C 
BRANCH  16  17
ATOM     17  C   UNL     1      16.523  -4.239 -14.798  1.00  0.00    -0.000 C 
BRANCH  17  18
ATOM     18  C   UNL     1      15.159  -4.715 -14.279  1.00  0.00    -0.000 C 
BRANCH  18  19
ATOM     19  C   UNL     1      15.293  -6.045 -13.527  1.00  0.00    -0.003 C 
ATOM     20  C   UNL     1      15.949  -5.845 -12.164  1.00  0.00     0.004 C 
ENDBRANCH  18  19
ENDBRANCH  17  18
ENDBRANCH  16  17
ENDBRANCH  15  16
ENDBRANCH  14  15
ENDBRANCH  13  14
ENDBRANCH   2  13
TORSDOF 15
ENDMDL
MODEL 8
REMARK VINA RESULT:    -4.819      1.299      2.677
REMARK INTER + INTRA:         -11.612
REMARK INTER:                  -8.705
REMARK INTRA:                  -2.907
REMARK UNBOUND:                -2.567
REMARK SMILES CCCCCCCCC=CCCCCCCCC(=O)[O-]
REMARK SMILES IDX 10 1 9 2 11 3 12 4 13 5 14 6 15 7 16 8 17 9 18 10 19 11
REMARK SMILES IDX 20 12 8 13 7 14 6 15 5 16 4 17 3 18 2 19 1 20
REMARK H PARENT
REMARK Flexibility Score: inf
ROOT
ATOM      1  C   UNL     1      16.288  -3.986 -16.831  1.00  0.00    -0.031 C 
ATOM      2  C   UNL     1      17.584  -3.775 -17.135  1.00  0.00    -0.031 C 
ENDROOT
BRANCH   1   3
ATOM      3  C   UNL     1      15.573  -3.439 -15.616  1.00  0.00     0.027 C 
BRANCH   3   4
ATOM      4  C   UNL     1      15.411  -4.509 -14.527  1.00  0.00     0.004 C 
BRANCH   4   5
ATOM      5  C   UNL     1      16.566  -4.495 -13.515  1.00  0.00     0.000 C 
BRANCH   5   6
ATOM      6  C   UNL     1      17.071  -5.920 -13.242  1.00  0.00     0.000 C 
BRANCH   6   7
ATOM      7  C   UNL     1      17.331  -6.721 -14.527  1.00  0.00     0.000 C 
BRANCH   7   8
ATOM      8  C   UNL     1      18.707  -7.412 -14.604  1.00  0.00     0.006 C 
BRANCH   8   9
ATOM      9  C   UNL     1      19.732  -6.882 -13.582  1.00  0.00     0.053 C 
BRANCH   9  10
ATOM     10  C   UNL     1      20.068  -7.891 -12.526  1.00  0.00     0.041 C 
ATOM     11  O   UNL     1      21.117  -7.769 -11.839  1.00  0.00    -0.550 OA
ATOM     12  O   UNL     1      19.198  -8.942 -12.267  1.00  0.00    -0.550 OA
ENDBRANCH   9  10
ENDBRANCH   8   9
ENDBRANCH   7   8
ENDBRANCH   6   7
ENDBRANCH   5   6
ENDBRANCH   4   5
ENDBRANCH   3   4
ENDBRANCH   1   3
BRANCH   2  13
ATOM     13  C   UNL     1      18.556  -2.987 -16.293  1.00  0.00     0.027 C 
BRANCH  13  14
ATOM     14  C   UNL     1      19.613  -3.895 -15.651  1.00  0.00     0.004 C 
BRANCH  14  15
ATOM     15  C   UNL     1      20.834  -4.050 -16.567  1.00  0.00     0.000 C 
BRANCH  15  16
ATOM     16  C   UNL     1      20.864  -5.444 -17.209  1.00  0.00     0.000 C 
BRANCH  16  17
ATOM     17  C   UNL     1      20.781  -5.392 -18.742  1.00  0.00    -0.000 C 
BRANCH  17  18
ATOM     18  C   UNL     1      19.484  -6.008 -19.286  1.00  0.00    -0.000 C 
BRANCH  18  19
ATOM     19  C   UNL     1      18.910  -7.035 -18.302  1.00  0.00    -0.003 C 
ATOM     20  C   UNL     1      19.409  -8.442 -18.619  1.00  0.00     0.004 C 
ENDBRANCH  18  19
ENDBRANCH  17  18
ENDBRANCH  16  17
ENDBRANCH  15  16
ENDBRANCH  14  15
ENDBRANCH  13  14
ENDBRANCH   2  13
TORSDOF 15
ENDMDL
MODEL 9
REMARK VINA RESULT:    -4.818      2.805      5.483
REMARK INTER + INTRA:         -11.610
REMARK INTER:                  -8.844
REMARK INTRA:                  -2.767
REMARK UNBOUND:                -2.567
REMARK SMILES CCCCCCCCC=CCCCCCCCC(=O)[O-]
REMARK SMILES IDX 10 1 9 2 11 3 12 4 13 5 14 6 15 7 16 8 17 9 18 10 19 11
REMARK SMILES IDX 20 12 8 13 7 14 6 15 5 16 4 17 3 18 2 19 1 20
REMARK H PARENT
REMARK Flexibility Score: inf
ROOT
ATOM      1  C   UNL     1      16.949  -6.721 -12.945  1.00  0.00    -0.031 C 
ATOM      2  C   UNL     1      18.195  -7.108 -13.286  1.00  0.00    -0.031 C 
ENDROOT
BRANCH   1   3
ATOM      3  C   UNL     1      15.758  -6.686 -13.876  1.00  0.00     0.027 C 
BRANCH   3   4
ATOM      4  C   UNL     1      15.015  -5.345 -13.792  1.00  0.00     0.004 C 
BRANCH   4   5
ATOM      5  C   UNL     1      15.948  -4.143 -14.000  1.00  0.00     0.000 C 
BRANCH   5   6
ATOM      6  C   UNL     1      16.554  -4.160 -15.412  1.00  0.00     0.000 C 
BRANCH   6   7
ATOM      7  C   UNL     1      18.081  -3.988 -15.412  1.00  0.00     0.000 C 
BRANCH   7   8
ATOM      8  C   UNL     1      18.779  -4.309 -16.749  1.00  0.00     0.006 C 
BRANCH   8   9
ATOM      9  C   UNL     1      18.021  -5.329 -17.622  1.00  0.00     0.053 C 
BRANCH   9  10
ATOM     10  C   UNL     1      18.942  -6.259 -18.352  1.00  0.00     0.041 C 
ATOM     11  O   UNL     1      18.478  -7.114 -19.153  1.00  0.00    -0.550 OA
ATOM     12  O   UNL     1      20.316  -6.152 -18.184  1.00  0.00    -0.550 OA
ENDBRANCH   9  10
ENDBRANCH   8   9
ENDBRANCH   7   8
ENDBRANCH   6   7
ENDBRANCH   5   6
ENDBRANCH   4   5
ENDBRANCH   3   4
ENDBRANCH   1   3
BRANCH   2  13
ATOM     13  C   UNL     1      18.624  -7.535 -14.667  1.00  0.00     0.027 C 
BRANCH  13  14
ATOM     14  C   UNL     1      20.128  -7.321 -14.883  1.00  0.00     0.004 C 
BRANCH  14  15
ATOM     15  C   UNL     1      20.712  -6.397 -13.808  1.00  0.00     0.000 C 
BRANCH  15  16
ATOM     16  C   UNL     1      22.061  -6.928 -13.302  1.00  0.00     0.000 C 
BRANCH  16  17
ATOM     17  C   UNL     1      21.953  -8.336 -12.698  1.00  0.00    -0.000 C 
BRANCH  17  18
ATOM     18  C   UNL     1      21.161  -8.358 -11.383  1.00  0.00    -0.000 C 
BRANCH  18  19
ATOM     19  C   UNL     1      20.662  -9.773 -11.067  1.00  0.00    -0.003 C 
ATOM     20  C   UNL     1      19.523 -10.179 -11.999  1.00  0.00     0.004 C 
ENDBRANCH  18  19
ENDBRANCH  17  18
ENDBRANCH  16  17
ENDBRANCH  15  16
ENDBRANCH  14  15
ENDBRANCH  13  14
ENDBRANCH   2  13
TORSDOF 15
ENDMDL
