MODEL 1
REMARK VINA RESULT:     0.000      0.000      0.000
REMARK INTER + INTRA:          -3.722
REMARK INTER:                   0.000
REMARK INTRA:                  -3.722
REMARK UNBOUND:                -3.722
REMARK SMILES CCCCCCCCC=CCCCCCCCC(=O)[O-]
REMARK SMILES IDX 10 1 9 2 11 3 12 4 13 5 14 6 15 7 16 8 17 9 18 10 19 11
REMARK SMILES IDX 20 12 8 13 7 14 6 15 5 16 4 17 3 18 2 19 1 20
REMARK H PARENT
REMARK Flexibility Score: inf
ROOT
ATOM      1  C   UNL     1      -3.440  -4.800  -8.927  1.00  0.00    -0.031 C 
ATOM      2  C   UNL     1      -4.630  -5.314  -9.290  1.00  0.00    -0.031 C 
ENDROOT
BRANCH   1   3
ATOM      3  C   UNL     1      -2.633  -3.829  -9.755  1.00  0.00     0.027 C 
BRANCH   3   4
ATOM      4  C   UNL     1      -2.995  -2.368  -9.440  1.00  0.00     0.004 C 
BRANCH   4   5
ATOM      5  C   UNL     1      -3.225  -1.502 -10.693  1.00  0.00     0.000 C 
BRANCH   5   6
ATOM      6  C   UNL     1      -2.795  -2.216 -11.986  1.00  0.00     0.000 C 
BRANCH   6   7
ATOM      7  C   UNL     1      -3.956  -2.402 -12.976  1.00  0.00     0.000 C 
BRANCH   7   8
ATOM      8  C   UNL     1      -3.898  -3.747 -13.717  1.00  0.00     0.006 C 
BRANCH   8   9
ATOM      9  C   UNL     1      -2.626  -4.520 -13.354  1.00  0.00     0.053 C 
BRANCH   9  10
ATOM     10  C   UNL     1      -2.959  -5.930 -12.982  1.00  0.00     0.041 C 
ATOM     11  O   UNL     1      -2.299  -6.523 -12.088  1.00  0.00    -0.550 OA
ATOM     12  O   UNL     1      -3.967  -6.607 -13.657  1.00  0.00    -0.550 OA
ENDBRANCH   9  10
ENDBRANCH   8   9
ENDBRANCH   7   8
ENDBRANCH   6   7
ENDBRANCH   5   6
ENDBRANCH   4   5
ENDBRANCH   3   4
ENDBRANCH   1   3
BRANCH   2  13
ATOM     13  C   UNL     1      -5.397  -4.917 -10.529  1.00  0.00     0.027 C 
BRANCH  13  14
ATOM     14  C   UNL     1      -6.708  -4.187 -10.189  1.00  0.00     0.004 C 
BRANCH  14  15
ATOM     15  C   UNL     1      -6.777  -2.731 -10.692  1.00  0.00     0.000 C 
BRANCH  15  16
ATOM     16  C   UNL     1      -6.741  -1.655  -9.592  1.00  0.00     0.000 C 
BRANCH  16  17
ATOM     17  C   UNL     1      -6.926  -2.239  -8.180  1.00  0.00    -0.000 C 
BRANCH  17  18
ATOM     18  C   UNL     1      -5.806  -1.813  -7.215  1.00  0.00    -0.000 C 
BRANCH  18  19
ATOM     19  C   UNL     1      -5.320  -2.971  -6.332  1.00  0.00    -0.003 C 
ATOM     20  C   UNL     1      -6.348  -4.099  -6.291  1.00  0.00     0.004 C 
ENDBRANCH  18  19
ENDBRANCH  17  18
ENDBRANCH  16  17
ENDBRANCH  15  16
ENDBRANCH  14  15
ENDBRANCH  13  14
ENDBRANCH   2  13
TORSDOF 15
ENDMDL
MODEL 2
REMARK VINA RESULT:     0.026      3.467      5.623
REMARK INTER + INTRA:          -3.673
REMARK INTER:                   0.000
REMARK INTRA:                  -3.673
REMARK UNBOUND:                -3.722
REMARK SMILES CCCCCCCCC=CCCCCCCCC(=O)[O-]
REMARK SMILES IDX 10 1 9 2 11 3 12 4 13 5 14 6 15 7 16 8 17 9 18 10 19 11
REMARK SMILES IDX 20 12 8 13 7 14 6 15 5 16 4 17 3 18 2 19 1 20
REMARK H PARENT
REMARK Flexibility Score: inf
ROOT
ATOM      1  C   UNL     1      -7.513  -5.133  -8.876  1.00  0.00    -0.031 C 
ATOM      2  C   UNL     1      -6.912  -4.257  -9.702  1.00  0.00    -0.031 C 
ENDROOT
BRANCH   1   3
ATOM      3  C   UNL     1      -8.029  -6.492  -9.287  1.00  0.00     0.027 C 
BRANCH   3   4
ATOM      4  C   UNL     1      -6.968  -7.589  -9.094  1.00  0.00     0.004 C 
BRANCH   4   5
ATOM      5  C   UNL     1      -6.795  -8.506 -10.319  1.00  0.00     0.000 C 
BRANCH   5   6
ATOM      6  C   UNL     1      -7.913  -8.315 -11.357  1.00  0.00     0.000 C 
BRANCH   6   7
ATOM      7  C   UNL     1      -7.379  -7.891 -12.735  1.00  0.00     0.000 C 
BRANCH   7   8
ATOM      8  C   UNL     1      -8.276  -6.855 -13.429  1.00  0.00     0.006 C 
BRANCH   8   9
ATOM      9  C   UNL     1      -9.569  -6.630 -12.638  1.00  0.00     0.053 C 
BRANCH   9  10
ATOM     10  C   UNL     1      -9.864  -5.168 -12.521  1.00  0.00     0.041 C 
ATOM     11  O   UNL     1      -9.679  -4.403 -13.504  1.00  0.00    -0.550 OA
ATOM     12  O   UNL     1     -10.297  -4.641 -11.311  1.00  0.00    -0.550 OA
ENDBRANCH   9  10
ENDBRANCH   8   9
ENDBRANCH   7   8
ENDBRANCH   6   7
ENDBRANCH   5   6
ENDBRANCH   4   5
ENDBRANCH   3   4
ENDBRANCH   1   3
BRANCH   2  13
ATOM     13  C   UNL     1      -6.559  -4.537 -11.143  1.00  0.00     0.027 C 
BRANCH  13  14
ATOM     14  C   UNL     1      -5.038  -4.549 -11.374  1.00  0.00     0.004 C 
BRANCH  14  15
ATOM     15  C   UNL     1      -4.453  -5.939 -11.700  1.00  0.00     0.000 C 
BRANCH  15  16
ATOM     16  C   UNL     1      -3.634  -6.587 -10.569  1.00  0.00     0.000 C 
BRANCH  16  17
ATOM     17  C   UNL     1      -3.404  -5.638  -9.380  1.00  0.00    -0.000 C 
BRANCH  17  18
ATOM     18  C   UNL     1      -3.687  -6.310  -8.025  1.00  0.00    -0.000 C 
BRANCH  18  19
ATOM     19  C   UNL     1      -4.354  -5.357  -7.024  1.00  0.00    -0.003 C 
ATOM     20  C   UNL     1      -5.260  -6.118  -6.060  1.00  0.00     0.004 C 
ENDBRANCH  18  19
ENDBRANCH  17  18
ENDBRANCH  16  17
ENDBRANCH  15  16
ENDBRANCH  14  15
ENDBRANCH  13  14
ENDBRANCH   2  13
TORSDOF 15
ENDMDL
MODEL 3
REMARK VINA RESULT:     0.041      4.584      6.282
REMARK INTER + INTRA:          -3.645
REMARK INTER:                   0.000
REMARK INTRA:                  -3.645
REMARK UNBOUND:                -3.722
REMARK SMILES CCCCCCCCC=CCCCCCCCC(=O)[O-]
REMARK SMILES IDX 10 1 9 2 11 3 12 4 13 5 14 6 15 7 16 8 17 9 18 10 19 11
REMARK SMILES IDX 20 12 8 13 7 14 6 15 5 16 4 17 3 18 2 19 1 20
REMARK H PARENT
REMARK Flexibility Score: inf
ROOT
ATOM      1  C   UNL     1      -5.671  -6.869  -8.220  1.00  0.00    -0.031 C 
ATOM      2  C   UNL     1      -6.138  -8.126  -8.100  1.00  0.00    -0.031 C 
ENDROOT
BRANCH   1   3
ATOM      3  C   UNL     1      -4.209  -6.493  -8.267  1.00  0.00     0.027 C 
BRANCH   3   4
ATOM      4  C   UNL     1      -3.795  -5.651  -7.048  1.00  0.00     0.004 C 
BRANCH   4   5
ATOM      5  C   UNL     1      -2.369  -5.947  -6.547  1.00  0.00     0.000 C 
BRANCH   5   6
ATOM      6  C   UNL     1      -1.557  -6.785  -7.550  1.00  0.00     0.000 C 
BRANCH   6   7
ATOM      7  C   UNL     1      -0.774  -7.923  -6.876  1.00  0.00     0.000 C 
BRANCH   7   8
ATOM      8  C   UNL     1      -0.682  -9.182  -7.751  1.00  0.00     0.006 C 
BRANCH   8   9
ATOM      9  C   UNL     1      -1.637  -9.093  -8.945  1.00  0.00     0.053 C 
BRANCH   9  10
ATOM     10  C   UNL     1      -1.856 -10.447  -9.543  1.00  0.00     0.041 C 
ATOM     11  O   UNL     1      -2.377 -11.366  -8.857  1.00  0.00    -0.550 OA
ATOM     12  O   UNL     1      -1.441 -10.707 -10.843  1.00  0.00    -0.550 OA
ENDBRANCH   9  10
ENDBRANCH   8   9
ENDBRANCH   7   8
ENDBRANCH   6   7
ENDBRANCH   5   6
ENDBRANCH   4   5
ENDBRANCH   3   4
ENDBRANCH   1   3
BRANCH   2  13
ATOM     13  C   UNL     1      -5.277  -9.366  -8.106  1.00  0.00     0.027 C 
BRANCH  13  14
ATOM     14  C   UNL     1      -5.195 -10.020  -6.715  1.00  0.00     0.004 C 
BRANCH  14  15
ATOM     15  C   UNL     1      -3.842  -9.830  -5.999  1.00  0.00     0.000 C 
BRANCH  15  16
ATOM     16  C   UNL     1      -3.846  -8.804  -4.852  1.00  0.00     0.000 C 
BRANCH  16  17
ATOM     17  C   UNL     1      -5.260  -8.505  -4.323  1.00  0.00    -0.000 C 
BRANCH  17  18
ATOM     18  C   UNL     1      -5.527  -6.998  -4.172  1.00  0.00    -0.000 C 
BRANCH  18  19
ATOM     19  C   UNL     1      -6.895  -6.584  -4.733  1.00  0.00    -0.003 C 
ATOM     20  C   UNL     1      -7.831  -7.785  -4.838  1.00  0.00     0.004 C 
ENDBRANCH  18  19
ENDBRANCH  17  18
ENDBRANCH  16  17
ENDBRANCH  15  16
ENDBRANCH  14  15
ENDBRANCH  13  14
ENDBRANCH   2  13
TORSDOF 15
ENDMDL
MODEL 4
REMARK VINA RESULT:     0.043      8.342     10.913
REMARK INTER + INTRA:          -3.641
REMARK INTER:                   0.000
REMARK INTRA:                  -3.641
REMARK UNBOUND:                -3.722
REMARK SMILES CCCCCCCCC=CCCCCCCCC(=O)[O-]
REMARK SMILES IDX 10 1 9 2 11 3 12 4 13 5 14 6 15 7 16 8 17 9 18 10 19 11
REMARK SMILES IDX 20 12 8 13 7 14 6 15 5 16 4 17 3 18 2 19 1 20
REMARK H PARENT
REMARK Flexibility Score: inf
ROOT
ATOM      1  C   UNL     1       6.483   1.613 -11.717  1.00  0.00    -0.031 C 
ATOM      2  C   UNL     1       6.198   1.156 -10.484  1.00  0.00    -0.031 C 
ENDROOT
BRANCH   1   3
ATOM      3  C   UNL     1       5.454   2.036 -12.739  1.00  0.00     0.027 C 
BRANCH   3   4
ATOM      4  C   UNL     1       5.202   0.937 -13.785  1.00  0.00     0.004 C 
BRANCH   4   5
ATOM      5  C   UNL     1       3.713   0.739 -14.129  1.00  0.00     0.000 C 
BRANCH   5   6
ATOM      6  C   UNL     1       2.791   1.622 -13.271  1.00  0.00     0.000 C 
BRANCH   6   7
ATOM      7  C   UNL     1       1.415   0.982 -13.027  1.00  0.00     0.000 C 
BRANCH   7   8
ATOM      8  C   UNL     1       0.740   1.492 -11.744  1.00  0.00     0.006 C 
BRANCH   8   9
ATOM      9  C   UNL     1       1.627   2.513 -11.025  1.00  0.00     0.053 C 
BRANCH   9  10
ATOM     10  C   UNL     1       1.332   2.522  -9.559  1.00  0.00     0.041 C 
ATOM     11  O   UNL     1       1.221   1.438  -8.927  1.00  0.00    -0.550 OA
ATOM     12  O   UNL     1       1.132   3.727  -8.897  1.00  0.00    -0.550 OA
ENDBRANCH   9  10
ENDBRANCH   8   9
ENDBRANCH   7   8
ENDBRANCH   6   7
ENDBRANCH   5   6
ENDBRANCH   4   5
ENDBRANCH   3   4
ENDBRANCH   1   3
BRANCH   2  13
ATOM     13  C   UNL     1       4.812   1.097  -9.887  1.00  0.00     0.027 C 
BRANCH  13  14
ATOM     14  C   UNL     1       4.382  -0.345  -9.564  1.00  0.00     0.004 C 
BRANCH  14  15
ATOM     15  C   UNL     1       3.320  -0.924 -10.521  1.00  0.00     0.000 C 
BRANCH  15  16
ATOM     16  C   UNL     1       3.863  -1.872 -11.606  1.00  0.00     0.000 C 
BRANCH  16  17
ATOM     17  C   UNL     1       5.235  -2.469 -11.245  1.00  0.00    -0.000 C 
BRANCH  17  18
ATOM     18  C   UNL     1       6.294  -2.213 -12.330  1.00  0.00    -0.000 C 
BRANCH  18  19
ATOM     19  C   UNL     1       7.694  -1.984 -11.743  1.00  0.00    -0.003 C 
ATOM     20  C   UNL     1       7.704  -2.230 -10.237  1.00  0.00     0.004 C 
ENDBRANCH  18  19
ENDBRANCH  17  18
ENDBRANCH  16  17
ENDBRANCH  15  16
ENDBRANCH  14  15
ENDBRANCH  13  14
ENDBRANCH   2  13
TORSDOF 15
ENDMDL
MODEL 5
REMARK VINA RESULT:     0.046      3.402      6.277
REMARK INTER + INTRA:          -3.636
REMARK INTER:                   0.000
REMARK INTRA:                  -3.636
REMARK UNBOUND:                -3.722
REMARK SMILES CCCCCCCCC=CCCCCCCCC(=O)[O-]
REMARK SMILES IDX 10 1 9 2 11 3 12 4 13 5 14 6 15 7 16 8 17 9 18 10 19 11
REMARK SMILES IDX 20 12 8 13 7 14 6 15 5 16 4 17 3 18 2 19 1 20
REMARK H PARENT
REMARK Flexibility Score: inf
ROOT
ATOM      1  C   UNL     1      -3.488  -0.879  -8.897  1.00  0.00    -0.031 C 
ATOM      2  C   UNL     1      -3.174  -1.906  -9.708  1.00  0.00    -0.031 C 
ENDROOT
BRANCH   1   3
ATOM      3  C   UNL     1      -4.349  -0.989  -7.661  1.00  0.00     0.027 C 
BRANCH   3   4
ATOM      4  C   UNL     1      -3.503  -1.047  -6.377  1.00  0.00     0.004 C 
BRANCH   4   5
ATOM      5  C   UNL     1      -4.004  -2.082  -5.352  1.00  0.00     0.000 C 
BRANCH   5   6
ATOM      6  C   UNL     1      -5.372  -2.672  -5.734  1.00  0.00     0.000 C 
BRANCH   6   7
ATOM      7  C   UNL     1      -5.380  -4.209  -5.722  1.00  0.00     0.000 C 
BRANCH   7   8
ATOM      8  C   UNL     1      -5.931  -4.812  -7.023  1.00  0.00     0.006 C 
BRANCH   8   9
ATOM      9  C   UNL     1      -6.820  -3.806  -7.762  1.00  0.00     0.053 C 
BRANCH   9  10
ATOM     10  C   UNL     1      -8.263  -4.161  -7.595  1.00  0.00     0.041 C 
ATOM     11  O   UNL     1      -8.844  -4.878  -8.452  1.00  0.00    -0.550 OA
ATOM     12  O   UNL     1      -8.982  -3.661  -6.515  1.00  0.00    -0.550 OA
ENDBRANCH   9  10
ENDBRANCH   8   9
ENDBRANCH   7   8
ENDBRANCH   6   7
ENDBRANCH   5   6
ENDBRANCH   4   5
ENDBRANCH   3   4
ENDBRANCH   1   3
BRANCH   2  13
ATOM     13  C   UNL     1      -3.540  -3.348  -9.450  1.00  0.00     0.027 C 
BRANCH  13  14
ATOM     14  C   UNL     1      -2.313  -4.199  -9.078  1.00  0.00     0.004 C 
BRANCH  14  15
ATOM     15  C   UNL     1      -2.215  -4.557  -7.580  1.00  0.00     0.000 C 
BRANCH  15  16
ATOM     16  C   UNL     1      -1.086  -3.849  -6.809  1.00  0.00     0.000 C 
BRANCH  16  17
ATOM     17  C   UNL     1      -0.080  -3.145  -7.737  1.00  0.00    -0.000 C 
BRANCH  17  18
ATOM     18  C   UNL     1      -0.036  -1.624  -7.513  1.00  0.00    -0.000 C 
BRANCH  18  19
ATOM     19  C   UNL     1       0.291  -0.849  -8.798  1.00  0.00    -0.003 C 
ATOM     20  C   UNL     1       0.520  -1.801  -9.969  1.00  0.00     0.004 C 
ENDBRANCH  18  19
ENDBRANCH  17  18
ENDBRANCH  16  17
ENDBRANCH  15  16
ENDBRANCH  14  15
ENDBRANCH  13  14
ENDBRANCH   2  13
TORSDOF 15
ENDMDL
MODEL 6
REMARK VINA RESULT:     0.047      6.935      8.803
REMARK INTER + INTRA:          -3.633
REMARK INTER:                   0.000
REMARK INTRA:                  -3.633
REMARK UNBOUND:                -3.722
REMARK SMILES CCCCCCCCC=CCCCCCCCC(=O)[O-]
REMARK SMILES IDX 10 1 9 2 11 3 12 4 13 5 14 6 15 7 16 8 17 9 18 10 19 11
REMARK SMILES IDX 20 12 8 13 7 14 6 15 5 16 4 17 3 18 2 19 1 20
REMARK H PARENT
REMARK Flexibility Score: inf
ROOT
ATOM      1  C   UNL     1      -2.391   2.228 -10.447  1.00  0.00    -0.031 C 
ATOM      2  C   UNL     1      -2.427   3.465  -9.917  1.00  0.00    -0.031 C 
ENDROOT
BRANCH   1   3
ATOM      3  C   UNL     1      -1.391   1.160 -10.074  1.00  0.00     0.027 C 
BRANCH   3   4
ATOM      4  C   UNL     1      -0.386   0.895 -11.208  1.00  0.00     0.004 C 
BRANCH   4   5
ATOM      5  C   UNL     1       1.027   1.437 -10.922  1.00  0.00     0.000 C 
BRANCH   5   6
ATOM      6  C   UNL     1       1.420   2.582 -11.871  1.00  0.00     0.000 C 
BRANCH   6   7
ATOM      7  C   UNL     1       0.375   2.824 -12.972  1.00  0.00     0.000 C 
BRANCH   7   8
ATOM      8  C   UNL     1      -0.195   4.251 -12.949  1.00  0.00     0.006 C 
BRANCH   8   9
ATOM      9  C   UNL     1      -1.632   4.276 -13.480  1.00  0.00     0.053 C 
BRANCH   9  10
ATOM     10  C   UNL     1      -2.323   5.535 -13.062  1.00  0.00     0.041 C 
ATOM     11  O   UNL     1      -1.869   6.220 -12.107  1.00  0.00    -0.550 OA
ATOM     12  O   UNL     1      -3.494   5.929 -13.697  1.00  0.00    -0.550 OA
ENDBRANCH   9  10
ENDBRANCH   8   9
ENDBRANCH   7   8
ENDBRANCH   6   7
ENDBRANCH   5   6
ENDBRANCH   4   5
ENDBRANCH   3   4
ENDBRANCH   1   3
BRANCH   2  13
ATOM     13  C   UNL     1      -1.546   3.944  -8.789  1.00  0.00     0.027 C 
BRANCH  13  14
ATOM     14  C   UNL     1      -0.306   4.697  -9.302  1.00  0.00     0.004 C 
BRANCH  14  15
ATOM     15  C   UNL     1       1.006   4.335  -8.577  1.00  0.00     0.000 C 
BRANCH  15  16
ATOM     16  C   UNL     1       0.836   3.540  -7.270  1.00  0.00     0.000 C 
BRANCH  16  17
ATOM     17  C   UNL     1       1.431   2.124  -7.351  1.00  0.00    -0.000 C 
BRANCH  17  18
ATOM     18  C   UNL     1       0.426   1.037  -6.932  1.00  0.00    -0.000 C 
BRANCH  18  19
ATOM     19  C   UNL     1      -0.697   1.586  -6.041  1.00  0.00    -0.003 C 
ATOM     20  C   UNL     1      -2.054   1.032  -6.464  1.00  0.00     0.004 C 
ENDBRANCH  18  19
ENDBRANCH  17  18
ENDBRANCH  16  17
ENDBRANCH  15  16
ENDBRANCH  14  15
ENDBRANCH  13  14
ENDBRANCH   2  13
TORSDOF 15
ENDMDL
MODEL 7
REMARK VINA RESULT:     0.048      5.852      7.224
REMARK INTER + INTRA:          -3.631
REMARK INTER:                   0.000
REMARK INTRA:                  -3.631
REMARK UNBOUND:                -3.722
REMARK SMILES CCCCCCCCC=CCCCCCCCC(=O)[O-]
REMARK SMILES IDX 10 1 9 2 11 3 12 4 13 5 14 6 15 7 16 8 17 9 18 10 19 11
REMARK SMILES IDX 20 12 8 13 7 14 6 15 5 16 4 17 3 18 2 19 1 20
REMARK H PARENT
REMARK Flexibility Score: inf
ROOT
ATOM      1  C   UNL     1       1.678  -1.409  -9.072  1.00  0.00    -0.031 C 
ATOM      2  C   UNL     1       0.479  -1.272  -9.669  1.00  0.00    -0.031 C 
ENDROOT
BRANCH   1   3
ATOM      3  C   UNL     1       2.254  -0.442  -8.065  1.00  0.00     0.027 C 
BRANCH   3   4
ATOM      4  C   UNL     1       3.515   0.258  -8.600  1.00  0.00     0.004 C 
BRANCH   4   5
ATOM      5  C   UNL     1       3.230   1.609  -9.283  1.00  0.00     0.000 C 
BRANCH   5   6
ATOM      6  C   UNL     1       3.275   1.511 -10.818  1.00  0.00     0.000 C 
BRANCH   6   7
ATOM      7  C   UNL     1       4.135   0.336 -11.312  1.00  0.00     0.000 C 
BRANCH   7   8
ATOM      8  C   UNL     1       3.378  -0.591 -12.276  1.00  0.00     0.006 C 
BRANCH   8   9
ATOM      9  C   UNL     1       2.125   0.095 -12.828  1.00  0.00     0.053 C 
BRANCH   9  10
ATOM     10  C   UNL     1       1.117  -0.924 -13.258  1.00  0.00     0.041 C 
ATOM     11  O   UNL     1      -0.085  -0.592 -13.434  1.00  0.00    -0.550 OA
ATOM     12  O   UNL     1       1.496  -2.251 -13.420  1.00  0.00    -0.550 OA
ENDBRANCH   9  10
ENDBRANCH   8   9
ENDBRANCH   7   8
ENDBRANCH   6   7
ENDBRANCH   5   6
ENDBRANCH   4   5
ENDBRANCH   3   4
ENDBRANCH   1   3
BRANCH   2  13
ATOM     13  C   UNL     1      -0.524  -0.190  -9.347  1.00  0.00     0.027 C 
BRANCH  13  14
ATOM     14  C   UNL     1      -0.397   1.018 -10.291  1.00  0.00     0.004 C 
BRANCH  14  15
ATOM     15  C   UNL     1      -0.311   2.381  -9.576  1.00  0.00     0.000 C 
BRANCH  15  16
ATOM     16  C   UNL     1      -0.767   2.380  -8.105  1.00  0.00     0.000 C 
BRANCH  16  17
ATOM     17  C   UNL     1       0.370   2.721  -7.127  1.00  0.00    -0.000 C 
BRANCH  17  18
ATOM     18  C   UNL     1       0.414   1.770  -5.918  1.00  0.00    -0.000 C 
BRANCH  18  19
ATOM     19  C   UNL     1      -0.851   0.907  -5.804  1.00  0.00    -0.003 C 
ATOM     20  C   UNL     1      -0.495  -0.562  -5.592  1.00  0.00     0.004 C 
ENDBRANCH  18  19
ENDBRANCH  17  18
ENDBRANCH  16  17
ENDBRANCH  15  16
ENDBRANCH  14  15
ENDBRANCH  13  14
ENDBRANCH   2  13
TORSDOF 15
ENDMDL
MODEL 8
REMARK VINA RESULT:     0.057      3.676      5.763
REMARK INTER + INTRA:          -3.615
REMARK INTER:                   0.000
REMARK INTRA:                  -3.615
REMARK UNBOUND:                -3.722
REMARK SMILES CCCCCCCCC=CCCCCCCCC(=O)[O-]
REMARK SMILES IDX 10 1 9 2 11 3 12 4 13 5 14 6 15 7 16 8 17 9 18 10 19 11
REMARK SMILES IDX 20 12 8 13 7 14 6 15 5 16 4 17 3 18 2 19 1 20
REMARK H PARENT
REMARK Flexibility Score: inf
ROOT
ATOM      1  C   UNL     1      -4.005  -4.618  -8.174  1.00  0.00    -0.031 C 
ATOM      2  C   UNL     1      -3.805  -4.158  -6.925  1.00  0.00    -0.031 C 
ENDROOT
BRANCH   1   3
ATOM      3  C   UNL     1      -4.704  -3.852  -9.272  1.00  0.00     0.027 C 
BRANCH   3   4
ATOM      4  C   UNL     1      -3.732  -3.441 -10.391  1.00  0.00     0.004 C 
BRANCH   4   5
ATOM      5  C   UNL     1      -3.726  -1.928 -10.680  1.00  0.00     0.000 C 
BRANCH   5   6
ATOM      6  C   UNL     1      -4.653  -1.146  -9.735  1.00  0.00     0.000 C 
BRANCH   6   7
ATOM      7  C   UNL     1      -4.177   0.296  -9.495  1.00  0.00     0.000 C 
BRANCH   7   8
ATOM      8  C   UNL     1      -2.775   0.563 -10.063  1.00  0.00     0.006 C 
BRANCH   8   9
ATOM      9  C   UNL     1      -2.068   1.674  -9.281  1.00  0.00     0.053 C 
BRANCH   9  10
ATOM     10  C   UNL     1      -0.595   1.418  -9.222  1.00  0.00     0.041 C 
ATOM     11  O   UNL     1       0.040   1.610  -8.151  1.00  0.00    -0.550 OA
ATOM     12  O   UNL     1       0.086   1.011 -10.363  1.00  0.00    -0.550 OA
ENDBRANCH   9  10
ENDBRANCH   8   9
ENDBRANCH   7   8
ENDBRANCH   6   7
ENDBRANCH   5   6
ENDBRANCH   4   5
ENDBRANCH   3   4
ENDBRANCH   1   3
BRANCH   2  13
ATOM     13  C   UNL     1      -4.148  -2.764  -6.456  1.00  0.00     0.027 C 
BRANCH  13  14
ATOM     14  C   UNL     1      -2.934  -2.044  -5.844  1.00  0.00     0.004 C 
BRANCH  14  15
ATOM     15  C   UNL     1      -2.121  -1.199  -6.846  1.00  0.00     0.000 C 
BRANCH  15  16
ATOM     16  C   UNL     1      -0.738  -1.768  -7.213  1.00  0.00     0.000 C 
BRANCH  16  17
ATOM     17  C   UNL     1      -0.664  -2.260  -8.669  1.00  0.00    -0.000 C 
BRANCH  17  18
ATOM     18  C   UNL     1      -0.403  -3.772  -8.768  1.00  0.00    -0.000 C 
BRANCH  18  19
ATOM     19  C   UNL     1      -0.108  -4.408  -7.402  1.00  0.00    -0.003 C 
ATOM     20  C   UNL     1      -0.527  -5.876  -7.378  1.00  0.00     0.004 C 
ENDBRANCH  18  19
ENDBRANCH  17  18
ENDBRANCH  16  17
ENDBRANCH  15  16
ENDBRANCH  14  15
ENDBRANCH  13  14
ENDBRANCH   2  13
TORSDOF 15
ENDMDL
MODEL 9
REMARK VINA RESULT:     0.057      4.580      7.122
REMARK INTER + INTRA:          -3.615
REMARK INTER:                   0.000
REMARK INTRA:                  -3.615
REMARK UNBOUND:                -3.722
REMARK SMILES CCCCCCCCC=CCCCCCCCC(=O)[O-]
REMARK SMILES IDX 10 1 9 2 11 3 12 4 13 5 14 6 15 7 16 8 17 9 18 10 19 11
REMARK SMILES IDX 20 12 8 13 7 14 6 15 5 16 4 17 3 18 2 19 1 20
REMARK H PARENT
REMARK Flexibility Score: inf
ROOT
ATOM      1  C   UNL     1      -1.697  -6.116  -6.748  1.00  0.00    -0.031 C 
ATOM      2  C   UNL     1      -3.023  -5.888  -6.712  1.00  0.00    -0.031 C 
ENDROOT
BRANCH   1   3
ATOM      3  C   UNL     1      -0.700  -5.557  -5.761  1.00  0.00     0.027 C 
BRANCH   3   4
ATOM      4  C   UNL     1       0.242  -4.532  -6.417  1.00  0.00     0.004 C 
BRANCH   4   5
ATOM      5  C   UNL     1       0.310  -3.188  -5.669  1.00  0.00     0.000 C 
BRANCH   5   6
ATOM      6  C   UNL     1      -0.808  -3.040  -4.623  1.00  0.00     0.000 C 
BRANCH   6   7
ATOM      7  C   UNL     1      -1.305  -1.593  -4.486  1.00  0.00     0.000 C 
BRANCH   7   8
ATOM      8  C   UNL     1      -2.418  -1.442  -3.437  1.00  0.00     0.006 C 
BRANCH   8   9
ATOM      9  C   UNL     1      -2.802  -2.801  -2.845  1.00  0.00     0.053 C 
BRANCH   9  10
ATOM     10  C   UNL     1      -4.284  -2.891  -2.658  1.00  0.00     0.041 C 
ATOM     11  O   UNL     1      -4.811  -3.969  -2.276  1.00  0.00    -0.550 OA
ATOM     12  O   UNL     1      -5.089  -1.796  -2.952  1.00  0.00    -0.550 OA
ENDBRANCH   9  10
ENDBRANCH   8   9
ENDBRANCH   7   8
ENDBRANCH   6   7
ENDBRANCH   5   6
ENDBRANCH   4   5
ENDBRANCH   3   4
ENDBRANCH   1   3
BRANCH   2  13
ATOM     13  C   UNL     1      -3.736  -5.130  -5.618  1.00  0.00     0.027 C 
BRANCH  13  14
ATOM     14  C   UNL     1      -4.786  -4.155  -6.179  1.00  0.00     0.004 C 
BRANCH  14  15
ATOM     15  C   UNL     1      -4.271  -2.716  -6.392  1.00  0.00     0.000 C 
BRANCH  15  16
ATOM     16  C   UNL     1      -3.872  -2.371  -7.838  1.00  0.00     0.000 C 
BRANCH  16  17
ATOM     17  C   UNL     1      -2.348  -2.299  -8.036  1.00  0.00    -0.000 C 
BRANCH  17  18
ATOM     18  C   UNL     1      -1.856  -3.212  -9.172  1.00  0.00    -0.000 C 
BRANCH  18  19
ATOM     19  C   UNL     1      -3.008  -3.945  -9.876  1.00  0.00    -0.003 C 
ATOM     20  C   UNL     1      -2.566  -5.323 -10.362  1.00  0.00     0.004 C 
ENDBRANCH  18  19
ENDBRANCH  17  18
ENDBRANCH  16  17
ENDBRANCH  15  16
ENDBRANCH  14  15
ENDBRANCH  13  14
ENDBRANCH   2  13
TORSDOF 15
ENDMDL
