MODEL 1
REMARK VINA RESULT:    -2.876      0.000      0.000
REMARK INTER + INTRA:          -8.432
REMARK INTER:                  -6.576
REMARK INTRA:                  -1.857
REMARK UNBOUND:                -1.857
REMARK SMILES CCCCCCCCCCCCCCCCCCCCCCCC(=O)[O-]
REMARK SMILES IDX 13 1 14 2 15 3 16 4 17 5 18 6 19 7 20 8 21 9 22 10 23 11
REMARK SMILES IDX 24 12 25 13 26 14 12 15 11 16 10 17 9 18 8 19 7 20 6 21 5 22
REMARK SMILES IDX 4 23 3 24 2 25 1 26
REMARK H PARENT
REMARK Flexibility Score: inf
ROOT
ATOM      1  C   UNL     1       3.683  23.751  26.414  1.00  0.00     0.000 C 
ENDROOT
BRANCH   1   2
ATOM      2  C   UNL     1       3.125  22.357  26.052  1.00  0.00     0.000 C 
BRANCH   2   3
ATOM      3  C   UNL     1       1.588  22.348  25.955  1.00  0.00     0.000 C 
BRANCH   3   4
ATOM      4  C   UNL     1       1.088  22.967  24.631  1.00  0.00     0.000 C 
BRANCH   4   5
ATOM      5  C   UNL     1       1.507  22.171  23.383  1.00  0.00     0.000 C 
BRANCH   5   6
ATOM      6  C   UNL     1       1.634  23.053  22.130  1.00  0.00     0.000 C 
BRANCH   6   7
ATOM      7  C   UNL     1       2.982  23.792  22.054  1.00  0.00     0.000 C 
BRANCH   7   8
ATOM      8  C   UNL     1       2.977  25.227  22.619  1.00  0.00     0.000 C 
BRANCH   8   9
ATOM      9  C   UNL     1       1.598  25.910  22.664  1.00  0.00     0.000 C 
BRANCH   9  10
ATOM     10  C   UNL     1       1.421  26.969  21.562  1.00  0.00     0.006 C 
BRANCH  10  11
ATOM     11  C   UNL     1       0.608  28.178  22.044  1.00  0.00     0.053 C 
BRANCH  11  12
ATOM     12  C   UNL     1      -0.224  28.762  20.944  1.00  0.00     0.041 C 
ATOM     13  O   UNL     1      -1.317  28.225  20.622  1.00  0.00    -0.550 OA
ATOM     14  O   UNL     1       0.222  29.882  20.253  1.00  0.00    -0.550 OA
ENDBRANCH  11  12
ENDBRANCH  10  11
ENDBRANCH   9  10
ENDBRANCH   8   9
ENDBRANCH   7   8
ENDBRANCH   6   7
ENDBRANCH   5   6
ENDBRANCH   4   5
ENDBRANCH   3   4
ENDBRANCH   2   3
ENDBRANCH   1   2
BRANCH   1  15
ATOM     15  C   UNL     1       4.961  24.124  25.645  1.00  0.00     0.000 C 
BRANCH  15  16
ATOM     16  C   UNL     1       6.015  23.006  25.669  1.00  0.00     0.000 C 
BRANCH  16  17
ATOM     17  C   UNL     1       6.237  22.416  27.074  1.00  0.00     0.000 C 
BRANCH  17  18
ATOM     18  C   UNL     1       6.882  21.018  27.104  1.00  0.00    -0.000 C 
BRANCH  18  19
ATOM     19  C   UNL     1       5.865  19.882  26.890  1.00  0.00    -0.000 C 
BRANCH  19  20
ATOM     20  C   UNL     1       6.534  18.559  26.488  1.00  0.00    -0.000 C 
BRANCH  20  21
ATOM     21  C   UNL     1       5.599  17.641  25.686  1.00  0.00    -0.000 C 
BRANCH  21  22
ATOM     22  C   UNL     1       6.341  16.990  24.513  1.00  0.00    -0.000 C 
BRANCH  22  23
ATOM     23  C   UNL     1       6.073  15.477  24.464  1.00  0.00    -0.000 C 
BRANCH  23  24
ATOM     24  C   UNL     1       4.565  15.150  24.432  1.00  0.00    -0.000 C 
BRANCH  24  25
ATOM     25  C   UNL     1       3.924  15.326  23.044  1.00  0.00    -0.003 C 
ATOM     26  C   UNL     1       2.694  16.230  23.061  1.00  0.00     0.004 C 
ENDBRANCH  24  25
ENDBRANCH  23  24
ENDBRANCH  22  23
ENDBRANCH  21  22
ENDBRANCH  20  21
ENDBRANCH  19  20
ENDBRANCH  18  19
ENDBRANCH  17  18
ENDBRANCH  16  17
ENDBRANCH  15  16
ENDBRANCH   1  15
TORSDOF 22
ENDMDL
MODEL 2
REMARK VINA RESULT:    -2.705      2.231      2.824
REMARK INTER + INTRA:          -8.042
REMARK INTER:                  -6.660
REMARK INTRA:                  -1.382
REMARK UNBOUND:                -1.857
REMARK SMILES CCCCCCCCCCCCCCCCCCCCCCCC(=O)[O-]
REMARK SMILES IDX 13 1 14 2 15 3 16 4 17 5 18 6 19 7 20 8 21 9 22 10 23 11
REMARK SMILES IDX 24 12 25 13 26 14 12 15 11 16 10 17 9 18 8 19 7 20 6 21 5 22
REMARK SMILES IDX 4 23 3 24 2 25 1 26
REMARK H PARENT
REMARK Flexibility Score: inf
ROOT
ATOM      1  C   UNL     1       4.234  23.728  25.357  1.00  0.00     0.000 C 
ENDROOT
BRANCH   1   2
ATOM      2  C   UNL     1       3.519  23.392  26.683  1.00  0.00     0.000 C 
BRANCH   2   3
ATOM      3  C   UNL     1       2.442  22.305  26.510  1.00  0.00     0.000 C 
BRANCH   3   4
ATOM      4  C   UNL     1       2.341  21.819  25.047  1.00  0.00     0.000 C 
BRANCH   4   5
ATOM      5  C   UNL     1       1.449  22.708  24.164  1.00  0.00     0.000 C 
BRANCH   5   6
ATOM      6  C   UNL     1       1.587  22.388  22.666  1.00  0.00     0.000 C 
BRANCH   6   7
ATOM      7  C   UNL     1       2.203  23.548  21.862  1.00  0.00     0.000 C 
BRANCH   7   8
ATOM      8  C   UNL     1       2.553  24.805  22.685  1.00  0.00     0.000 C 
BRANCH   8   9
ATOM      9  C   UNL     1       1.505  25.930  22.642  1.00  0.00     0.000 C 
BRANCH   9  10
ATOM     10  C   UNL     1       1.061  26.385  24.044  1.00  0.00     0.006 C 
BRANCH  10  11
ATOM     11  C   UNL     1       0.825  25.201  24.991  1.00  0.00     0.053 C 
BRANCH  11  12
ATOM     12  C   UNL     1       0.009  25.598  26.183  1.00  0.00     0.041 C 
ATOM     13  O   UNL     1      -0.038  26.803  26.546  1.00  0.00    -0.550 OA
ATOM     14  O   UNL     1      -0.674  24.633  26.912  1.00  0.00    -0.550 OA
ENDBRANCH  11  12
ENDBRANCH  10  11
ENDBRANCH   9  10
ENDBRANCH   8   9
ENDBRANCH   7   8
ENDBRANCH   6   7
ENDBRANCH   5   6
ENDBRANCH   4   5
ENDBRANCH   3   4
ENDBRANCH   2   3
ENDBRANCH   1   2
BRANCH   1  15
ATOM     15  C   UNL     1       5.733  24.032  25.521  1.00  0.00     0.000 C 
BRANCH  15  16
ATOM     16  C   UNL     1       6.398  23.166  26.603  1.00  0.00     0.000 C 
BRANCH  16  17
ATOM     17  C   UNL     1       6.760  21.753  26.107  1.00  0.00     0.000 C 
BRANCH  17  18
ATOM     18  C   UNL     1       6.524  20.622  27.124  1.00  0.00    -0.000 C 
BRANCH  18  19
ATOM     19  C   UNL     1       5.238  19.822  26.845  1.00  0.00    -0.000 C 
BRANCH  19  20
ATOM     20  C   UNL     1       5.506  18.321  26.654  1.00  0.00    -0.000 C 
BRANCH  20  21
ATOM     21  C   UNL     1       4.469  17.645  25.744  1.00  0.00    -0.000 C 
BRANCH  21  22
ATOM     22  C   UNL     1       3.940  16.354  26.379  1.00  0.00    -0.000 C 
BRANCH  22  23
ATOM     23  C   UNL     1       4.475  15.117  25.640  1.00  0.00    -0.000 C 
BRANCH  23  24
ATOM     24  C   UNL     1       5.462  15.489  24.512  1.00  0.00    -0.000 C 
BRANCH  24  25
ATOM     25  C   UNL     1       4.982  15.077  23.110  1.00  0.00    -0.003 C 
ATOM     26  C   UNL     1       3.461  15.033  22.984  1.00  0.00     0.004 C 
ENDBRANCH  24  25
ENDBRANCH  23  24
ENDBRANCH  22  23
ENDBRANCH  21  22
ENDBRANCH  20  21
ENDBRANCH  19  20
ENDBRANCH  18  19
ENDBRANCH  17  18
ENDBRANCH  16  17
ENDBRANCH  15  16
ENDBRANCH   1  15
TORSDOF 22
ENDMDL
MODEL 3
REMARK VINA RESULT:    -2.690      4.538     10.879
REMARK INTER + INTRA:          -8.006
REMARK INTER:                  -6.619
REMARK INTRA:                  -1.388
REMARK UNBOUND:                -1.857
REMARK SMILES CCCCCCCCCCCCCCCCCCCCCCCC(=O)[O-]
REMARK SMILES IDX 13 1 14 2 15 3 16 4 17 5 18 6 19 7 20 8 21 9 22 10 23 11
REMARK SMILES IDX 24 12 25 13 26 14 12 15 11 16 10 17 9 18 8 19 7 20 6 21 5 22
REMARK SMILES IDX 4 23 3 24 2 25 1 26
REMARK H PARENT
REMARK Flexibility Score: inf
ROOT
ATOM      1  C   UNL     1       2.402  22.426  25.582  1.00  0.00     0.000 C 
ENDROOT
BRANCH   1   2
ATOM      2  C   UNL     1       3.280  22.105  26.811  1.00  0.00     0.000 C 
BRANCH   2   3
ATOM      3  C   UNL     1       4.283  23.231  27.124  1.00  0.00     0.000 C 
BRANCH   3   4
ATOM      4  C   UNL     1       5.152  23.590  25.898  1.00  0.00     0.000 C 
BRANCH   4   5
ATOM      5  C   UNL     1       6.383  22.683  25.731  1.00  0.00     0.000 C 
BRANCH   5   6
ATOM      6  C   UNL     1       6.728  21.906  27.012  1.00  0.00     0.000 C 
BRANCH   6   7
ATOM      7  C   UNL     1       7.116  20.442  26.737  1.00  0.00     0.000 C 
BRANCH   7   8
ATOM      8  C   UNL     1       5.985  19.413  26.943  1.00  0.00     0.000 C 
BRANCH   8   9
ATOM      9  C   UNL     1       6.373  17.949  26.670  1.00  0.00     0.000 C 
BRANCH   9  10
ATOM     10  C   UNL     1       5.985  17.483  25.256  1.00  0.00     0.006 C 
BRANCH  10  11
ATOM     11  C   UNL     1       6.599  16.122  24.904  1.00  0.00     0.053 C 
BRANCH  11  12
ATOM     12  C   UNL     1       5.557  15.051  24.803  1.00  0.00     0.041 C 
ATOM     13  O   UNL     1       5.793  13.997  24.154  1.00  0.00    -0.550 OA
ATOM     14  O   UNL     1       4.316  15.228  25.400  1.00  0.00    -0.550 OA
ENDBRANCH  11  12
ENDBRANCH  10  11
ENDBRANCH   9  10
ENDBRANCH   8   9
ENDBRANCH   7   8
ENDBRANCH   6   7
ENDBRANCH   5   6
ENDBRANCH   4   5
ENDBRANCH   3   4
ENDBRANCH   2   3
ENDBRANCH   1   2
BRANCH   1  15
ATOM     15  C   UNL     1       1.189  23.315  25.903  1.00  0.00     0.000 C 
BRANCH  15  16
ATOM     16  C   UNL     1       1.280  24.702  25.247  1.00  0.00     0.000 C 
BRANCH  16  17
ATOM     17  C   UNL     1       2.268  24.746  24.066  1.00  0.00     0.000 C 
BRANCH  17  18
ATOM     18  C   UNL     1       1.743  24.143  22.750  1.00  0.00    -0.000 C 
BRANCH  18  19
ATOM     19  C   UNL     1       1.909  25.089  21.547  1.00  0.00    -0.000 C 
BRANCH  19  20
ATOM     20  C   UNL     1       2.076  26.557  21.968  1.00  0.00    -0.000 C 
BRANCH  20  21
ATOM     21  C   UNL     1       0.740  27.228  22.321  1.00  0.00    -0.000 C 
BRANCH  21  22
ATOM     22  C   UNL     1       0.714  28.684  21.842  1.00  0.00    -0.000 C 
BRANCH  22  23
ATOM     23  C   UNL     1      -0.318  28.876  20.718  1.00  0.00    -0.000 C 
BRANCH  23  24
ATOM     24  C   UNL     1      -0.148  30.228  19.992  1.00  0.00    -0.000 C 
BRANCH  24  25
ATOM     25  C   UNL     1      -1.329  31.193  20.199  1.00  0.00    -0.003 C 
ATOM     26  C   UNL     1      -1.815  31.833  18.901  1.00  0.00     0.004 C 
ENDBRANCH  24  25
ENDBRANCH  23  24
ENDBRANCH  22  23
ENDBRANCH  21  22
ENDBRANCH  20  21
ENDBRANCH  19  20
ENDBRANCH  18  19
ENDBRANCH  17  18
ENDBRANCH  16  17
ENDBRANCH  15  16
ENDBRANCH   1  15
TORSDOF 22
ENDMDL
MODEL 4
REMARK VINA RESULT:    -2.554      4.082     10.041
REMARK INTER + INTRA:          -7.696
REMARK INTER:                  -6.399
REMARK INTRA:                  -1.297
REMARK UNBOUND:                -1.857
REMARK SMILES CCCCCCCCCCCCCCCCCCCCCCCC(=O)[O-]
REMARK SMILES IDX 13 1 14 2 15 3 16 4 17 5 18 6 19 7 20 8 21 9 22 10 23 11
REMARK SMILES IDX 24 12 25 13 26 14 12 15 11 16 10 17 9 18 8 19 7 20 6 21 5 22
REMARK SMILES IDX 4 23 3 24 2 25 1 26
REMARK H PARENT
REMARK Flexibility Score: inf
ROOT
ATOM      1  C   UNL     1       5.831  23.958  25.883  1.00  0.00     0.000 C 
ENDROOT
BRANCH   1   2
ATOM      2  C   UNL     1       6.815  22.769  25.843  1.00  0.00     0.000 C 
BRANCH   2   3
ATOM      3  C   UNL     1       6.750  21.912  27.121  1.00  0.00     0.000 C 
BRANCH   3   4
ATOM      4  C   UNL     1       5.763  20.733  26.978  1.00  0.00     0.000 C 
BRANCH   4   5
ATOM      5  C   UNL     1       6.436  19.353  27.071  1.00  0.00     0.000 C 
BRANCH   5   6
ATOM      6  C   UNL     1       7.045  18.897  25.735  1.00  0.00     0.000 C 
BRANCH   6   7
ATOM      7  C   UNL     1       6.808  17.402  25.450  1.00  0.00     0.000 C 
BRANCH   7   8
ATOM      8  C   UNL     1       6.259  16.586  26.637  1.00  0.00     0.000 C 
BRANCH   8   9
ATOM      9  C   UNL     1       4.795  16.133  26.501  1.00  0.00     0.000 C 
BRANCH   9  10
ATOM     10  C   UNL     1       4.153  16.581  25.176  1.00  0.00     0.006 C 
BRANCH  10  11
ATOM     11  C   UNL     1       3.291  15.479  24.546  1.00  0.00     0.053 C 
BRANCH  11  12
ATOM     12  C   UNL     1       3.651  15.243  23.111  1.00  0.00     0.041 C 
ATOM     13  O   UNL     1       4.744  14.692  22.815  1.00  0.00    -0.550 OA
ATOM     14  O   UNL     1       2.794  15.660  22.100  1.00  0.00    -0.550 OA
ENDBRANCH  11  12
ENDBRANCH  10  11
ENDBRANCH   9  10
ENDBRANCH   8   9
ENDBRANCH   7   8
ENDBRANCH   6   7
ENDBRANCH   5   6
ENDBRANCH   4   5
ENDBRANCH   3   4
ENDBRANCH   2   3
ENDBRANCH   1   2
BRANCH   1  15
ATOM     15  C   UNL     1       4.618  23.789  24.952  1.00  0.00     0.000 C 
BRANCH  15  16
ATOM     16  C   UNL     1       3.353  23.344  25.703  1.00  0.00     0.000 C 
BRANCH  16  17
ATOM     17  C   UNL     1       2.141  24.257  25.439  1.00  0.00     0.000 C 
BRANCH  17  18
ATOM     18  C   UNL     1       1.339  23.931  24.166  1.00  0.00    -0.000 C 
BRANCH  18  19
ATOM     19  C   UNL     1       2.207  23.322  23.049  1.00  0.00    -0.000 C 
BRANCH  19  20
ATOM     20  C   UNL     1       2.378  24.270  21.852  1.00  0.00    -0.000 C 
BRANCH  20  21
ATOM     21  C   UNL     1       1.358  25.418  21.853  1.00  0.00    -0.000 C 
BRANCH  21  22
ATOM     22  C   UNL     1       2.062  26.779  21.824  1.00  0.00    -0.000 C 
BRANCH  22  23
ATOM     23  C   UNL     1       1.070  27.919  22.109  1.00  0.00    -0.000 C 
BRANCH  23  24
ATOM     24  C   UNL     1      -0.168  27.861  21.189  1.00  0.00    -0.000 C 
BRANCH  24  25
ATOM     25  C   UNL     1      -0.623  29.239  20.676  1.00  0.00    -0.003 C 
ATOM     26  C   UNL     1      -2.103  29.284  20.308  1.00  0.00     0.004 C 
ENDBRANCH  24  25
ENDBRANCH  23  24
ENDBRANCH  22  23
ENDBRANCH  21  22
ENDBRANCH  20  21
ENDBRANCH  19  20
ENDBRANCH  18  19
ENDBRANCH  17  18
ENDBRANCH  16  17
ENDBRANCH  15  16
ENDBRANCH   1  15
TORSDOF 22
ENDMDL
MODEL 5
REMARK VINA RESULT:    -2.497      3.577      5.401
REMARK INTER + INTRA:          -7.566
REMARK INTER:                  -6.127
REMARK INTRA:                  -1.439
REMARK UNBOUND:                -1.857
REMARK SMILES CCCCCCCCCCCCCCCCCCCCCCCC(=O)[O-]
REMARK SMILES IDX 13 1 14 2 15 3 16 4 17 5 18 6 19 7 20 8 21 9 22 10 23 11
REMARK SMILES IDX 24 12 25 13 26 14 12 15 11 16 10 17 9 18 8 19 7 20 6 21 5 22
REMARK SMILES IDX 4 23 3 24 2 25 1 26
REMARK H PARENT
REMARK Flexibility Score: inf
ROOT
ATOM      1  C   UNL     1       4.064  19.250  27.107  1.00  0.00     0.000 C 
ENDROOT
BRANCH   1   2
ATOM      2  C   UNL     1       3.691  20.514  26.301  1.00  0.00     0.000 C 
BRANCH   2   3
ATOM      3  C   UNL     1       3.857  21.804  27.125  1.00  0.00     0.000 C 
BRANCH   3   4
ATOM      4  C   UNL     1       2.603  22.703  27.051  1.00  0.00     0.000 C 
BRANCH   4   5
ATOM      5  C   UNL     1       1.864  22.618  25.705  1.00  0.00     0.000 C 
BRANCH   5   6
ATOM      6  C   UNL     1       1.135  23.923  25.343  1.00  0.00     0.000 C 
BRANCH   6   7
ATOM      7  C   UNL     1       1.785  24.663  24.160  1.00  0.00     0.000 C 
BRANCH   7   8
ATOM      8  C   UNL     1       2.758  23.818  23.312  1.00  0.00     0.000 C 
BRANCH   8   9
ATOM      9  C   UNL     1       4.179  24.391  23.178  1.00  0.00     0.000 C 
BRANCH   9  10
ATOM     10  C   UNL     1       5.104  23.969  24.332  1.00  0.00     0.006 C 
BRANCH  10  11
ATOM     11  C   UNL     1       5.852  25.161  24.944  1.00  0.00     0.053 C 
BRANCH  11  12
ATOM     12  C   UNL     1       6.409  24.834  26.296  1.00  0.00     0.041 C 
ATOM     13  O   UNL     1       6.648  25.754  27.122  1.00  0.00    -0.550 OA
ATOM     14  O   UNL     1       6.692  23.516  26.632  1.00  0.00    -0.550 OA
ENDBRANCH  11  12
ENDBRANCH  10  11
ENDBRANCH   9  10
ENDBRANCH   8   9
ENDBRANCH   7   8
ENDBRANCH   6   7
ENDBRANCH   5   6
ENDBRANCH   4   5
ENDBRANCH   3   4
ENDBRANCH   2   3
ENDBRANCH   1   2
BRANCH   1  15
ATOM     15  C   UNL     1       4.545  18.079  26.233  1.00  0.00     0.000 C 
BRANCH  15  16
ATOM     16  C   UNL     1       5.953  17.595  26.614  1.00  0.00     0.000 C 
BRANCH  16  17
ATOM     17  C   UNL     1       6.620  16.751  25.512  1.00  0.00     0.000 C 
BRANCH  17  18
ATOM     18  C   UNL     1       6.526  15.227  25.707  1.00  0.00    -0.000 C 
BRANCH  18  19
ATOM     19  C   UNL     1       5.674  14.534  24.628  1.00  0.00    -0.000 C 
BRANCH  19  20
ATOM     20  C   UNL     1       5.023  15.532  23.658  1.00  0.00    -0.000 C 
BRANCH  20  21
ATOM     21  C   UNL     1       3.750  14.977  23.002  1.00  0.00    -0.000 C 
BRANCH  21  22
ATOM     22  C   UNL     1       2.559  15.050  23.965  1.00  0.00    -0.000 C 
BRANCH  22  23
ATOM     23  C   UNL     1       2.992  15.593  25.337  1.00  0.00    -0.000 C 
BRANCH  23  24
ATOM     24  C   UNL     1       2.594  14.649  26.492  1.00  0.00    -0.000 C 
BRANCH  24  25
ATOM     25  C   UNL     1       1.102  14.276  26.500  1.00  0.00    -0.003 C 
ATOM     26  C   UNL     1       0.179  15.492  26.477  1.00  0.00     0.004 C 
ENDBRANCH  24  25
ENDBRANCH  23  24
ENDBRANCH  22  23
ENDBRANCH  21  22
ENDBRANCH  20  21
ENDBRANCH  19  20
ENDBRANCH  18  19
ENDBRANCH  17  18
ENDBRANCH  16  17
ENDBRANCH  15  16
ENDBRANCH   1  15
TORSDOF 22
ENDMDL
MODEL 6
REMARK VINA RESULT:    -2.235      1.257      2.033
REMARK INTER + INTRA:          -6.967
REMARK INTER:                  -5.254
REMARK INTRA:                  -1.713
REMARK UNBOUND:                -1.857
REMARK SMILES CCCCCCCCCCCCCCCCCCCCCCCC(=O)[O-]
REMARK SMILES IDX 13 1 14 2 15 3 16 4 17 5 18 6 19 7 20 8 21 9 22 10 23 11
REMARK SMILES IDX 24 12 25 13 26 14 12 15 11 16 10 17 9 18 8 19 7 20 6 21 5 22
REMARK SMILES IDX 4 23 3 24 2 25 1 26
REMARK H PARENT
REMARK Flexibility Score: inf
ROOT
ATOM      1  C   UNL     1       2.499  22.567  26.889  1.00  0.00     0.000 C 
ENDROOT
BRANCH   1   2
ATOM      2  C   UNL     1       1.481  22.447  25.734  1.00  0.00     0.000 C 
BRANCH   2   3
ATOM      3  C   UNL     1       2.152  22.531  24.351  1.00  0.00     0.000 C 
BRANCH   3   4
ATOM      4  C   UNL     1       1.116  22.611  23.208  1.00  0.00     0.000 C 
BRANCH   4   5
ATOM      5  C   UNL     1       1.704  23.116  21.879  1.00  0.00     0.000 C 
BRANCH   5   6
ATOM      6  C   UNL     1       2.820  24.154  22.079  1.00  0.00     0.000 C 
BRANCH   6   7
ATOM      7  C   UNL     1       2.332  25.601  21.883  1.00  0.00     0.000 C 
BRANCH   7   8
ATOM      8  C   UNL     1       1.351  26.114  22.957  1.00  0.00     0.000 C 
BRANCH   8   9
ATOM      9  C   UNL     1       0.826  27.544  22.736  1.00  0.00     0.000 C 
BRANCH   9  10
ATOM     10  C   UNL     1       0.647  27.891  21.248  1.00  0.00     0.006 C 
BRANCH  10  11
ATOM     11  C   UNL     1      -0.712  28.543  20.962  1.00  0.00     0.053 C 
BRANCH  11  12
ATOM     12  C   UNL     1      -0.559  29.887  20.318  1.00  0.00     0.041 C 
ATOM     13  O   UNL     1      -1.577  30.566  20.020  1.00  0.00    -0.550 OA
ATOM     14  O   UNL     1       0.706  30.377  20.019  1.00  0.00    -0.550 OA
ENDBRANCH  11  12
ENDBRANCH  10  11
ENDBRANCH   9  10
ENDBRANCH   8   9
ENDBRANCH   7   8
ENDBRANCH   6   7
ENDBRANCH   5   6
ENDBRANCH   4   5
ENDBRANCH   3   4
ENDBRANCH   2   3
ENDBRANCH   1   2
BRANCH   1  15
ATOM     15  C   UNL     1       3.001  24.002  27.125  1.00  0.00     0.000 C 
BRANCH  15  16
ATOM     16  C   UNL     1       4.522  24.134  26.947  1.00  0.00     0.000 C 
BRANCH  16  17
ATOM     17  C   UNL     1       5.023  23.572  25.604  1.00  0.00     0.000 C 
BRANCH  17  18
ATOM     18  C   UNL     1       6.169  22.548  25.709  1.00  0.00    -0.000 C 
BRANCH  18  19
ATOM     19  C   UNL     1       6.306  21.943  27.117  1.00  0.00    -0.000 C 
BRANCH  19  20
ATOM     20  C   UNL     1       6.486  20.417  27.090  1.00  0.00    -0.000 C 
BRANCH  20  21
ATOM     21  C   UNL     1       5.177  19.671  26.791  1.00  0.00    -0.000 C 
BRANCH  21  22
ATOM     22  C   UNL     1       5.447  18.197  26.466  1.00  0.00    -0.000 C 
BRANCH  22  23
ATOM     23  C   UNL     1       4.220  17.328  26.790  1.00  0.00    -0.000 C 
BRANCH  23  24
ATOM     24  C   UNL     1       4.289  15.943  26.113  1.00  0.00    -0.000 C 
BRANCH  24  25
ATOM     25  C   UNL     1       3.334  15.791  24.916  1.00  0.00    -0.003 C 
ATOM     26  C   UNL     1       2.045  15.053  25.266  1.00  0.00     0.004 C 
ENDBRANCH  24  25
ENDBRANCH  23  24
ENDBRANCH  22  23
ENDBRANCH  21  22
ENDBRANCH  20  21
ENDBRANCH  19  20
ENDBRANCH  18  19
ENDBRANCH  17  18
ENDBRANCH  16  17
ENDBRANCH  15  16
ENDBRANCH   1  15
TORSDOF 22
ENDMDL
MODEL 7
REMARK VINA RESULT:    -1.985      4.111     10.733
REMARK INTER + INTRA:          -6.395
REMARK INTER:                  -5.300
REMARK INTRA:                  -1.096
REMARK UNBOUND:                -1.857
REMARK SMILES CCCCCCCCCCCCCCCCCCCCCCCC(=O)[O-]
REMARK SMILES IDX 13 1 14 2 15 3 16 4 17 5 18 6 19 7 20 8 21 9 22 10 23 11
REMARK SMILES IDX 24 12 25 13 26 14 12 15 11 16 10 17 9 18 8 19 7 20 6 21 5 22
REMARK SMILES IDX 4 23 3 24 2 25 1 26
REMARK H PARENT
REMARK Flexibility Score: inf
ROOT
ATOM      1  C   UNL     1       1.155  22.824  24.833  1.00  0.00     0.000 C 
ENDROOT
BRANCH   1   2
ATOM      2  C   UNL     1       2.263  23.153  25.856  1.00  0.00     0.000 C 
BRANCH   2   3
ATOM      3  C   UNL     1       3.674  23.015  25.255  1.00  0.00     0.000 C 
BRANCH   3   4
ATOM      4  C   UNL     1       4.766  23.545  26.212  1.00  0.00     0.000 C 
BRANCH   4   5
ATOM      5  C   UNL     1       5.388  22.455  27.100  1.00  0.00     0.000 C 
BRANCH   5   6
ATOM      6  C   UNL     1       6.107  21.365  26.287  1.00  0.00     0.000 C 
BRANCH   6   7
ATOM      7  C   UNL     1       7.123  20.567  27.125  1.00  0.00     0.000 C 
BRANCH   7   8
ATOM      8  C   UNL     1       6.925  19.038  27.117  1.00  0.00     0.000 C 
BRANCH   8   9
ATOM      9  C   UNL     1       6.946  18.381  25.725  1.00  0.00     0.000 C 
BRANCH   9  10
ATOM     10  C   UNL     1       5.773  17.410  25.506  1.00  0.00     0.006 C 
BRANCH  10  11
ATOM     11  C   UNL     1       6.046  16.415  24.371  1.00  0.00     0.053 C 
BRANCH  11  12
ATOM     12  C   UNL     1       4.777  15.868  23.793  1.00  0.00     0.041 C 
ATOM     13  O   UNL     1       4.716  14.664  23.426  1.00  0.00    -0.550 OA
ATOM     14  O   UNL     1       3.672  16.694  23.632  1.00  0.00    -0.550 OA
ENDBRANCH  11  12
ENDBRANCH  10  11
ENDBRANCH   9  10
ENDBRANCH   8   9
ENDBRANCH   7   8
ENDBRANCH   6   7
ENDBRANCH   5   6
ENDBRANCH   4   5
ENDBRANCH   3   4
ENDBRANCH   2   3
ENDBRANCH   1   2
BRANCH   1  15
ATOM     15  C   UNL     1       1.669  22.111  23.571  1.00  0.00     0.000 C 
BRANCH  15  16
ATOM     16  C   UNL     1       1.448  22.936  22.293  1.00  0.00     0.000 C 
BRANCH  16  17
ATOM     17  C   UNL     1       2.679  23.768  21.891  1.00  0.00     0.000 C 
BRANCH  17  18
ATOM     18  C   UNL     1       2.613  25.260  22.268  1.00  0.00    -0.000 C 
BRANCH  18  19
ATOM     19  C   UNL     1       1.606  25.551  23.396  1.00  0.00    -0.000 C 
BRANCH  19  20
ATOM     20  C   UNL     1       0.981  26.950  23.284  1.00  0.00    -0.000 C 
BRANCH  20  21
ATOM     21  C   UNL     1       0.840  27.421  21.828  1.00  0.00    -0.000 C 
BRANCH  21  22
ATOM     22  C   UNL     1      -0.012  28.693  21.743  1.00  0.00    -0.000 C 
BRANCH  22  23
ATOM     23  C   UNL     1      -0.314  29.056  20.280  1.00  0.00    -0.000 C 
BRANCH  23  24
ATOM     24  C   UNL     1      -0.128  30.563  20.000  1.00  0.00    -0.000 C 
BRANCH  24  25
ATOM     25  C   UNL     1      -1.435  31.372  20.074  1.00  0.00    -0.003 C 
ATOM     26  C   UNL     1      -1.880  31.920  18.721  1.00  0.00     0.004 C 
ENDBRANCH  24  25
ENDBRANCH  23  24
ENDBRANCH  22  23
ENDBRANCH  21  22
ENDBRANCH  20  21
ENDBRANCH  19  20
ENDBRANCH  18  19
ENDBRANCH  17  18
ENDBRANCH  16  17
ENDBRANCH  15  16
ENDBRANCH   1  15
TORSDOF 22
ENDMDL
