MODEL 1
REMARK VINA RESULT:     3.353      0.000      0.000
REMARK INTER + INTRA:           5.100
REMARK INTER:                   6.097
REMARK INTRA:                  -0.998
REMARK UNBOUND:                -0.998
REMARK SMILES CCCCCCCCCCCCCCCC(=O)[O-]
REMARK SMILES IDX 9 1 10 2 11 3 12 4 13 5 14 6 15 7 16 8 17 9 18 10 8 11 7 12
REMARK SMILES IDX 6 13 5 14 4 15 3 16 2 17 1 18
REMARK H PARENT
REMARK Flexibility Score: inf
ROOT
ATOM      1  C   UNL     1     -20.491   4.880 -20.020  1.00  0.00     0.000 C 
ENDROOT
BRANCH   1   2
ATOM      2  C   UNL     1     -20.333   6.341 -19.562  1.00  0.00     0.000 C 
BRANCH   2   3
ATOM      3  C   UNL     1     -21.501   6.808 -18.677  1.00  0.00     0.000 C 
BRANCH   3   4
ATOM      4  C   UNL     1     -22.297   7.962 -19.312  1.00  0.00     0.000 C 
BRANCH   4   5
ATOM      5  C   UNL     1     -23.471   8.434 -18.435  1.00  0.00     0.000 C 
BRANCH   5   6
ATOM      6  C   UNL     1     -23.335   9.862 -17.876  1.00  0.00     0.006 C 
BRANCH   6   7
ATOM      7  C   UNL     1     -23.427   9.918 -16.346  1.00  0.00     0.053 C 
BRANCH   7   8
ATOM      8  C   UNL     1     -22.125   9.518 -15.729  1.00  0.00     0.041 C 
ATOM      9  O   UNL     1     -21.048  10.034 -16.131  1.00  0.00    -0.550 OA
ATOM     10  O   UNL     1     -22.092   8.539 -14.744  1.00  0.00    -0.550 OA
ENDBRANCH   7   8
ENDBRANCH   6   7
ENDBRANCH   5   6
ENDBRANCH   4   5
ENDBRANCH   3   4
ENDBRANCH   2   3
ENDBRANCH   1   2
BRANCH   1  11
ATOM     11  C   UNL     1     -20.681   3.909 -18.843  1.00  0.00     0.000 C 
BRANCH  11  12
ATOM     12  C   UNL     1     -19.458   3.010 -18.611  1.00  0.00    -0.000 C 
BRANCH  12  13
ATOM     13  C   UNL     1     -18.614   2.893 -19.885  1.00  0.00    -0.000 C 
BRANCH  13  14
ATOM     14  C   UNL     1     -17.121   3.064 -19.577  1.00  0.00    -0.000 C 
BRANCH  14  15
ATOM     15  C   UNL     1     -16.892   3.322 -18.083  1.00  0.00    -0.000 C 
BRANCH  15  16
ATOM     16  C   UNL     1     -15.469   2.921 -17.668  1.00  0.00    -0.000 C 
BRANCH  16  17
ATOM     17  C   UNL     1     -14.415   3.321 -18.711  1.00  0.00    -0.003 C 
ATOM     18  C   UNL     1     -14.051   4.804 -18.645  1.00  0.00     0.004 C 
ENDBRANCH  16  17
ENDBRANCH  15  16
ENDBRANCH  14  15
ENDBRANCH  13  14
ENDBRANCH  12  13
ENDBRANCH  11  12
ENDBRANCH   1  11
TORSDOF 14
ENDMDL
MODEL 2
REMARK VINA RESULT:     5.915      1.248      2.175
REMARK INTER + INTRA:           9.758
REMARK INTER:                   9.384
REMARK INTRA:                   0.374
REMARK UNBOUND:                -0.998
REMARK SMILES CCCCCCCCCCCCCCCC(=O)[O-]
REMARK SMILES IDX 9 1 10 2 11 3 12 4 13 5 14 6 15 7 16 8 17 9 18 10 8 11 7 12
REMARK SMILES IDX 6 13 5 14 4 15 3 16 2 17 1 18
REMARK H PARENT
REMARK Flexibility Score: inf
ROOT
ATOM      1  C   UNL     1     -18.842   4.683 -19.665  1.00  0.00     0.000 C 
ENDROOT
BRANCH   1   2
ATOM      2  C   UNL     1     -20.328   4.729 -20.064  1.00  0.00     0.000 C 
BRANCH   2   3
ATOM      3  C   UNL     1     -20.909   6.151 -19.997  1.00  0.00     0.000 C 
BRANCH   3   4
ATOM      4  C   UNL     1     -21.473   6.491 -18.606  1.00  0.00     0.000 C 
BRANCH   4   5
ATOM      5  C   UNL     1     -21.340   7.983 -18.253  1.00  0.00     0.000 C 
BRANCH   5   6
ATOM      6  C   UNL     1     -22.616   8.820 -18.458  1.00  0.00     0.006 C 
BRANCH   6   7
ATOM      7  C   UNL     1     -23.163   9.408 -17.151  1.00  0.00     0.053 C 
BRANCH   7   8
ATOM      8  C   UNL     1     -22.125   9.352 -16.077  1.00  0.00     0.041 C 
ATOM      9  O   UNL     1     -22.402   8.855 -14.953  1.00  0.00    -0.550 OA
ATOM     10  O   UNL     1     -20.865   9.894 -16.297  1.00  0.00    -0.550 OA
ENDBRANCH   7   8
ENDBRANCH   6   7
ENDBRANCH   5   6
ENDBRANCH   4   5
ENDBRANCH   3   4
ENDBRANCH   2   3
ENDBRANCH   1   2
BRANCH   1  11
ATOM     11  C   UNL     1     -18.472   3.389 -18.920  1.00  0.00     0.000 C 
BRANCH  11  12
ATOM     12  C   UNL     1     -16.961   3.116 -18.919  1.00  0.00    -0.000 C 
BRANCH  12  13
ATOM     13  C   UNL     1     -16.208   4.196 -19.706  1.00  0.00    -0.000 C 
BRANCH  13  14
ATOM     14  C   UNL     1     -14.809   3.712 -20.107  1.00  0.00    -0.000 C 
BRANCH  14  15
ATOM     15  C   UNL     1     -14.126   2.974 -18.949  1.00  0.00    -0.000 C 
BRANCH  15  16
ATOM     16  C   UNL     1     -14.385   3.687 -17.614  1.00  0.00    -0.000 C 
BRANCH  16  17
ATOM     17  C   UNL     1     -13.886   2.878 -16.407  1.00  0.00    -0.003 C 
ATOM     18  C   UNL     1     -14.111   3.598 -15.078  1.00  0.00     0.004 C 
ENDBRANCH  16  17
ENDBRANCH  15  16
ENDBRANCH  14  15
ENDBRANCH  13  14
ENDBRANCH  12  13
ENDBRANCH  11  12
ENDBRANCH   1  11
TORSDOF 14
ENDMDL
