MODEL 1
REMARK VINA RESULT:    29.310      0.000      0.000
REMARK INTER + INTRA:          34.185
REMARK INTER:                  34.451
REMARK INTRA:                  -0.266
REMARK UNBOUND:                -0.266
REMARK SMILES O=c1cc(-c2ccc(O)c(O)c2)oc2cc(O)cc(O)c12
REMARK SMILES IDX 4 1 3 2 2 3 1 4 21 5 19 6 18 7 16 8 15 9 14 10 13 11 5 12
REMARK SMILES IDX 6 13 7 14 8 15 12 16 10 17 9 18 11 20 20 22 17 24
REMARK H PARENT 9 19 11 21 20 23 17 25
REMARK Flexibility Score: inf
ROOT
ATOM      1  C   UNL     1      -2.125  -0.568   2.714  1.00  0.00     0.138 A 
ATOM      2  C   UNL     1      -3.038   0.008   3.609  1.00  0.00     0.100 A 
ATOM      3  C   UNL     1      -4.407  -0.122   3.377  1.00  0.00     0.197 A 
ATOM      4  O   UNL     1      -5.201   0.351   4.231  1.00  0.00    -0.289 OA
ATOM      5  C   UNL     1      -4.863  -0.806   2.225  1.00  0.00     0.107 A 
ATOM      6  C   UNL     1      -6.235  -0.965   1.865  1.00  0.00     0.134 A 
ATOM      7  C   UNL     1      -6.571  -1.761   0.762  1.00  0.00     0.093 A 
ATOM      8  C   UNL     1      -5.585  -2.352  -0.026  1.00  0.00     0.123 A 
ATOM      9  C   UNL     1      -4.239  -2.158   0.285  1.00  0.00     0.094 A 
ATOM     10  C   UNL     1      -3.872  -1.399   1.398  1.00  0.00     0.146 A 
ATOM     11  O   UNL     1      -2.580  -1.250   1.670  1.00  0.00    -0.456 OA
ENDROOT
BRANCH   1  12
ATOM     12  C   UNL     1      -0.657  -0.458   2.912  1.00  0.00     0.021 A 
ATOM     13  C   UNL     1       0.122   0.206   1.950  1.00  0.00     0.016 A 
ATOM     14  C   UNL     1       1.504   0.328   2.116  1.00  0.00     0.051 A 
ATOM     15  C   UNL     1       2.130  -0.199   3.248  1.00  0.00     0.157 A 
ATOM     16  C   UNL     1      -0.024  -0.977   4.058  1.00  0.00     0.062 A 
ATOM     17  C   UNL     1       1.363  -0.852   4.226  1.00  0.00     0.158 A 
BRANCH  15  18
ATOM     18  O   UNL     1       3.511  -0.062   3.386  1.00  0.00    -0.504 OA
ATOM     19  H   UNL     1       3.961  -0.030   4.292  1.00  0.00     0.293 HD
ENDBRANCH  15  18
BRANCH  17  20
ATOM     20  O   UNL     1       1.981  -1.371   5.364  1.00  0.00    -0.504 OA
ATOM     21  H   UNL     1       2.902  -1.789   5.324  1.00  0.00     0.293 HD
ENDBRANCH  17  20
ENDBRANCH   1  12
BRANCH   6  22
ATOM     22  O   UNL     1      -7.295  -0.348   2.535  1.00  0.00    -0.507 OA
ATOM     23  H   UNL     1      -8.246  -0.683   2.540  1.00  0.00     0.293 HD
ENDBRANCH   6  22
BRANCH   8  24
ATOM     24  O   UNL     1      -5.956  -3.125  -1.125  1.00  0.00    -0.508 OA
ATOM     25  H   UNL     1      -5.269  -3.484  -1.777  1.00  0.00     0.293 HD
ENDBRANCH   8  24
TORSDOF 5
ENDMDL
