MODEL 1
REMARK VINA RESULT:    -3.678      0.000      0.000
REMARK INTER + INTRA:         -11.745
REMARK INTER:                  -9.269
REMARK INTRA:                  -2.476
REMARK UNBOUND:                -2.476
REMARK SMILES CCCCCCCCCCCCCCCCCCCCCCCCCCCC(=O)[O-]
REMARK SMILES IDX 15 1 16 2 17 3 18 4 19 5 20 6 21 7 22 8 23 9 24 10 25 11
REMARK SMILES IDX 26 12 27 13 28 14 29 15 30 16 14 17 13 18 12 19 11 20 10 21
REMARK SMILES IDX 9 22 8 23 7 24 6 25 5 26 4 27 3 28 2 29 1 30
REMARK H PARENT
REMARK Flexibility Score: inf
ROOT
ATOM      1  C   UNL     1      -2.781   2.055   8.984  1.00  0.00     0.000 C 
ENDROOT
BRANCH   1   2
ATOM      2  C   UNL     1      -3.867   1.468   9.902  1.00  0.00     0.000 C 
BRANCH   2   3
ATOM      3  C   UNL     1      -4.790   0.484   9.164  1.00  0.00     0.000 C 
BRANCH   3   4
ATOM      4  C   UNL     1      -6.273   0.858   9.296  1.00  0.00     0.000 C 
BRANCH   4   5
ATOM      5  C   UNL     1      -6.442   2.372   9.498  1.00  0.00     0.000 C 
BRANCH   5   6
ATOM      6  C   UNL     1      -7.909   2.784   9.695  1.00  0.00     0.000 C 
BRANCH   6   7
ATOM      7  C   UNL     1      -8.111   4.309   9.644  1.00  0.00     0.000 C 
BRANCH   7   8
ATOM      8  C   UNL     1      -7.018   5.023   8.835  1.00  0.00     0.000 C 
BRANCH   8   9
ATOM      9  C   UNL     1      -7.576   6.156   7.959  1.00  0.00     0.000 C 
BRANCH   9  10
ATOM     10  C   UNL     1      -6.462   7.124   7.534  1.00  0.00     0.000 C 
BRANCH  10  11
ATOM     11  C   UNL     1      -6.613   8.524   8.156  1.00  0.00     0.000 C 
BRANCH  11  12
ATOM     12  C   UNL     1      -7.557   9.477   7.396  1.00  0.00     0.006 C 
BRANCH  12  13
ATOM     13  C   UNL     1      -7.245   9.621   5.898  1.00  0.00     0.053 C 
BRANCH  13  14
ATOM     14  C   UNL     1      -8.395   9.183   5.043  1.00  0.00     0.041 C 
ATOM     15  O   UNL     1      -8.707   9.839   4.015  1.00  0.00    -0.550 OA
ATOM     16  O   UNL     1      -9.135   8.062   5.396  1.00  0.00    -0.550 OA
ENDBRANCH  13  14
ENDBRANCH  12  13
ENDBRANCH  11  12
ENDBRANCH  10  11
ENDBRANCH   9  10
ENDBRANCH   8   9
ENDBRANCH   7   8
ENDBRANCH   6   7
ENDBRANCH   5   6
ENDBRANCH   4   5
ENDBRANCH   3   4
ENDBRANCH   2   3
ENDBRANCH   1   2
BRANCH   1  17
ATOM     17  C   UNL     1      -1.818   2.990   9.734  1.00  0.00     0.000 C 
BRANCH  17  18
ATOM     18  C   UNL     1      -2.017   4.467   9.350  1.00  0.00     0.000 C 
BRANCH  18  19
ATOM     19  C   UNL     1      -3.498   4.882   9.348  1.00  0.00     0.000 C 
BRANCH  19  20
ATOM     20  C   UNL     1      -3.689   6.391   9.578  1.00  0.00     0.000 C 
BRANCH  20  21
ATOM     21  C   UNL     1      -2.391   7.100  10.004  1.00  0.00     0.000 C 
BRANCH  21  22
ATOM     22  C   UNL     1      -2.354   8.602   9.647  1.00  0.00    -0.000 C 
BRANCH  22  23
ATOM     23  C   UNL     1      -0.921   9.109   9.404  1.00  0.00    -0.000 C 
BRANCH  23  24
ATOM     24  C   UNL     1       0.157   8.087   9.811  1.00  0.00    -0.000 C 
BRANCH  24  25
ATOM     25  C   UNL     1       0.920   7.437   8.643  1.00  0.00    -0.000 C 
BRANCH  25  26
ATOM     26  C   UNL     1       1.133   8.394   7.457  1.00  0.00    -0.000 C 
BRANCH  26  27
ATOM     27  C   UNL     1       2.621   8.680   7.194  1.00  0.00    -0.000 C 
BRANCH  27  28
ATOM     28  C   UNL     1       3.212   9.697   8.186  1.00  0.00    -0.000 C 
BRANCH  28  29
ATOM     29  C   UNL     1       4.642  10.118   7.813  1.00  0.00    -0.003 C 
ATOM     30  C   UNL     1       5.692   9.541   8.761  1.00  0.00     0.004 C 
ENDBRANCH  28  29
ENDBRANCH  27  28
ENDBRANCH  26  27
ENDBRANCH  25  26
ENDBRANCH  24  25
ENDBRANCH  23  24
ENDBRANCH  22  23
ENDBRANCH  21  22
ENDBRANCH  20  21
ENDBRANCH  19  20
ENDBRANCH  18  19
ENDBRANCH  17  18
ENDBRANCH   1  17
TORSDOF 26
ENDMDL
MODEL 2
REMARK VINA RESULT:    -3.278      3.729      8.642
REMARK INTER + INTRA:         -10.736
REMARK INTER:                  -8.605
REMARK INTRA:                  -2.131
REMARK UNBOUND:                -2.476
REMARK SMILES CCCCCCCCCCCCCCCCCCCCCCCCCCCC(=O)[O-]
REMARK SMILES IDX 15 1 16 2 17 3 18 4 19 5 20 6 21 7 22 8 23 9 24 10 25 11
REMARK SMILES IDX 26 12 27 13 28 14 29 15 30 16 14 17 13 18 12 19 11 20 10 21
REMARK SMILES IDX 9 22 8 23 7 24 6 25 5 26 4 27 3 28 2 29 1 30
REMARK H PARENT
REMARK Flexibility Score: inf
ROOT
ATOM      1  C   UNL     1      -2.700   1.904   8.659  1.00  0.00     0.000 C 
ENDROOT
BRANCH   1   2
ATOM      2  C   UNL     1      -1.543   2.611   9.384  1.00  0.00     0.000 C 
BRANCH   2   3
ATOM      3  C   UNL     1      -1.977   3.942  10.021  1.00  0.00     0.000 C 
BRANCH   3   4
ATOM      4  C   UNL     1      -2.448   4.966   8.978  1.00  0.00     0.000 C 
BRANCH   4   5
ATOM      5  C   UNL     1      -3.953   5.241   9.119  1.00  0.00     0.000 C 
BRANCH   5   6
ATOM      6  C   UNL     1      -4.250   6.500   9.949  1.00  0.00     0.000 C 
BRANCH   6   7
ATOM      7  C   UNL     1      -3.565   7.758   9.388  1.00  0.00     0.000 C 
BRANCH   7   8
ATOM      8  C   UNL     1      -2.181   8.003  10.008  1.00  0.00     0.000 C 
BRANCH   8   9
ATOM      9  C   UNL     1      -1.141   8.461   8.973  1.00  0.00     0.000 C 
BRANCH   9  10
ATOM     10  C   UNL     1      -0.400   9.717   9.454  1.00  0.00     0.000 C 
BRANCH  10  11
ATOM     11  C   UNL     1       1.082   9.453   9.777  1.00  0.00     0.000 C 
BRANCH  11  12
ATOM     12  C   UNL     1       2.031   9.492   8.563  1.00  0.00     0.006 C 
BRANCH  12  13
ATOM     13  C   UNL     1       3.518   9.322   8.912  1.00  0.00     0.053 C 
BRANCH  13  14
ATOM     14  C   UNL     1       4.213   8.397   7.961  1.00  0.00     0.041 C 
ATOM     15  O   UNL     1       3.544   7.640   7.208  1.00  0.00    -0.550 OA
ATOM     16  O   UNL     1       5.600   8.354   7.923  1.00  0.00    -0.550 OA
ENDBRANCH  13  14
ENDBRANCH  12  13
ENDBRANCH  11  12
ENDBRANCH  10  11
ENDBRANCH   9  10
ENDBRANCH   8   9
ENDBRANCH   7   8
ENDBRANCH   6   7
ENDBRANCH   5   6
ENDBRANCH   4   5
ENDBRANCH   3   4
ENDBRANCH   2   3
ENDBRANCH   1   2
BRANCH   1  17
ATOM     17  C   UNL     1      -3.854   1.537   9.607  1.00  0.00     0.000 C 
BRANCH  17  18
ATOM     18  C   UNL     1      -4.853   0.559   8.965  1.00  0.00     0.000 C 
BRANCH  18  19
ATOM     19  C   UNL     1      -6.310   0.867   9.346  1.00  0.00     0.000 C 
BRANCH  19  20
ATOM     20  C   UNL     1      -6.452   2.186  10.125  1.00  0.00     0.000 C 
BRANCH  20  21
ATOM     21  C   UNL     1      -6.862   3.368   9.228  1.00  0.00     0.000 C 
BRANCH  21  22
ATOM     22  C   UNL     1      -8.262   3.216   8.596  1.00  0.00    -0.000 C 
BRANCH  22  23
ATOM     23  C   UNL     1      -9.347   3.965   9.391  1.00  0.00    -0.000 C 
BRANCH  23  24
ATOM     24  C   UNL     1      -9.470   5.448   8.990  1.00  0.00    -0.000 C 
BRANCH  24  25
ATOM     25  C   UNL     1      -8.476   5.923   7.916  1.00  0.00    -0.000 C 
BRANCH  25  26
ATOM     26  C   UNL     1      -7.481   6.973   8.439  1.00  0.00    -0.000 C 
BRANCH  26  27
ATOM     27  C   UNL     1      -7.143   8.039   7.384  1.00  0.00    -0.000 C 
BRANCH  27  28
ATOM     28  C   UNL     1      -7.359   7.536   5.945  1.00  0.00    -0.000 C 
BRANCH  28  29
ATOM     29  C   UNL     1      -8.059   8.577   5.058  1.00  0.00    -0.003 C 
ATOM     30  C   UNL     1      -8.388   9.866   5.810  1.00  0.00     0.004 C 
ENDBRANCH  28  29
ENDBRANCH  27  28
ENDBRANCH  26  27
ENDBRANCH  25  26
ENDBRANCH  24  25
ENDBRANCH  23  24
ENDBRANCH  22  23
ENDBRANCH  21  22
ENDBRANCH  20  21
ENDBRANCH  19  20
ENDBRANCH  18  19
ENDBRANCH  17  18
ENDBRANCH   1  17
TORSDOF 26
ENDMDL
MODEL 3
REMARK VINA RESULT:    -3.226      4.186      8.849
REMARK INTER + INTRA:         -10.605
REMARK INTER:                  -8.077
REMARK INTRA:                  -2.528
REMARK UNBOUND:                -2.476
REMARK SMILES CCCCCCCCCCCCCCCCCCCCCCCCCCCC(=O)[O-]
REMARK SMILES IDX 15 1 16 2 17 3 18 4 19 5 20 6 21 7 22 8 23 9 24 10 25 11
REMARK SMILES IDX 26 12 27 13 28 14 29 15 30 16 14 17 13 18 12 19 11 20 10 21
REMARK SMILES IDX 9 22 8 23 7 24 6 25 5 26 4 27 3 28 2 29 1 30
REMARK H PARENT
REMARK Flexibility Score: inf
ROOT
ATOM      1  C   UNL     1      -2.370   2.463   9.208  1.00  0.00     0.000 C 
ENDROOT
BRANCH   1   2
ATOM      2  C   UNL     1      -1.124   3.005   9.929  1.00  0.00     0.000 C 
BRANCH   2   3
ATOM      3  C   UNL     1      -0.675   4.369   9.377  1.00  0.00     0.000 C 
BRANCH   3   4
ATOM      4  C   UNL     1      -1.791   5.084   8.602  1.00  0.00     0.000 C 
BRANCH   4   5
ATOM      5  C   UNL     1      -2.637   5.959   9.539  1.00  0.00     0.000 C 
BRANCH   5   6
ATOM      6  C   UNL     1      -1.861   7.168  10.084  1.00  0.00     0.000 C 
BRANCH   6   7
ATOM      7  C   UNL     1      -0.945   7.812   9.028  1.00  0.00     0.000 C 
BRANCH   7   8
ATOM      8  C   UNL     1      -1.141   9.333   8.924  1.00  0.00     0.000 C 
BRANCH   8   9
ATOM      9  C   UNL     1       0.011  10.122   9.566  1.00  0.00     0.000 C 
BRANCH   9  10
ATOM     10  C   UNL     1       1.239   9.226   9.784  1.00  0.00     0.000 C 
BRANCH  10  11
ATOM     11  C   UNL     1       2.568   9.951   9.506  1.00  0.00     0.000 C 
BRANCH  11  12
ATOM     12  C   UNL     1       3.140   9.746   8.090  1.00  0.00     0.006 C 
BRANCH  12  13
ATOM     13  C   UNL     1       3.961   8.459   7.916  1.00  0.00     0.053 C 
BRANCH  13  14
ATOM     14  C   UNL     1       5.325   8.580   8.524  1.00  0.00     0.041 C 
ATOM     15  O   UNL     1       5.576   8.038   9.633  1.00  0.00    -0.550 OA
ATOM     16  O   UNL     1       6.312   9.311   7.876  1.00  0.00    -0.550 OA
ENDBRANCH  13  14
ENDBRANCH  12  13
ENDBRANCH  11  12
ENDBRANCH  10  11
ENDBRANCH   9  10
ENDBRANCH   8   9
ENDBRANCH   7   8
ENDBRANCH   6   7
ENDBRANCH   5   6
ENDBRANCH   4   5
ENDBRANCH   3   4
ENDBRANCH   2   3
ENDBRANCH   1   2
BRANCH   1  17
ATOM     17  C   UNL     1      -3.632   2.528  10.085  1.00  0.00     0.000 C 
BRANCH  17  18
ATOM     18  C   UNL     1      -4.903   2.131   9.314  1.00  0.00     0.000 C 
BRANCH  18  19
ATOM     19  C   UNL     1      -6.136   2.940   9.751  1.00  0.00     0.000 C 
BRANCH  19  20
ATOM     20  C   UNL     1      -5.794   4.398  10.098  1.00  0.00     0.000 C 
BRANCH  20  21
ATOM     21  C   UNL     1      -6.479   5.411   9.162  1.00  0.00     0.000 C 
BRANCH  21  22
ATOM     22  C   UNL     1      -7.822   4.916   8.583  1.00  0.00    -0.000 C 
BRANCH  22  23
ATOM     23  C   UNL     1      -8.704   6.073   8.082  1.00  0.00    -0.000 C 
BRANCH  23  24
ATOM     24  C   UNL     1      -8.896   6.067   6.553  1.00  0.00    -0.000 C 
BRANCH  24  25
ATOM     25  C   UNL     1      -9.080   7.452   5.909  1.00  0.00    -0.000 C 
BRANCH  25  26
ATOM     26  C   UNL     1      -8.979   8.605   6.923  1.00  0.00    -0.000 C 
BRANCH  26  27
ATOM     27  C   UNL     1      -7.619   9.319   6.866  1.00  0.00    -0.000 C 
BRANCH  27  28
ATOM     28  C   UNL     1      -7.007   9.537   8.261  1.00  0.00    -0.000 C 
BRANCH  28  29
ATOM     29  C   UNL     1      -5.479   9.692   8.214  1.00  0.00    -0.003 C 
ATOM     30  C   UNL     1      -4.779   8.989   9.376  1.00  0.00     0.004 C 
ENDBRANCH  28  29
ENDBRANCH  27  28
ENDBRANCH  26  27
ENDBRANCH  25  26
ENDBRANCH  24  25
ENDBRANCH  23  24
ENDBRANCH  22  23
ENDBRANCH  21  22
ENDBRANCH  20  21
ENDBRANCH  19  20
ENDBRANCH  18  19
ENDBRANCH  17  18
ENDBRANCH   1  17
TORSDOF 26
ENDMDL
MODEL 4
REMARK VINA RESULT:    -3.153      1.299      2.191
REMARK INTER + INTRA:         -10.422
REMARK INTER:                  -9.523
REMARK INTRA:                  -0.899
REMARK UNBOUND:                -2.476
REMARK SMILES CCCCCCCCCCCCCCCCCCCCCCCCCCCC(=O)[O-]
REMARK SMILES IDX 15 1 16 2 17 3 18 4 19 5 20 6 21 7 22 8 23 9 24 10 25 11
REMARK SMILES IDX 26 12 27 13 28 14 29 15 30 16 14 17 13 18 12 19 11 20 10 21
REMARK SMILES IDX 9 22 8 23 7 24 6 25 5 26 4 27 3 28 2 29 1 30
REMARK H PARENT
REMARK Flexibility Score: inf
ROOT
ATOM      1  C   UNL     1      -3.161   2.952   9.345  1.00  0.00     0.000 C 
ENDROOT
BRANCH   1   2
ATOM      2  C   UNL     1      -3.935   1.754   9.921  1.00  0.00     0.000 C 
BRANCH   2   3
ATOM      3  C   UNL     1      -5.439   2.041  10.061  1.00  0.00     0.000 C 
BRANCH   3   4
ATOM      4  C   UNL     1      -6.299   0.787   9.850  1.00  0.00     0.000 C 
BRANCH   4   5
ATOM      5  C   UNL     1      -7.544   1.110   9.010  1.00  0.00     0.000 C 
BRANCH   5   6
ATOM      6  C   UNL     1      -8.319   2.326   9.542  1.00  0.00     0.000 C 
BRANCH   6   7
ATOM      7  C   UNL     1      -7.691   3.664   9.115  1.00  0.00     0.000 C 
BRANCH   7   8
ATOM      8  C   UNL     1      -8.673   4.840   9.225  1.00  0.00     0.000 C 
BRANCH   8   9
ATOM      9  C   UNL     1      -7.977   6.205   9.107  1.00  0.00     0.000 C 
BRANCH   9  10
ATOM     10  C   UNL     1      -6.827   6.151   8.091  1.00  0.00     0.000 C 
BRANCH  10  11
ATOM     11  C   UNL     1      -6.799   7.369   7.150  1.00  0.00     0.000 C 
BRANCH  11  12
ATOM     12  C   UNL     1      -7.473   7.151   5.781  1.00  0.00     0.006 C 
BRANCH  12  13
ATOM     13  C   UNL     1      -8.862   7.794   5.645  1.00  0.00     0.053 C 
BRANCH  13  14
ATOM     14  C   UNL     1      -8.774   9.278   5.453  1.00  0.00     0.041 C 
ATOM     15  O   UNL     1      -8.630   9.760   4.298  1.00  0.00    -0.550 OA
ATOM     16  O   UNL     1      -8.831  10.125   6.551  1.00  0.00    -0.550 OA
ENDBRANCH  13  14
ENDBRANCH  12  13
ENDBRANCH  11  12
ENDBRANCH  10  11
ENDBRANCH   9  10
ENDBRANCH   8   9
ENDBRANCH   7   8
ENDBRANCH   6   7
ENDBRANCH   5   6
ENDBRANCH   4   5
ENDBRANCH   3   4
ENDBRANCH   2   3
ENDBRANCH   1   2
BRANCH   1  17
ATOM     17  C   UNL     1      -1.637   2.765   9.432  1.00  0.00     0.000 C 
BRANCH  17  18
ATOM     18  C   UNL     1      -0.920   4.024   9.951  1.00  0.00     0.000 C 
BRANCH  18  19
ATOM     19  C   UNL     1      -1.139   5.245   9.043  1.00  0.00     0.000 C 
BRANCH  19  20
ATOM     20  C   UNL     1      -1.686   6.461   9.809  1.00  0.00     0.000 C 
BRANCH  20  21
ATOM     21  C   UNL     1      -0.922   7.759   9.494  1.00  0.00     0.000 C 
BRANCH  21  22
ATOM     22  C   UNL     1       0.509   7.528   8.960  1.00  0.00    -0.000 C 
BRANCH  22  23
ATOM     23  C   UNL     1       0.666   7.974   7.496  1.00  0.00    -0.000 C 
BRANCH  23  24
ATOM     24  C   UNL     1       1.971   8.752   7.240  1.00  0.00    -0.000 C 
BRANCH  24  25
ATOM     25  C   UNL     1       3.265   7.994   7.588  1.00  0.00    -0.000 C 
BRANCH  25  26
ATOM     26  C   UNL     1       4.052   8.645   8.738  1.00  0.00    -0.000 C 
BRANCH  26  27
ATOM     27  C   UNL     1       5.489   9.011   8.333  1.00  0.00    -0.000 C 
BRANCH  27  28
ATOM     28  C   UNL     1       6.439   9.100   9.540  1.00  0.00    -0.000 C 
BRANCH  28  29
ATOM     29  C   UNL     1       7.850   9.565   9.143  1.00  0.00    -0.003 C 
ATOM     30  C   UNL     1       8.942   8.613   9.630  1.00  0.00     0.004 C 
ENDBRANCH  28  29
ENDBRANCH  27  28
ENDBRANCH  26  27
ENDBRANCH  25  26
ENDBRANCH  24  25
ENDBRANCH  23  24
ENDBRANCH  22  23
ENDBRANCH  21  22
ENDBRANCH  20  21
ENDBRANCH  19  20
ENDBRANCH  18  19
ENDBRANCH  17  18
ENDBRANCH   1  17
TORSDOF 26
ENDMDL
MODEL 5
REMARK VINA RESULT:    -3.067      4.995     10.880
REMARK INTER + INTRA:         -10.205
REMARK INTER:                  -8.471
REMARK INTRA:                  -1.734
REMARK UNBOUND:                -2.476
REMARK SMILES CCCCCCCCCCCCCCCCCCCCCCCCCCCC(=O)[O-]
REMARK SMILES IDX 15 1 16 2 17 3 18 4 19 5 20 6 21 7 22 8 23 9 24 10 25 11
REMARK SMILES IDX 26 12 27 13 28 14 29 15 30 16 14 17 13 18 12 19 11 20 10 21
REMARK SMILES IDX 9 22 8 23 7 24 6 25 5 26 4 27 3 28 2 29 1 30
REMARK H PARENT
REMARK Flexibility Score: inf
ROOT
ATOM      1  C   UNL     1      -4.124   4.125   9.186  1.00  0.00     0.000 C 
ENDROOT
BRANCH   1   2
ATOM      2  C   UNL     1      -2.825   4.558   9.887  1.00  0.00     0.000 C 
BRANCH   2   3
ATOM      3  C   UNL     1      -1.853   5.270   8.932  1.00  0.00     0.000 C 
BRANCH   3   4
ATOM      4  C   UNL     1      -1.651   6.748   9.295  1.00  0.00     0.000 C 
BRANCH   4   5
ATOM      5  C   UNL     1      -0.370   7.301   8.651  1.00  0.00     0.000 C 
BRANCH   5   6
ATOM      6  C   UNL     1      -0.337   8.837   8.622  1.00  0.00     0.000 C 
BRANCH   6   7
ATOM      7  C   UNL     1       1.072   9.407   8.865  1.00  0.00     0.000 C 
BRANCH   7   8
ATOM      8  C   UNL     1       2.158   8.320   8.861  1.00  0.00     0.000 C 
BRANCH   8   9
ATOM      9  C   UNL     1       3.155   8.485   7.703  1.00  0.00     0.000 C 
BRANCH   9  10
ATOM     10  C   UNL     1       3.778   9.889   7.709  1.00  0.00     0.000 C 
BRANCH  10  11
ATOM     11  C   UNL     1       4.861  10.061   8.789  1.00  0.00     0.000 C 
BRANCH  11  12
ATOM     12  C   UNL     1       6.097   9.154   8.624  1.00  0.00     0.006 C 
BRANCH  12  13
ATOM     13  C   UNL     1       7.073   9.186   9.811  1.00  0.00     0.053 C 
BRANCH  13  14
ATOM     14  C   UNL     1       8.492   8.989   9.373  1.00  0.00     0.041 C 
ATOM     15  O   UNL     1       9.347   9.894   9.566  1.00  0.00    -0.550 OA
ATOM     16  O   UNL     1       8.864   7.815   8.732  1.00  0.00    -0.550 OA
ENDBRANCH  13  14
ENDBRANCH  12  13
ENDBRANCH  11  12
ENDBRANCH  10  11
ENDBRANCH   9  10
ENDBRANCH   8   9
ENDBRANCH   7   8
ENDBRANCH   6   7
ENDBRANCH   5   6
ENDBRANCH   4   5
ENDBRANCH   3   4
ENDBRANCH   2   3
ENDBRANCH   1   2
BRANCH   1  17
ATOM     17  C   UNL     1      -4.841   2.984   9.927  1.00  0.00     0.000 C 
BRANCH  17  18
ATOM     18  C   UNL     1      -4.370   1.595   9.461  1.00  0.00     0.000 C 
BRANCH  18  19
ATOM     19  C   UNL     1      -5.308   0.467   9.921  1.00  0.00     0.000 C 
BRANCH  19  20
ATOM     20  C   UNL     1      -6.462   0.218   8.936  1.00  0.00     0.000 C 
BRANCH  20  21
ATOM     21  C   UNL     1      -7.845   0.270   9.609  1.00  0.00     0.000 C 
BRANCH  21  22
ATOM     22  C   UNL     1      -8.236   1.672  10.125  1.00  0.00    -0.000 C 
BRANCH  22  23
ATOM     23  C   UNL     1      -8.824   2.561   9.015  1.00  0.00    -0.000 C 
BRANCH  23  24
ATOM     24  C   UNL     1      -8.084   3.903   8.861  1.00  0.00    -0.000 C 
BRANCH  24  25
ATOM     25  C   UNL     1      -8.648   4.844   7.782  1.00  0.00    -0.000 C 
BRANCH  25  26
ATOM     26  C   UNL     1      -9.125   6.192   8.349  1.00  0.00    -0.000 C 
BRANCH  26  27
ATOM     27  C   UNL     1      -9.650   7.136   7.255  1.00  0.00    -0.000 C 
BRANCH  27  28
ATOM     28  C   UNL     1      -8.745   7.161   6.011  1.00  0.00    -0.000 C 
BRANCH  28  29
ATOM     29  C   UNL     1      -7.651   8.236   6.102  1.00  0.00    -0.003 C 
ATOM     30  C   UNL     1      -7.695   9.223   4.936  1.00  0.00     0.004 C 
ENDBRANCH  28  29
ENDBRANCH  27  28
ENDBRANCH  26  27
ENDBRANCH  25  26
ENDBRANCH  24  25
ENDBRANCH  23  24
ENDBRANCH  22  23
ENDBRANCH  21  22
ENDBRANCH  20  21
ENDBRANCH  19  20
ENDBRANCH  18  19
ENDBRANCH  17  18
ENDBRANCH   1  17
TORSDOF 26
ENDMDL
MODEL 6
REMARK VINA RESULT:    -3.060      2.154      3.600
REMARK INTER + INTRA:         -10.186
REMARK INTER:                  -7.193
REMARK INTRA:                  -2.993
REMARK UNBOUND:                -2.476
REMARK SMILES CCCCCCCCCCCCCCCCCCCCCCCCCCCC(=O)[O-]
REMARK SMILES IDX 15 1 16 2 17 3 18 4 19 5 20 6 21 7 22 8 23 9 24 10 25 11
REMARK SMILES IDX 26 12 27 13 28 14 29 15 30 16 14 17 13 18 12 19 11 20 10 21
REMARK SMILES IDX 9 22 8 23 7 24 6 25 5 26 4 27 3 28 2 29 1 30
REMARK H PARENT
REMARK Flexibility Score: inf
ROOT
ATOM      1  C   UNL     1      -1.963   2.414   8.962  1.00  0.00     0.000 C 
ENDROOT
BRANCH   1   2
ATOM      2  C   UNL     1      -3.058   1.596   9.669  1.00  0.00     0.000 C 
BRANCH   2   3
ATOM      3  C   UNL     1      -4.266   2.458  10.072  1.00  0.00     0.000 C 
BRANCH   3   4
ATOM      4  C   UNL     1      -5.405   2.389   9.045  1.00  0.00     0.000 C 
BRANCH   4   5
ATOM      5  C   UNL     1      -6.761   2.203   9.741  1.00  0.00     0.000 C 
BRANCH   5   6
ATOM      6  C   UNL     1      -7.049   0.735  10.096  1.00  0.00     0.000 C 
BRANCH   6   7
ATOM      7  C   UNL     1      -7.406  -0.116   8.865  1.00  0.00     0.000 C 
BRANCH   7   8
ATOM      8  C   UNL     1      -8.905  -0.441   8.785  1.00  0.00     0.000 C 
BRANCH   8   9
ATOM      9  C   UNL     1      -9.759   0.791   8.447  1.00  0.00     0.000 C 
BRANCH   9  10
ATOM     10  C   UNL     1      -9.417   1.333   7.052  1.00  0.00     0.000 C 
BRANCH  10  11
ATOM     11  C   UNL     1      -9.879   2.787   6.843  1.00  0.00     0.000 C 
BRANCH  11  12
ATOM     12  C   UNL     1      -9.379   3.789   7.902  1.00  0.00     0.006 C 
BRANCH  12  13
ATOM     13  C   UNL     1      -9.474   5.263   7.478  1.00  0.00     0.053 C 
BRANCH  13  14
ATOM     14  C   UNL     1      -8.316   6.067   7.986  1.00  0.00     0.041 C 
ATOM     15  O   UNL     1      -7.368   5.500   8.590  1.00  0.00    -0.550 OA
ATOM     16  O   UNL     1      -8.298   7.444   7.812  1.00  0.00    -0.550 OA
ENDBRANCH  13  14
ENDBRANCH  12  13
ENDBRANCH  11  12
ENDBRANCH  10  11
ENDBRANCH   9  10
ENDBRANCH   8   9
ENDBRANCH   7   8
ENDBRANCH   6   7
ENDBRANCH   5   6
ENDBRANCH   4   5
ENDBRANCH   3   4
ENDBRANCH   2   3
ENDBRANCH   1   2
BRANCH   1  17
ATOM     17  C   UNL     1      -0.970   3.047   9.951  1.00  0.00     0.000 C 
BRANCH  17  18
ATOM     18  C   UNL     1      -1.165   4.568  10.086  1.00  0.00     0.000 C 
BRANCH  18  19
ATOM     19  C   UNL     1      -1.829   5.190   8.846  1.00  0.00     0.000 C 
BRANCH  19  20
ATOM     20  C   UNL     1      -3.135   5.928   9.183  1.00  0.00     0.000 C 
BRANCH  20  21
ATOM     21  C   UNL     1      -2.916   7.142  10.103  1.00  0.00     0.000 C 
BRANCH  21  22
ATOM     22  C   UNL     1      -3.475   8.465   9.536  1.00  0.00    -0.000 C 
BRANCH  22  23
ATOM     23  C   UNL     1      -2.675   9.690  10.014  1.00  0.00    -0.000 C 
BRANCH  23  24
ATOM     24  C   UNL     1      -1.551  10.093   9.041  1.00  0.00    -0.000 C 
BRANCH  24  25
ATOM     25  C   UNL     1      -0.125  10.004   9.613  1.00  0.00    -0.000 C 
BRANCH  25  26
ATOM     26  C   UNL     1       0.231   8.598  10.125  1.00  0.00    -0.000 C 
BRANCH  26  27
ATOM     27  C   UNL     1       0.932   7.743   9.056  1.00  0.00    -0.000 C 
BRANCH  27  28
ATOM     28  C   UNL     1       2.457   7.948   9.042  1.00  0.00    -0.000 C 
BRANCH  28  29
ATOM     29  C   UNL     1       3.052   7.833   7.630  1.00  0.00    -0.003 C 
ATOM     30  C   UNL     1       2.594   8.960   6.705  1.00  0.00     0.004 C 
ENDBRANCH  28  29
ENDBRANCH  27  28
ENDBRANCH  26  27
ENDBRANCH  25  26
ENDBRANCH  24  25
ENDBRANCH  23  24
ENDBRANCH  22  23
ENDBRANCH  21  22
ENDBRANCH  20  21
ENDBRANCH  19  20
ENDBRANCH  18  19
ENDBRANCH  17  18
ENDBRANCH   1  17
TORSDOF 26
ENDMDL
MODEL 7
REMARK VINA RESULT:    -3.031      2.027      3.104
REMARK INTER + INTRA:         -10.115
REMARK INTER:                  -8.011
REMARK INTRA:                  -2.104
REMARK UNBOUND:                -2.476
REMARK SMILES CCCCCCCCCCCCCCCCCCCCCCCCCCCC(=O)[O-]
REMARK SMILES IDX 15 1 16 2 17 3 18 4 19 5 20 6 21 7 22 8 23 9 24 10 25 11
REMARK SMILES IDX 26 12 27 13 28 14 29 15 30 16 14 17 13 18 12 19 11 20 10 21
REMARK SMILES IDX 9 22 8 23 7 24 6 25 5 26 4 27 3 28 2 29 1 30
REMARK H PARENT
REMARK Flexibility Score: inf
ROOT
ATOM      1  C   UNL     1      -2.282   1.983   9.228  1.00  0.00     0.000 C 
ENDROOT
BRANCH   1   2
ATOM      2  C   UNL     1      -3.762   2.003   8.809  1.00  0.00     0.000 C 
BRANCH   2   3
ATOM      3  C   UNL     1      -4.711   2.110  10.015  1.00  0.00     0.000 C 
BRANCH   3   4
ATOM      4  C   UNL     1      -5.920   3.012   9.731  1.00  0.00     0.000 C 
BRANCH   4   5
ATOM      5  C   UNL     1      -5.506   4.491   9.694  1.00  0.00     0.000 C 
BRANCH   5   6
ATOM      6  C   UNL     1      -6.338   5.315   8.700  1.00  0.00     0.000 C 
BRANCH   6   7
ATOM      7  C   UNL     1      -6.725   6.699   9.250  1.00  0.00     0.000 C 
BRANCH   7   8
ATOM      8  C   UNL     1      -5.944   7.841   8.582  1.00  0.00     0.000 C 
BRANCH   8   9
ATOM      9  C   UNL     1      -6.767   8.572   7.511  1.00  0.00     0.000 C 
BRANCH   9  10
ATOM     10  C   UNL     1      -7.392   7.578   6.521  1.00  0.00     0.000 C 
BRANCH  10  11
ATOM     11  C   UNL     1      -8.753   8.048   5.976  1.00  0.00     0.000 C 
BRANCH  11  12
ATOM     12  C   UNL     1      -9.894   7.018   6.094  1.00  0.00     0.006 C 
BRANCH  12  13
ATOM     13  C   UNL     1     -10.096   6.451   7.508  1.00  0.00     0.053 C 
BRANCH  13  14
ATOM     14  C   UNL     1      -9.848   4.974   7.558  1.00  0.00     0.041 C 
ATOM     15  O   UNL     1      -9.834   4.296   6.497  1.00  0.00    -0.550 OA
ATOM     16  O   UNL     1      -9.655   4.344   8.781  1.00  0.00    -0.550 OA
ENDBRANCH  13  14
ENDBRANCH  12  13
ENDBRANCH  11  12
ENDBRANCH  10  11
ENDBRANCH   9  10
ENDBRANCH   8   9
ENDBRANCH   7   8
ENDBRANCH   6   7
ENDBRANCH   5   6
ENDBRANCH   4   5
ENDBRANCH   3   4
ENDBRANCH   2   3
ENDBRANCH   1   2
BRANCH   1  17
ATOM     17  C   UNL     1      -1.908   3.176  10.125  1.00  0.00     0.000 C 
BRANCH  17  18
ATOM     18  C   UNL     1      -1.782   4.488   9.332  1.00  0.00     0.000 C 
BRANCH  18  19
ATOM     19  C   UNL     1      -0.409   5.157   9.511  1.00  0.00     0.000 C 
BRANCH  19  20
ATOM     20  C   UNL     1      -0.507   6.688   9.625  1.00  0.00     0.000 C 
BRANCH  20  21
ATOM     21  C   UNL     1      -0.422   7.394   8.260  1.00  0.00     0.000 C 
BRANCH  21  22
ATOM     22  C   UNL     1       0.297   8.760   8.308  1.00  0.00    -0.000 C 
BRANCH  22  23
ATOM     23  C   UNL     1       0.890   9.061   9.696  1.00  0.00    -0.000 C 
BRANCH  23  24
ATOM     24  C   UNL     1       2.397   9.375   9.652  1.00  0.00    -0.000 C 
BRANCH  24  25
ATOM     25  C   UNL     1       3.312   8.163   9.397  1.00  0.00    -0.000 C 
BRANCH  25  26
ATOM     26  C   UNL     1       4.121   8.284   8.093  1.00  0.00    -0.000 C 
BRANCH  26  27
ATOM     27  C   UNL     1       5.289   9.275   8.216  1.00  0.00    -0.000 C 
BRANCH  27  28
ATOM     28  C   UNL     1       6.222   8.946   9.395  1.00  0.00    -0.000 C 
BRANCH  28  29
ATOM     29  C   UNL     1       7.674   9.378   9.133  1.00  0.00    -0.003 C 
ATOM     30  C   UNL     1       8.670   8.691  10.066  1.00  0.00     0.004 C 
ENDBRANCH  28  29
ENDBRANCH  27  28
ENDBRANCH  26  27
ENDBRANCH  25  26
ENDBRANCH  24  25
ENDBRANCH  23  24
ENDBRANCH  22  23
ENDBRANCH  21  22
ENDBRANCH  20  21
ENDBRANCH  19  20
ENDBRANCH  18  19
ENDBRANCH  17  18
ENDBRANCH   1  17
TORSDOF 26
ENDMDL
MODEL 8
REMARK VINA RESULT:    -3.015      1.847      2.609
REMARK INTER + INTRA:         -10.075
REMARK INTER:                  -8.162
REMARK INTRA:                  -1.912
REMARK UNBOUND:                -2.476
REMARK SMILES CCCCCCCCCCCCCCCCCCCCCCCCCCCC(=O)[O-]
REMARK SMILES IDX 15 1 16 2 17 3 18 4 19 5 20 6 21 7 22 8 23 9 24 10 25 11
REMARK SMILES IDX 26 12 27 13 28 14 29 15 30 16 14 17 13 18 12 19 11 20 10 21
REMARK SMILES IDX 9 22 8 23 7 24 6 25 5 26 4 27 3 28 2 29 1 30
REMARK H PARENT
REMARK Flexibility Score: inf
ROOT
ATOM      1  C   UNL     1      -2.658   2.678   8.808  1.00  0.00     0.000 C 
ENDROOT
BRANCH   1   2
ATOM      2  C   UNL     1      -3.462   1.827   9.807  1.00  0.00     0.000 C 
BRANCH   2   3
ATOM      3  C   UNL     1      -4.976   2.077   9.703  1.00  0.00     0.000 C 
BRANCH   3   4
ATOM      4  C   UNL     1      -5.799   0.809   9.971  1.00  0.00     0.000 C 
BRANCH   4   5
ATOM      5  C   UNL     1      -7.293   1.143  10.108  1.00  0.00     0.000 C 
BRANCH   5   6
ATOM      6  C   UNL     1      -7.860   1.847   8.866  1.00  0.00     0.000 C 
BRANCH   6   7
ATOM      7  C   UNL     1      -8.519   3.197   9.195  1.00  0.00     0.000 C 
BRANCH   7   8
ATOM      8  C   UNL     1      -9.522   3.644   8.121  1.00  0.00     0.000 C 
BRANCH   8   9
ATOM      9  C   UNL     1      -9.307   5.101   7.680  1.00  0.00     0.000 C 
BRANCH   9  10
ATOM     10  C   UNL     1      -8.263   5.796   8.567  1.00  0.00     0.000 C 
BRANCH  10  11
ATOM     11  C   UNL     1      -7.082   6.372   7.765  1.00  0.00     0.000 C 
BRANCH  11  12
ATOM     12  C   UNL     1      -5.770   6.528   8.558  1.00  0.00     0.006 C 
BRANCH  12  13
ATOM     13  C   UNL     1      -5.729   7.753   9.486  1.00  0.00     0.053 C 
BRANCH  13  14
ATOM     14  C   UNL     1      -5.769   9.038   8.716  1.00  0.00     0.041 C 
ATOM     15  O   UNL     1      -6.857   9.462   8.245  1.00  0.00    -0.550 OA
ATOM     16  O   UNL     1      -4.599   9.755   8.502  1.00  0.00    -0.550 OA
ENDBRANCH  13  14
ENDBRANCH  12  13
ENDBRANCH  11  12
ENDBRANCH  10  11
ENDBRANCH   9  10
ENDBRANCH   8   9
ENDBRANCH   7   8
ENDBRANCH   6   7
ENDBRANCH   5   6
ENDBRANCH   4   5
ENDBRANCH   3   4
ENDBRANCH   2   3
ENDBRANCH   1   2
BRANCH   1  17
ATOM     17  C   UNL     1      -1.269   3.061   9.346  1.00  0.00     0.000 C 
BRANCH  17  18
ATOM     18  C   UNL     1      -1.285   4.396  10.111  1.00  0.00     0.000 C 
BRANCH  18  19
ATOM     19  C   UNL     1      -1.594   5.596   9.199  1.00  0.00     0.000 C 
BRANCH  19  20
ATOM     20  C   UNL     1      -2.191   6.785   9.969  1.00  0.00     0.000 C 
BRANCH  20  21
ATOM     21  C   UNL     1      -1.690   8.145   9.450  1.00  0.00     0.000 C 
BRANCH  21  22
ATOM     22  C   UNL     1      -0.212   8.137   9.005  1.00  0.00    -0.000 C 
BRANCH  22  23
ATOM     23  C   UNL     1       0.273   9.529   8.561  1.00  0.00    -0.000 C 
BRANCH  23  24
ATOM     24  C   UNL     1       1.781   9.572   8.252  1.00  0.00    -0.000 C 
BRANCH  24  25
ATOM     25  C   UNL     1       2.268   8.545   7.213  1.00  0.00    -0.000 C 
BRANCH  25  26
ATOM     26  C   UNL     1       3.574   7.845   7.626  1.00  0.00    -0.000 C 
BRANCH  26  27
ATOM     27  C   UNL     1       4.358   8.640   8.683  1.00  0.00    -0.000 C 
BRANCH  27  28
ATOM     28  C   UNL     1       5.789   8.979   8.227  1.00  0.00    -0.000 C 
BRANCH  28  29
ATOM     29  C   UNL     1       6.802   8.919   9.382  1.00  0.00    -0.003 C 
ATOM     30  C   UNL     1       8.138   9.570   9.027  1.00  0.00     0.004 C 
ENDBRANCH  28  29
ENDBRANCH  27  28
ENDBRANCH  26  27
ENDBRANCH  25  26
ENDBRANCH  24  25
ENDBRANCH  23  24
ENDBRANCH  22  23
ENDBRANCH  21  22
ENDBRANCH  20  21
ENDBRANCH  19  20
ENDBRANCH  18  19
ENDBRANCH  17  18
ENDBRANCH   1  17
TORSDOF 26
ENDMDL
MODEL 9
REMARK VINA RESULT:    -3.006      2.739      5.650
REMARK INTER + INTRA:         -10.052
REMARK INTER:                  -8.176
REMARK INTRA:                  -1.877
REMARK UNBOUND:                -2.476
REMARK SMILES CCCCCCCCCCCCCCCCCCCCCCCCCCCC(=O)[O-]
REMARK SMILES IDX 15 1 16 2 17 3 18 4 19 5 20 6 21 7 22 8 23 9 24 10 25 11
REMARK SMILES IDX 26 12 27 13 28 14 29 15 30 16 14 17 13 18 12 19 11 20 10 21
REMARK SMILES IDX 9 22 8 23 7 24 6 25 5 26 4 27 3 28 2 29 1 30
REMARK H PARENT
REMARK Flexibility Score: inf
ROOT
ATOM      1  C   UNL     1      -5.591   6.103   7.964  1.00  0.00     0.000 C 
ENDROOT
BRANCH   1   2
ATOM      2  C   UNL     1      -6.739   7.127   7.973  1.00  0.00     0.000 C 
BRANCH   2   3
ATOM      3  C   UNL     1      -7.126   7.584   6.557  1.00  0.00     0.000 C 
BRANCH   3   4
ATOM      4  C   UNL     1      -8.224   6.708   5.936  1.00  0.00     0.000 C 
BRANCH   4   5
ATOM      5  C   UNL     1      -9.501   6.743   6.788  1.00  0.00     0.000 C 
BRANCH   5   6
ATOM      6  C   UNL     1     -10.115   5.349   6.995  1.00  0.00     0.000 C 
BRANCH   6   7
ATOM      7  C   UNL     1      -9.887   4.804   8.415  1.00  0.00     0.000 C 
BRANCH   7   8
ATOM      8  C   UNL     1      -8.795   3.724   8.466  1.00  0.00     0.000 C 
BRANCH   8   9
ATOM      9  C   UNL     1      -9.245   2.464   9.222  1.00  0.00     0.000 C 
BRANCH   9  10
ATOM     10  C   UNL     1      -8.258   1.308   9.002  1.00  0.00     0.000 C 
BRANCH  10  11
ATOM     11  C   UNL     1      -6.877   1.570   9.630  1.00  0.00     0.000 C 
BRANCH  11  12
ATOM     12  C   UNL     1      -5.755   0.626   9.156  1.00  0.00     0.006 C 
BRANCH  12  13
ATOM     13  C   UNL     1      -4.428   0.782   9.916  1.00  0.00     0.053 C 
BRANCH  13  14
ATOM     14  C   UNL     1      -3.590   1.890   9.354  1.00  0.00     0.041 C 
ATOM     15  O   UNL     1      -4.136   2.923   8.885  1.00  0.00    -0.550 OA
ATOM     16  O   UNL     1      -2.207   1.770   9.329  1.00  0.00    -0.550 OA
ENDBRANCH  13  14
ENDBRANCH  12  13
ENDBRANCH  11  12
ENDBRANCH  10  11
ENDBRANCH   9  10
ENDBRANCH   8   9
ENDBRANCH   7   8
ENDBRANCH   6   7
ENDBRANCH   5   6
ENDBRANCH   4   5
ENDBRANCH   3   4
ENDBRANCH   2   3
ENDBRANCH   1   2
BRANCH   1  17
ATOM     17  C   UNL     1      -4.641   6.274   9.162  1.00  0.00     0.000 C 
BRANCH  17  18
ATOM     18  C   UNL     1      -4.648   7.710   9.716  1.00  0.00     0.000 C 
BRANCH  18  19
ATOM     19  C   UNL     1      -3.347   8.469   9.408  1.00  0.00     0.000 C 
BRANCH  19  20
ATOM     20  C   UNL     1      -2.127   7.866  10.123  1.00  0.00     0.000 C 
BRANCH  20  21
ATOM     21  C   UNL     1      -0.802   8.526   9.704  1.00  0.00     0.000 C 
BRANCH  21  22
ATOM     22  C   UNL     1       0.164   7.575   8.964  1.00  0.00    -0.000 C 
BRANCH  22  23
ATOM     23  C   UNL     1       0.608   8.136   7.602  1.00  0.00    -0.000 C 
BRANCH  23  24
ATOM     24  C   UNL     1       1.725   9.191   7.720  1.00  0.00    -0.000 C 
BRANCH  24  25
ATOM     25  C   UNL     1       3.105   8.747   7.202  1.00  0.00    -0.000 C 
BRANCH  25  26
ATOM     26  C   UNL     1       4.033   8.242   8.321  1.00  0.00    -0.000 C 
BRANCH  26  27
ATOM     27  C   UNL     1       4.074   9.197   9.525  1.00  0.00    -0.000 C 
BRANCH  27  28
ATOM     28  C   UNL     1       5.478   9.777   9.772  1.00  0.00    -0.000 C 
BRANCH  28  29
ATOM     29  C   UNL     1       6.572   9.013   9.010  1.00  0.00    -0.003 C 
ATOM     30  C   UNL     1       7.980   9.486   9.369  1.00  0.00     0.004 C 
ENDBRANCH  28  29
ENDBRANCH  27  28
ENDBRANCH  26  27
ENDBRANCH  25  26
ENDBRANCH  24  25
ENDBRANCH  23  24
ENDBRANCH  22  23
ENDBRANCH  21  22
ENDBRANCH  20  21
ENDBRANCH  19  20
ENDBRANCH  18  19
ENDBRANCH  17  18
ENDBRANCH   1  17
TORSDOF 26
ENDMDL
