MODEL 1
REMARK VINA RESULT:    -5.088      0.000      0.000
REMARK INTER + INTRA:         -14.373
REMARK INTER:                 -11.037
REMARK INTRA:                  -3.336
REMARK UNBOUND:                -3.336
REMARK SMILES CCCCCCCCCCCCCCCCCCCCCC(=O)[O-]
REMARK SMILES IDX 12 1 11 2 10 3 9 4 8 5 7 6 6 7 5 8 4 9 3 10 2 11 1 12 13 13
REMARK SMILES IDX 14 14 15 15 16 16 17 17 18 18 19 19 20 20 21 21 22 22 23 23
REMARK SMILES IDX 24 24
REMARK H PARENT
REMARK Flexibility Score: inf
ROOT
ATOM      1  C   UNL     1      32.596  43.742  48.978  1.00  0.00     0.000 C 
ENDROOT
BRANCH   1   2
ATOM      2  C   UNL     1      33.177  42.365  48.623  1.00  0.00     0.000 C 
BRANCH   2   3
ATOM      3  C   UNL     1      32.815  41.908  47.197  1.00  0.00     0.000 C 
BRANCH   3   4
ATOM      4  C   UNL     1      31.319  41.981  46.842  1.00  0.00    -0.000 C 
BRANCH   4   5
ATOM      5  C   UNL     1      31.045  42.770  45.550  1.00  0.00    -0.000 C 
BRANCH   5   6
ATOM      6  C   UNL     1      31.806  44.104  45.500  1.00  0.00    -0.000 C 
BRANCH   6   7
ATOM      7  C   UNL     1      32.274  44.464  44.082  1.00  0.00    -0.000 C 
BRANCH   7   8
ATOM      8  C   UNL     1      33.788  44.705  44.048  1.00  0.00    -0.000 C 
BRANCH   8   9
ATOM      9  C   UNL     1      34.376  44.720  45.468  1.00  0.00    -0.000 C 
BRANCH   9  10
ATOM     10  C   UNL     1      35.812  44.169  45.528  1.00  0.00    -0.000 C 
BRANCH  10  11
ATOM     11  C   UNL     1      36.278  43.730  46.929  1.00  0.00    -0.003 C 
ATOM     12  C   UNL     1      36.543  42.229  47.026  1.00  0.00     0.004 C 
ENDBRANCH  10  11
ENDBRANCH   9  10
ENDBRANCH   8   9
ENDBRANCH   7   8
ENDBRANCH   6   7
ENDBRANCH   5   6
ENDBRANCH   4   5
ENDBRANCH   3   4
ENDBRANCH   2   3
ENDBRANCH   1   2
BRANCH   1  13
ATOM     13  C   UNL     1      31.614  43.689  50.161  1.00  0.00     0.000 C 
BRANCH  13  14
ATOM     14  C   UNL     1      32.207  43.045  51.433  1.00  0.00     0.000 C 
BRANCH  14  15
ATOM     15  C   UNL     1      32.668  44.101  52.454  1.00  0.00     0.000 C 
BRANCH  15  16
ATOM     16  C   UNL     1      34.187  44.079  52.686  1.00  0.00     0.000 C 
BRANCH  16  17
ATOM     17  C   UNL     1      34.894  45.303  52.080  1.00  0.00     0.000 C 
BRANCH  17  18
ATOM     18  C   UNL     1      35.509  45.013  50.699  1.00  0.00     0.000 C 
BRANCH  18  19
ATOM     19  C   UNL     1      36.008  43.569  50.492  1.00  0.00     0.000 C 
BRANCH  19  20
ATOM     20  C   UNL     1      37.370  43.246  51.138  1.00  0.00     0.006 C 
BRANCH  20  21
ATOM     21  C   UNL     1      38.475  42.877  50.136  1.00  0.00     0.053 C 
BRANCH  21  22
ATOM     22  C   UNL     1      38.841  41.428  50.216  1.00  0.00     0.041 C 
ATOM     23  O   UNL     1      39.058  40.770  49.165  1.00  0.00    -0.550 OA
ATOM     24  O   UNL     1      38.907  40.795  51.451  1.00  0.00    -0.550 OA
ENDBRANCH  21  22
ENDBRANCH  20  21
ENDBRANCH  19  20
ENDBRANCH  18  19
ENDBRANCH  17  18
ENDBRANCH  16  17
ENDBRANCH  15  16
ENDBRANCH  14  15
ENDBRANCH  13  14
ENDBRANCH   1  13
TORSDOF 20
ENDMDL
MODEL 2
REMARK VINA RESULT:    -5.057      3.294      7.407
REMARK INTER + INTRA:         -14.305
REMARK INTER:                 -11.268
REMARK INTRA:                  -3.037
REMARK UNBOUND:                -3.336
REMARK SMILES CCCCCCCCCCCCCCCCCCCCCC(=O)[O-]
REMARK SMILES IDX 12 1 11 2 10 3 9 4 8 5 7 6 6 7 5 8 4 9 3 10 2 11 1 12 13 13
REMARK SMILES IDX 14 14 15 15 16 16 17 17 18 18 19 19 20 20 21 21 22 22 23 23
REMARK SMILES IDX 24 24
REMARK H PARENT
REMARK Flexibility Score: inf
ROOT
ATOM      1  C   UNL     1      36.420  43.253  46.435  1.00  0.00     0.000 C 
ENDROOT
BRANCH   1   2
ATOM      2  C   UNL     1      36.460  42.319  47.654  1.00  0.00     0.000 C 
BRANCH   2   3
ATOM      3  C   UNL     1      37.864  42.200  48.275  1.00  0.00     0.000 C 
BRANCH   3   4
ATOM      4  C   UNL     1      37.898  42.079  49.810  1.00  0.00    -0.000 C 
BRANCH   4   5
ATOM      5  C   UNL     1      37.280  43.294  50.522  1.00  0.00    -0.000 C 
BRANCH   5   6
ATOM      6  C   UNL     1      35.914  42.978  51.151  1.00  0.00    -0.000 C 
BRANCH   6   7
ATOM      7  C   UNL     1      35.547  43.947  52.286  1.00  0.00    -0.000 C 
BRANCH   7   8
ATOM      8  C   UNL     1      34.751  45.143  51.750  1.00  0.00    -0.000 C 
BRANCH   8   9
ATOM      9  C   UNL     1      33.414  45.293  52.491  1.00  0.00    -0.000 C 
BRANCH   9  10
ATOM     10  C   UNL     1      32.598  43.987  52.525  1.00  0.00    -0.000 C 
BRANCH  10  11
ATOM     11  C   UNL     1      31.080  44.169  52.339  1.00  0.00    -0.003 C 
ATOM     12  C   UNL     1      30.474  43.161  51.363  1.00  0.00     0.004 C 
ENDBRANCH  10  11
ENDBRANCH   9  10
ENDBRANCH   8   9
ENDBRANCH   7   8
ENDBRANCH   6   7
ENDBRANCH   5   6
ENDBRANCH   4   5
ENDBRANCH   3   4
ENDBRANCH   2   3
ENDBRANCH   1   2
BRANCH   1  13
ATOM     13  C   UNL     1      35.354  44.356  46.562  1.00  0.00     0.000 C 
BRANCH  13  14
ATOM     14  C   UNL     1      35.007  44.718  48.023  1.00  0.00     0.000 C 
BRANCH  14  15
ATOM     15  C   UNL     1      33.508  44.535  48.322  1.00  0.00     0.000 C 
BRANCH  15  16
ATOM     16  C   UNL     1      33.162  43.108  48.777  1.00  0.00     0.000 C 
BRANCH  16  17
ATOM     17  C   UNL     1      31.888  42.567  48.106  1.00  0.00     0.000 C 
BRANCH  17  18
ATOM     18  C   UNL     1      32.099  42.218  46.621  1.00  0.00     0.000 C 
BRANCH  18  19
ATOM     19  C   UNL     1      31.310  43.091  45.624  1.00  0.00     0.000 C 
BRANCH  19  20
ATOM     20  C   UNL     1      32.149  44.136  44.862  1.00  0.00     0.006 C 
BRANCH  20  21
ATOM     21  C   UNL     1      32.110  43.987  43.333  1.00  0.00     0.053 C 
BRANCH  21  22
ATOM     22  C   UNL     1      32.429  45.274  42.638  1.00  0.00     0.041 C 
ATOM     23  O   UNL     1      31.674  45.708  41.729  1.00  0.00    -0.550 OA
ATOM     24  O   UNL     1      33.581  45.976  42.968  1.00  0.00    -0.550 OA
ENDBRANCH  21  22
ENDBRANCH  20  21
ENDBRANCH  19  20
ENDBRANCH  18  19
ENDBRANCH  17  18
ENDBRANCH  16  17
ENDBRANCH  15  16
ENDBRANCH  14  15
ENDBRANCH  13  14
ENDBRANCH   1  13
TORSDOF 20
ENDMDL
MODEL 3
REMARK VINA RESULT:    -4.987      3.315      6.845
REMARK INTER + INTRA:         -14.154
REMARK INTER:                 -11.097
REMARK INTRA:                  -3.056
REMARK UNBOUND:                -3.336
REMARK SMILES CCCCCCCCCCCCCCCCCCCCCC(=O)[O-]
REMARK SMILES IDX 12 1 11 2 10 3 9 4 8 5 7 6 6 7 5 8 4 9 3 10 2 11 1 12 13 13
REMARK SMILES IDX 14 14 15 15 16 16 17 17 18 18 19 19 20 20 21 21 22 22 23 23
REMARK SMILES IDX 24 24
REMARK H PARENT
REMARK Flexibility Score: inf
ROOT
ATOM      1  C   UNL     1      33.852  42.620  47.883  1.00  0.00     0.000 C 
ENDROOT
BRANCH   1   2
ATOM      2  C   UNL     1      34.299  44.066  47.616  1.00  0.00     0.000 C 
BRANCH   2   3
ATOM      3  C   UNL     1      35.556  44.153  46.731  1.00  0.00     0.000 C 
BRANCH   3   4
ATOM      4  C   UNL     1      36.273  42.815  46.471  1.00  0.00    -0.000 C 
BRANCH   4   5
ATOM      5  C   UNL     1      37.577  42.666  47.274  1.00  0.00    -0.000 C 
BRANCH   5   6
ATOM      6  C   UNL     1      37.365  41.951  48.617  1.00  0.00    -0.000 C 
BRANCH   6   7
ATOM      7  C   UNL     1      38.413  42.346  49.669  1.00  0.00    -0.000 C 
BRANCH   7   8
ATOM      8  C   UNL     1      37.760  43.089  50.841  1.00  0.00    -0.000 C 
BRANCH   8   9
ATOM      9  C   UNL     1      36.230  43.085  50.713  1.00  0.00    -0.000 C 
BRANCH   9  10
ATOM     10  C   UNL     1      35.523  43.655  51.957  1.00  0.00    -0.000 C 
BRANCH  10  11
ATOM     11  C   UNL     1      35.056  45.116  51.823  1.00  0.00    -0.003 C 
ATOM     12  C   UNL     1      35.318  45.701  50.436  1.00  0.00     0.004 C 
ENDBRANCH  10  11
ENDBRANCH   9  10
ENDBRANCH   8   9
ENDBRANCH   7   8
ENDBRANCH   6   7
ENDBRANCH   5   6
ENDBRANCH   4   5
ENDBRANCH   3   4
ENDBRANCH   2   3
ENDBRANCH   1   2
BRANCH   1  13
ATOM     13  C   UNL     1      33.084  42.468  49.208  1.00  0.00     0.000 C 
BRANCH  13  14
ATOM     14  C   UNL     1      32.375  43.760  49.667  1.00  0.00     0.000 C 
BRANCH  14  15
ATOM     15  C   UNL     1      30.904  43.507  50.047  1.00  0.00     0.000 C 
BRANCH  15  16
ATOM     16  C   UNL     1      30.038  43.115  48.839  1.00  0.00     0.000 C 
BRANCH  16  17
ATOM     17  C   UNL     1      30.192  44.091  47.661  1.00  0.00     0.000 C 
BRANCH  17  18
ATOM     18  C   UNL     1      30.067  43.398  46.291  1.00  0.00     0.000 C 
BRANCH  18  19
ATOM     19  C   UNL     1      31.403  42.991  45.637  1.00  0.00     0.000 C 
BRANCH  19  20
ATOM     20  C   UNL     1      32.137  44.120  44.888  1.00  0.00     0.006 C 
BRANCH  20  21
ATOM     21  C   UNL     1      32.058  44.020  43.356  1.00  0.00     0.053 C 
BRANCH  21  22
ATOM     22  C   UNL     1      32.395  45.319  42.693  1.00  0.00     0.041 C 
ATOM     23  O   UNL     1      31.595  45.839  41.873  1.00  0.00    -0.550 OA
ATOM     24  O   UNL     1      33.611  45.938  42.954  1.00  0.00    -0.550 OA
ENDBRANCH  21  22
ENDBRANCH  20  21
ENDBRANCH  19  20
ENDBRANCH  18  19
ENDBRANCH  17  18
ENDBRANCH  16  17
ENDBRANCH  15  16
ENDBRANCH  14  15
ENDBRANCH  13  14
ENDBRANCH   1  13
TORSDOF 20
ENDMDL
MODEL 4
REMARK VINA RESULT:    -4.970      0.789      2.600
REMARK INTER + INTRA:         -14.117
REMARK INTER:                 -10.785
REMARK INTRA:                  -3.332
REMARK UNBOUND:                -3.336
REMARK SMILES CCCCCCCCCCCCCCCCCCCCCC(=O)[O-]
REMARK SMILES IDX 12 1 11 2 10 3 9 4 8 5 7 6 6 7 5 8 4 9 3 10 2 11 1 12 13 13
REMARK SMILES IDX 14 14 15 15 16 16 17 17 18 18 19 19 20 20 21 21 22 22 23 23
REMARK SMILES IDX 24 24
REMARK H PARENT
REMARK Flexibility Score: inf
ROOT
ATOM      1  C   UNL     1      32.290  44.164  49.375  1.00  0.00     0.000 C 
ENDROOT
BRANCH   1   2
ATOM      2  C   UNL     1      33.667  44.113  48.693  1.00  0.00     0.000 C 
BRANCH   2   3
ATOM      3  C   UNL     1      34.244  42.688  48.608  1.00  0.00     0.000 C 
BRANCH   3   4
ATOM      4  C   UNL     1      34.973  42.350  47.295  1.00  0.00    -0.000 C 
BRANCH   4   5
ATOM      5  C   UNL     1      36.108  43.335  46.967  1.00  0.00    -0.000 C 
BRANCH   5   6
ATOM      6  C   UNL     1      35.964  43.957  45.569  1.00  0.00    -0.000 C 
BRANCH   6   7
ATOM      7  C   UNL     1      34.723  44.853  45.445  1.00  0.00    -0.000 C 
BRANCH   7   8
ATOM      8  C   UNL     1      34.136  44.787  44.030  1.00  0.00    -0.000 C 
BRANCH   8   9
ATOM      9  C   UNL     1      32.640  44.443  44.068  1.00  0.00    -0.000 C 
BRANCH   9  10
ATOM     10  C   UNL     1      32.128  44.152  45.491  1.00  0.00    -0.000 C 
BRANCH  10  11
ATOM     11  C   UNL     1      31.035  43.071  45.576  1.00  0.00    -0.003 C 
ATOM     12  C   UNL     1      31.438  41.882  46.448  1.00  0.00     0.004 C 
ENDBRANCH  10  11
ENDBRANCH   9  10
ENDBRANCH   8   9
ENDBRANCH   7   8
ENDBRANCH   6   7
ENDBRANCH   5   6
ENDBRANCH   4   5
ENDBRANCH   3   4
ENDBRANCH   2   3
ENDBRANCH   1   2
BRANCH   1  13
ATOM     13  C   UNL     1      32.064  42.997  50.351  1.00  0.00     0.000 C 
BRANCH  13  14
ATOM     14  C   UNL     1      31.390  43.417  51.676  1.00  0.00     0.000 C 
BRANCH  14  15
ATOM     15  C   UNL     1      32.409  43.562  52.821  1.00  0.00     0.000 C 
BRANCH  15  16
ATOM     16  C   UNL     1      32.859  45.016  53.035  1.00  0.00     0.000 C 
BRANCH  16  17
ATOM     17  C   UNL     1      34.288  45.272  52.528  1.00  0.00     0.000 C 
BRANCH  17  18
ATOM     18  C   UNL     1      35.073  43.972  52.272  1.00  0.00     0.000 C 
BRANCH  18  19
ATOM     19  C   UNL     1      36.351  44.133  51.423  1.00  0.00     0.000 C 
BRANCH  19  20
ATOM     20  C   UNL     1      36.884  42.833  50.788  1.00  0.00     0.006 C 
BRANCH  20  21
ATOM     21  C   UNL     1      38.342  42.914  50.310  1.00  0.00     0.053 C 
BRANCH  21  22
ATOM     22  C   UNL     1      39.022  41.581  50.361  1.00  0.00     0.041 C 
ATOM     23  O   UNL     1      38.980  40.810  49.368  1.00  0.00    -0.550 OA
ATOM     24  O   UNL     1      39.670  41.177  51.521  1.00  0.00    -0.550 OA
ENDBRANCH  21  22
ENDBRANCH  20  21
ENDBRANCH  19  20
ENDBRANCH  18  19
ENDBRANCH  17  18
ENDBRANCH  16  17
ENDBRANCH  15  16
ENDBRANCH  14  15
ENDBRANCH  13  14
ENDBRANCH   1  13
TORSDOF 20
ENDMDL
MODEL 5
REMARK VINA RESULT:    -4.965      1.000      2.820
REMARK INTER + INTRA:         -14.106
REMARK INTER:                 -11.537
REMARK INTRA:                  -2.568
REMARK UNBOUND:                -3.336
REMARK SMILES CCCCCCCCCCCCCCCCCCCCCC(=O)[O-]
REMARK SMILES IDX 12 1 11 2 10 3 9 4 8 5 7 6 6 7 5 8 4 9 3 10 2 11 1 12 13 13
REMARK SMILES IDX 14 14 15 15 16 16 17 17 18 18 19 19 20 20 21 21 22 22 23 23
REMARK SMILES IDX 24 24
REMARK H PARENT
REMARK Flexibility Score: inf
ROOT
ATOM      1  C   UNL     1      30.875  43.719  48.322  1.00  0.00     0.000 C 
ENDROOT
BRANCH   1   2
ATOM      2  C   UNL     1      30.707  42.439  47.489  1.00  0.00     0.000 C 
BRANCH   2   3
ATOM      3  C   UNL     1      31.950  42.104  46.643  1.00  0.00     0.000 C 
BRANCH   3   4
ATOM      4  C   UNL     1      33.159  41.571  47.432  1.00  0.00    -0.000 C 
BRANCH   4   5
ATOM      5  C   UNL     1      34.236  42.642  47.678  1.00  0.00    -0.000 C 
BRANCH   5   6
ATOM      6  C   UNL     1      35.541  42.351  46.921  1.00  0.00    -0.000 C 
BRANCH   6   7
ATOM      7  C   UNL     1      36.091  43.588  46.193  1.00  0.00    -0.000 C 
BRANCH   7   8
ATOM      8  C   UNL     1      34.997  44.645  46.003  1.00  0.00    -0.000 C 
BRANCH   8   9
ATOM      9  C   UNL     1      34.436  44.608  44.574  1.00  0.00    -0.000 C 
BRANCH   9  10
ATOM     10  C   UNL     1      32.906  44.771  44.526  1.00  0.00    -0.000 C 
BRANCH  10  11
ATOM     11  C   UNL     1      32.246  44.291  43.220  1.00  0.00    -0.003 C 
ATOM     12  C   UNL     1      32.084  45.406  42.188  1.00  0.00     0.004 C 
ENDBRANCH  10  11
ENDBRANCH   9  10
ENDBRANCH   8   9
ENDBRANCH   7   8
ENDBRANCH   6   7
ENDBRANCH   5   6
ENDBRANCH   4   5
ENDBRANCH   3   4
ENDBRANCH   2   3
ENDBRANCH   1   2
BRANCH   1  13
ATOM     13  C   UNL     1      30.912  43.445  49.836  1.00  0.00     0.000 C 
BRANCH  13  14
ATOM     14  C   UNL     1      32.278  43.750  50.489  1.00  0.00     0.000 C 
BRANCH  14  15
ATOM     15  C   UNL     1      32.557  42.837  51.697  1.00  0.00     0.000 C 
BRANCH  15  16
ATOM     16  C   UNL     1      33.478  43.493  52.738  1.00  0.00     0.000 C 
BRANCH  16  17
ATOM     17  C   UNL     1      33.850  44.939  52.368  1.00  0.00     0.000 C 
BRANCH  17  18
ATOM     18  C   UNL     1      35.359  45.123  52.121  1.00  0.00     0.000 C 
BRANCH  18  19
ATOM     19  C   UNL     1      35.904  44.441  50.849  1.00  0.00     0.000 C 
BRANCH  19  20
ATOM     20  C   UNL     1      36.777  43.195  51.096  1.00  0.00     0.006 C 
BRANCH  20  21
ATOM     21  C   UNL     1      37.392  42.590  49.824  1.00  0.00     0.053 C 
BRANCH  21  22
ATOM     22  C   UNL     1      38.635  41.811  50.120  1.00  0.00     0.041 C 
ATOM     23  O   UNL     1      39.316  42.069  51.146  1.00  0.00    -0.550 OA
ATOM     24  O   UNL     1      39.063  40.824  49.241  1.00  0.00    -0.550 OA
ENDBRANCH  21  22
ENDBRANCH  20  21
ENDBRANCH  19  20
ENDBRANCH  18  19
ENDBRANCH  17  18
ENDBRANCH  16  17
ENDBRANCH  15  16
ENDBRANCH  14  15
ENDBRANCH  13  14
ENDBRANCH   1  13
TORSDOF 20
ENDMDL
MODEL 6
REMARK VINA RESULT:    -4.949      2.452      4.839
REMARK INTER + INTRA:         -14.072
REMARK INTER:                 -11.075
REMARK INTRA:                  -2.997
REMARK UNBOUND:                -3.336
REMARK SMILES CCCCCCCCCCCCCCCCCCCCCC(=O)[O-]
REMARK SMILES IDX 12 1 11 2 10 3 9 4 8 5 7 6 6 7 5 8 4 9 3 10 2 11 1 12 13 13
REMARK SMILES IDX 14 14 15 15 16 16 17 17 18 18 19 19 20 20 21 21 22 22 23 23
REMARK SMILES IDX 24 24
REMARK H PARENT
REMARK Flexibility Score: inf
ROOT
ATOM      1  C   UNL     1      35.472  44.503  46.573  1.00  0.00     0.000 C 
ENDROOT
BRANCH   1   2
ATOM      2  C   UNL     1      35.096  44.764  48.040  1.00  0.00     0.000 C 
BRANCH   2   3
ATOM      3  C   UNL     1      33.575  44.793  48.276  1.00  0.00     0.000 C 
BRANCH   3   4
ATOM      4  C   UNL     1      32.961  43.474  48.779  1.00  0.00    -0.000 C 
BRANCH   4   5
ATOM      5  C   UNL     1      31.425  43.509  48.835  1.00  0.00    -0.000 C 
BRANCH   5   6
ATOM      6  C   UNL     1      30.801  44.129  47.575  1.00  0.00    -0.000 C 
BRANCH   6   7
ATOM      7  C   UNL     1      30.360  43.071  46.552  1.00  0.00    -0.000 C 
BRANCH   7   8
ATOM      8  C   UNL     1      31.293  43.062  45.336  1.00  0.00    -0.000 C 
BRANCH   8   9
ATOM      9  C   UNL     1      31.859  44.463  45.064  1.00  0.00    -0.000 C 
BRANCH   9  10
ATOM     10  C   UNL     1      33.048  44.450  44.085  1.00  0.00    -0.000 C 
BRANCH  10  11
ATOM     11  C   UNL     1      33.002  45.541  42.999  1.00  0.00    -0.003 C 
ATOM     12  C   UNL     1      31.783  45.424  42.085  1.00  0.00     0.004 C 
ENDBRANCH  10  11
ENDBRANCH   9  10
ENDBRANCH   8   9
ENDBRANCH   7   8
ENDBRANCH   6   7
ENDBRANCH   5   6
ENDBRANCH   4   5
ENDBRANCH   3   4
ENDBRANCH   2   3
ENDBRANCH   1   2
BRANCH   1  13
ATOM     13  C   UNL     1      36.419  43.303  46.403  1.00  0.00     0.000 C 
BRANCH  13  14
ATOM     14  C   UNL     1      36.368  42.300  47.577  1.00  0.00     0.000 C 
BRANCH  14  15
ATOM     15  C   UNL     1      37.756  42.075  48.204  1.00  0.00     0.000 C 
BRANCH  15  16
ATOM     16  C   UNL     1      37.944  42.844  49.522  1.00  0.00     0.000 C 
BRANCH  16  17
ATOM     17  C   UNL     1      37.364  42.091  50.732  1.00  0.00     0.000 C 
BRANCH  17  18
ATOM     18  C   UNL     1      36.101  42.762  51.302  1.00  0.00     0.000 C 
BRANCH  18  19
ATOM     19  C   UNL     1      36.040  44.294  51.140  1.00  0.00     0.000 C 
BRANCH  19  20
ATOM     20  C   UNL     1      34.889  44.989  51.894  1.00  0.00     0.006 C 
BRANCH  20  21
ATOM     21  C   UNL     1      34.161  44.089  52.906  1.00  0.00     0.053 C 
BRANCH  21  22
ATOM     22  C   UNL     1      32.761  43.783  52.475  1.00  0.00     0.041 C 
ATOM     23  O   UNL     1      31.914  44.707  52.368  1.00  0.00    -0.550 OA
ATOM     24  O   UNL     1      32.382  42.469  52.228  1.00  0.00    -0.550 OA
ENDBRANCH  21  22
ENDBRANCH  20  21
ENDBRANCH  19  20
ENDBRANCH  18  19
ENDBRANCH  17  18
ENDBRANCH  16  17
ENDBRANCH  15  16
ENDBRANCH  14  15
ENDBRANCH  13  14
ENDBRANCH   1  13
TORSDOF 20
ENDMDL
MODEL 7
REMARK VINA RESULT:    -4.897      1.352      3.819
REMARK INTER + INTRA:         -13.959
REMARK INTER:                 -11.286
REMARK INTRA:                  -2.673
REMARK UNBOUND:                -3.336
REMARK SMILES CCCCCCCCCCCCCCCCCCCCCC(=O)[O-]
REMARK SMILES IDX 12 1 11 2 10 3 9 4 8 5 7 6 6 7 5 8 4 9 3 10 2 11 1 12 13 13
REMARK SMILES IDX 14 14 15 15 16 16 17 17 18 18 19 19 20 20 21 21 22 22 23 23
REMARK SMILES IDX 24 24
REMARK H PARENT
REMARK Flexibility Score: inf
ROOT
ATOM      1  C   UNL     1      33.993  43.178  52.297  1.00  0.00     0.000 C 
ENDROOT
BRANCH   1   2
ATOM      2  C   UNL     1      32.647  43.918  52.244  1.00  0.00     0.000 C 
BRANCH   2   3
ATOM      3  C   UNL     1      31.573  43.158  51.443  1.00  0.00     0.000 C 
BRANCH   3   4
ATOM      4  C   UNL     1      31.687  43.277  49.912  1.00  0.00    -0.000 C 
BRANCH   4   5
ATOM      5  C   UNL     1      30.553  44.108  49.288  1.00  0.00    -0.000 C 
BRANCH   5   6
ATOM      6  C   UNL     1      30.543  44.034  47.753  1.00  0.00    -0.000 C 
BRANCH   6   7
ATOM      7  C   UNL     1      31.458  42.927  47.207  1.00  0.00    -0.000 C 
BRANCH   7   8
ATOM      8  C   UNL     1      31.538  42.985  45.677  1.00  0.00    -0.000 C 
BRANCH   8   9
ATOM      9  C   UNL     1      31.845  44.411  45.195  1.00  0.00    -0.000 C 
BRANCH   9  10
ATOM     10  C   UNL     1      32.888  44.450  44.063  1.00  0.00    -0.000 C 
BRANCH  10  11
ATOM     11  C   UNL     1      32.716  45.610  43.066  1.00  0.00    -0.003 C 
ATOM     12  C   UNL     1      31.754  45.280  41.925  1.00  0.00     0.004 C 
ENDBRANCH  10  11
ENDBRANCH   9  10
ENDBRANCH   8   9
ENDBRANCH   7   8
ENDBRANCH   6   7
ENDBRANCH   5   6
ENDBRANCH   4   5
ENDBRANCH   3   4
ENDBRANCH   2   3
ENDBRANCH   1   2
BRANCH   1  13
ATOM     13  C   UNL     1      35.059  43.812  51.387  1.00  0.00     0.000 C 
BRANCH  13  14
ATOM     14  C   UNL     1      34.771  45.285  51.026  1.00  0.00     0.000 C 
BRANCH  14  15
ATOM     15  C   UNL     1      35.124  45.600  49.561  1.00  0.00     0.000 C 
BRANCH  15  16
ATOM     16  C   UNL     1      34.309  44.765  48.561  1.00  0.00     0.000 C 
BRANCH  16  17
ATOM     17  C   UNL     1      34.992  44.658  47.187  1.00  0.00     0.000 C 
BRANCH  17  18
ATOM     18  C   UNL     1      35.244  43.202  46.757  1.00  0.00     0.000 C 
BRANCH  18  19
ATOM     19  C   UNL     1      36.653  42.658  47.072  1.00  0.00     0.000 C 
BRANCH  19  20
ATOM     20  C   UNL     1      36.981  42.515  48.572  1.00  0.00     0.006 C 
BRANCH  20  21
ATOM     21  C   UNL     1      38.297  41.777  48.865  1.00  0.00     0.053 C 
BRANCH  21  22
ATOM     22  C   UNL     1      38.734  41.958  50.285  1.00  0.00     0.041 C 
ATOM     23  O   UNL     1      38.969  40.955  51.009  1.00  0.00    -0.550 OA
ATOM     24  O   UNL     1      38.847  43.234  50.820  1.00  0.00    -0.550 OA
ENDBRANCH  21  22
ENDBRANCH  20  21
ENDBRANCH  19  20
ENDBRANCH  18  19
ENDBRANCH  17  18
ENDBRANCH  16  17
ENDBRANCH  15  16
ENDBRANCH  14  15
ENDBRANCH  13  14
ENDBRANCH   1  13
TORSDOF 20
ENDMDL
MODEL 8
REMARK VINA RESULT:    -4.776      3.253      6.484
REMARK INTER + INTRA:         -13.695
REMARK INTER:                 -10.779
REMARK INTRA:                  -2.917
REMARK UNBOUND:                -3.336
REMARK SMILES CCCCCCCCCCCCCCCCCCCCCC(=O)[O-]
REMARK SMILES IDX 12 1 11 2 10 3 9 4 8 5 7 6 6 7 5 8 4 9 3 10 2 11 1 12 13 13
REMARK SMILES IDX 14 14 15 15 16 16 17 17 18 18 19 19 20 20 21 21 22 22 23 23
REMARK SMILES IDX 24 24
REMARK H PARENT
REMARK Flexibility Score: inf
ROOT
ATOM      1  C   UNL     1      31.191  43.650  46.837  1.00  0.00     0.000 C 
ENDROOT
BRANCH   1   2
ATOM      2  C   UNL     1      29.979  43.921  47.742  1.00  0.00     0.000 C 
BRANCH   2   3
ATOM      3  C   UNL     1      30.027  43.133  49.064  1.00  0.00     0.000 C 
BRANCH   3   4
ATOM      4  C   UNL     1      30.495  43.934  50.293  1.00  0.00    -0.000 C 
BRANCH   4   5
ATOM      5  C   UNL     1      31.547  43.189  51.131  1.00  0.00    -0.000 C 
BRANCH   5   6
ATOM      6  C   UNL     1      32.276  44.111  52.120  1.00  0.00    -0.000 C 
BRANCH   6   7
ATOM      7  C   UNL     1      33.675  44.516  51.630  1.00  0.00    -0.000 C 
BRANCH   7   8
ATOM      8  C   UNL     1      34.753  43.613  52.243  1.00  0.00    -0.000 C 
BRANCH   8   9
ATOM      9  C   UNL     1      36.119  43.862  51.586  1.00  0.00    -0.000 C 
BRANCH   9  10
ATOM     10  C   UNL     1      36.710  42.598  50.935  1.00  0.00    -0.000 C 
BRANCH  10  11
ATOM     11  C   UNL     1      38.183  42.722  50.504  1.00  0.00    -0.003 C 
ATOM     12  C   UNL     1      38.655  41.549  49.646  1.00  0.00     0.004 C 
ENDBRANCH  10  11
ENDBRANCH   9  10
ENDBRANCH   8   9
ENDBRANCH   7   8
ENDBRANCH   6   7
ENDBRANCH   5   6
ENDBRANCH   4   5
ENDBRANCH   3   4
ENDBRANCH   2   3
ENDBRANCH   1   2
BRANCH   1  13
ATOM     13  C   UNL     1      31.638  42.178  46.863  1.00  0.00     0.000 C 
BRANCH  13  14
ATOM     14  C   UNL     1      33.152  41.992  47.107  1.00  0.00     0.000 C 
BRANCH  14  15
ATOM     15  C   UNL     1      33.619  42.695  48.395  1.00  0.00     0.000 C 
BRANCH  15  16
ATOM     16  C   UNL     1      34.763  43.692  48.147  1.00  0.00     0.000 C 
BRANCH  16  17
ATOM     17  C   UNL     1      35.919  43.074  47.342  1.00  0.00     0.000 C 
BRANCH  17  18
ATOM     18  C   UNL     1      36.212  43.836  46.037  1.00  0.00     0.000 C 
BRANCH  18  19
ATOM     19  C   UNL     1      35.083  44.769  45.554  1.00  0.00     0.000 C 
BRANCH  19  20
ATOM     20  C   UNL     1      34.503  44.432  44.166  1.00  0.00     0.006 C 
BRANCH  20  21
ATOM     21  C   UNL     1      33.615  45.535  43.566  1.00  0.00     0.053 C 
BRANCH  21  22
ATOM     22  C   UNL     1      32.372  44.975  42.946  1.00  0.00     0.041 C 
ATOM     23  O   UNL     1      31.919  43.864  43.326  1.00  0.00    -0.550 OA
ATOM     24  O   UNL     1      31.736  45.665  41.922  1.00  0.00    -0.550 OA
ENDBRANCH  21  22
ENDBRANCH  20  21
ENDBRANCH  19  20
ENDBRANCH  18  19
ENDBRANCH  17  18
ENDBRANCH  16  17
ENDBRANCH  15  16
ENDBRANCH  14  15
ENDBRANCH  13  14
ENDBRANCH   1  13
TORSDOF 20
ENDMDL
MODEL 9
REMARK VINA RESULT:    -4.696     14.247     17.125
REMARK INTER + INTRA:         -13.523
REMARK INTER:                  -9.948
REMARK INTRA:                  -3.576
REMARK UNBOUND:                -3.336
REMARK SMILES CCCCCCCCCCCCCCCCCCCCCC(=O)[O-]
REMARK SMILES IDX 12 1 11 2 10 3 9 4 8 5 7 6 6 7 5 8 4 9 3 10 2 11 1 12 13 13
REMARK SMILES IDX 14 14 15 15 16 16 17 17 18 18 19 19 20 20 21 21 22 22 23 23
REMARK SMILES IDX 24 24
REMARK H PARENT
REMARK Flexibility Score: inf
ROOT
ATOM      1  C   UNL     1      46.051  41.065  35.657  1.00  0.00     0.000 C 
ENDROOT
BRANCH   1   2
ATOM      2  C   UNL     1      44.885  40.209  36.176  1.00  0.00     0.000 C 
BRANCH   2   3
ATOM      3  C   UNL     1      44.242  40.778  37.453  1.00  0.00     0.000 C 
BRANCH   3   4
ATOM      4  C   UNL     1      44.951  40.409  38.769  1.00  0.00    -0.000 C 
BRANCH   4   5
ATOM      5  C   UNL     1      44.104  39.497  39.673  1.00  0.00    -0.000 C 
BRANCH   5   6
ATOM      6  C   UNL     1      44.844  38.212  40.077  1.00  0.00    -0.000 C 
BRANCH   6   7
ATOM      7  C   UNL     1      46.124  37.984  39.258  1.00  0.00    -0.000 C 
BRANCH   7   8
ATOM      8  C   UNL     1      46.066  36.647  38.510  1.00  0.00    -0.000 C 
BRANCH   8   9
ATOM      9  C   UNL     1      45.395  36.811  37.138  1.00  0.00    -0.000 C 
BRANCH   9  10
ATOM     10  C   UNL     1      46.398  36.769  35.971  1.00  0.00    -0.000 C 
BRANCH  10  11
ATOM     11  C   UNL     1      47.810  36.283  36.350  1.00  0.00    -0.003 C 
ATOM     12  C   UNL     1      48.619  35.803  35.146  1.00  0.00     0.004 C 
ENDBRANCH  10  11
ENDBRANCH   9  10
ENDBRANCH   8   9
ENDBRANCH   7   8
ENDBRANCH   6   7
ENDBRANCH   5   6
ENDBRANCH   4   5
ENDBRANCH   3   4
ENDBRANCH   2   3
ENDBRANCH   1   2
BRANCH   1  13
ATOM     13  C   UNL     1      47.369  40.278  35.550  1.00  0.00     0.000 C 
BRANCH  13  14
ATOM     14  C   UNL     1      48.516  40.869  36.398  1.00  0.00     0.000 C 
BRANCH  14  15
ATOM     15  C   UNL     1      48.472  40.374  37.855  1.00  0.00     0.000 C 
BRANCH  15  16
ATOM     16  C   UNL     1      48.441  41.524  38.873  1.00  0.00     0.000 C 
BRANCH  16  17
ATOM     17  C   UNL     1      48.854  42.870  38.255  1.00  0.00     0.000 C 
BRANCH  17  18
ATOM     18  C   UNL     1      47.842  43.995  38.542  1.00  0.00     0.000 C 
BRANCH  18  19
ATOM     19  C   UNL     1      46.418  43.750  38.004  1.00  0.00     0.000 C 
BRANCH  19  20
ATOM     20  C   UNL     1      45.278  44.242  38.918  1.00  0.00     0.006 C 
BRANCH  20  21
ATOM     21  C   UNL     1      45.587  45.546  39.669  1.00  0.00     0.053 C 
BRANCH  21  22
ATOM     22  C   UNL     1      44.927  46.728  39.030  1.00  0.00     0.041 C 
ATOM     23  O   UNL     1      44.083  47.407  39.671  1.00  0.00    -0.550 OA
ATOM     24  O   UNL     1      45.218  47.058  37.713  1.00  0.00    -0.550 OA
ENDBRANCH  21  22
ENDBRANCH  20  21
ENDBRANCH  19  20
ENDBRANCH  18  19
ENDBRANCH  17  18
ENDBRANCH  16  17
ENDBRANCH  15  16
ENDBRANCH  14  15
ENDBRANCH  13  14
ENDBRANCH   1  13
TORSDOF 20
ENDMDL
