MODEL 1
REMARK VINA RESULT:    -3.876      0.000      0.000
REMARK INTER + INTRA:          -9.192
REMARK INTER:                  -7.049
REMARK INTRA:                  -2.143
REMARK UNBOUND:                -2.143
REMARK SMILES CCCCCCCCCCCCCCCC(=O)[O-]
REMARK SMILES IDX 9 1 10 2 11 3 12 4 13 5 14 6 15 7 16 8 17 9 18 10 8 11 7 12
REMARK SMILES IDX 6 13 5 14 4 15 3 16 2 17 1 18
REMARK H PARENT
REMARK Flexibility Score: inf
ROOT
ATOM      1  C   UNL     1      44.561   3.386  20.351  1.00  0.00     0.000 C 
ENDROOT
BRANCH   1   2
ATOM      2  C   UNL     1      45.314   4.072  21.501  1.00  0.00     0.000 C 
BRANCH   2   3
ATOM      3  C   UNL     1      46.782   4.321  21.121  1.00  0.00     0.000 C 
BRANCH   3   4
ATOM      4  C   UNL     1      47.735   4.191  22.319  1.00  0.00     0.000 C 
BRANCH   4   5
ATOM      5  C   UNL     1      49.208   4.416  21.932  1.00  0.00     0.000 C 
BRANCH   5   6
ATOM      6  C   UNL     1      49.948   3.093  21.647  1.00  0.00     0.006 C 
BRANCH   6   7
ATOM      7  C   UNL     1      50.510   3.000  20.219  1.00  0.00     0.053 C 
BRANCH   7   8
ATOM      8  C   UNL     1      51.870   2.377  20.182  1.00  0.00     0.041 C 
ATOM      9  O   UNL     1      52.505   2.178  21.251  1.00  0.00    -0.550 OA
ATOM     10  O   UNL     1      52.448   2.040  18.964  1.00  0.00    -0.550 OA
ENDBRANCH   7   8
ENDBRANCH   6   7
ENDBRANCH   5   6
ENDBRANCH   4   5
ENDBRANCH   3   4
ENDBRANCH   2   3
ENDBRANCH   1   2
BRANCH   1  11
ATOM     11  C   UNL     1      43.229   2.764  20.800  1.00  0.00     0.000 C 
BRANCH  11  12
ATOM     12  C   UNL     1      43.377   1.293  21.224  1.00  0.00    -0.000 C 
BRANCH  12  13
ATOM     13  C   UNL     1      43.093   1.074  22.720  1.00  0.00    -0.000 C 
BRANCH  13  14
ATOM     14  C   UNL     1      44.338   1.081  23.629  1.00  0.00    -0.000 C 
BRANCH  14  15
ATOM     15  C   UNL     1      45.424   0.072  23.201  1.00  0.00    -0.000 C 
BRANCH  15  16
ATOM     16  C   UNL     1      46.700   0.771  22.698  1.00  0.00    -0.000 C 
BRANCH  16  17
ATOM     17  C   UNL     1      47.327   0.059  21.490  1.00  0.00    -0.003 C 
ATOM     18  C   UNL     1      47.230   0.879  20.203  1.00  0.00     0.004 C 
ENDBRANCH  16  17
ENDBRANCH  15  16
ENDBRANCH  14  15
ENDBRANCH  13  14
ENDBRANCH  12  13
ENDBRANCH  11  12
ENDBRANCH   1  11
TORSDOF 14
ENDMDL
MODEL 2
REMARK VINA RESULT:    -3.847      5.377      7.479
REMARK INTER + INTRA:          -9.140
REMARK INTER:                  -6.974
REMARK INTRA:                  -2.165
REMARK UNBOUND:                -2.143
REMARK SMILES CCCCCCCCCCCCCCCC(=O)[O-]
REMARK SMILES IDX 9 1 10 2 11 3 12 4 13 5 14 6 15 7 16 8 17 9 18 10 8 11 7 12
REMARK SMILES IDX 6 13 5 14 4 15 3 16 2 17 1 18
REMARK H PARENT
REMARK Flexibility Score: inf
ROOT
ATOM      1  C   UNL     1      50.356   7.083  24.919  1.00  0.00     0.000 C 
ENDROOT
BRANCH   1   2
ATOM      2  C   UNL     1      50.026   7.068  23.418  1.00  0.00     0.000 C 
BRANCH   2   3
ATOM      3  C   UNL     1      48.804   6.180  23.137  1.00  0.00     0.000 C 
BRANCH   3   4
ATOM      4  C   UNL     1      48.474   6.082  21.639  1.00  0.00     0.000 C 
BRANCH   4   5
ATOM      5  C   UNL     1      47.206   6.867  21.259  1.00  0.00     0.000 C 
BRANCH   5   6
ATOM      6  C   UNL     1      47.461   7.881  20.124  1.00  0.00     0.006 C 
BRANCH   6   7
ATOM      7  C   UNL     1      48.759   8.684  20.299  1.00  0.00     0.053 C 
BRANCH   7   8
ATOM      8  C   UNL     1      49.629   8.632  19.083  1.00  0.00     0.041 C 
ATOM      9  O   UNL     1      50.883   8.643  19.199  1.00  0.00    -0.550 OA
ATOM     10  O   UNL     1      49.055   8.597  17.818  1.00  0.00    -0.550 OA
ENDBRANCH   7   8
ENDBRANCH   6   7
ENDBRANCH   5   6
ENDBRANCH   4   5
ENDBRANCH   3   4
ENDBRANCH   2   3
ENDBRANCH   1   2
BRANCH   1  11
ATOM     11  C   UNL     1      50.076   5.736  25.603  1.00  0.00     0.000 C 
BRANCH  11  12
ATOM     12  C   UNL     1      49.958   5.863  27.132  1.00  0.00    -0.000 C 
BRANCH  12  13
ATOM     13  C   UNL     1      49.227   7.145  27.566  1.00  0.00    -0.000 C 
BRANCH  13  14
ATOM     14  C   UNL     1      47.691   7.093  27.446  1.00  0.00    -0.000 C 
BRANCH  14  15
ATOM     15  C   UNL     1      47.088   8.282  26.668  1.00  0.00    -0.000 C 
BRANCH  15  16
ATOM     16  C   UNL     1      46.447   7.842  25.340  1.00  0.00    -0.000 C 
BRANCH  16  17
ATOM     17  C   UNL     1      46.487   8.945  24.271  1.00  0.00    -0.003 C 
ATOM     18  C   UNL     1      47.780   9.759  24.308  1.00  0.00     0.004 C 
ENDBRANCH  16  17
ENDBRANCH  15  16
ENDBRANCH  14  15
ENDBRANCH  13  14
ENDBRANCH  12  13
ENDBRANCH  11  12
ENDBRANCH   1  11
TORSDOF 14
ENDMDL
MODEL 3
REMARK VINA RESULT:    -3.842      4.046      6.516
REMARK INTER + INTRA:          -9.130
REMARK INTER:                  -7.332
REMARK INTRA:                  -1.798
REMARK UNBOUND:                -2.143
REMARK SMILES CCCCCCCCCCCCCCCC(=O)[O-]
REMARK SMILES IDX 9 1 10 2 11 3 12 4 13 5 14 6 15 7 16 8 17 9 18 10 8 11 7 12
REMARK SMILES IDX 6 13 5 14 4 15 3 16 2 17 1 18
REMARK H PARENT
REMARK Flexibility Score: inf
ROOT
ATOM      1  C   UNL     1      49.836   7.451  24.357  1.00  0.00     0.000 C 
ENDROOT
BRANCH   1   2
ATOM      2  C   UNL     1      48.709   7.118  23.368  1.00  0.00     0.000 C 
BRANCH   2   3
ATOM      3  C   UNL     1      49.155   7.385  21.921  1.00  0.00     0.000 C 
BRANCH   3   4
ATOM      4  C   UNL     1      49.497   6.095  21.158  1.00  0.00     0.000 C 
BRANCH   4   5
ATOM      5  C   UNL     1      48.866   4.844  21.794  1.00  0.00     0.000 C 
BRANCH   5   6
ATOM      6  C   UNL     1      49.835   3.644  21.818  1.00  0.00     0.006 C 
BRANCH   6   7
ATOM      7  C   UNL     1      49.985   2.951  20.455  1.00  0.00     0.053 C 
BRANCH   7   8
ATOM      8  C   UNL     1      51.415   2.838  20.029  1.00  0.00     0.041 C 
ATOM      9  O   UNL     1      51.783   3.295  18.915  1.00  0.00    -0.550 OA
ATOM     10  O   UNL     1      52.338   2.204  20.852  1.00  0.00    -0.550 OA
ENDBRANCH   7   8
ENDBRANCH   6   7
ENDBRANCH   5   6
ENDBRANCH   4   5
ENDBRANCH   3   4
ENDBRANCH   2   3
ENDBRANCH   1   2
BRANCH   1  11
ATOM     11  C   UNL     1      50.515   6.196  24.929  1.00  0.00     0.000 C 
BRANCH  11  12
ATOM     12  C   UNL     1      49.512   5.220  25.567  1.00  0.00    -0.000 C 
BRANCH  12  13
ATOM     13  C   UNL     1      49.660   5.131  27.096  1.00  0.00    -0.000 C 
BRANCH  13  14
ATOM     14  C   UNL     1      48.517   5.780  27.901  1.00  0.00    -0.000 C 
BRANCH  14  15
ATOM     15  C   UNL     1      48.606   7.319  27.977  1.00  0.00    -0.000 C 
BRANCH  15  16
ATOM     16  C   UNL     1      47.221   7.986  27.893  1.00  0.00    -0.000 C 
BRANCH  16  17
ATOM     17  C   UNL     1      46.646   7.974  26.468  1.00  0.00    -0.003 C 
ATOM     18  C   UNL     1      46.941   9.261  25.699  1.00  0.00     0.004 C 
ENDBRANCH  16  17
ENDBRANCH  15  16
ENDBRANCH  14  15
ENDBRANCH  13  14
ENDBRANCH  12  13
ENDBRANCH  11  12
ENDBRANCH   1  11
TORSDOF 14
ENDMDL
MODEL 4
REMARK VINA RESULT:    -3.817      1.935      2.942
REMARK INTER + INTRA:          -9.084
REMARK INTER:                  -6.798
REMARK INTRA:                  -2.286
REMARK UNBOUND:                -2.143
REMARK SMILES CCCCCCCCCCCCCCCC(=O)[O-]
REMARK SMILES IDX 9 1 10 2 11 3 12 4 13 5 14 6 15 7 16 8 17 9 18 10 8 11 7 12
REMARK SMILES IDX 6 13 5 14 4 15 3 16 2 17 1 18
REMARK H PARENT
REMARK Flexibility Score: inf
ROOT
ATOM      1  C   UNL     1      47.848   2.219  20.248  1.00  0.00     0.000 C 
ENDROOT
BRANCH   1   2
ATOM      2  C   UNL     1      47.924   3.407  21.219  1.00  0.00     0.000 C 
BRANCH   2   3
ATOM      3  C   UNL     1      49.384   3.813  21.472  1.00  0.00     0.000 C 
BRANCH   3   4
ATOM      4  C   UNL     1      49.929   3.271  22.803  1.00  0.00     0.000 C 
BRANCH   4   5
ATOM      5  C   UNL     1      51.233   2.471  22.629  1.00  0.00     0.000 C 
BRANCH   5   6
ATOM      6  C   UNL     1      51.252   1.658  21.318  1.00  0.00     0.006 C 
BRANCH   6   7
ATOM      7  C   UNL     1      52.662   1.461  20.740  1.00  0.00     0.053 C 
BRANCH   7   8
ATOM      8  C   UNL     1      53.095   2.615  19.892  1.00  0.00     0.041 C 
ATOM      9  O   UNL     1      54.259   3.083  20.004  1.00  0.00    -0.550 OA
ATOM     10  O   UNL     1      52.205   3.192  18.994  1.00  0.00    -0.550 OA
ENDBRANCH   7   8
ENDBRANCH   6   7
ENDBRANCH   5   6
ENDBRANCH   4   5
ENDBRANCH   3   4
ENDBRANCH   2   3
ENDBRANCH   1   2
BRANCH   1  11
ATOM     11  C   UNL     1      46.499   1.485  20.310  1.00  0.00     0.000 C 
BRANCH  11  12
ATOM     12  C   UNL     1      45.890   1.486  21.722  1.00  0.00    -0.000 C 
BRANCH  12  13
ATOM     13  C   UNL     1      46.267   0.235  22.533  1.00  0.00    -0.000 C 
BRANCH  13  14
ATOM     14  C   UNL     1      47.253   0.481  23.692  1.00  0.00    -0.000 C 
BRANCH  14  15
ATOM     15  C   UNL     1      48.662  -0.098  23.443  1.00  0.00    -0.000 C 
BRANCH  15  16
ATOM     16  C   UNL     1      48.725  -0.937  22.154  1.00  0.00    -0.000 C 
BRANCH  16  17
ATOM     17  C   UNL     1      49.547  -2.223  22.326  1.00  0.00    -0.003 C 
ATOM     18  C   UNL     1      51.047  -1.955  22.449  1.00  0.00     0.004 C 
ENDBRANCH  16  17
ENDBRANCH  15  16
ENDBRANCH  14  15
ENDBRANCH  13  14
ENDBRANCH  12  13
ENDBRANCH  11  12
ENDBRANCH   1  11
TORSDOF 14
ENDMDL
MODEL 5
REMARK VINA RESULT:    -3.812      3.591      6.462
REMARK INTER + INTRA:          -9.076
REMARK INTER:                  -7.334
REMARK INTRA:                  -1.742
REMARK UNBOUND:                -2.143
REMARK SMILES CCCCCCCCCCCCCCCC(=O)[O-]
REMARK SMILES IDX 9 1 10 2 11 3 12 4 13 5 14 6 15 7 16 8 17 9 18 10 8 11 7 12
REMARK SMILES IDX 6 13 5 14 4 15 3 16 2 17 1 18
REMARK H PARENT
REMARK Flexibility Score: inf
ROOT
ATOM      1  C   UNL     1      49.272   6.090  25.033  1.00  0.00     0.000 C 
ENDROOT
BRANCH   1   2
ATOM      2  C   UNL     1      49.644   4.724  24.437  1.00  0.00     0.000 C 
BRANCH   2   3
ATOM      3  C   UNL     1      48.408   4.032  23.842  1.00  0.00     0.000 C 
BRANCH   3   4
ATOM      4  C   UNL     1      48.273   4.257  22.328  1.00  0.00     0.000 C 
BRANCH   4   5
ATOM      5  C   UNL     1      49.631   4.252  21.604  1.00  0.00     0.000 C 
BRANCH   5   6
ATOM      6  C   UNL     1      49.786   3.047  20.653  1.00  0.00     0.006 C 
BRANCH   6   7
ATOM      7  C   UNL     1      51.124   2.308  20.812  1.00  0.00     0.053 C 
BRANCH   7   8
ATOM      8  C   UNL     1      52.056   2.568  19.671  1.00  0.00     0.041 C 
ATOM      9  O   UNL     1      51.804   3.482  18.842  1.00  0.00    -0.550 OA
ATOM     10  O   UNL     1      53.190   1.783  19.506  1.00  0.00    -0.550 OA
ENDBRANCH   7   8
ENDBRANCH   6   7
ENDBRANCH   5   6
ENDBRANCH   4   5
ENDBRANCH   3   4
ENDBRANCH   2   3
ENDBRANCH   1   2
BRANCH   1  11
ATOM     11  C   UNL     1      50.275   7.194  24.663  1.00  0.00     0.000 C 
BRANCH  11  12
ATOM     12  C   UNL     1      49.601   8.403  23.990  1.00  0.00    -0.000 C 
BRANCH  12  13
ATOM     13  C   UNL     1      48.319   8.021  23.231  1.00  0.00    -0.000 C 
BRANCH  13  14
ATOM     14  C   UNL     1      48.481   7.883  21.704  1.00  0.00    -0.000 C 
BRANCH  14  15
ATOM     15  C   UNL     1      49.952   7.854  21.236  1.00  0.00    -0.000 C 
BRANCH  15  16
ATOM     16  C   UNL     1      50.082   7.454  19.755  1.00  0.00    -0.000 C 
BRANCH  16  17
ATOM     17  C   UNL     1      50.642   8.589  18.884  1.00  0.00    -0.003 C 
ATOM     18  C   UNL     1      49.613   9.684  18.604  1.00  0.00     0.004 C 
ENDBRANCH  16  17
ENDBRANCH  15  16
ENDBRANCH  14  15
ENDBRANCH  13  14
ENDBRANCH  12  13
ENDBRANCH  11  12
ENDBRANCH   1  11
TORSDOF 14
ENDMDL
MODEL 6
REMARK VINA RESULT:    -3.795      2.361      3.879
REMARK INTER + INTRA:          -9.045
REMARK INTER:                  -6.718
REMARK INTRA:                  -2.327
REMARK UNBOUND:                -2.143
REMARK SMILES CCCCCCCCCCCCCCCC(=O)[O-]
REMARK SMILES IDX 9 1 10 2 11 3 12 4 13 5 14 6 15 7 16 8 17 9 18 10 8 11 7 12
REMARK SMILES IDX 6 13 5 14 4 15 3 16 2 17 1 18
REMARK H PARENT
REMARK Flexibility Score: inf
ROOT
ATOM      1  C   UNL     1      47.814  -0.371  21.610  1.00  0.00     0.000 C 
ENDROOT
BRANCH   1   2
ATOM      2  C   UNL     1      47.340   0.523  20.455  1.00  0.00     0.000 C 
BRANCH   2   3
ATOM      3  C   UNL     1      46.681   1.804  20.990  1.00  0.00     0.000 C 
BRANCH   3   4
ATOM      4  C   UNL     1      47.475   3.072  20.639  1.00  0.00     0.000 C 
BRANCH   4   5
ATOM      5  C   UNL     1      48.576   3.386  21.668  1.00  0.00     0.000 C 
BRANCH   5   6
ATOM      6  C   UNL     1      49.916   3.758  20.999  1.00  0.00     0.006 C 
BRANCH   6   7
ATOM      7  C   UNL     1      50.679   2.546  20.442  1.00  0.00     0.053 C 
BRANCH   7   8
ATOM      8  C   UNL     1      51.686   2.936  19.406  1.00  0.00     0.041 C 
ATOM      9  O   UNL     1      52.533   2.098  18.997  1.00  0.00    -0.550 OA
ATOM     10  O   UNL     1      51.707   4.234  18.909  1.00  0.00    -0.550 OA
ENDBRANCH   7   8
ENDBRANCH   6   7
ENDBRANCH   5   6
ENDBRANCH   4   5
ENDBRANCH   3   4
ENDBRANCH   2   3
ENDBRANCH   1   2
BRANCH   1  11
ATOM     11  C   UNL     1      46.797  -0.446  22.760  1.00  0.00     0.000 C 
BRANCH  11  12
ATOM     12  C   UNL     1      47.464  -0.366  24.144  1.00  0.00    -0.000 C 
BRANCH  12  13
ATOM     13  C   UNL     1      47.691   1.082  24.611  1.00  0.00    -0.000 C 
BRANCH  13  14
ATOM     14  C   UNL     1      49.158   1.555  24.579  1.00  0.00    -0.000 C 
BRANCH  14  15
ATOM     15  C   UNL     1      50.182   0.401  24.538  1.00  0.00    -0.000 C 
BRANCH  15  16
ATOM     16  C   UNL     1      51.139   0.516  23.337  1.00  0.00    -0.000 C 
BRANCH  16  17
ATOM     17  C   UNL     1      51.379  -0.833  22.642  1.00  0.00    -0.003 C 
ATOM     18  C   UNL     1      51.133  -2.027  23.565  1.00  0.00     0.004 C 
ENDBRANCH  16  17
ENDBRANCH  15  16
ENDBRANCH  14  15
ENDBRANCH  13  14
ENDBRANCH  12  13
ENDBRANCH  11  12
ENDBRANCH   1  11
TORSDOF 14
ENDMDL
MODEL 7
REMARK VINA RESULT:    -3.775      3.096      4.735
REMARK INTER + INTRA:          -9.008
REMARK INTER:                  -7.380
REMARK INTRA:                  -1.628
REMARK UNBOUND:                -2.143
REMARK SMILES CCCCCCCCCCCCCCCC(=O)[O-]
REMARK SMILES IDX 9 1 10 2 11 3 12 4 13 5 14 6 15 7 16 8 17 9 18 10 8 11 7 12
REMARK SMILES IDX 6 13 5 14 4 15 3 16 2 17 1 18
REMARK H PARENT
REMARK Flexibility Score: inf
ROOT
ATOM      1  C   UNL     1      44.797   3.385  21.576  1.00  0.00     0.000 C 
ENDROOT
BRANCH   1   2
ATOM      2  C   UNL     1      44.973   4.864  21.954  1.00  0.00     0.000 C 
BRANCH   2   3
ATOM      3  C   UNL     1      46.440   5.168  22.298  1.00  0.00     0.000 C 
BRANCH   3   4
ATOM      4  C   UNL     1      47.089   6.151  21.311  1.00  0.00     0.000 C 
BRANCH   4   5
ATOM      5  C   UNL     1      48.554   6.466  21.665  1.00  0.00     0.000 C 
BRANCH   5   6
ATOM      6  C   UNL     1      49.074   7.726  20.943  1.00  0.00     0.006 C 
BRANCH   6   7
ATOM      7  C   UNL     1      50.422   7.515  20.236  1.00  0.00     0.053 C 
BRANCH   7   8
ATOM      8  C   UNL     1      50.510   8.267  18.945  1.00  0.00     0.041 C 
ATOM      9  O   UNL     1      50.773   7.659  17.874  1.00  0.00    -0.550 OA
ATOM     10  O   UNL     1      50.328   9.644  18.928  1.00  0.00    -0.550 OA
ENDBRANCH   7   8
ENDBRANCH   6   7
ENDBRANCH   5   6
ENDBRANCH   4   5
ENDBRANCH   3   4
ENDBRANCH   2   3
ENDBRANCH   1   2
BRANCH   1  11
ATOM     11  C   UNL     1      45.491   3.022  20.254  1.00  0.00     0.000 C 
BRANCH  11  12
ATOM     12  C   UNL     1      46.532   1.902  20.421  1.00  0.00    -0.000 C 
BRANCH  12  13
ATOM     13  C   UNL     1      47.978   2.406  20.272  1.00  0.00    -0.000 C 
BRANCH  13  14
ATOM     14  C   UNL     1      48.843   2.292  21.542  1.00  0.00    -0.000 C 
BRANCH  14  15
ATOM     15  C   UNL     1      50.333   2.621  21.310  1.00  0.00    -0.000 C 
BRANCH  15  16
ATOM     16  C   UNL     1      50.526   3.737  20.269  1.00  0.00    -0.000 C 
BRANCH  16  17
ATOM     17  C   UNL     1      51.552   3.366  19.187  1.00  0.00    -0.003 C 
ATOM     18  C   UNL     1      52.427   2.176  19.584  1.00  0.00     0.004 C 
ENDBRANCH  16  17
ENDBRANCH  15  16
ENDBRANCH  14  15
ENDBRANCH  13  14
ENDBRANCH  12  13
ENDBRANCH  11  12
ENDBRANCH   1  11
TORSDOF 14
ENDMDL
MODEL 8
REMARK VINA RESULT:    -3.762      3.780      6.081
REMARK INTER + INTRA:          -8.984
REMARK INTER:                  -7.144
REMARK INTRA:                  -1.840
REMARK UNBOUND:                -2.143
REMARK SMILES CCCCCCCCCCCCCCCC(=O)[O-]
REMARK SMILES IDX 9 1 10 2 11 3 12 4 13 5 14 6 15 7 16 8 17 9 18 10 8 11 7 12
REMARK SMILES IDX 6 13 5 14 4 15 3 16 2 17 1 18
REMARK H PARENT
REMARK Flexibility Score: inf
ROOT
ATOM      1  C   UNL     1      49.087   3.762  26.263  1.00  0.00     0.000 C 
ENDROOT
BRANCH   1   2
ATOM      2  C   UNL     1      48.273   3.464  24.995  1.00  0.00     0.000 C 
BRANCH   2   3
ATOM      3  C   UNL     1      49.127   2.713  23.962  1.00  0.00     0.000 C 
BRANCH   3   4
ATOM      4  C   UNL     1      49.961   3.657  23.081  1.00  0.00     0.000 C 
BRANCH   4   5
ATOM      5  C   UNL     1      49.284   3.963  21.733  1.00  0.00     0.000 C 
BRANCH   5   6
ATOM      6  C   UNL     1      49.699   2.968  20.629  1.00  0.00     0.006 C 
BRANCH   6   7
ATOM      7  C   UNL     1      51.108   2.387  20.824  1.00  0.00     0.053 C 
BRANCH   7   8
ATOM      8  C   UNL     1      51.981   2.598  19.628  1.00  0.00     0.041 C 
ATOM      9  O   UNL     1      51.762   3.559  18.844  1.00  0.00    -0.550 OA
ATOM     10  O   UNL     1      53.023   1.717  19.363  1.00  0.00    -0.550 OA
ENDBRANCH   7   8
ENDBRANCH   6   7
ENDBRANCH   5   6
ENDBRANCH   4   5
ENDBRANCH   3   4
ENDBRANCH   2   3
ENDBRANCH   1   2
BRANCH   1  11
ATOM     11  C   UNL     1      49.214   5.266  26.550  1.00  0.00     0.000 C 
BRANCH  11  12
ATOM     12  C   UNL     1      50.492   5.877  25.949  1.00  0.00    -0.000 C 
BRANCH  12  13
ATOM     13  C   UNL     1      50.197   6.878  24.819  1.00  0.00    -0.000 C 
BRANCH  13  14
ATOM     14  C   UNL     1      48.707   7.034  24.458  1.00  0.00    -0.000 C 
BRANCH  14  15
ATOM     15  C   UNL     1      48.466   7.666  23.071  1.00  0.00    -0.000 C 
BRANCH  15  16
ATOM     16  C   UNL     1      49.727   7.630  22.189  1.00  0.00    -0.000 C 
BRANCH  16  17
ATOM     17  C   UNL     1      49.399   7.552  20.691  1.00  0.00    -0.003 C 
ATOM     18  C   UNL     1      50.642   7.651  19.806  1.00  0.00     0.004 C 
ENDBRANCH  16  17
ENDBRANCH  15  16
ENDBRANCH  14  15
ENDBRANCH  13  14
ENDBRANCH  12  13
ENDBRANCH  11  12
ENDBRANCH   1  11
TORSDOF 14
ENDMDL
MODEL 9
REMARK VINA RESULT:    -3.713      5.234      6.872
REMARK INTER + INTRA:          -8.895
REMARK INTER:                  -7.134
REMARK INTRA:                  -1.761
REMARK UNBOUND:                -2.143
REMARK SMILES CCCCCCCCCCCCCCCC(=O)[O-]
REMARK SMILES IDX 9 1 10 2 11 3 12 4 13 5 14 6 15 7 16 8 17 9 18 10 8 11 7 12
REMARK SMILES IDX 6 13 5 14 4 15 3 16 2 17 1 18
REMARK H PARENT
REMARK Flexibility Score: inf
ROOT
ATOM      1  C   UNL     1      46.595   6.598  24.427  1.00  0.00     0.000 C 
ENDROOT
BRANCH   1   2
ATOM      2  C   UNL     1      46.013   6.689  23.008  1.00  0.00     0.000 C 
BRANCH   2   3
ATOM      3  C   UNL     1      47.092   7.121  22.003  1.00  0.00     0.000 C 
BRANCH   3   4
ATOM      4  C   UNL     1      48.044   5.975  21.625  1.00  0.00     0.000 C 
BRANCH   4   5
ATOM      5  C   UNL     1      49.492   6.453  21.415  1.00  0.00     0.000 C 
BRANCH   5   6
ATOM      6  C   UNL     1      49.564   7.922  20.947  1.00  0.00     0.006 C 
BRANCH   6   7
ATOM      7  C   UNL     1      50.330   8.108  19.627  1.00  0.00     0.053 C 
BRANCH   7   8
ATOM      8  C   UNL     1      49.585   8.967  18.655  1.00  0.00     0.041 C 
ATOM      9  O   UNL     1      48.893   9.936  19.065  1.00  0.00    -0.550 OA
ATOM     10  O   UNL     1      49.634   8.683  17.296  1.00  0.00    -0.550 OA
ENDBRANCH   7   8
ENDBRANCH   6   7
ENDBRANCH   5   6
ENDBRANCH   4   5
ENDBRANCH   3   4
ENDBRANCH   2   3
ENDBRANCH   1   2
BRANCH   1  11
ATOM     11  C   UNL     1      46.045   7.683  25.367  1.00  0.00     0.000 C 
BRANCH  11  12
ATOM     12  C   UNL     1      47.142   8.325  26.233  1.00  0.00    -0.000 C 
BRANCH  12  13
ATOM     13  C   UNL     1      47.088   7.862  27.699  1.00  0.00    -0.000 C 
BRANCH  13  14
ATOM     14  C   UNL     1      48.191   6.867  28.110  1.00  0.00    -0.000 C 
BRANCH  14  15
ATOM     15  C   UNL     1      49.485   6.996  27.278  1.00  0.00    -0.000 C 
BRANCH  15  16
ATOM     16  C   UNL     1      49.757   5.742  26.428  1.00  0.00    -0.000 C 
BRANCH  16  17
ATOM     17  C   UNL     1      50.360   6.077  25.056  1.00  0.00    -0.003 C 
ATOM     18  C   UNL     1      50.248   7.561  24.707  1.00  0.00     0.004 C 
ENDBRANCH  16  17
ENDBRANCH  15  16
ENDBRANCH  14  15
ENDBRANCH  13  14
ENDBRANCH  12  13
ENDBRANCH  11  12
ENDBRANCH   1  11
TORSDOF 14
ENDMDL
