MODEL 1
REMARK VINA RESULT:    -6.220      0.000      0.000
REMARK INTER + INTRA:          -7.627
REMARK INTER:                  -7.311
REMARK INTRA:                  -0.316
REMARK UNBOUND:                -0.316
REMARK SMILES O=c1cc(-c2ccc(O)c(O)c2)oc2cc(O)cc(O)c12
REMARK SMILES IDX 4 1 3 2 2 3 1 4 21 5 19 6 18 7 16 8 15 9 14 10 13 11 5 12
REMARK SMILES IDX 6 13 7 14 8 15 12 16 10 17 9 18 11 20 20 22 17 24
REMARK H PARENT 9 19 11 21 20 23 17 25
REMARK Flexibility Score: inf
ROOT
ATOM      1  C   UNL     1      27.565  22.733 -13.407  1.00  0.00     0.138 A 
ATOM      2  C   UNL     1      26.574  21.877 -13.907  1.00  0.00     0.100 A 
ATOM      3  C   UNL     1      26.753  21.263 -15.147  1.00  0.00     0.197 A 
ATOM      4  O   UNL     1      25.875  20.453 -15.541  1.00  0.00    -0.289 OA
ATOM      5  C   UNL     1      27.916  21.535 -15.906  1.00  0.00     0.107 A 
ATOM      6  C   UNL     1      28.187  20.999 -17.200  1.00  0.00     0.134 A 
ATOM      7  C   UNL     1      29.425  21.247 -17.805  1.00  0.00     0.093 A 
ATOM      8  C   UNL     1      30.378  22.058 -17.189  1.00  0.00     0.123 A 
ATOM      9  C   UNL     1      30.104  22.631 -15.947  1.00  0.00     0.094 A 
ATOM     10  C   UNL     1      28.891  22.375 -15.303  1.00  0.00     0.146 A 
ATOM     11  O   UNL     1      28.673  22.928 -14.114  1.00  0.00    -0.456 OA
ENDROOT
BRANCH   1  12
ATOM     12  C   UNL     1      27.427  23.412 -12.093  1.00  0.00     0.021 A 
ATOM     13  C   UNL     1      26.400  23.074 -11.193  1.00  0.00     0.016 A 
ATOM     14  C   UNL     1      26.288  23.736  -9.970  1.00  0.00     0.051 A 
ATOM     15  C   UNL     1      27.186  24.750  -9.618  1.00  0.00     0.157 A 
ATOM     16  C   UNL     1      28.320  24.439 -11.747  1.00  0.00     0.062 A 
ATOM     17  C   UNL     1      28.215  25.107 -10.520  1.00  0.00     0.158 A 
BRANCH  15  18
ATOM     18  O   UNL     1      27.019  25.369  -8.378  1.00  0.00    -0.504 OA
ATOM     19  H   UNL     1      27.269  26.329  -8.188  1.00  0.00     0.293 HD
ENDBRANCH  15  18
BRANCH  17  20
ATOM     20  O   UNL     1      29.145  26.111 -10.243  1.00  0.00    -0.504 OA
ATOM     21  H   UNL     1      29.816  26.067  -9.489  1.00  0.00     0.293 HD
ENDBRANCH  17  20
ENDBRANCH   1  12
BRANCH   6  22
ATOM     22  O   UNL     1      27.270  20.247 -17.941  1.00  0.00    -0.507 OA
ATOM     23  H   UNL     1      27.100  20.353 -18.929  1.00  0.00     0.293 HD
ENDBRANCH   6  22
BRANCH   8  24
ATOM     24  O   UNL     1      31.594  22.294 -17.827  1.00  0.00    -0.508 OA
ATOM     25  H   UNL     1      31.651  22.856 -18.669  1.00  0.00     0.293 HD
ENDBRANCH   8  24
TORSDOF 5
ENDMDL
MODEL 2
REMARK VINA RESULT:    -6.157      1.810      6.879
REMARK INTER + INTRA:          -7.553
REMARK INTER:                  -7.250
REMARK INTRA:                  -0.303
REMARK UNBOUND:                -0.316
REMARK SMILES O=c1cc(-c2ccc(O)c(O)c2)oc2cc(O)cc(O)c12
REMARK SMILES IDX 4 1 3 2 2 3 1 4 21 5 19 6 18 7 16 8 15 9 14 10 13 11 5 12
REMARK SMILES IDX 6 13 7 14 8 15 12 16 10 17 9 18 11 20 20 22 17 24
REMARK H PARENT 9 19 11 21 20 23 17 25
REMARK Flexibility Score: inf
ROOT
ATOM      1  C   UNL     1      26.785  22.737 -13.099  1.00  0.00     0.138 A 
ATOM      2  C   UNL     1      26.617  22.347 -11.763  1.00  0.00     0.100 A 
ATOM      3  C   UNL     1      26.679  23.307 -10.751  1.00  0.00     0.197 A 
ATOM      4  O   UNL     1      26.463  22.937  -9.568  1.00  0.00    -0.289 OA
ATOM      5  C   UNL     1      26.944  24.658 -11.078  1.00  0.00     0.107 A 
ATOM      6  C   UNL     1      27.071  25.715 -10.127  1.00  0.00     0.134 A 
ATOM      7  C   UNL     1      27.219  27.033 -10.576  1.00  0.00     0.093 A 
ATOM      8  C   UNL     1      27.302  27.326 -11.937  1.00  0.00     0.123 A 
ATOM      9  C   UNL     1      27.233  26.294 -12.874  1.00  0.00     0.094 A 
ATOM     10  C   UNL     1      27.053  24.973 -12.459  1.00  0.00     0.146 A 
ATOM     11  O   UNL     1      26.977  24.021 -13.384  1.00  0.00    -0.456 OA
ENDROOT
BRANCH   1  12
ATOM     12  C   UNL     1      26.728  21.758 -14.215  1.00  0.00     0.021 A 
ATOM     13  C   UNL     1      25.901  20.623 -14.159  1.00  0.00     0.016 A 
ATOM     14  C   UNL     1      25.875  19.714 -15.218  1.00  0.00     0.051 A 
ATOM     15  C   UNL     1      26.675  19.910 -16.349  1.00  0.00     0.157 A 
ATOM     16  C   UNL     1      27.542  21.948 -15.344  1.00  0.00     0.062 A 
ATOM     17  C   UNL     1      27.521  21.041 -16.412  1.00  0.00     0.158 A 
BRANCH  15  18
ATOM     18  O   UNL     1      26.599  18.964 -17.374  1.00  0.00    -0.504 OA
ATOM     19  H   UNL     1      26.695  19.185 -18.354  1.00  0.00     0.293 HD
ENDBRANCH  15  18
BRANCH  17  20
ATOM     20  O   UNL     1      28.351  21.301 -17.504  1.00  0.00    -0.504 OA
ATOM     21  H   UNL     1      28.395  22.191 -17.980  1.00  0.00     0.293 HD
ENDBRANCH  17  20
ENDBRANCH   1  12
BRANCH   6  22
ATOM     22  O   UNL     1      27.086  25.521  -8.743  1.00  0.00    -0.507 OA
ATOM     23  H   UNL     1      27.624  24.815  -8.264  1.00  0.00     0.293 HD
ENDBRANCH   6  22
BRANCH   8  24
ATOM     24  O   UNL     1      27.464  28.648 -12.347  1.00  0.00    -0.508 OA
ATOM     25  H   UNL     1      27.044  29.416 -11.836  1.00  0.00     0.293 HD
ENDBRANCH   8  24
TORSDOF 5
ENDMDL
MODEL 3
REMARK VINA RESULT:    -5.840      2.762      3.510
REMARK INTER + INTRA:          -7.181
REMARK INTER:                  -6.877
REMARK INTRA:                  -0.304
REMARK UNBOUND:                -0.316
REMARK SMILES O=c1cc(-c2ccc(O)c(O)c2)oc2cc(O)cc(O)c12
REMARK SMILES IDX 4 1 3 2 2 3 1 4 21 5 19 6 18 7 16 8 15 9 14 10 13 11 5 12
REMARK SMILES IDX 6 13 7 14 8 15 12 16 10 17 9 18 11 20 20 22 17 24
REMARK H PARENT 9 19 11 21 20 23 17 25
REMARK Flexibility Score: inf
ROOT
ATOM      1  C   UNL     1      29.453  23.728 -13.323  1.00  0.00     0.138 A 
ATOM      2  C   UNL     1      30.216  22.602 -13.663  1.00  0.00     0.100 A 
ATOM      3  C   UNL     1      31.053  22.648 -14.779  1.00  0.00     0.197 A 
ATOM      4  O   UNL     1      31.772  21.644 -15.024  1.00  0.00    -0.289 OA
ATOM      5  C   UNL     1      31.101  23.816 -15.576  1.00  0.00     0.107 A 
ATOM      6  C   UNL     1      31.886  23.962 -16.759  1.00  0.00     0.134 A 
ATOM      7  C   UNL     1      31.942  25.205 -17.401  1.00  0.00     0.093 A 
ATOM      8  C   UNL     1      31.197  26.290 -16.938  1.00  0.00     0.123 A 
ATOM      9  C   UNL     1      30.385  26.144 -15.813  1.00  0.00     0.094 A 
ATOM     10  C   UNL     1      30.333  24.926 -15.131  1.00  0.00     0.146 A 
ATOM     11  O   UNL     1      29.558  24.831 -14.056  1.00  0.00    -0.456 OA
ENDROOT
BRANCH   1  12
ATOM     12  C   UNL     1      28.546  23.735 -12.147  1.00  0.00     0.021 A 
ATOM     13  C   UNL     1      27.844  22.583 -11.750  1.00  0.00     0.016 A 
ATOM     14  C   UNL     1      26.990  22.621 -10.646  1.00  0.00     0.051 A 
ATOM     15  C   UNL     1      26.811  23.803  -9.920  1.00  0.00     0.157 A 
ATOM     16  C   UNL     1      28.357  24.925 -11.426  1.00  0.00     0.062 A 
ATOM     17  C   UNL     1      27.503  24.971 -10.316  1.00  0.00     0.158 A 
BRANCH  15  18
ATOM     18  O   UNL     1      25.946  23.772  -8.825  1.00  0.00    -0.504 OA
ATOM     19  H   UNL     1      25.500  22.935  -8.480  1.00  0.00     0.293 HD
ENDBRANCH  15  18
BRANCH  17  20
ATOM     20  O   UNL     1      27.372  26.189  -9.644  1.00  0.00    -0.504 OA
ATOM     21  H   UNL     1      26.909  27.000 -10.029  1.00  0.00     0.293 HD
ENDBRANCH  17  20
ENDBRANCH   1  12
BRANCH   6  22
ATOM     22  O   UNL     1      32.601  22.919 -17.355  1.00  0.00    -0.507 OA
ATOM     23  H   UNL     1      32.738  22.806 -18.348  1.00  0.00     0.293 HD
ENDBRANCH   6  22
BRANCH   8  24
ATOM     24  O   UNL     1      31.267  27.508 -17.611  1.00  0.00    -0.508 OA
ATOM     25  H   UNL     1      31.282  28.389 -17.111  1.00  0.00     0.293 HD
ENDBRANCH   8  24
TORSDOF 5
ENDMDL
MODEL 4
REMARK VINA RESULT:    -5.813      2.674      6.943
REMARK INTER + INTRA:          -7.149
REMARK INTER:                  -6.835
REMARK INTRA:                  -0.314
REMARK UNBOUND:                -0.316
REMARK SMILES O=c1cc(-c2ccc(O)c(O)c2)oc2cc(O)cc(O)c12
REMARK SMILES IDX 4 1 3 2 2 3 1 4 21 5 19 6 18 7 16 8 15 9 14 10 13 11 5 12
REMARK SMILES IDX 6 13 7 14 8 15 12 16 10 17 9 18 11 20 20 22 17 24
REMARK H PARENT 9 19 11 21 20 23 17 25
REMARK Flexibility Score: inf
ROOT
ATOM      1  C   UNL     1      29.521  23.681 -13.638  1.00  0.00     0.138 A 
ATOM      2  C   UNL     1      28.885  22.539 -13.130  1.00  0.00     0.100 A 
ATOM      3  C   UNL     1      28.040  22.653 -12.026  1.00  0.00     0.197 A 
ATOM      4  O   UNL     1      27.436  21.623 -11.631  1.00  0.00    -0.289 OA
ATOM      5  C   UNL     1      27.857  23.912 -11.407  1.00  0.00     0.107 A 
ATOM      6  C   UNL     1      27.052  24.141 -10.251  1.00  0.00     0.134 A 
ATOM      7  C   UNL     1      26.853  25.450  -9.796  1.00  0.00     0.093 A 
ATOM      8  C   UNL     1      27.475  26.532 -10.419  1.00  0.00     0.123 A 
ATOM      9  C   UNL     1      28.307  26.315 -11.517  1.00  0.00     0.094 A 
ATOM     10  C   UNL     1      28.499  25.024 -12.015  1.00  0.00     0.146 A 
ATOM     11  O   UNL     1      29.288  24.861 -13.073  1.00  0.00    -0.456 OA
ENDROOT
BRANCH   1  12
ATOM     12  C   UNL     1      30.430  23.617 -14.811  1.00  0.00     0.021 A 
ATOM     13  C   UNL     1      31.006  22.406 -15.232  1.00  0.00     0.016 A 
ATOM     14  C   UNL     1      31.865  22.378 -16.332  1.00  0.00     0.051 A 
ATOM     15  C   UNL     1      32.175  23.550 -17.030  1.00  0.00     0.157 A 
ATOM     16  C   UNL     1      30.751  24.797 -15.503  1.00  0.00     0.062 A 
ATOM     17  C   UNL     1      31.611  24.776 -16.608  1.00  0.00     0.158 A 
BRANCH  15  18
ATOM     18  O   UNL     1      33.039  23.451 -18.122  1.00  0.00    -0.504 OA
ATOM     19  H   UNL     1      33.935  23.912 -18.177  1.00  0.00     0.293 HD
ENDBRANCH  15  18
BRANCH  17  20
ATOM     20  O   UNL     1      31.876  25.988 -17.250  1.00  0.00    -0.504 OA
ATOM     21  H   UNL     1      32.428  26.732 -16.847  1.00  0.00     0.293 HD
ENDBRANCH  17  20
ENDBRANCH   1  12
BRANCH   6  22
ATOM     22  O   UNL     1      26.453  23.123  -9.503  1.00  0.00    -0.507 OA
ATOM     23  H   UNL     1      26.920  22.285  -9.190  1.00  0.00     0.293 HD
ENDBRANCH   6  22
BRANCH   8  24
ATOM     24  O   UNL     1      27.266  27.820  -9.930  1.00  0.00    -0.508 OA
ATOM     25  H   UNL     1      26.552  28.014  -9.237  1.00  0.00     0.293 HD
ENDBRANCH   8  24
TORSDOF 5
ENDMDL
MODEL 5
REMARK VINA RESULT:    -5.770      1.053      1.602
REMARK INTER + INTRA:          -7.098
REMARK INTER:                  -6.829
REMARK INTRA:                  -0.269
REMARK UNBOUND:                -0.316
REMARK SMILES O=c1cc(-c2ccc(O)c(O)c2)oc2cc(O)cc(O)c12
REMARK SMILES IDX 4 1 3 2 2 3 1 4 21 5 19 6 18 7 16 8 15 9 14 10 13 11 5 12
REMARK SMILES IDX 6 13 7 14 8 15 12 16 10 17 9 18 11 20 20 22 17 24
REMARK H PARENT 9 19 11 21 20 23 17 25
REMARK Flexibility Score: inf
ROOT
ATOM      1  C   UNL     1      27.520  23.074 -12.968  1.00  0.00     0.138 A 
ATOM      2  C   UNL     1      26.545  22.271 -13.576  1.00  0.00     0.100 A 
ATOM      3  C   UNL     1      26.840  21.615 -14.772  1.00  0.00     0.197 A 
ATOM      4  O   UNL     1      25.967  20.853 -15.262  1.00  0.00    -0.289 OA
ATOM      5  C   UNL     1      28.106  21.792 -15.378  1.00  0.00     0.107 A 
ATOM      6  C   UNL     1      28.503  21.206 -16.618  1.00  0.00     0.134 A 
ATOM      7  C   UNL     1      29.822  21.358 -17.062  1.00  0.00     0.093 A 
ATOM      8  C   UNL     1      30.742  22.121 -16.342  1.00  0.00     0.123 A 
ATOM      9  C   UNL     1      30.350  22.742 -15.156  1.00  0.00     0.094 A 
ATOM     10  C   UNL     1      29.050  22.582 -14.669  1.00  0.00     0.146 A 
ATOM     11  O   UNL     1      28.720  23.179 -13.528  1.00  0.00    -0.456 OA
ENDROOT
BRANCH   1  12
ATOM     12  C   UNL     1      27.261  23.794 -11.694  1.00  0.00     0.021 A 
ATOM     13  C   UNL     1      27.493  25.175 -11.567  1.00  0.00     0.016 A 
ATOM     14  C   UNL     1      27.251  25.824 -10.356  1.00  0.00     0.051 A 
ATOM     15  C   UNL     1      26.780  25.115  -9.245  1.00  0.00     0.157 A 
ATOM     16  C   UNL     1      26.801  23.079 -10.576  1.00  0.00     0.062 A 
ATOM     17  C   UNL     1      26.554  23.724  -9.357  1.00  0.00     0.158 A 
BRANCH  15  18
ATOM     18  O   UNL     1      26.555  25.825  -8.064  1.00  0.00    -0.504 OA
ATOM     19  H   UNL     1      26.857  26.776  -7.910  1.00  0.00     0.293 HD
ENDBRANCH  15  18
BRANCH  17  20
ATOM     20  O   UNL     1      26.090  22.948  -8.292  1.00  0.00    -0.504 OA
ATOM     21  H   UNL     1      26.676  22.613  -7.540  1.00  0.00     0.293 HD
ENDBRANCH  17  20
ENDBRANCH   1  12
BRANCH   6  22
ATOM     22  O   UNL     1      27.640  20.496 -17.457  1.00  0.00    -0.507 OA
ATOM     23  H   UNL     1      27.842  20.242 -18.412  1.00  0.00     0.293 HD
ENDBRANCH   6  22
BRANCH   8  24
ATOM     24  O   UNL     1      32.042  22.262 -16.822  1.00  0.00    -0.508 OA
ATOM     25  H   UNL     1      32.536  21.488 -17.252  1.00  0.00     0.293 HD
ENDBRANCH   8  24
TORSDOF 5
ENDMDL
MODEL 6
REMARK VINA RESULT:    -5.754      1.306      3.017
REMARK INTER + INTRA:          -7.080
REMARK INTER:                  -6.791
REMARK INTRA:                  -0.289
REMARK UNBOUND:                -0.316
REMARK SMILES O=c1cc(-c2ccc(O)c(O)c2)oc2cc(O)cc(O)c12
REMARK SMILES IDX 4 1 3 2 2 3 1 4 21 5 19 6 18 7 16 8 15 9 14 10 13 11 5 12
REMARK SMILES IDX 6 13 7 14 8 15 12 16 10 17 9 18 11 20 20 22 17 24
REMARK H PARENT 9 19 11 21 20 23 17 25
REMARK Flexibility Score: inf
ROOT
ATOM      1  C   UNL     1      28.202  23.476 -13.273  1.00  0.00     0.138 A 
ATOM      2  C   UNL     1      29.468  23.683 -13.837  1.00  0.00     0.100 A 
ATOM      3  C   UNL     1      29.812  23.029 -15.021  1.00  0.00     0.197 A 
ATOM      4  O   UNL     1      30.930  23.282 -15.537  1.00  0.00    -0.289 OA
ATOM      5  C   UNL     1      28.894  22.136 -15.623  1.00  0.00     0.107 A 
ATOM      6  C   UNL     1      29.150  21.382 -16.808  1.00  0.00     0.134 A 
ATOM      7  C   UNL     1      28.124  20.618 -17.376  1.00  0.00     0.093 A 
ATOM      8  C   UNL     1      26.869  20.535 -16.773  1.00  0.00     0.123 A 
ATOM      9  C   UNL     1      26.623  21.225 -15.585  1.00  0.00     0.094 A 
ATOM     10  C   UNL     1      27.616  22.022 -15.012  1.00  0.00     0.146 A 
ATOM     11  O   UNL     1      27.338  22.675 -13.888  1.00  0.00    -0.456 OA
ENDROOT
BRANCH   1  12
ATOM     12  C   UNL     1      27.784  24.147 -12.015  1.00  0.00     0.021 A 
ATOM     13  C   UNL     1      27.977  25.525 -11.815  1.00  0.00     0.016 A 
ATOM     14  C   UNL     1      27.584  26.127 -10.619  1.00  0.00     0.051 A 
ATOM     15  C   UNL     1      26.998  25.374  -9.596  1.00  0.00     0.157 A 
ATOM     16  C   UNL     1      27.208  23.387 -10.983  1.00  0.00     0.062 A 
ATOM     17  C   UNL     1      26.810  23.985  -9.781  1.00  0.00     0.158 A 
BRANCH  15  18
ATOM     18  O   UNL     1      26.625  26.039  -8.426  1.00  0.00    -0.504 OA
ATOM     19  H   UNL     1      26.198  25.587  -7.631  1.00  0.00     0.293 HD
ENDBRANCH  15  18
BRANCH  17  20
ATOM     20  O   UNL     1      26.237  23.166  -8.805  1.00  0.00    -0.504 OA
ATOM     21  H   UNL     1      26.486  23.194  -7.826  1.00  0.00     0.293 HD
ENDBRANCH  17  20
ENDBRANCH   1  12
BRANCH   6  22
ATOM     22  O   UNL     1      30.394  21.328 -17.444  1.00  0.00    -0.507 OA
ATOM     23  H   UNL     1      31.059  22.085 -17.477  1.00  0.00     0.293 HD
ENDBRANCH   6  22
BRANCH   8  24
ATOM     24  O   UNL     1      25.875  19.753 -17.359  1.00  0.00    -0.508 OA
ATOM     25  H   UNL     1      25.758  19.711 -18.365  1.00  0.00     0.293 HD
ENDBRANCH   8  24
TORSDOF 5
ENDMDL
MODEL 7
REMARK VINA RESULT:    -5.693      2.600      3.847
REMARK INTER + INTRA:          -7.008
REMARK INTER:                  -6.728
REMARK INTRA:                  -0.280
REMARK UNBOUND:                -0.316
REMARK SMILES O=c1cc(-c2ccc(O)c(O)c2)oc2cc(O)cc(O)c12
REMARK SMILES IDX 4 1 3 2 2 3 1 4 21 5 19 6 18 7 16 8 15 9 14 10 13 11 5 12
REMARK SMILES IDX 6 13 7 14 8 15 12 16 10 17 9 18 11 20 20 22 17 24
REMARK H PARENT 9 19 11 21 20 23 17 25
REMARK Flexibility Score: inf
ROOT
ATOM      1  C   UNL     1      29.207  24.607 -13.733  1.00  0.00     0.138 A 
ATOM      2  C   UNL     1      29.114  25.925 -14.199  1.00  0.00     0.100 A 
ATOM      3  C   UNL     1      29.846  26.313 -15.323  1.00  0.00     0.197 A 
ATOM      4  O   UNL     1      29.695  27.485 -15.755  1.00  0.00    -0.289 OA
ATOM      5  C   UNL     1      30.700  25.383 -15.961  1.00  0.00     0.107 A 
ATOM      6  C   UNL     1      31.525  25.676 -17.088  1.00  0.00     0.134 A 
ATOM      7  C   UNL     1      32.241  24.644 -17.707  1.00  0.00     0.093 A 
ATOM      8  C   UNL     1      32.209  23.343 -17.206  1.00  0.00     0.123 A 
ATOM      9  C   UNL     1      31.448  23.055 -16.072  1.00  0.00     0.094 A 
ATOM     10  C   UNL     1      30.696  24.056 -15.452  1.00  0.00     0.146 A 
ATOM     11  O   UNL     1      29.973  23.738 -14.383  1.00  0.00    -0.456 OA
ENDROOT
BRANCH   1  12
ATOM     12  C   UNL     1      28.450  24.141 -12.542  1.00  0.00     0.021 A 
ATOM     13  C   UNL     1      27.833  22.878 -12.508  1.00  0.00     0.016 A 
ATOM     14  C   UNL     1      27.119  22.471 -11.380  1.00  0.00     0.051 A 
ATOM     15  C   UNL     1      26.997  23.311 -10.268  1.00  0.00     0.157 A 
ATOM     16  C   UNL     1      28.316  24.991 -11.431  1.00  0.00     0.062 A 
ATOM     17  C   UNL     1      27.602  24.588 -10.295  1.00  0.00     0.158 A 
BRANCH  15  18
ATOM     18  O   UNL     1      26.272  22.841  -9.171  1.00  0.00    -0.504 OA
ATOM     19  H   UNL     1      25.788  21.955  -9.151  1.00  0.00     0.293 HD
ENDBRANCH  15  18
BRANCH  17  20
ATOM     20  O   UNL     1      27.520  25.484  -9.226  1.00  0.00    -0.504 OA
ATOM     21  H   UNL     1      26.977  26.336  -9.243  1.00  0.00     0.293 HD
ENDBRANCH  17  20
ENDBRANCH   1  12
BRANCH   6  22
ATOM     22  O   UNL     1      31.695  26.959 -17.618  1.00  0.00    -0.507 OA
ATOM     23  H   UNL     1      31.242  27.305 -18.449  1.00  0.00     0.293 HD
ENDBRANCH   6  22
BRANCH   8  24
ATOM     24  O   UNL     1      32.946  22.344 -17.839  1.00  0.00    -0.508 OA
ATOM     25  H   UNL     1      33.191  21.484 -17.363  1.00  0.00     0.293 HD
ENDBRANCH   8  24
TORSDOF 5
ENDMDL
MODEL 8
REMARK VINA RESULT:    -5.580      1.855      7.137
REMARK INTER + INTRA:          -6.876
REMARK INTER:                  -6.595
REMARK INTRA:                  -0.281
REMARK UNBOUND:                -0.316
REMARK SMILES O=c1cc(-c2ccc(O)c(O)c2)oc2cc(O)cc(O)c12
REMARK SMILES IDX 4 1 3 2 2 3 1 4 21 5 19 6 18 7 16 8 15 9 14 10 13 11 5 12
REMARK SMILES IDX 6 13 7 14 8 15 12 16 10 17 9 18 11 20 20 22 17 24
REMARK H PARENT 9 19 11 21 20 23 17 25
REMARK Flexibility Score: inf
ROOT
ATOM      1  C   UNL     1      29.076  23.574 -13.383  1.00  0.00     0.138 A 
ATOM      2  C   UNL     1      28.494  22.652 -12.502  1.00  0.00     0.100 A 
ATOM      3  C   UNL     1      27.807  23.112 -11.377  1.00  0.00     0.197 A 
ATOM      4  O   UNL     1      27.243  22.265 -10.639  1.00  0.00    -0.289 OA
ATOM      5  C   UNL     1      27.732  24.501 -11.118  1.00  0.00     0.107 A 
ATOM      6  C   UNL     1      27.093  25.083  -9.982  1.00  0.00     0.134 A 
ATOM      7  C   UNL     1      26.981  26.475  -9.891  1.00  0.00     0.093 A 
ATOM      8  C   UNL     1      27.534  27.308 -10.864  1.00  0.00     0.123 A 
ATOM      9  C   UNL     1      28.207  26.752 -11.952  1.00  0.00     0.094 A 
ATOM     10  C   UNL     1      28.307  25.366 -12.088  1.00  0.00     0.146 A 
ATOM     11  O   UNL     1      28.943  24.875 -13.147  1.00  0.00    -0.456 OA
ENDROOT
BRANCH   1  12
ATOM     12  C   UNL     1      29.818  23.140 -14.595  1.00  0.00     0.021 A 
ATOM     13  C   UNL     1      30.957  23.829 -15.049  1.00  0.00     0.016 A 
ATOM     14  C   UNL     1      31.628  23.405 -16.197  1.00  0.00     0.051 A 
ATOM     15  C   UNL     1      31.180  22.294 -16.920  1.00  0.00     0.157 A 
ATOM     16  C   UNL     1      29.360  22.033 -15.328  1.00  0.00     0.062 A 
ATOM     17  C   UNL     1      30.029  21.600 -16.480  1.00  0.00     0.158 A 
BRANCH  15  18
ATOM     18  O   UNL     1      31.899  21.921 -18.057  1.00  0.00    -0.504 OA
ATOM     19  H   UNL     1      32.894  21.748 -18.065  1.00  0.00     0.293 HD
ENDBRANCH  15  18
BRANCH  17  20
ATOM     20  O   UNL     1      29.519  20.487 -17.151  1.00  0.00    -0.504 OA
ATOM     21  H   UNL     1      28.911  20.541 -17.956  1.00  0.00     0.293 HD
ENDBRANCH  17  20
ENDBRANCH   1  12
BRANCH   6  22
ATOM     22  O   UNL     1      26.582  24.344  -8.911  1.00  0.00    -0.507 OA
ATOM     23  H   UNL     1      25.903  23.603  -8.993  1.00  0.00     0.293 HD
ENDBRANCH   6  22
BRANCH   8  24
ATOM     24  O   UNL     1      27.415  28.690 -10.733  1.00  0.00    -0.508 OA
ATOM     25  H   UNL     1      26.536  29.126 -10.480  1.00  0.00     0.293 HD
ENDBRANCH   8  24
TORSDOF 5
ENDMDL
MODEL 9
REMARK VINA RESULT:    -5.303      2.942      7.395
REMARK INTER + INTRA:          -6.549
REMARK INTER:                  -6.259
REMARK INTRA:                  -0.291
REMARK UNBOUND:                -0.316
REMARK SMILES O=c1cc(-c2ccc(O)c(O)c2)oc2cc(O)cc(O)c12
REMARK SMILES IDX 4 1 3 2 2 3 1 4 21 5 19 6 18 7 16 8 15 9 14 10 13 11 5 12
REMARK SMILES IDX 6 13 7 14 8 15 12 16 10 17 9 18 11 20 20 22 17 24
REMARK H PARENT 9 19 11 21 20 23 17 25
REMARK Flexibility Score: inf
ROOT
ATOM      1  C   UNL     1      28.756  24.758 -12.635  1.00  0.00     0.138 A 
ATOM      2  C   UNL     1      28.288  23.604 -11.993  1.00  0.00     0.100 A 
ATOM      3  C   UNL     1      27.496  23.724 -10.850  1.00  0.00     0.197 A 
ATOM      4  O   UNL     1      27.038  22.673 -10.331  1.00  0.00    -0.289 OA
ATOM      5  C   UNL     1      27.201  25.007 -10.330  1.00  0.00     0.107 A 
ATOM      6  C   UNL     1      26.438  25.249  -9.148  1.00  0.00     0.134 A 
ATOM      7  C   UNL     1      26.113  26.565  -8.795  1.00  0.00     0.093 A 
ATOM      8  C   UNL     1      26.569  27.647  -9.546  1.00  0.00     0.123 A 
ATOM      9  C   UNL     1      27.361  27.424 -10.674  1.00  0.00     0.094 A 
ATOM     10  C   UNL     1      27.675  26.123 -11.071  1.00  0.00     0.146 A 
ATOM     11  O   UNL     1      28.419  25.952 -12.159  1.00  0.00    -0.456 OA
ENDROOT
BRANCH   1  12
ATOM     12  C   UNL     1      29.602  24.688 -13.855  1.00  0.00     0.021 A 
ATOM     13  C   UNL     1      29.700  25.770 -14.748  1.00  0.00     0.016 A 
ATOM     14  C   UNL     1      30.493  25.673 -15.892  1.00  0.00     0.051 A 
ATOM     15  C   UNL     1      31.200  24.499 -16.176  1.00  0.00     0.157 A 
ATOM     16  C   UNL     1      30.300  23.505 -14.147  1.00  0.00     0.062 A 
ATOM     17  C   UNL     1      31.100  23.400 -15.292  1.00  0.00     0.158 A 
BRANCH  15  18
ATOM     18  O   UNL     1      31.978  24.469 -17.335  1.00  0.00    -0.504 OA
ATOM     19  H   UNL     1      32.566  23.693 -17.601  1.00  0.00     0.293 HD
ENDBRANCH  15  18
BRANCH  17  20
ATOM     20  O   UNL     1      31.770  22.194 -15.510  1.00  0.00    -0.504 OA
ATOM     21  H   UNL     1      31.314  21.294 -15.554  1.00  0.00     0.293 HD
ENDBRANCH  17  20
ENDBRANCH   1  12
BRANCH   6  22
ATOM     22  O   UNL     1      26.004  24.244  -8.279  1.00  0.00    -0.507 OA
ATOM     23  H   UNL     1      25.733  24.388  -7.319  1.00  0.00     0.293 HD
ENDBRANCH   6  22
BRANCH   8  24
ATOM     24  O   UNL     1      26.238  28.943  -9.156  1.00  0.00    -0.508 OA
ATOM     25  H   UNL     1      26.261  29.716  -9.811  1.00  0.00     0.293 HD
ENDBRANCH   8  24
TORSDOF 5
ENDMDL
