MODEL 1
REMARK VINA RESULT:    -7.727      0.000      0.000
REMARK INTER + INTRA:         -12.256
REMARK INTER:                 -11.115
REMARK INTRA:                  -1.141
REMARK UNBOUND:                -1.141
REMARK SMILES O=c1c(O[C@H]2O[C@H](CO)[C@H](O)[C@H](O)[C@@H]2O)c(-c2ccc(O)cc2)oc2cc(O)cc(O)c12
REMARK SMILES IDX 4 1 3 2 16 3 24 4 2 5 25 6 1 7 32 8 26 9 30 10 27 11 29 12
REMARK SMILES IDX 17 13 18 14 19 15 20 16 23 17 22 18 21 19 31 21 28 23 5 25
REMARK SMILES IDX 14 26 6 27 12 28 7 29 10 30 15 31 13 33 8 35 9 36 11 38
REMARK H PARENT 21 20 31 22 28 24 15 32 13 34 9 37 11 39
REMARK Flexibility Score: inf
ROOT
ATOM      1  O   UNL     1      55.127   4.248  80.533  1.00  0.00    -0.454 OA
ENDROOT
BRANCH   1   2
ATOM      2  C   UNL     1      55.717   5.137  79.603  1.00  0.00     0.214 A 
ATOM      3  C   UNL     1      55.133   5.283  78.325  1.00  0.00     0.180 A 
ATOM      4  O   UNL     1      55.658   6.114  77.431  1.00  0.00    -0.452 OA
ATOM      5  C   UNL     1      56.815   5.977  79.907  1.00  0.00     0.239 A 
ATOM      6  C   UNL     1      56.739   6.844  77.655  1.00  0.00     0.146 A 
ATOM      7  O   UNL     1      57.199   6.107  81.096  1.00  0.00    -0.285 OA
ATOM      8  C   UNL     1      57.389   6.790  78.904  1.00  0.00     0.111 A 
ATOM      9  C   UNL     1      57.206   7.702  76.648  1.00  0.00     0.094 A 
ATOM     10  C   UNL     1      58.535   7.583  79.118  1.00  0.00     0.134 A 
ATOM     11  C   UNL     1      58.293   8.541  76.889  1.00  0.00     0.123 A 
ATOM     12  C   UNL     1      58.967   8.467  78.114  1.00  0.00     0.093 A 
BRANCH   3  13
ATOM     13  C   UNL     1      53.882   4.592  77.957  1.00  0.00     0.021 A 
ATOM     14  C   UNL     1      52.736   5.310  77.591  1.00  0.00     0.016 A 
ATOM     15  C   UNL     1      51.558   4.631  77.260  1.00  0.00     0.047 A 
ATOM     16  C   UNL     1      51.517   3.232  77.290  1.00  0.00     0.115 A 
ATOM     17  C   UNL     1      53.842   3.187  77.968  1.00  0.00     0.016 A 
ATOM     18  C   UNL     1      52.669   2.510  77.618  1.00  0.00     0.047 A 
BRANCH  16  19
ATOM     19  O   UNL     1      50.316   2.585  77.025  1.00  0.00    -0.508 OA
ATOM     20  H   UNL     1      49.724   2.258  77.771  1.00  0.00     0.293 HD
ENDBRANCH  16  19
ENDBRANCH   3  13
BRANCH  10  21
ATOM     21  O   UNL     1      59.247   7.514  80.314  1.00  0.00    -0.507 OA
ATOM     22  H   UNL     1      59.446   6.619  80.753  1.00  0.00     0.293 HD
ENDBRANCH  10  21
BRANCH  11  23
ATOM     23  O   UNL     1      58.722   9.426  75.903  1.00  0.00    -0.508 OA
ATOM     24  H   UNL     1      59.566   9.972  76.039  1.00  0.00     0.293 HD
ENDBRANCH  11  23
ENDBRANCH   1   2
BRANCH   1  25
ATOM     25  C   UNL     1      54.480   4.620  81.761  1.00  0.00     0.339 C 
ATOM     26  C   UNL     1      54.604   3.504  82.850  1.00  0.00     0.214 C 
ATOM     27  O   UNL     1      53.141   5.042  81.524  1.00  0.00    -0.332 OA
ATOM     28  C   UNL     1      53.539   2.396  82.675  1.00  0.00     0.180 C 
ATOM     29  C   UNL     1      52.282   3.959  81.225  1.00  0.00     0.179 C 
ATOM     30  C   UNL     1      52.154   3.012  82.455  1.00  0.00     0.177 C 
BRANCH  26  31
ATOM     31  O   UNL     1      54.473   4.082  84.125  1.00  0.00    -0.384 OA
ATOM     32  H   UNL     1      54.690   5.050  84.037  1.00  0.00     0.211 HD
ENDBRANCH  26  31
BRANCH  28  33
ATOM     33  O   UNL     1      53.517   1.559  83.802  1.00  0.00    -0.387 OA
ATOM     34  H   UNL     1      52.682   1.744  84.300  1.00  0.00     0.211 HD
ENDBRANCH  28  33
BRANCH  29  35
ATOM     35  C   UNL     1      50.950   4.475  80.671  1.00  0.00     0.191 C 
BRANCH  35  36
ATOM     36  O   UNL     1      49.858   3.720  81.133  1.00  0.00    -0.394 OA
ATOM     37  H   UNL     1      49.190   4.380  81.464  1.00  0.00     0.210 HD
ENDBRANCH  35  36
ENDBRANCH  29  35
BRANCH  30  38
ATOM     38  O   UNL     1      51.769   3.661  83.655  1.00  0.00    -0.387 OA
ATOM     39  H   UNL     1      51.878   4.642  83.587  1.00  0.00     0.211 HD
ENDBRANCH  30  38
ENDBRANCH   1  25
TORSDOF 11
ENDMDL
MODEL 2
REMARK VINA RESULT:    -7.276      2.252      3.287
REMARK INTER + INTRA:         -11.607
REMARK INTER:                 -10.761
REMARK INTRA:                  -0.846
REMARK UNBOUND:                -1.141
REMARK SMILES O=c1c(O[C@H]2O[C@H](CO)[C@H](O)[C@H](O)[C@@H]2O)c(-c2ccc(O)cc2)oc2cc(O)cc(O)c12
REMARK SMILES IDX 4 1 3 2 16 3 24 4 2 5 25 6 1 7 32 8 26 9 30 10 27 11 29 12
REMARK SMILES IDX 17 13 18 14 19 15 20 16 23 17 22 18 21 19 31 21 28 23 5 25
REMARK SMILES IDX 14 26 6 27 12 28 7 29 10 30 15 31 13 33 8 35 9 36 11 38
REMARK H PARENT 21 20 31 22 28 24 15 32 13 34 9 37 11 39
REMARK Flexibility Score: inf
ROOT
ATOM      1  O   UNL     1      54.989   5.509  79.569  1.00  0.00    -0.454 OA
ENDROOT
BRANCH   1   2
ATOM      2  C   UNL     1      54.709   6.456  78.555  1.00  0.00     0.214 A 
ATOM      3  C   UNL     1      53.511   6.336  77.815  1.00  0.00     0.180 A 
ATOM      4  O   UNL     1      53.215   7.212  76.860  1.00  0.00    -0.452 OA
ATOM      5  C   UNL     1      55.515   7.589  78.294  1.00  0.00     0.239 A 
ATOM      6  C   UNL     1      53.995   8.230  76.532  1.00  0.00     0.146 A 
ATOM      7  O   UNL     1      56.430   7.910  79.093  1.00  0.00    -0.285 OA
ATOM      8  C   UNL     1      55.203   8.452  77.220  1.00  0.00     0.111 A 
ATOM      9  C   UNL     1      53.583   9.106  75.516  1.00  0.00     0.094 A 
ATOM     10  C   UNL     1      56.012   9.548  76.854  1.00  0.00     0.134 A 
ATOM     11  C   UNL     1      54.347  10.231  75.208  1.00  0.00     0.123 A 
ATOM     12  C   UNL     1      55.568  10.440  75.862  1.00  0.00     0.093 A 
BRANCH   3  13
ATOM     13  C   UNL     1      52.507   5.299  78.119  1.00  0.00     0.021 A 
ATOM     14  C   UNL     1      52.282   4.227  77.246  1.00  0.00     0.016 A 
ATOM     15  C   UNL     1      51.313   3.263  77.551  1.00  0.00     0.047 A 
ATOM     16  C   UNL     1      50.565   3.364  78.729  1.00  0.00     0.115 A 
ATOM     17  C   UNL     1      51.765   5.386  79.310  1.00  0.00     0.016 A 
ATOM     18  C   UNL     1      50.811   4.411  79.622  1.00  0.00     0.047 A 
BRANCH  16  19
ATOM     19  O   UNL     1      49.561   2.434  78.973  1.00  0.00    -0.508 OA
ATOM     20  H   UNL     1      49.602   1.508  78.580  1.00  0.00     0.293 HD
ENDBRANCH  16  19
ENDBRANCH   3  13
BRANCH  10  21
ATOM     21  O   UNL     1      57.246   9.770  77.463  1.00  0.00    -0.507 OA
ATOM     22  H   UNL     1      57.997  10.242  76.966  1.00  0.00     0.293 HD
ENDBRANCH  10  21
BRANCH  11  23
ATOM     23  O   UNL     1      53.910  11.125  74.233  1.00  0.00    -0.508 OA
ATOM     24  H   UNL     1      53.035  11.623  74.353  1.00  0.00     0.293 HD
ENDBRANCH  11  23
ENDBRANCH   1   2
BRANCH   1  25
ATOM     25  C   UNL     1      55.142   5.794  80.969  1.00  0.00     0.339 C 
ATOM     26  C   UNL     1      56.616   5.588  81.451  1.00  0.00     0.214 C 
ATOM     27  O   UNL     1      54.182   5.082  81.743  1.00  0.00    -0.332 OA
ATOM     28  C   UNL     1      56.925   4.105  81.764  1.00  0.00     0.180 C 
ATOM     29  C   UNL     1      54.484   3.704  81.838  1.00  0.00     0.179 C 
ATOM     30  C   UNL     1      55.813   3.493  82.622  1.00  0.00     0.177 C 
BRANCH  26  31
ATOM     31  O   UNL     1      56.842   6.365  82.600  1.00  0.00    -0.384 OA
ATOM     32  H   UNL     1      56.297   7.194  82.512  1.00  0.00     0.211 HD
ENDBRANCH  26  31
BRANCH  28  33
ATOM     33  O   UNL     1      58.158   3.994  82.429  1.00  0.00    -0.387 OA
ATOM     34  H   UNL     1      58.531   4.905  82.527  1.00  0.00     0.211 HD
ENDBRANCH  28  33
BRANCH  29  35
ATOM     35  C   UNL     1      53.282   2.934  82.394  1.00  0.00     0.191 C 
BRANCH  35  36
ATOM     36  O   UNL     1      53.436   1.544  82.255  1.00  0.00    -0.394 OA
ATOM     37  H   UNL     1      53.444   1.366  81.275  1.00  0.00     0.210 HD
ENDBRANCH  35  36
ENDBRANCH  29  35
BRANCH  30  38
ATOM     38  O   UNL     1      55.848   4.119  83.893  1.00  0.00    -0.387 OA
ATOM     39  H   UNL     1      56.039   5.087  83.816  1.00  0.00     0.211 HD
ENDBRANCH  30  38
ENDBRANCH   1  25
TORSDOF 11
ENDMDL
MODEL 3
REMARK VINA RESULT:    -7.037      1.730      2.543
REMARK INTER + INTRA:         -11.263
REMARK INTER:                  -9.980
REMARK INTRA:                  -1.283
REMARK UNBOUND:                -1.141
REMARK SMILES O=c1c(O[C@H]2O[C@H](CO)[C@H](O)[C@H](O)[C@@H]2O)c(-c2ccc(O)cc2)oc2cc(O)cc(O)c12
REMARK SMILES IDX 4 1 3 2 16 3 24 4 2 5 25 6 1 7 32 8 26 9 30 10 27 11 29 12
REMARK SMILES IDX 17 13 18 14 19 15 20 16 23 17 22 18 21 19 31 21 28 23 5 25
REMARK SMILES IDX 14 26 6 27 12 28 7 29 10 30 15 31 13 33 8 35 9 36 11 38
REMARK H PARENT 21 20 31 22 28 24 15 32 13 34 9 37 11 39
REMARK Flexibility Score: inf
ROOT
ATOM      1  O   UNL     1      54.327   6.648  80.917  1.00  0.00    -0.454 OA
ENDROOT
BRANCH   1   2
ATOM      2  C   UNL     1      55.159   7.101  79.865  1.00  0.00     0.214 A 
ATOM      3  C   UNL     1      55.102   6.448  78.613  1.00  0.00     0.180 A 
ATOM      4  O   UNL     1      55.865   6.852  77.603  1.00  0.00    -0.452 OA
ATOM      5  C   UNL     1      55.987   8.245  79.955  1.00  0.00     0.239 A 
ATOM      6  C   UNL     1      56.717   7.862  77.686  1.00  0.00     0.146 A 
ATOM      7  O   UNL     1      55.872   9.031  80.928  1.00  0.00    -0.285 OA
ATOM      8  C   UNL     1      56.838   8.595  78.883  1.00  0.00     0.111 A 
ATOM      9  C   UNL     1      57.467   8.217  76.556  1.00  0.00     0.094 A 
ATOM     10  C   UNL     1      57.748   9.671  78.942  1.00  0.00     0.134 A 
ATOM     11  C   UNL     1      58.310   9.328  76.594  1.00  0.00     0.123 A 
ATOM     12  C   UNL     1      58.464  10.040  77.789  1.00  0.00     0.093 A 
BRANCH   3  13
ATOM     13  C   UNL     1      54.147   5.355  78.347  1.00  0.00     0.021 A 
ATOM     14  C   UNL     1      54.531   4.012  78.447  1.00  0.00     0.016 A 
ATOM     15  C   UNL     1      53.609   2.995  78.174  1.00  0.00     0.047 A 
ATOM     16  C   UNL     1      52.298   3.312  77.803  1.00  0.00     0.115 A 
ATOM     17  C   UNL     1      52.823   5.669  77.990  1.00  0.00     0.016 A 
ATOM     18  C   UNL     1      51.898   4.651  77.737  1.00  0.00     0.047 A 
BRANCH  16  19
ATOM     19  O   UNL     1      51.423   2.286  77.470  1.00  0.00    -0.508 OA
ATOM     20  H   UNL     1      50.852   1.840  78.169  1.00  0.00     0.293 HD
ENDBRANCH  16  19
ENDBRANCH   3  13
BRANCH  10  21
ATOM     21  O   UNL     1      57.948  10.383  80.123  1.00  0.00    -0.507 OA
ATOM     22  H   UNL     1      57.401  10.180  80.955  1.00  0.00     0.293 HD
ENDBRANCH  10  21
BRANCH  11  23
ATOM     23  O   UNL     1      59.016   9.706  75.454  1.00  0.00    -0.508 OA
ATOM     24  H   UNL     1      58.754  10.545  74.946  1.00  0.00     0.293 HD
ENDBRANCH  11  23
ENDBRANCH   1   2
BRANCH   1  25
ATOM     25  C   UNL     1      54.773   6.162  82.193  1.00  0.00     0.339 C 
ATOM     26  C   UNL     1      56.289   5.779  82.177  1.00  0.00     0.214 C 
ATOM     27  O   UNL     1      53.925   5.121  82.667  1.00  0.00    -0.332 OA
ATOM     28  C   UNL     1      56.527   4.362  81.603  1.00  0.00     0.180 C 
ATOM     29  C   UNL     1      54.122   3.907  81.968  1.00  0.00     0.179 C 
ATOM     30  C   UNL     1      55.556   3.358  82.230  1.00  0.00     0.177 C 
BRANCH  26  31
ATOM     31  O   UNL     1      56.800   5.845  83.485  1.00  0.00    -0.384 OA
ATOM     32  H   UNL     1      57.734   5.502  83.458  1.00  0.00     0.211 HD
ENDBRANCH  26  31
BRANCH  28  33
ATOM     33  O   UNL     1      57.852   3.957  81.837  1.00  0.00    -0.387 OA
ATOM     34  H   UNL     1      58.103   3.319  81.123  1.00  0.00     0.211 HD
ENDBRANCH  28  33
BRANCH  29  35
ATOM     35  C   UNL     1      52.990   2.924  82.282  1.00  0.00     0.191 C 
BRANCH  35  36
ATOM     36  O   UNL     1      53.449   1.597  82.353  1.00  0.00    -0.394 OA
ATOM     37  H   UNL     1      53.143   1.250  83.235  1.00  0.00     0.210 HD
ENDBRANCH  35  36
ENDBRANCH  29  35
BRANCH  30  38
ATOM     38  O   UNL     1      55.890   3.225  83.601  1.00  0.00    -0.387 OA
ATOM     39  H   UNL     1      55.763   4.076  84.089  1.00  0.00     0.211 HD
ENDBRANCH  30  38
ENDBRANCH   1  25
TORSDOF 11
ENDMDL
MODEL 4
REMARK VINA RESULT:    -6.831      2.521      4.944
REMARK INTER + INTRA:         -10.967
REMARK INTER:                  -9.899
REMARK INTRA:                  -1.067
REMARK UNBOUND:                -1.141
REMARK SMILES O=c1c(O[C@H]2O[C@H](CO)[C@H](O)[C@H](O)[C@@H]2O)c(-c2ccc(O)cc2)oc2cc(O)cc(O)c12
REMARK SMILES IDX 4 1 3 2 16 3 24 4 2 5 25 6 1 7 32 8 26 9 30 10 27 11 29 12
REMARK SMILES IDX 17 13 18 14 19 15 20 16 23 17 22 18 21 19 31 21 28 23 5 25
REMARK SMILES IDX 14 26 6 27 12 28 7 29 10 30 15 31 13 33 8 35 9 36 11 38
REMARK H PARENT 21 20 31 22 28 24 15 32 13 34 9 37 11 39
REMARK Flexibility Score: inf
ROOT
ATOM      1  O   UNL     1      52.988   5.806  80.741  1.00  0.00    -0.454 OA
ENDROOT
BRANCH   1   2
ATOM      2  C   UNL     1      53.483   6.684  79.747  1.00  0.00     0.214 A 
ATOM      3  C   UNL     1      54.880   6.812  79.577  1.00  0.00     0.180 A 
ATOM      4  O   UNL     1      55.378   7.624  78.649  1.00  0.00    -0.452 OA
ATOM      5  C   UNL     1      52.658   7.381  78.833  1.00  0.00     0.239 A 
ATOM      6  C   UNL     1      54.630   8.358  77.841  1.00  0.00     0.146 A 
ATOM      7  O   UNL     1      51.438   7.097  78.741  1.00  0.00    -0.285 OA
ATOM      8  C   UNL     1      53.225   8.291  77.912  1.00  0.00     0.111 A 
ATOM      9  C   UNL     1      55.255   9.173  76.885  1.00  0.00     0.094 A 
ATOM     10  C   UNL     1      52.453   9.079  77.034  1.00  0.00     0.134 A 
ATOM     11  C   UNL     1      54.489   9.893  75.968  1.00  0.00     0.123 A 
ATOM     12  C   UNL     1      53.092   9.860  76.055  1.00  0.00     0.093 A 
BRANCH   3  13
ATOM     13  C   UNL     1      55.838   6.001  80.353  1.00  0.00     0.021 A 
ATOM     14  C   UNL     1      56.758   5.158  79.718  1.00  0.00     0.016 A 
ATOM     15  C   UNL     1      57.646   4.387  80.478  1.00  0.00     0.047 A 
ATOM     16  C   UNL     1      57.622   4.456  81.875  1.00  0.00     0.115 A 
ATOM     17  C   UNL     1      55.829   6.080  81.757  1.00  0.00     0.016 A 
ATOM     18  C   UNL     1      56.730   5.324  82.513  1.00  0.00     0.047 A 
BRANCH  16  19
ATOM     19  O   UNL     1      58.465   3.629  82.607  1.00  0.00    -0.508 OA
ATOM     20  H   UNL     1      58.981   3.979  83.398  1.00  0.00     0.293 HD
ENDBRANCH  16  19
ENDBRANCH   3  13
BRANCH  10  21
ATOM     21  O   UNL     1      51.061   9.094  77.112  1.00  0.00    -0.507 OA
ATOM     22  H   UNL     1      50.564   8.436  77.707  1.00  0.00     0.293 HD
ENDBRANCH  10  21
BRANCH  11  23
ATOM     23  O   UNL     1      55.115  10.662  74.990  1.00  0.00    -0.508 OA
ATOM     24  H   UNL     1      54.593  10.984  74.182  1.00  0.00     0.293 HD
ENDBRANCH  11  23
ENDBRANCH   1   2
BRANCH   1  25
ATOM     25  C   UNL     1      52.585   4.443  80.534  1.00  0.00     0.339 C 
ATOM     26  C   UNL     1      51.029   4.295  80.472  1.00  0.00     0.214 C 
ATOM     27  O   UNL     1      53.205   3.579  81.482  1.00  0.00    -0.332 OA
ATOM     28  C   UNL     1      50.393   4.224  81.881  1.00  0.00     0.180 C 
ATOM     29  C   UNL     1      52.642   3.706  82.773  1.00  0.00     0.179 C 
ATOM     30  C   UNL     1      51.157   3.236  82.767  1.00  0.00     0.177 C 
BRANCH  26  31
ATOM     31  O   UNL     1      50.701   3.133  79.752  1.00  0.00    -0.384 OA
ATOM     32  H   UNL     1      51.547   2.634  79.589  1.00  0.00     0.211 HD
ENDBRANCH  26  31
BRANCH  28  33
ATOM     33  O   UNL     1      49.045   3.840  81.788  1.00  0.00    -0.387 OA
ATOM     34  H   UNL     1      49.020   2.878  81.553  1.00  0.00     0.211 HD
ENDBRANCH  28  33
BRANCH  29  35
ATOM     35  C   UNL     1      53.531   3.012  83.811  1.00  0.00     0.191 C 
BRANCH  35  36
ATOM     36  O   UNL     1      53.695   1.644  83.534  1.00  0.00    -0.394 OA
ATOM     37  H   UNL     1      52.943   1.181  83.992  1.00  0.00     0.210 HD
ENDBRANCH  35  36
ENDBRANCH  29  35
BRANCH  30  38
ATOM     38  O   UNL     1      50.958   1.935  82.243  1.00  0.00    -0.387 OA
ATOM     39  H   UNL     1      51.817   1.500  82.015  1.00  0.00     0.211 HD
ENDBRANCH  30  38
ENDBRANCH   1  25
TORSDOF 11
ENDMDL
MODEL 5
REMARK VINA RESULT:    -6.671      2.659      4.143
REMARK INTER + INTRA:         -10.737
REMARK INTER:                 -10.006
REMARK INTRA:                  -0.731
REMARK UNBOUND:                -1.141
REMARK SMILES O=c1c(O[C@H]2O[C@H](CO)[C@H](O)[C@H](O)[C@@H]2O)c(-c2ccc(O)cc2)oc2cc(O)cc(O)c12
REMARK SMILES IDX 4 1 3 2 16 3 24 4 2 5 25 6 1 7 32 8 26 9 30 10 27 11 29 12
REMARK SMILES IDX 17 13 18 14 19 15 20 16 23 17 22 18 21 19 31 21 28 23 5 25
REMARK SMILES IDX 14 26 6 27 12 28 7 29 10 30 15 31 13 33 8 35 9 36 11 38
REMARK H PARENT 21 20 31 22 28 24 15 32 13 34 9 37 11 39
REMARK Flexibility Score: inf
ROOT
ATOM      1  O   UNL     1      53.908   5.727  77.357  1.00  0.00    -0.454 OA
ENDROOT
BRANCH   1   2
ATOM      2  C   UNL     1      54.899   6.657  77.755  1.00  0.00     0.214 A 
ATOM      3  C   UNL     1      54.579   8.032  77.784  1.00  0.00     0.180 A 
ATOM      4  O   UNL     1      55.484   8.931  78.158  1.00  0.00    -0.452 OA
ATOM      5  C   UNL     1      56.181   6.285  78.226  1.00  0.00     0.239 A 
ATOM      6  C   UNL     1      56.720   8.620  78.516  1.00  0.00     0.146 A 
ATOM      7  O   UNL     1      56.430   5.084  78.495  1.00  0.00    -0.285 OA
ATOM      8  C   UNL     1      57.138   7.275  78.542  1.00  0.00     0.111 A 
ATOM      9  C   UNL     1      57.596   9.644  78.908  1.00  0.00     0.094 A 
ATOM     10  C   UNL     1      58.459   6.972  78.934  1.00  0.00     0.134 A 
ATOM     11  C   UNL     1      58.876   9.335  79.368  1.00  0.00     0.123 A 
ATOM     12  C   UNL     1      59.311   8.004  79.362  1.00  0.00     0.093 A 
BRANCH   3  13
ATOM     13  C   UNL     1      53.220   8.523  77.485  1.00  0.00     0.021 A 
ATOM     14  C   UNL     1      52.274   8.708  78.501  1.00  0.00     0.016 A 
ATOM     15  C   UNL     1      50.987   9.161  78.188  1.00  0.00     0.047 A 
ATOM     16  C   UNL     1      50.638   9.434  76.861  1.00  0.00     0.115 A 
ATOM     17  C   UNL     1      52.870   8.815  76.155  1.00  0.00     0.016 A 
ATOM     18  C   UNL     1      51.590   9.286  75.847  1.00  0.00     0.047 A 
BRANCH  16  19
ATOM     19  O   UNL     1      49.333   9.815  76.570  1.00  0.00    -0.508 OA
ATOM     20  H   UNL     1      48.732   9.231  76.011  1.00  0.00     0.293 HD
ENDBRANCH  16  19
ENDBRANCH   3  13
BRANCH  10  21
ATOM     21  O   UNL     1      58.935   5.662  78.913  1.00  0.00    -0.507 OA
ATOM     22  H   UNL     1      59.245   5.205  79.766  1.00  0.00     0.293 HD
ENDBRANCH  10  21
BRANCH  11  23
ATOM     23  O   UNL     1      59.724  10.351  79.802  1.00  0.00    -0.508 OA
ATOM     24  H   UNL     1      59.864  11.178  79.231  1.00  0.00     0.293 HD
ENDBRANCH  11  23
ENDBRANCH   1   2
BRANCH   1  25
ATOM     25  C   UNL     1      53.590   4.498  78.028  1.00  0.00     0.339 C 
ATOM     26  C   UNL     1      52.229   3.899  77.540  1.00  0.00     0.214 C 
ATOM     27  O   UNL     1      53.672   4.652  79.442  1.00  0.00    -0.332 OA
ATOM     28  C   UNL     1      51.018   4.550  78.249  1.00  0.00     0.180 C 
ATOM     29  C   UNL     1      52.588   5.393  79.966  1.00  0.00     0.179 C 
ATOM     30  C   UNL     1      51.252   4.619  79.760  1.00  0.00     0.177 C 
BRANCH  26  31
ATOM     31  O   UNL     1      52.220   2.513  77.775  1.00  0.00    -0.384 OA
ATOM     32  H   UNL     1      51.496   2.327  78.434  1.00  0.00     0.211 HD
ENDBRANCH  26  31
BRANCH  28  33
ATOM     33  O   UNL     1      49.847   3.822  77.978  1.00  0.00    -0.387 OA
ATOM     34  H   UNL     1      50.069   3.133  77.303  1.00  0.00     0.211 HD
ENDBRANCH  28  33
BRANCH  29  35
ATOM     35  C   UNL     1      52.875   5.805  81.413  1.00  0.00     0.191 C 
BRANCH  35  36
ATOM     36  O   UNL     1      52.396   4.860  82.335  1.00  0.00    -0.394 OA
ATOM     37  H   UNL     1      51.756   4.286  81.832  1.00  0.00     0.210 HD
ENDBRANCH  35  36
ENDBRANCH  29  35
BRANCH  30  38
ATOM     38  O   UNL     1      51.262   3.293  80.261  1.00  0.00    -0.387 OA
ATOM     39  H   UNL     1      50.877   2.656  79.609  1.00  0.00     0.211 HD
ENDBRANCH  30  38
ENDBRANCH   1  25
TORSDOF 11
ENDMDL
MODEL 6
REMARK VINA RESULT:    -6.660      1.990      6.974
REMARK INTER + INTRA:         -10.721
REMARK INTER:                  -9.244
REMARK INTRA:                  -1.476
REMARK UNBOUND:                -1.141
REMARK SMILES O=c1c(O[C@H]2O[C@H](CO)[C@H](O)[C@H](O)[C@@H]2O)c(-c2ccc(O)cc2)oc2cc(O)cc(O)c12
REMARK SMILES IDX 4 1 3 2 16 3 24 4 2 5 25 6 1 7 32 8 26 9 30 10 27 11 29 12
REMARK SMILES IDX 17 13 18 14 19 15 20 16 23 17 22 18 21 19 31 21 28 23 5 25
REMARK SMILES IDX 14 26 6 27 12 28 7 29 10 30 15 31 13 33 8 35 9 36 11 38
REMARK H PARENT 21 20 31 22 28 24 15 32 13 34 9 37 11 39
REMARK Flexibility Score: inf
ROOT
ATOM      1  O   UNL     1      55.685   6.748  80.280  1.00  0.00    -0.454 OA
ENDROOT
BRANCH   1   2
ATOM      2  C   UNL     1      54.706   5.858  80.785  1.00  0.00     0.214 A 
ATOM      3  C   UNL     1      53.432   5.820  80.177  1.00  0.00     0.180 A 
ATOM      4  O   UNL     1      52.493   4.991  80.623  1.00  0.00    -0.452 OA
ATOM      5  C   UNL     1      54.956   4.918  81.813  1.00  0.00     0.239 A 
ATOM      6  C   UNL     1      52.668   4.166  81.642  1.00  0.00     0.146 A 
ATOM      7  O   UNL     1      56.132   4.701  82.198  1.00  0.00    -0.285 OA
ATOM      8  C   UNL     1      53.908   4.109  82.308  1.00  0.00     0.111 A 
ATOM      9  C   UNL     1      51.616   3.321  82.026  1.00  0.00     0.094 A 
ATOM     10  C   UNL     1      54.070   3.215  83.387  1.00  0.00     0.134 A 
ATOM     11  C   UNL     1      51.803   2.385  83.044  1.00  0.00     0.123 A 
ATOM     12  C   UNL     1      53.020   2.347  83.734  1.00  0.00     0.093 A 
BRANCH   3  13
ATOM     13  C   UNL     1      53.113   6.627  78.983  1.00  0.00     0.021 A 
ATOM     14  C   UNL     1      52.667   7.949  79.097  1.00  0.00     0.016 A 
ATOM     15  C   UNL     1      52.358   8.688  77.949  1.00  0.00     0.047 A 
ATOM     16  C   UNL     1      52.494   8.111  76.681  1.00  0.00     0.115 A 
ATOM     17  C   UNL     1      53.265   6.057  77.707  1.00  0.00     0.016 A 
ATOM     18  C   UNL     1      52.973   6.803  76.560  1.00  0.00     0.047 A 
BRANCH  16  19
ATOM     19  O   UNL     1      52.113   8.842  75.562  1.00  0.00    -0.508 OA
ATOM     20  H   UNL     1      51.202   9.267  75.502  1.00  0.00     0.293 HD
ENDBRANCH  16  19
ENDBRANCH   3  13
BRANCH  10  21
ATOM     21  O   UNL     1      55.257   3.170  84.115  1.00  0.00    -0.507 OA
ATOM     22  H   UNL     1      55.392   2.484  84.854  1.00  0.00     0.293 HD
ENDBRANCH  10  21
BRANCH  11  23
ATOM     23  O   UNL     1      50.771   1.515  83.388  1.00  0.00    -0.508 OA
ATOM     24  H   UNL     1      50.395   1.517  84.330  1.00  0.00     0.293 HD
ENDBRANCH  11  23
ENDBRANCH   1   2
BRANCH   1  25
ATOM     25  C   UNL     1      56.642   6.451  79.251  1.00  0.00     0.339 C 
ATOM     26  C   UNL     1      58.112   6.678  79.735  1.00  0.00     0.214 C 
ATOM     27  O   UNL     1      56.324   7.139  78.045  1.00  0.00    -0.332 OA
ATOM     28  C   UNL     1      58.535   8.163  79.640  1.00  0.00     0.180 C 
ATOM     29  C   UNL     1      56.613   8.521  78.123  1.00  0.00     0.179 C 
ATOM     30  C   UNL     1      58.146   8.747  78.279  1.00  0.00     0.177 C 
BRANCH  26  31
ATOM     31  O   UNL     1      58.983   5.893  78.960  1.00  0.00    -0.384 OA
ATOM     32  H   UNL     1      59.203   5.079  79.489  1.00  0.00     0.211 HD
ENDBRANCH  26  31
BRANCH  28  33
ATOM     33  O   UNL     1      59.920   8.289  79.837  1.00  0.00    -0.387 OA
ATOM     34  H   UNL     1      60.363   7.552  79.345  1.00  0.00     0.211 HD
ENDBRANCH  28  33
BRANCH  29  35
ATOM     35  C   UNL     1      55.970   9.266  76.948  1.00  0.00     0.191 C 
BRANCH  35  36
ATOM     36  O   UNL     1      56.922   9.950  76.173  1.00  0.00    -0.394 OA
ATOM     37  H   UNL     1      57.694   9.327  76.076  1.00  0.00     0.210 HD
ENDBRANCH  35  36
ENDBRANCH  29  35
BRANCH  30  38
ATOM     38  O   UNL     1      58.935   8.110  77.289  1.00  0.00    -0.387 OA
ATOM     39  H   UNL     1      58.556   7.232  77.033  1.00  0.00     0.211 HD
ENDBRANCH  30  38
ENDBRANCH   1  25
TORSDOF 11
ENDMDL
MODEL 7
REMARK VINA RESULT:    -6.492      2.441      7.936
REMARK INTER + INTRA:         -10.480
REMARK INTER:                  -9.009
REMARK INTRA:                  -1.471
REMARK UNBOUND:                -1.141
REMARK SMILES O=c1c(O[C@H]2O[C@H](CO)[C@H](O)[C@H](O)[C@@H]2O)c(-c2ccc(O)cc2)oc2cc(O)cc(O)c12
REMARK SMILES IDX 4 1 3 2 16 3 24 4 2 5 25 6 1 7 32 8 26 9 30 10 27 11 29 12
REMARK SMILES IDX 17 13 18 14 19 15 20 16 23 17 22 18 21 19 31 21 28 23 5 25
REMARK SMILES IDX 14 26 6 27 12 28 7 29 10 30 15 31 13 33 8 35 9 36 11 38
REMARK H PARENT 21 20 31 22 28 24 15 32 13 34 9 37 11 39
REMARK Flexibility Score: inf
ROOT
ATOM      1  O   UNL     1      53.810   6.733  78.328  1.00  0.00    -0.454 OA
ENDROOT
BRANCH   1   2
ATOM      2  C   UNL     1      53.629   5.810  79.385  1.00  0.00     0.214 A 
ATOM      3  C   UNL     1      54.744   5.437  80.170  1.00  0.00     0.180 A 
ATOM      4  O   UNL     1      54.607   4.577  81.174  1.00  0.00    -0.452 OA
ATOM      5  C   UNL     1      52.368   5.302  79.777  1.00  0.00     0.239 A 
ATOM      6  C   UNL     1      53.456   4.015  81.507  1.00  0.00     0.146 A 
ATOM      7  O   UNL     1      51.314   5.805  79.316  1.00  0.00    -0.285 OA
ATOM      8  C   UNL     1      52.279   4.332  80.802  1.00  0.00     0.111 A 
ATOM      9  C   UNL     1      53.417   3.129  82.594  1.00  0.00     0.094 A 
ATOM     10  C   UNL     1      51.064   3.723  81.181  1.00  0.00     0.134 A 
ATOM     11  C   UNL     1      52.202   2.588  83.014  1.00  0.00     0.123 A 
ATOM     12  C   UNL     1      51.033   2.870  82.298  1.00  0.00     0.093 A 
BRANCH   3  13
ATOM     13  C   UNL     1      56.076   6.038  79.968  1.00  0.00     0.021 A 
ATOM     14  C   UNL     1      56.461   7.198  80.650  1.00  0.00     0.016 A 
ATOM     15  C   UNL     1      57.726   7.757  80.430  1.00  0.00     0.047 A 
ATOM     16  C   UNL     1      58.613   7.159  79.528  1.00  0.00     0.115 A 
ATOM     17  C   UNL     1      56.978   5.431  79.076  1.00  0.00     0.016 A 
ATOM     18  C   UNL     1      58.248   5.979  78.871  1.00  0.00     0.047 A 
BRANCH  16  19
ATOM     19  O   UNL     1      59.834   7.772  79.275  1.00  0.00    -0.508 OA
ATOM     20  H   UNL     1      60.197   7.843  78.338  1.00  0.00     0.293 HD
ENDBRANCH  16  19
ENDBRANCH   3  13
BRANCH  10  21
ATOM     21  O   UNL     1      49.887   3.958  80.473  1.00  0.00    -0.507 OA
ATOM     22  H   UNL     1      49.269   3.192  80.218  1.00  0.00     0.293 HD
ENDBRANCH  10  21
BRANCH  11  23
ATOM     23  O   UNL     1      52.161   1.747  84.125  1.00  0.00    -0.508 OA
ATOM     24  H   UNL     1      52.804   1.890  84.896  1.00  0.00     0.293 HD
ENDBRANCH  11  23
ENDBRANCH   1   2
BRANCH   1  25
ATOM     25  C   UNL     1      53.561   8.146  78.392  1.00  0.00     0.339 C 
ATOM     26  C   UNL     1      52.463   8.595  77.372  1.00  0.00     0.214 C 
ATOM     27  O   UNL     1      54.775   8.883  78.287  1.00  0.00    -0.332 OA
ATOM     28  C   UNL     1      53.038   8.805  75.951  1.00  0.00     0.180 C 
ATOM     29  C   UNL     1      55.292   8.883  76.970  1.00  0.00     0.179 C 
ATOM     30  C   UNL     1      54.324   9.633  76.008  1.00  0.00     0.177 C 
BRANCH  26  31
ATOM     31  O   UNL     1      51.874   9.791  77.819  1.00  0.00    -0.384 OA
ATOM     32  H   UNL     1      51.252   9.557  78.561  1.00  0.00     0.211 HD
ENDBRANCH  26  31
BRANCH  28  33
ATOM     33  O   UNL     1      52.092   9.444  75.132  1.00  0.00    -0.387 OA
ATOM     34  H   UNL     1      52.329  10.404  75.091  1.00  0.00     0.211 HD
ENDBRANCH  28  33
BRANCH  29  35
ATOM     35  C   UNL     1      56.733   9.401  76.964  1.00  0.00     0.191 C 
BRANCH  35  36
ATOM     36  O   UNL     1      56.963  10.311  75.919  1.00  0.00    -0.394 OA
ATOM     37  H   UNL     1      56.282  10.104  75.222  1.00  0.00     0.210 HD
ENDBRANCH  35  36
ENDBRANCH  29  35
BRANCH  30  38
ATOM     38  O   UNL     1      53.982  10.943  76.428  1.00  0.00    -0.387 OA
ATOM     39  H   UNL     1      53.865  11.552  75.656  1.00  0.00     0.211 HD
ENDBRANCH  30  38
ENDBRANCH   1  25
TORSDOF 11
ENDMDL
MODEL 8
REMARK VINA RESULT:    -6.475      2.114      6.831
REMARK INTER + INTRA:         -10.456
REMARK INTER:                  -9.261
REMARK INTRA:                  -1.195
REMARK UNBOUND:                -1.141
REMARK SMILES O=c1c(O[C@H]2O[C@H](CO)[C@H](O)[C@H](O)[C@@H]2O)c(-c2ccc(O)cc2)oc2cc(O)cc(O)c12
REMARK SMILES IDX 4 1 3 2 16 3 24 4 2 5 25 6 1 7 32 8 26 9 30 10 27 11 29 12
REMARK SMILES IDX 17 13 18 14 19 15 20 16 23 17 22 18 21 19 31 21 28 23 5 25
REMARK SMILES IDX 14 26 6 27 12 28 7 29 10 30 15 31 13 33 8 35 9 36 11 38
REMARK H PARENT 21 20 31 22 28 24 15 32 13 34 9 37 11 39
REMARK Flexibility Score: inf
ROOT
ATOM      1  O   UNL     1      55.513   6.156  79.116  1.00  0.00    -0.454 OA
ENDROOT
BRANCH   1   2
ATOM      2  C   UNL     1      54.415   5.546  79.768  1.00  0.00     0.214 A 
ATOM      3  C   UNL     1      53.103   5.892  79.375  1.00  0.00     0.180 A 
ATOM      4  O   UNL     1      52.050   5.334  79.964  1.00  0.00    -0.452 OA
ATOM      5  C   UNL     1      54.547   4.524  80.738  1.00  0.00     0.239 A 
ATOM      6  C   UNL     1      52.142   4.442  80.937  1.00  0.00     0.146 A 
ATOM      7  O   UNL     1      55.659   3.972  80.926  1.00  0.00    -0.285 OA
ATOM      8  C   UNL     1      53.403   4.012  81.393  1.00  0.00     0.111 A 
ATOM      9  C   UNL     1      50.967   3.903  81.483  1.00  0.00     0.094 A 
ATOM     10  C   UNL     1      53.472   3.056  82.427  1.00  0.00     0.134 A 
ATOM     11  C   UNL     1      51.039   2.902  82.452  1.00  0.00     0.123 A 
ATOM     12  C   UNL     1      52.288   2.494  82.936  1.00  0.00     0.093 A 
BRANCH   3  13
ATOM     13  C   UNL     1      52.842   6.814  78.253  1.00  0.00     0.021 A 
ATOM     14  C   UNL     1      53.381   6.581  76.981  1.00  0.00     0.016 A 
ATOM     15  C   UNL     1      53.131   7.479  75.937  1.00  0.00     0.047 A 
ATOM     16  C   UNL     1      52.340   8.613  76.155  1.00  0.00     0.115 A 
ATOM     17  C   UNL     1      52.034   7.945  78.463  1.00  0.00     0.016 A 
ATOM     18  C   UNL     1      51.770   8.831  77.413  1.00  0.00     0.047 A 
BRANCH  16  19
ATOM     19  O   UNL     1      52.165   9.525  75.121  1.00  0.00    -0.508 OA
ATOM     20  H   UNL     1      52.735  10.352  75.053  1.00  0.00     0.293 HD
ENDBRANCH  16  19
ENDBRANCH   3  13
BRANCH  10  21
ATOM     21  O   UNL     1      54.697   2.648  82.953  1.00  0.00    -0.507 OA
ATOM     22  H   UNL     1      55.228   3.255  83.572  1.00  0.00     0.293 HD
ENDBRANCH  10  21
BRANCH  11  23
ATOM     23  O   UNL     1      49.871   2.335  82.955  1.00  0.00    -0.508 OA
ATOM     24  H   UNL     1      49.551   1.435  82.612  1.00  0.00     0.293 HD
ENDBRANCH  11  23
ENDBRANCH   1   2
BRANCH   1  25
ATOM     25  C   UNL     1      56.063   7.447  79.421  1.00  0.00     0.339 C 
ATOM     26  C   UNL     1      57.236   7.827  78.459  1.00  0.00     0.214 C 
ATOM     27  O   UNL     1      56.402   7.543  80.801  1.00  0.00    -0.332 OA
ATOM     28  C   UNL     1      58.580   7.198  78.899  1.00  0.00     0.180 C 
ATOM     29  C   UNL     1      57.565   6.806  81.122  1.00  0.00     0.179 C 
ATOM     30  C   UNL     1      58.806   7.409  80.398  1.00  0.00     0.177 C 
BRANCH  26  31
ATOM     31  O   UNL     1      57.367   9.226  78.414  1.00  0.00    -0.384 OA
ATOM     32  H   UNL     1      56.454   9.608  78.304  1.00  0.00     0.211 HD
ENDBRANCH  26  31
BRANCH  28  33
ATOM     33  O   UNL     1      59.642   7.759  78.170  1.00  0.00    -0.387 OA
ATOM     34  H   UNL     1      59.281   8.074  77.304  1.00  0.00     0.211 HD
ENDBRANCH  28  33
BRANCH  29  35
ATOM     35  C   UNL     1      57.709   6.674  82.641  1.00  0.00     0.191 C 
BRANCH  35  36
ATOM     36  O   UNL     1      57.030   5.550  83.140  1.00  0.00    -0.394 OA
ATOM     37  H   UNL     1      56.317   5.905  83.739  1.00  0.00     0.210 HD
ENDBRANCH  35  36
ENDBRANCH  29  35
BRANCH  30  38
ATOM     38  O   UNL     1      58.996   8.796  80.621  1.00  0.00    -0.387 OA
ATOM     39  H   UNL     1      59.226   9.269  79.783  1.00  0.00     0.211 HD
ENDBRANCH  30  38
ENDBRANCH   1  25
TORSDOF 11
ENDMDL
