MODEL 1
REMARK VINA RESULT:    -7.620      0.000      0.000
REMARK INTER + INTRA:          -9.352
REMARK INTER:                  -9.179
REMARK INTRA:                  -0.173
REMARK UNBOUND:                -0.173
REMARK SMILES O=c1c(O)c(-c2ccc(O)c(O)c2)oc2cc(O)cc(O)c12
REMARK SMILES IDX 5 1 3 2 2 3 1 4 22 5 20 6 19 7 17 8 16 9 15 10 14 11 6 12
REMARK SMILES IDX 7 13 8 14 9 15 13 16 11 17 10 18 12 20 4 22 21 24 18 26
REMARK H PARENT 10 19 12 21 4 23 21 25 18 27
REMARK Flexibility Score: inf
ROOT
ATOM      1  C   UNL     1      20.622  -2.852   1.931  1.00  0.00     0.180 A 
ATOM      2  C   UNL     1      20.432  -4.076   2.597  1.00  0.00     0.208 A 
ATOM      3  C   UNL     1      20.177  -4.067   3.977  1.00  0.00     0.238 A 
ATOM      4  O   UNL     1      19.934  -5.161   4.552  1.00  0.00    -0.285 OA
ATOM      5  C   UNL     1      20.171  -2.841   4.687  1.00  0.00     0.111 A 
ATOM      6  C   UNL     1      19.967  -2.718   6.095  1.00  0.00     0.134 A 
ATOM      7  C   UNL     1      19.876  -1.446   6.671  1.00  0.00     0.093 A 
ATOM      8  C   UNL     1      20.045  -0.292   5.900  1.00  0.00     0.123 A 
ATOM      9  C   UNL     1      20.298  -0.403   4.536  1.00  0.00     0.094 A 
ATOM     10  C   UNL     1      20.356  -1.658   3.925  1.00  0.00     0.146 A 
ATOM     11  O   UNL     1      20.578  -1.716   2.618  1.00  0.00    -0.452 OA
ENDROOT
BRANCH   1  12
ATOM     12  C   UNL     1      20.880  -2.778   0.476  1.00  0.00     0.025 A 
ATOM     13  C   UNL     1      19.882  -3.183  -0.424  1.00  0.00     0.016 A 
ATOM     14  C   UNL     1      20.111  -3.142  -1.801  1.00  0.00     0.051 A 
ATOM     15  C   UNL     1      21.344  -2.710  -2.300  1.00  0.00     0.157 A 
ATOM     16  C   UNL     1      22.127  -2.364  -0.027  1.00  0.00     0.062 A 
ATOM     17  C   UNL     1      22.360  -2.324  -1.410  1.00  0.00     0.158 A 
BRANCH  15  18
ATOM     18  O   UNL     1      21.543  -2.677  -3.680  1.00  0.00    -0.504 OA
ATOM     19  H   UNL     1      21.629  -3.523  -4.232  1.00  0.00     0.293 HD
ENDBRANCH  15  18
BRANCH  17  20
ATOM     20  O   UNL     1      23.596  -1.906  -1.900  1.00  0.00    -0.504 OA
ATOM     21  H   UNL     1      23.669  -1.213  -2.635  1.00  0.00     0.293 HD
ENDBRANCH  17  20
ENDBRANCH   1  12
BRANCH   2  22
ATOM     22  O   UNL     1      20.518  -5.279   1.893  1.00  0.00    -0.502 OA
ATOM     23  H   UNL     1      20.367  -5.336   0.893  1.00  0.00     0.293 HD
ENDBRANCH   2  22
BRANCH   6  24
ATOM     24  O   UNL     1      19.875  -3.804   6.971  1.00  0.00    -0.507 OA
ATOM     25  H   UNL     1      19.016  -4.161   7.362  1.00  0.00     0.293 HD
ENDBRANCH   6  24
BRANCH   8  26
ATOM     26  O   UNL     1      19.969   0.971   6.484  1.00  0.00    -0.508 OA
ATOM     27  H   UNL     1      19.149   1.557   6.374  1.00  0.00     0.293 HD
ENDBRANCH   8  26
TORSDOF 6
ENDMDL
MODEL 2
REMARK VINA RESULT:    -7.301      1.036      1.289
REMARK INTER + INTRA:          -8.968
REMARK INTER:                  -8.771
REMARK INTRA:                  -0.197
REMARK UNBOUND:                -0.173
REMARK SMILES O=c1c(O)c(-c2ccc(O)c(O)c2)oc2cc(O)cc(O)c12
REMARK SMILES IDX 5 1 3 2 2 3 1 4 22 5 20 6 19 7 17 8 16 9 15 10 14 11 6 12
REMARK SMILES IDX 7 13 8 14 9 15 13 16 11 17 10 18 12 20 4 22 21 24 18 26
REMARK H PARENT 10 19 12 21 4 23 21 25 18 27
REMARK Flexibility Score: inf
ROOT
ATOM      1  C   UNL     1      20.950  -3.128   0.749  1.00  0.00     0.180 A 
ATOM      2  C   UNL     1      20.725  -4.401   1.302  1.00  0.00     0.208 A 
ATOM      3  C   UNL     1      20.378  -4.502   2.658  1.00  0.00     0.238 A 
ATOM      4  O   UNL     1      20.103  -5.638   3.127  1.00  0.00    -0.285 OA
ATOM      5  C   UNL     1      20.317  -3.337   3.461  1.00  0.00     0.111 A 
ATOM      6  C   UNL     1      20.018  -3.326   4.857  1.00  0.00     0.134 A 
ATOM      7  C   UNL     1      19.881  -2.103   5.524  1.00  0.00     0.093 A 
ATOM      8  C   UNL     1      20.093  -0.892   4.861  1.00  0.00     0.123 A 
ATOM      9  C   UNL     1      20.438  -0.894   3.512  1.00  0.00     0.094 A 
ATOM     10  C   UNL     1      20.545  -2.096   2.809  1.00  0.00     0.146 A 
ATOM     11  O   UNL     1      20.854  -2.050   1.519  1.00  0.00    -0.452 OA
ENDROOT
BRANCH   1  12
ATOM     12  C   UNL     1      21.305  -2.938  -0.675  1.00  0.00     0.025 A 
ATOM     13  C   UNL     1      20.354  -3.226  -1.667  1.00  0.00     0.016 A 
ATOM     14  C   UNL     1      20.674  -3.075  -3.019  1.00  0.00     0.051 A 
ATOM     15  C   UNL     1      21.949  -2.649  -3.400  1.00  0.00     0.157 A 
ATOM     16  C   UNL     1      22.594  -2.531  -1.062  1.00  0.00     0.062 A 
ATOM     17  C   UNL     1      22.917  -2.380  -2.418  1.00  0.00     0.158 A 
BRANCH  15  18
ATOM     18  O   UNL     1      22.239  -2.505  -4.757  1.00  0.00    -0.504 OA
ATOM     19  H   UNL     1      22.230  -1.601  -5.216  1.00  0.00     0.293 HD
ENDBRANCH  15  18
BRANCH  17  20
ATOM     20  O   UNL     1      24.196  -1.969  -2.792  1.00  0.00    -0.504 OA
ATOM     21  H   UNL     1      25.024  -2.321  -2.326  1.00  0.00     0.293 HD
ENDBRANCH  17  20
ENDBRANCH   1  12
BRANCH   2  22
ATOM     22  O   UNL     1      20.864  -5.545   0.512  1.00  0.00    -0.502 OA
ATOM     23  H   UNL     1      21.317  -5.528  -0.393  1.00  0.00     0.293 HD
ENDBRANCH   2  22
BRANCH   6  24
ATOM     24  O   UNL     1      19.875  -4.478   5.637  1.00  0.00    -0.507 OA
ATOM     25  H   UNL     1      20.558  -4.818   6.297  1.00  0.00     0.293 HD
ENDBRANCH   6  24
BRANCH   8  26
ATOM     26  O   UNL     1      19.971   0.321   5.536  1.00  0.00    -0.508 OA
ATOM     27  H   UNL     1      20.747   0.970   5.605  1.00  0.00     0.293 HD
ENDBRANCH   8  26
TORSDOF 6
ENDMDL
MODEL 3
REMARK VINA RESULT:    -6.571      2.690      8.000
REMARK INTER + INTRA:          -8.088
REMARK INTER:                  -8.297
REMARK INTRA:                   0.209
REMARK UNBOUND:                -0.173
REMARK SMILES O=c1c(O)c(-c2ccc(O)c(O)c2)oc2cc(O)cc(O)c12
REMARK SMILES IDX 5 1 3 2 2 3 1 4 22 5 20 6 19 7 17 8 16 9 15 10 14 11 6 12
REMARK SMILES IDX 7 13 8 14 9 15 13 16 11 17 10 18 12 20 4 22 21 24 18 26
REMARK H PARENT 10 19 12 21 4 23 21 25 18 27
REMARK Flexibility Score: inf
ROOT
ATOM      1  C   UNL     1      21.394  -4.356  -0.955  1.00  0.00     0.180 A 
ATOM      2  C   UNL     1      22.146  -5.532  -1.119  1.00  0.00     0.208 A 
ATOM      3  C   UNL     1      22.519  -5.926  -2.414  1.00  0.00     0.238 A 
ATOM      4  O   UNL     1      23.256  -6.938  -2.547  1.00  0.00    -0.285 OA
ATOM      5  C   UNL     1      22.089  -5.172  -3.533  1.00  0.00     0.111 A 
ATOM      6  C   UNL     1      22.371  -5.503  -4.893  1.00  0.00     0.134 A 
ATOM      7  C   UNL     1      21.983  -4.625  -5.912  1.00  0.00     0.093 A 
ATOM      8  C   UNL     1      21.268  -3.459  -5.626  1.00  0.00     0.123 A 
ATOM      9  C   UNL     1      20.942  -3.155  -4.307  1.00  0.00     0.094 A 
ATOM     10  C   UNL     1      21.347  -3.991  -3.265  1.00  0.00     0.146 A 
ATOM     11  O   UNL     1      21.033  -3.652  -2.021  1.00  0.00    -0.452 OA
ENDROOT
BRANCH   1  12
ATOM     12  C   UNL     1      20.976  -3.868   0.378  1.00  0.00     0.025 A 
ATOM     13  C   UNL     1      20.984  -2.489   0.643  1.00  0.00     0.016 A 
ATOM     14  C   UNL     1      20.613  -2.007   1.900  1.00  0.00     0.051 A 
ATOM     15  C   UNL     1      20.243  -2.893   2.916  1.00  0.00     0.157 A 
ATOM     16  C   UNL     1      20.624  -4.759   1.408  1.00  0.00     0.062 A 
ATOM     17  C   UNL     1      20.253  -4.277   2.672  1.00  0.00     0.158 A 
BRANCH  15  18
ATOM     18  O   UNL     1      19.875  -2.383   4.161  1.00  0.00    -0.504 OA
ATOM     19  H   UNL     1      20.561  -2.112   4.856  1.00  0.00     0.293 HD
ENDBRANCH  15  18
BRANCH  17  20
ATOM     20  O   UNL     1      19.899  -5.167   3.685  1.00  0.00    -0.504 OA
ATOM     21  H   UNL     1      19.370  -4.866   4.495  1.00  0.00     0.293 HD
ENDBRANCH  17  20
ENDBRANCH   1  12
BRANCH   2  22
ATOM     22  O   UNL     1      22.496  -6.304  -0.008  1.00  0.00    -0.502 OA
ATOM     23  H   UNL     1      23.403  -6.745   0.083  1.00  0.00     0.293 HD
ENDBRANCH   2  22
BRANCH   6  24
ATOM     24  O   UNL     1      22.999  -6.684  -5.298  1.00  0.00    -0.507 OA
ATOM     25  H   UNL     1      23.915  -6.985  -4.999  1.00  0.00     0.293 HD
ENDBRANCH   6  24
BRANCH   8  26
ATOM     26  O   UNL     1      20.872  -2.599  -6.647  1.00  0.00    -0.508 OA
ATOM     27  H   UNL     1      19.892  -2.428  -6.846  1.00  0.00     0.293 HD
ENDBRANCH   8  26
TORSDOF 6
ENDMDL
MODEL 4
REMARK VINA RESULT:    -6.366      1.867      7.202
REMARK INTER + INTRA:          -7.841
REMARK INTER:                  -8.234
REMARK INTRA:                   0.393
REMARK UNBOUND:                -0.173
REMARK SMILES O=c1c(O)c(-c2ccc(O)c(O)c2)oc2cc(O)cc(O)c12
REMARK SMILES IDX 5 1 3 2 2 3 1 4 22 5 20 6 19 7 17 8 16 9 15 10 14 11 6 12
REMARK SMILES IDX 7 13 8 14 9 15 13 16 11 17 10 18 12 20 4 22 21 24 18 26
REMARK H PARENT 10 19 12 21 4 23 21 25 18 27
REMARK Flexibility Score: inf
ROOT
ATOM      1  C   UNL     1      20.618  -3.620   0.448  1.00  0.00     0.180 A 
ATOM      2  C   UNL     1      20.370  -4.952   0.073  1.00  0.00     0.208 A 
ATOM      3  C   UNL     1      20.608  -5.341  -1.254  1.00  0.00     0.238 A 
ATOM      4  O   UNL     1      20.456  -6.552  -1.564  1.00  0.00    -0.285 OA
ATOM      5  C   UNL     1      21.036  -4.383  -2.205  1.00  0.00     0.111 A 
ATOM      6  C   UNL     1      21.266  -4.656  -3.588  1.00  0.00     0.134 A 
ATOM      7  C   UNL     1      21.790  -3.653  -4.412  1.00  0.00     0.093 A 
ATOM      8  C   UNL     1      22.033  -2.369  -3.919  1.00  0.00     0.123 A 
ATOM      9  C   UNL     1      21.761  -2.078  -2.585  1.00  0.00     0.094 A 
ATOM     10  C   UNL     1      21.274  -3.067  -1.728  1.00  0.00     0.146 A 
ATOM     11  O   UNL     1      21.049  -2.751  -0.459  1.00  0.00    -0.452 OA
ENDROOT
BRANCH   1  12
ATOM     12  C   UNL     1      20.405  -3.137   1.831  1.00  0.00     0.025 A 
ATOM     13  C   UNL     1      20.378  -1.756   2.084  1.00  0.00     0.016 A 
ATOM     14  C   UNL     1      20.200  -1.278   3.384  1.00  0.00     0.051 A 
ATOM     15  C   UNL     1      20.060  -2.169   4.452  1.00  0.00     0.157 A 
ATOM     16  C   UNL     1      20.286  -4.031   2.909  1.00  0.00     0.062 A 
ATOM     17  C   UNL     1      20.109  -3.553   4.216  1.00  0.00     0.158 A 
BRANCH  15  18
ATOM     18  O   UNL     1      19.881  -1.662   5.739  1.00  0.00    -0.504 OA
ATOM     19  H   UNL     1      19.107  -1.948   6.327  1.00  0.00     0.293 HD
ENDBRANCH  15  18
BRANCH  17  20
ATOM     20  O   UNL     1      19.986  -4.447   5.279  1.00  0.00    -0.504 OA
ATOM     21  H   UNL     1      20.264  -5.418   5.191  1.00  0.00     0.293 HD
ENDBRANCH  17  20
ENDBRANCH   1  12
BRANCH   2  22
ATOM     22  O   UNL     1      19.875  -5.865   1.009  1.00  0.00    -0.502 OA
ATOM     23  H   UNL     1      20.322  -6.022   1.904  1.00  0.00     0.293 HD
ENDBRANCH   2  22
BRANCH   6  24
ATOM     24  O   UNL     1      20.973  -5.876  -4.204  1.00  0.00    -0.507 OA
ATOM     25  H   UNL     1      21.660  -6.554  -4.501  1.00  0.00     0.293 HD
ENDBRANCH   6  24
BRANCH   8  26
ATOM     26  O   UNL     1      22.539  -1.372  -4.750  1.00  0.00    -0.508 OA
ATOM     27  H   UNL     1      23.366  -1.524  -5.318  1.00  0.00     0.293 HD
ENDBRANCH   8  26
TORSDOF 6
ENDMDL
MODEL 5
REMARK VINA RESULT:    -5.821      1.351      6.667
REMARK INTER + INTRA:          -7.185
REMARK INTER:                  -7.578
REMARK INTRA:                   0.394
REMARK UNBOUND:                -0.173
REMARK SMILES O=c1c(O)c(-c2ccc(O)c(O)c2)oc2cc(O)cc(O)c12
REMARK SMILES IDX 5 1 3 2 2 3 1 4 22 5 20 6 19 7 17 8 16 9 15 10 14 11 6 12
REMARK SMILES IDX 7 13 8 14 9 15 13 16 11 17 10 18 12 20 4 22 21 24 18 26
REMARK H PARENT 10 19 12 21 4 23 21 25 18 27
REMARK Flexibility Score: inf
ROOT
ATOM      1  C   UNL     1      20.141  -3.201   3.036  1.00  0.00     0.180 A 
ATOM      2  C   UNL     1      20.046  -4.595   3.193  1.00  0.00     0.208 A 
ATOM      3  C   UNL     1      20.107  -5.414   2.055  1.00  0.00     0.238 A 
ATOM      4  O   UNL     1      20.098  -6.663   2.210  1.00  0.00    -0.285 OA
ATOM      5  C   UNL     1      20.203  -4.829   0.769  1.00  0.00     0.111 A 
ATOM      6  C   UNL     1      20.227  -5.561  -0.458  1.00  0.00     0.134 A 
ATOM      7  C   UNL     1      20.432  -4.881  -1.664  1.00  0.00     0.093 A 
ATOM      8  C   UNL     1      20.550  -3.490  -1.696  1.00  0.00     0.123 A 
ATOM      9  C   UNL     1      20.474  -2.762  -0.512  1.00  0.00     0.094 A 
ATOM     10  C   UNL     1      20.309  -3.414   0.712  1.00  0.00     0.146 A 
ATOM     11  O   UNL     1      20.263  -2.683   1.819  1.00  0.00    -0.452 OA
ENDROOT
BRANCH   1  12
ATOM     12  C   UNL     1      20.100  -2.273   4.188  1.00  0.00     0.025 A 
ATOM     13  C   UNL     1      19.896  -0.902   3.963  1.00  0.00     0.016 A 
ATOM     14  C   UNL     1      19.875  -0.005   5.033  1.00  0.00     0.051 A 
ATOM     15  C   UNL     1      20.071  -0.459   6.341  1.00  0.00     0.157 A 
ATOM     16  C   UNL     1      20.318  -2.725   5.501  1.00  0.00     0.062 A 
ATOM     17  C   UNL     1      20.299  -1.825   6.577  1.00  0.00     0.158 A 
BRANCH  15  18
ATOM     18  O   UNL     1      20.042   0.460   7.390  1.00  0.00    -0.504 OA
ATOM     19  H   UNL     1      19.473   0.316   8.216  1.00  0.00     0.293 HD
ENDBRANCH  15  18
BRANCH  17  20
ATOM     20  O   UNL     1      20.509  -2.283   7.878  1.00  0.00    -0.504 OA
ATOM     21  H   UNL     1      21.188  -1.847   8.490  1.00  0.00     0.293 HD
ENDBRANCH  17  20
ENDBRANCH   1  12
BRANCH   2  22
ATOM     22  O   UNL     1      19.875  -5.149   4.465  1.00  0.00    -0.502 OA
ATOM     23  H   UNL     1      20.298  -6.027   4.736  1.00  0.00     0.293 HD
ENDBRANCH   2  22
BRANCH   6  24
ATOM     24  O   UNL     1      20.029  -6.942  -0.549  1.00  0.00    -0.507 OA
ATOM     25  H   UNL     1      19.208  -7.385  -0.933  1.00  0.00     0.293 HD
ENDBRANCH   6  24
BRANCH   8  26
ATOM     26  O   UNL     1      20.738  -2.819  -2.903  1.00  0.00    -0.508 OA
ATOM     27  H   UNL     1      19.956  -2.586  -3.506  1.00  0.00     0.293 HD
ENDBRANCH   8  26
TORSDOF 6
ENDMDL
MODEL 6
REMARK VINA RESULT:    -5.711      2.552      7.987
REMARK INTER + INTRA:          -7.053
REMARK INTER:                  -7.302
REMARK INTRA:                   0.249
REMARK UNBOUND:                -0.173
REMARK SMILES O=c1c(O)c(-c2ccc(O)c(O)c2)oc2cc(O)cc(O)c12
REMARK SMILES IDX 5 1 3 2 2 3 1 4 22 5 20 6 19 7 17 8 16 9 15 10 14 11 6 12
REMARK SMILES IDX 7 13 8 14 9 15 13 16 11 17 10 18 12 20 4 22 21 24 18 26
REMARK H PARENT 10 19 12 21 4 23 21 25 18 27
REMARK Flexibility Score: inf
ROOT
ATOM      1  C   UNL     1      21.417  -3.841  -0.340  1.00  0.00     0.180 A 
ATOM      2  C   UNL     1      22.440  -3.175  -1.039  1.00  0.00     0.208 A 
ATOM      3  C   UNL     1      22.779  -3.614  -2.329  1.00  0.00     0.238 A 
ATOM      4  O   UNL     1      23.643  -2.966  -2.978  1.00  0.00    -0.285 OA
ATOM      5  C   UNL     1      22.134  -4.746  -2.882  1.00  0.00     0.111 A 
ATOM      6  C   UNL     1      22.430  -5.306  -4.163  1.00  0.00     0.134 A 
ATOM      7  C   UNL     1      21.653  -6.363  -4.650  1.00  0.00     0.093 A 
ATOM      8  C   UNL     1      20.633  -6.924  -3.878  1.00  0.00     0.123 A 
ATOM      9  C   UNL     1      20.372  -6.421  -2.607  1.00  0.00     0.094 A 
ATOM     10  C   UNL     1      21.104  -5.342  -2.107  1.00  0.00     0.146 A 
ATOM     11  O   UNL     1      20.808  -4.880  -0.899  1.00  0.00    -0.452 OA
ENDROOT
BRANCH   1  12
ATOM     12  C   UNL     1      20.992  -3.429   1.016  1.00  0.00     0.025 A 
ATOM     13  C   UNL     1      21.010  -2.068   1.362  1.00  0.00     0.016 A 
ATOM     14  C   UNL     1      20.634  -1.658   2.643  1.00  0.00     0.051 A 
ATOM     15  C   UNL     1      20.248  -2.599   3.602  1.00  0.00     0.157 A 
ATOM     16  C   UNL     1      20.625  -4.375   1.989  1.00  0.00     0.062 A 
ATOM     17  C   UNL     1      20.248  -3.966   3.276  1.00  0.00     0.158 A 
BRANCH  15  18
ATOM     18  O   UNL     1      19.875  -2.160   4.872  1.00  0.00    -0.504 OA
ATOM     19  H   UNL     1      19.602  -2.804   5.605  1.00  0.00     0.293 HD
ENDBRANCH  15  18
BRANCH  17  20
ATOM     20  O   UNL     1      19.879  -4.911   4.232  1.00  0.00    -0.504 OA
ATOM     21  H   UNL     1      19.831  -5.899   4.011  1.00  0.00     0.293 HD
ENDBRANCH  17  20
ENDBRANCH   1  12
BRANCH   2  22
ATOM     22  O   UNL     1      23.117  -2.107  -0.445  1.00  0.00    -0.502 OA
ATOM     23  H   UNL     1      24.057  -1.843  -0.714  1.00  0.00     0.293 HD
ENDBRANCH   2  22
BRANCH   6  24
ATOM     24  O   UNL     1      23.484  -4.882  -4.978  1.00  0.00    -0.507 OA
ATOM     25  H   UNL     1      23.860  -3.945  -4.997  1.00  0.00     0.293 HD
ENDBRANCH   6  24
BRANCH   8  26
ATOM     26  O   UNL     1      19.875  -7.987  -4.365  1.00  0.00    -0.508 OA
ATOM     27  H   UNL     1      20.086  -8.424  -5.256  1.00  0.00     0.293 HD
ENDBRANCH   8  26
TORSDOF 6
ENDMDL
MODEL 7
REMARK VINA RESULT:    -5.650      3.610      5.460
REMARK INTER + INTRA:          -6.979
REMARK INTER:                  -7.026
REMARK INTRA:                   0.047
REMARK UNBOUND:                -0.173
REMARK SMILES O=c1c(O)c(-c2ccc(O)c(O)c2)oc2cc(O)cc(O)c12
REMARK SMILES IDX 5 1 3 2 2 3 1 4 22 5 20 6 19 7 17 8 16 9 15 10 14 11 6 12
REMARK SMILES IDX 7 13 8 14 9 15 13 16 11 17 10 18 12 20 4 22 21 24 18 26
REMARK H PARENT 10 19 12 21 4 23 21 25 18 27
REMARK Flexibility Score: inf
ROOT
ATOM      1  C   UNL     1      21.232  -4.804  -2.046  1.00  0.00     0.180 A 
ATOM      2  C   UNL     1      21.221  -6.168  -2.385  1.00  0.00     0.208 A 
ATOM      3  C   UNL     1      20.934  -7.114  -1.388  1.00  0.00     0.238 A 
ATOM      4  O   UNL     1      20.851  -8.328  -1.715  1.00  0.00    -0.285 OA
ATOM      5  C   UNL     1      20.718  -6.691  -0.054  1.00  0.00     0.111 A 
ATOM      6  C   UNL     1      20.462  -7.567   1.045  1.00  0.00     0.134 A 
ATOM      7  C   UNL     1      20.158  -7.028   2.301  1.00  0.00     0.093 A 
ATOM      8  C   UNL     1      20.163  -5.647   2.513  1.00  0.00     0.123 A 
ATOM      9  C   UNL     1      20.463  -4.787   1.460  1.00  0.00     0.094 A 
ATOM     10  C   UNL     1      20.733  -5.292   0.187  1.00  0.00     0.146 A 
ATOM     11  O   UNL     1      20.994  -4.435  -0.793  1.00  0.00    -0.452 OA
ENDROOT
BRANCH   1  12
ATOM     12  C   UNL     1      21.511  -3.747  -3.043  1.00  0.00     0.025 A 
ATOM     13  C   UNL     1      22.351  -2.675  -2.697  1.00  0.00     0.016 A 
ATOM     14  C   UNL     1      22.611  -1.655  -3.615  1.00  0.00     0.051 A 
ATOM     15  C   UNL     1      22.029  -1.681  -4.885  1.00  0.00     0.157 A 
ATOM     16  C   UNL     1      20.909  -3.759  -4.314  1.00  0.00     0.062 A 
ATOM     17  C   UNL     1      21.169  -2.735  -5.236  1.00  0.00     0.158 A 
BRANCH  15  18
ATOM     18  O   UNL     1      22.310  -0.650  -5.782  1.00  0.00    -0.504 OA
ATOM     19  H   UNL     1      22.373  -0.808  -6.780  1.00  0.00     0.293 HD
ENDBRANCH  15  18
BRANCH  17  20
ATOM     20  O   UNL     1      20.572  -2.759  -6.497  1.00  0.00    -0.504 OA
ATOM     21  H   UNL     1      21.077  -3.076  -7.316  1.00  0.00     0.293 HD
ENDBRANCH  17  20
ENDBRANCH   1  12
BRANCH   2  22
ATOM     22  O   UNL     1      21.512  -6.571  -3.691  1.00  0.00    -0.502 OA
ATOM     23  H   UNL     1      21.639  -5.911  -4.448  1.00  0.00     0.293 HD
ENDBRANCH   2  22
BRANCH   6  24
ATOM     24  O   UNL     1      20.521  -8.961   0.966  1.00  0.00    -0.507 OA
ATOM     25  H   UNL     1      19.733  -9.581   1.082  1.00  0.00     0.293 HD
ENDBRANCH   6  24
BRANCH   8  26
ATOM     26  O   UNL     1      19.875  -5.119   3.770  1.00  0.00    -0.508 OA
ATOM     27  H   UNL     1      19.372  -5.657   4.468  1.00  0.00     0.293 HD
ENDBRANCH   8  26
TORSDOF 6
ENDMDL
MODEL 8
REMARK VINA RESULT:    -5.452      3.276      8.415
REMARK INTER + INTRA:          -6.741
REMARK INTER:                  -6.801
REMARK INTRA:                   0.060
REMARK UNBOUND:                -0.173
REMARK SMILES O=c1c(O)c(-c2ccc(O)c(O)c2)oc2cc(O)cc(O)c12
REMARK SMILES IDX 5 1 3 2 2 3 1 4 22 5 20 6 19 7 17 8 16 9 15 10 14 11 6 12
REMARK SMILES IDX 7 13 8 14 9 15 13 16 11 17 10 18 12 20 4 22 21 24 18 26
REMARK H PARENT 10 19 12 21 4 23 21 25 18 27
REMARK Flexibility Score: inf
ROOT
ATOM      1  C   UNL     1      21.456  -4.525  -1.137  1.00  0.00     0.180 A 
ATOM      2  C   UNL     1      20.972  -3.923  -2.312  1.00  0.00     0.208 A 
ATOM      3  C   UNL     1      21.419  -4.399  -3.554  1.00  0.00     0.238 A 
ATOM      4  O   UNL     1      20.924  -3.906  -4.602  1.00  0.00    -0.285 OA
ATOM      5  C   UNL     1      22.386  -5.432  -3.608  1.00  0.00     0.111 A 
ATOM      6  C   UNL     1      22.943  -5.962  -4.812  1.00  0.00     0.134 A 
ATOM      7  C   UNL     1      23.814  -7.056  -4.746  1.00  0.00     0.093 A 
ATOM      8  C   UNL     1      24.199  -7.598  -3.517  1.00  0.00     0.123 A 
ATOM      9  C   UNL     1      23.703  -7.054  -2.336  1.00  0.00     0.094 A 
ATOM     10  C   UNL     1      22.802  -5.987  -2.370  1.00  0.00     0.146 A 
ATOM     11  O   UNL     1      22.338  -5.513  -1.220  1.00  0.00    -0.452 OA
ENDROOT
BRANCH   1  12
ATOM     12  C   UNL     1      21.021  -4.089   0.209  1.00  0.00     0.025 A 
ATOM     13  C   UNL     1      21.041  -2.722   0.532  1.00  0.00     0.016 A 
ATOM     14  C   UNL     1      20.656  -2.289   1.803  1.00  0.00     0.051 A 
ATOM     15  C   UNL     1      20.258  -3.213   2.774  1.00  0.00     0.157 A 
ATOM     16  C   UNL     1      20.642  -5.018   1.194  1.00  0.00     0.062 A 
ATOM     17  C   UNL     1      20.256  -4.585   2.471  1.00  0.00     0.158 A 
BRANCH  15  18
ATOM     18  O   UNL     1      19.876  -2.752   4.034  1.00  0.00    -0.504 OA
ATOM     19  H   UNL     1      19.738  -1.766   4.226  1.00  0.00     0.293 HD
ENDBRANCH  15  18
BRANCH  17  20
ATOM     20  O   UNL     1      19.875  -5.513   3.440  1.00  0.00    -0.504 OA
ATOM     21  H   UNL     1      19.847  -5.272   4.423  1.00  0.00     0.293 HD
ENDBRANCH  17  20
ENDBRANCH   1  12
BRANCH   2  22
ATOM     22  O   UNL     1      20.075  -2.854  -2.236  1.00  0.00    -0.502 OA
ATOM     23  H   UNL     1      19.535  -2.655  -1.403  1.00  0.00     0.293 HD
ENDBRANCH   2  22
BRANCH   6  24
ATOM     24  O   UNL     1      22.698  -5.439  -6.085  1.00  0.00    -0.507 OA
ATOM     25  H   UNL     1      22.018  -4.723  -6.296  1.00  0.00     0.293 HD
ENDBRANCH   6  24
BRANCH   8  26
ATOM     26  O   UNL     1      25.079  -8.677  -3.460  1.00  0.00    -0.508 OA
ATOM     27  H   UNL     1      24.912  -9.526  -3.989  1.00  0.00     0.293 HD
ENDBRANCH   8  26
TORSDOF 6
ENDMDL
