MODEL 1
REMARK VINA RESULT:    -4.208      0.000      0.000
REMARK INTER + INTRA:          -9.595
REMARK INTER:                  -8.143
REMARK INTRA:                  -1.451
REMARK UNBOUND:                -1.451
REMARK SMILES CCCCCCCCCCCCCCCCCC(=O)[O-]
REMARK SMILES IDX 10 1 11 2 12 3 13 4 14 5 15 6 16 7 17 8 18 9 19 10 20 11
REMARK SMILES IDX 9 12 8 13 7 14 6 15 5 16 4 17 3 18 2 19 1 20
REMARK H PARENT
REMARK Flexibility Score: inf
ROOT
ATOM      1  C   UNL     1     159.227 157.378 150.639  1.00  0.00     0.000 C 
ENDROOT
BRANCH   1   2
ATOM      2  C   UNL     1     160.353 158.093 149.876  1.00  0.00     0.000 C 
BRANCH   2   3
ATOM      3  C   UNL     1     161.497 158.546 150.802  1.00  0.00     0.000 C 
BRANCH   3   4
ATOM      4  C   UNL     1     162.534 159.415 150.072  1.00  0.00     0.000 C 
BRANCH   4   5
ATOM      5  C   UNL     1     163.571 160.025 151.031  1.00  0.00     0.000 C 
BRANCH   5   6
ATOM      6  C   UNL     1     164.409 158.958 151.752  1.00  0.00     0.000 C 
BRANCH   6   7
ATOM      7  C   UNL     1     165.680 159.540 152.389  1.00  0.00     0.006 C 
BRANCH   7   8
ATOM      8  C   UNL     1     166.549 158.433 152.994  1.00  0.00     0.053 C 
BRANCH   8   9
ATOM      9  C   UNL     1     166.550 158.527 154.487  1.00  0.00     0.041 C 
ATOM     10  O   UNL     1     166.302 159.625 155.053  1.00  0.00    -0.550 OA
ATOM     11  O   UNL     1     166.757 157.389 155.255  1.00  0.00    -0.550 OA
ENDBRANCH   8   9
ENDBRANCH   7   8
ENDBRANCH   6   7
ENDBRANCH   5   6
ENDBRANCH   4   5
ENDBRANCH   3   4
ENDBRANCH   2   3
ENDBRANCH   1   2
BRANCH   1  12
ATOM     12  C   UNL     1     158.137 158.347 151.126  1.00  0.00     0.000 C 
BRANCH  12  13
ATOM     13  C   UNL     1     156.775 157.657 151.312  1.00  0.00    -0.000 C 
BRANCH  13  14
ATOM     14  C   UNL     1     156.402 156.756 150.125  1.00  0.00    -0.000 C 
BRANCH  14  15
ATOM     15  C   UNL     1     156.279 155.289 150.567  1.00  0.00    -0.000 C 
BRANCH  15  16
ATOM     16  C   UNL     1     156.227 155.119 152.098  1.00  0.00    -0.000 C 
BRANCH  16  17
ATOM     17  C   UNL     1     157.405 154.328 152.703  1.00  0.00    -0.000 C 
BRANCH  17  18
ATOM     18  C   UNL     1     158.311 155.168 153.631  1.00  0.00    -0.000 C 
BRANCH  18  19
ATOM     19  C   UNL     1     159.800 154.792 153.540  1.00  0.00    -0.003 C 
ATOM     20  C   UNL     1     160.220 154.364 152.135  1.00  0.00     0.004 C 
ENDBRANCH  18  19
ENDBRANCH  17  18
ENDBRANCH  16  17
ENDBRANCH  15  16
ENDBRANCH  14  15
ENDBRANCH  13  14
ENDBRANCH  12  13
ENDBRANCH   1  12
TORSDOF 16
ENDMDL
MODEL 2
REMARK VINA RESULT:    -3.998      1.444      2.469
REMARK INTER + INTRA:          -9.190
REMARK INTER:                  -7.956
REMARK INTRA:                  -1.234
REMARK UNBOUND:                -1.451
REMARK SMILES CCCCCCCCCCCCCCCCCC(=O)[O-]
REMARK SMILES IDX 10 1 11 2 12 3 13 4 14 5 15 6 16 7 17 8 18 9 19 10 20 11
REMARK SMILES IDX 9 12 8 13 7 14 6 15 5 16 4 17 3 18 2 19 1 20
REMARK H PARENT
REMARK Flexibility Score: inf
ROOT
ATOM      1  C   UNL     1     157.052 157.929 151.002  1.00  0.00     0.000 C 
ENDROOT
BRANCH   1   2
ATOM      2  C   UNL     1     158.426 158.602 150.862  1.00  0.00     0.000 C 
BRANCH   2   3
ATOM      3  C   UNL     1     159.435 157.727 150.095  1.00  0.00     0.000 C 
BRANCH   3   4
ATOM      4  C   UNL     1     160.823 157.718 150.754  1.00  0.00     0.000 C 
BRANCH   4   5
ATOM      5  C   UNL     1     161.844 158.578 149.990  1.00  0.00     0.000 C 
BRANCH   5   6
ATOM      6  C   UNL     1     162.622 159.531 150.912  1.00  0.00     0.000 C 
BRANCH   6   7
ATOM      7  C   UNL     1     163.973 158.949 151.354  1.00  0.00     0.006 C 
BRANCH   7   8
ATOM      8  C   UNL     1     164.980 160.063 151.653  1.00  0.00     0.053 C 
BRANCH   8   9
ATOM      9  C   UNL     1     166.078 159.552 152.533  1.00  0.00     0.041 C 
ATOM     10  O   UNL     1     165.803 158.967 153.614  1.00  0.00    -0.550 OA
ATOM     11  O   UNL     1     167.401 159.662 152.127  1.00  0.00    -0.550 OA
ENDBRANCH   8   9
ENDBRANCH   7   8
ENDBRANCH   6   7
ENDBRANCH   5   6
ENDBRANCH   4   5
ENDBRANCH   3   4
ENDBRANCH   2   3
ENDBRANCH   1   2
BRANCH   1  12
ATOM     12  C   UNL     1     156.795 156.879 149.907  1.00  0.00     0.000 C 
BRANCH  12  13
ATOM     13  C   UNL     1     155.470 156.125 150.113  1.00  0.00    -0.000 C 
BRANCH  13  14
ATOM     14  C   UNL     1     155.278 155.654 151.563  1.00  0.00    -0.000 C 
BRANCH  14  15
ATOM     15  C   UNL     1     156.391 154.677 151.976  1.00  0.00    -0.000 C 
BRANCH  15  16
ATOM     16  C   UNL     1     156.599 153.533 150.964  1.00  0.00    -0.000 C 
BRANCH  16  17
ATOM     17  C   UNL     1     157.566 152.425 151.428  1.00  0.00    -0.000 C 
BRANCH  17  18
ATOM     18  C   UNL     1     158.859 152.331 150.588  1.00  0.00    -0.000 C 
BRANCH  18  19
ATOM     19  C   UNL     1     159.639 153.655 150.511  1.00  0.00    -0.003 C 
ATOM     20  C   UNL     1     160.086 154.161 151.882  1.00  0.00     0.004 C 
ENDBRANCH  18  19
ENDBRANCH  17  18
ENDBRANCH  16  17
ENDBRANCH  15  16
ENDBRANCH  14  15
ENDBRANCH  13  14
ENDBRANCH  12  13
ENDBRANCH   1  12
TORSDOF 16
ENDMDL
MODEL 3
REMARK VINA RESULT:    -3.962     10.868     13.579
REMARK INTER + INTRA:          -9.120
REMARK INTER:                  -6.703
REMARK INTRA:                  -2.416
REMARK UNBOUND:                -1.451
REMARK SMILES CCCCCCCCCCCCCCCCCC(=O)[O-]
REMARK SMILES IDX 10 1 11 2 12 3 13 4 14 5 15 6 16 7 17 8 18 9 19 10 20 11
REMARK SMILES IDX 9 12 8 13 7 14 6 15 5 16 4 17 3 18 2 19 1 20
REMARK H PARENT
REMARK Flexibility Score: inf
ROOT
ATOM      1  C   UNL     1     165.806 152.444 163.232  1.00  0.00     0.000 C 
ENDROOT
BRANCH   1   2
ATOM      2  C   UNL     1     165.924 153.964 163.037  1.00  0.00     0.000 C 
BRANCH   2   3
ATOM      3  C   UNL     1     166.865 154.619 164.066  1.00  0.00     0.000 C 
BRANCH   3   4
ATOM      4  C   UNL     1     166.203 155.795 164.800  1.00  0.00     0.000 C 
BRANCH   4   5
ATOM      5  C   UNL     1     164.667 155.734 164.747  1.00  0.00     0.000 C 
BRANCH   5   6
ATOM      6  C   UNL     1     164.027 155.714 166.144  1.00  0.00     0.000 C 
BRANCH   6   7
ATOM      7  C   UNL     1     162.632 156.357 166.161  1.00  0.00     0.006 C 
BRANCH   7   8
ATOM      8  C   UNL     1     162.704 157.816 166.621  1.00  0.00     0.053 C 
BRANCH   8   9
ATOM      9  C   UNL     1     162.485 158.739 165.463  1.00  0.00     0.041 C 
ATOM     10  O   UNL     1     161.358 159.272 165.282  1.00  0.00    -0.550 OA
ATOM     11  O   UNL     1     163.543 159.065 164.624  1.00  0.00    -0.550 OA
ENDBRANCH   8   9
ENDBRANCH   7   8
ENDBRANCH   6   7
ENDBRANCH   5   6
ENDBRANCH   4   5
ENDBRANCH   3   4
ENDBRANCH   2   3
ENDBRANCH   1   2
BRANCH   1  12
ATOM     12  C   UNL     1     165.263 152.068 164.622  1.00  0.00     0.000 C 
BRANCH  12  13
ATOM     13  C   UNL     1     164.230 150.931 164.563  1.00  0.00    -0.000 C 
BRANCH  13  14
ATOM     14  C   UNL     1     163.276 151.061 163.367  1.00  0.00    -0.000 C 
BRANCH  14  15
ATOM     15  C   UNL     1     161.809 151.048 163.829  1.00  0.00    -0.000 C 
BRANCH  15  16
ATOM     16  C   UNL     1     161.065 152.362 163.518  1.00  0.00    -0.000 C 
BRANCH  16  17
ATOM     17  C   UNL     1     161.834 153.646 163.887  1.00  0.00    -0.000 C 
BRANCH  17  18
ATOM     18  C   UNL     1     161.694 154.780 162.846  1.00  0.00    -0.000 C 
BRANCH  18  19
ATOM     19  C   UNL     1     162.601 154.600 161.617  1.00  0.00    -0.003 C 
ATOM     20  C   UNL     1     161.819 154.526 160.307  1.00  0.00     0.004 C 
ENDBRANCH  18  19
ENDBRANCH  17  18
ENDBRANCH  16  17
ENDBRANCH  15  16
ENDBRANCH  14  15
ENDBRANCH  13  14
ENDBRANCH  12  13
ENDBRANCH   1  12
TORSDOF 16
ENDMDL
MODEL 4
REMARK VINA RESULT:    -3.942      1.484      2.800
REMARK INTER + INTRA:          -9.080
REMARK INTER:                  -7.687
REMARK INTRA:                  -1.393
REMARK UNBOUND:                -1.451
REMARK SMILES CCCCCCCCCCCCCCCCCC(=O)[O-]
REMARK SMILES IDX 10 1 11 2 12 3 13 4 14 5 15 6 16 7 17 8 18 9 19 10 20 11
REMARK SMILES IDX 9 12 8 13 7 14 6 15 5 16 4 17 3 18 2 19 1 20
REMARK H PARENT
REMARK Flexibility Score: inf
ROOT
ATOM      1  C   UNL     1     156.914 157.875 151.262  1.00  0.00     0.000 C 
ENDROOT
BRANCH   1   2
ATOM      2  C   UNL     1     158.172 158.633 150.812  1.00  0.00     0.000 C 
BRANCH   2   3
ATOM      3  C   UNL     1     159.106 157.766 149.949  1.00  0.00     0.000 C 
BRANCH   3   4
ATOM      4  C   UNL     1     160.498 157.596 150.578  1.00  0.00     0.000 C 
BRANCH   4   5
ATOM      5  C   UNL     1     161.570 158.445 149.875  1.00  0.00     0.000 C 
BRANCH   5   6
ATOM      6  C   UNL     1     162.375 159.311 150.857  1.00  0.00     0.000 C 
BRANCH   6   7
ATOM      7  C   UNL     1     163.840 158.865 150.971  1.00  0.00     0.006 C 
BRANCH   7   8
ATOM      8  C   UNL     1     164.705 159.967 151.590  1.00  0.00     0.053 C 
BRANCH   8   9
ATOM      9  C   UNL     1     165.727 159.374 152.509  1.00  0.00     0.041 C 
ATOM     10  O   UNL     1     165.463 158.329 153.161  1.00  0.00    -0.550 OA
ATOM     11  O   UNL     1     166.993 159.936 152.595  1.00  0.00    -0.550 OA
ENDBRANCH   8   9
ENDBRANCH   7   8
ENDBRANCH   6   7
ENDBRANCH   5   6
ENDBRANCH   4   5
ENDBRANCH   3   4
ENDBRANCH   2   3
ENDBRANCH   1   2
BRANCH   1  12
ATOM     12  C   UNL     1     156.454 156.831 150.230  1.00  0.00     0.000 C 
BRANCH  12  13
ATOM     13  C   UNL     1     156.297 155.428 150.841  1.00  0.00    -0.000 C 
BRANCH  13  14
ATOM     14  C   UNL     1     157.454 155.061 151.783  1.00  0.00    -0.000 C 
BRANCH  14  15
ATOM     15  C   UNL     1     158.533 154.255 151.042  1.00  0.00    -0.000 C 
BRANCH  15  16
ATOM     16  C   UNL     1     159.872 154.192 151.802  1.00  0.00    -0.000 C 
BRANCH  16  17
ATOM     17  C   UNL     1     159.882 153.251 153.023  1.00  0.00    -0.000 C 
BRANCH  17  18
ATOM     18  C   UNL     1     161.166 153.347 153.877  1.00  0.00    -0.000 C 
BRANCH  18  19
ATOM     19  C   UNL     1     161.344 154.710 154.567  1.00  0.00    -0.003 C 
ATOM     20  C   UNL     1     162.031 154.603 155.927  1.00  0.00     0.004 C 
ENDBRANCH  18  19
ENDBRANCH  17  18
ENDBRANCH  16  17
ENDBRANCH  15  16
ENDBRANCH  14  15
ENDBRANCH  13  14
ENDBRANCH  12  13
ENDBRANCH   1  12
TORSDOF 16
ENDMDL
MODEL 5
REMARK VINA RESULT:    -3.895     13.226     15.582
REMARK INTER + INTRA:          -8.989
REMARK INTER:                  -8.114
REMARK INTRA:                  -0.876
REMARK UNBOUND:                -1.451
REMARK SMILES CCCCCCCCCCCCCCCCCC(=O)[O-]
REMARK SMILES IDX 10 1 11 2 12 3 13 4 14 5 15 6 16 7 17 8 18 9 19 10 20 11
REMARK SMILES IDX 9 12 8 13 7 14 6 15 5 16 4 17 3 18 2 19 1 20
REMARK H PARENT
REMARK Flexibility Score: inf
ROOT
ATOM      1  C   UNL     1     158.163 159.269 164.141  1.00  0.00     0.000 C 
ENDROOT
BRANCH   1   2
ATOM      2  C   UNL     1     156.966 160.124 163.699  1.00  0.00     0.000 C 
BRANCH   2   3
ATOM      3  C   UNL     1     155.638 159.345 163.735  1.00  0.00     0.000 C 
BRANCH   3   4
ATOM      4  C   UNL     1     154.631 159.947 164.726  1.00  0.00     0.000 C 
BRANCH   4   5
ATOM      5  C   UNL     1     153.484 158.978 165.063  1.00  0.00     0.000 C 
BRANCH   5   6
ATOM      6  C   UNL     1     152.136 159.433 164.482  1.00  0.00     0.000 C 
BRANCH   6   7
ATOM      7  C   UNL     1     151.491 158.366 163.586  1.00  0.00     0.006 C 
BRANCH   7   8
ATOM      8  C   UNL     1     152.557 157.524 162.877  1.00  0.00     0.053 C 
BRANCH   8   9
ATOM      9  C   UNL     1     152.257 156.066 163.031  1.00  0.00     0.041 C 
ATOM     10  O   UNL     1     152.069 155.574 164.175  1.00  0.00    -0.550 OA
ATOM     11  O   UNL     1     152.118 155.264 161.906  1.00  0.00    -0.550 OA
ENDBRANCH   8   9
ENDBRANCH   7   8
ENDBRANCH   6   7
ENDBRANCH   5   6
ENDBRANCH   4   5
ENDBRANCH   3   4
ENDBRANCH   2   3
ENDBRANCH   1   2
BRANCH   1  12
ATOM     12  C   UNL     1     158.874 159.845 165.378  1.00  0.00     0.000 C 
BRANCH  12  13
ATOM     13  C   UNL     1     160.403 159.699 165.300  1.00  0.00    -0.000 C 
BRANCH  13  14
ATOM     14  C   UNL     1     160.839 158.335 164.745  1.00  0.00    -0.000 C 
BRANCH  14  15
ATOM     15  C   UNL     1     162.334 158.088 165.004  1.00  0.00    -0.000 C 
BRANCH  15  16
ATOM     16  C   UNL     1     162.625 157.572 166.428  1.00  0.00    -0.000 C 
BRANCH  16  17
ATOM     17  C   UNL     1     163.195 156.141 166.495  1.00  0.00    -0.000 C 
BRANCH  17  18
ATOM     18  C   UNL     1     163.584 155.557 165.118  1.00  0.00    -0.000 C 
BRANCH  18  19
ATOM     19  C   UNL     1     164.821 154.643 165.167  1.00  0.00    -0.003 C 
ATOM     20  C   UNL     1     166.082 155.321 164.634  1.00  0.00     0.004 C 
ENDBRANCH  18  19
ENDBRANCH  17  18
ENDBRANCH  16  17
ENDBRANCH  15  16
ENDBRANCH  14  15
ENDBRANCH  13  14
ENDBRANCH  12  13
ENDBRANCH   1  12
TORSDOF 16
ENDMDL
MODEL 6
REMARK VINA RESULT:    -3.865     10.747     13.346
REMARK INTER + INTRA:          -8.931
REMARK INTER:                  -5.763
REMARK INTRA:                  -3.168
REMARK UNBOUND:                -1.451
REMARK SMILES CCCCCCCCCCCCCCCCCC(=O)[O-]
REMARK SMILES IDX 10 1 11 2 12 3 13 4 14 5 15 6 16 7 17 8 18 9 19 10 20 11
REMARK SMILES IDX 9 12 8 13 7 14 6 15 5 16 4 17 3 18 2 19 1 20
REMARK H PARENT
REMARK Flexibility Score: inf
ROOT
ATOM      1  C   UNL     1     163.630 149.971 163.302  1.00  0.00     0.000 C 
ENDROOT
BRANCH   1   2
ATOM      2  C   UNL     1     164.956 150.703 163.557  1.00  0.00     0.000 C 
BRANCH   2   3
ATOM      3  C   UNL     1     165.160 151.054 165.043  1.00  0.00     0.000 C 
BRANCH   3   4
ATOM      4  C   UNL     1     165.499 152.538 165.254  1.00  0.00     0.000 C 
BRANCH   4   5
ATOM      5  C   UNL     1     165.796 153.268 163.933  1.00  0.00     0.000 C 
BRANCH   5   6
ATOM      6  C   UNL     1     165.339 154.735 163.953  1.00  0.00     0.000 C 
BRANCH   6   7
ATOM      7  C   UNL     1     164.580 155.098 165.238  1.00  0.00     0.006 C 
BRANCH   7   8
ATOM      8  C   UNL     1     164.051 156.534 165.179  1.00  0.00     0.053 C 
BRANCH   8   9
ATOM      9  C   UNL     1     162.836 156.679 166.040  1.00  0.00     0.041 C 
ATOM     10  O   UNL     1     161.956 155.778 166.052  1.00  0.00    -0.550 OA
ATOM     11  O   UNL     1     162.707 157.776 166.881  1.00  0.00    -0.550 OA
ENDBRANCH   8   9
ENDBRANCH   7   8
ENDBRANCH   6   7
ENDBRANCH   5   6
ENDBRANCH   4   5
ENDBRANCH   3   4
ENDBRANCH   2   3
ENDBRANCH   1   2
BRANCH   1  12
ATOM     12  C   UNL     1     162.471 150.540 164.140  1.00  0.00     0.000 C 
BRANCH  12  13
ATOM     13  C   UNL     1     161.651 151.592 163.375  1.00  0.00    -0.000 C 
BRANCH  13  14
ATOM     14  C   UNL     1     161.971 153.027 163.818  1.00  0.00    -0.000 C 
BRANCH  14  15
ATOM     15  C   UNL     1     161.195 154.050 162.972  1.00  0.00    -0.000 C 
BRANCH  15  16
ATOM     16  C   UNL     1     162.106 155.091 162.293  1.00  0.00    -0.000 C 
BRANCH  16  17
ATOM     17  C   UNL     1     162.288 154.902 160.774  1.00  0.00    -0.000 C 
BRANCH  17  18
ATOM     18  C   UNL     1     163.707 154.446 160.365  1.00  0.00    -0.000 C 
BRANCH  18  19
ATOM     19  C   UNL     1     164.036 153.007 160.795  1.00  0.00    -0.003 C 
ATOM     20  C   UNL     1     163.391 151.955 159.894  1.00  0.00     0.004 C 
ENDBRANCH  18  19
ENDBRANCH  17  18
ENDBRANCH  16  17
ENDBRANCH  15  16
ENDBRANCH  14  15
ENDBRANCH  13  14
ENDBRANCH  12  13
ENDBRANCH   1  12
TORSDOF 16
ENDMDL
MODEL 7
REMARK VINA RESULT:    -3.864      1.422      2.219
REMARK INTER + INTRA:          -8.930
REMARK INTER:                  -7.512
REMARK INTRA:                  -1.418
REMARK UNBOUND:                -1.451
REMARK SMILES CCCCCCCCCCCCCCCCCC(=O)[O-]
REMARK SMILES IDX 10 1 11 2 12 3 13 4 14 5 15 6 16 7 17 8 18 9 19 10 20 11
REMARK SMILES IDX 9 12 8 13 7 14 6 15 5 16 4 17 3 18 2 19 1 20
REMARK H PARENT
REMARK Flexibility Score: inf
ROOT
ATOM      1  C   UNL     1     158.366 157.370 151.681  1.00  0.00     0.000 C 
ENDROOT
BRANCH   1   2
ATOM      2  C   UNL     1     158.993 156.415 150.654  1.00  0.00     0.000 C 
BRANCH   2   3
ATOM      3  C   UNL     1     160.152 157.065 149.876  1.00  0.00     0.000 C 
BRANCH   3   4
ATOM      4  C   UNL     1     160.586 158.408 150.483  1.00  0.00     0.000 C 
BRANCH   4   5
ATOM      5  C   UNL     1     162.098 158.656 150.346  1.00  0.00     0.000 C 
BRANCH   5   6
ATOM      6  C   UNL     1     162.695 159.361 151.574  1.00  0.00     0.000 C 
BRANCH   6   7
ATOM      7  C   UNL     1     164.165 159.755 151.369  1.00  0.00     0.006 C 
BRANCH   7   8
ATOM      8  C   UNL     1     165.101 158.803 152.120  1.00  0.00     0.053 C 
BRANCH   8   9
ATOM      9  C   UNL     1     166.273 159.551 152.673  1.00  0.00     0.041 C 
ATOM     10  O   UNL     1     166.280 159.917 153.878  1.00  0.00    -0.550 OA
ATOM     11  O   UNL     1     167.386 159.784 151.877  1.00  0.00    -0.550 OA
ENDBRANCH   8   9
ENDBRANCH   7   8
ENDBRANCH   6   7
ENDBRANCH   5   6
ENDBRANCH   4   5
ENDBRANCH   3   4
ENDBRANCH   2   3
ENDBRANCH   1   2
BRANCH   1  12
ATOM     12  C   UNL     1     156.926 157.769 151.314  1.00  0.00     0.000 C 
BRANCH  12  13
ATOM     13  C   UNL     1     156.280 156.792 150.317  1.00  0.00    -0.000 C 
BRANCH  13  14
ATOM     14  C   UNL     1     155.245 155.870 150.980  1.00  0.00    -0.000 C 
BRANCH  14  15
ATOM     15  C   UNL     1     155.725 154.409 150.969  1.00  0.00    -0.000 C 
BRANCH  15  16
ATOM     16  C   UNL     1     156.101 153.884 152.368  1.00  0.00    -0.000 C 
BRANCH  16  17
ATOM     17  C   UNL     1     157.615 153.849 152.662  1.00  0.00    -0.000 C 
BRANCH  17  18
ATOM     18  C   UNL     1     158.010 154.533 153.990  1.00  0.00    -0.000 C 
BRANCH  18  19
ATOM     19  C   UNL     1     157.987 153.584 155.200  1.00  0.00    -0.003 C 
ATOM     20  C   UNL     1     157.544 154.275 156.490  1.00  0.00     0.004 C 
ENDBRANCH  18  19
ENDBRANCH  17  18
ENDBRANCH  16  17
ENDBRANCH  15  16
ENDBRANCH  14  15
ENDBRANCH  13  14
ENDBRANCH  12  13
ENDBRANCH   1  12
TORSDOF 16
ENDMDL
MODEL 8
REMARK VINA RESULT:    -3.861     11.223     14.075
REMARK INTER + INTRA:          -8.924
REMARK INTER:                  -6.372
REMARK INTRA:                  -2.552
REMARK UNBOUND:                -1.451
REMARK SMILES CCCCCCCCCCCCCCCCCC(=O)[O-]
REMARK SMILES IDX 10 1 11 2 12 3 13 4 14 5 15 6 16 7 17 8 18 9 19 10 20 11
REMARK SMILES IDX 9 12 8 13 7 14 6 15 5 16 4 17 3 18 2 19 1 20
REMARK H PARENT
REMARK Flexibility Score: inf
ROOT
ATOM      1  C   UNL     1     165.783 153.333 162.507  1.00  0.00     0.000 C 
ENDROOT
BRANCH   1   2
ATOM      2  C   UNL     1     164.832 153.729 161.368  1.00  0.00     0.000 C 
BRANCH   2   3
ATOM      3  C   UNL     1     163.351 153.524 161.738  1.00  0.00     0.000 C 
BRANCH   3   4
ATOM      4  C   UNL     1     162.529 154.815 161.602  1.00  0.00     0.000 C 
BRANCH   4   5
ATOM      5  C   UNL     1     161.987 155.314 162.952  1.00  0.00     0.000 C 
BRANCH   5   6
ATOM      6  C   UNL     1     161.654 154.164 163.916  1.00  0.00     0.000 C 
BRANCH   6   7
ATOM      7  C   UNL     1     160.233 153.617 163.712  1.00  0.00     0.006 C 
BRANCH   7   8
ATOM      8  C   UNL     1     160.242 152.090 163.600  1.00  0.00     0.053 C 
BRANCH   8   9
ATOM      9  C   UNL     1     159.221 151.634 162.606  1.00  0.00     0.041 C 
ATOM     10  O   UNL     1     158.993 150.405 162.449  1.00  0.00    -0.550 OA
ATOM     11  O   UNL     1     158.473 152.567 161.901  1.00  0.00    -0.550 OA
ENDBRANCH   8   9
ENDBRANCH   7   8
ENDBRANCH   6   7
ENDBRANCH   5   6
ENDBRANCH   4   5
ENDBRANCH   3   4
ENDBRANCH   2   3
ENDBRANCH   1   2
BRANCH   1  12
ATOM     12  C   UNL     1     165.035 152.811 163.746  1.00  0.00     0.000 C 
BRANCH  12  13
ATOM     13  C   UNL     1     165.143 153.766 164.946  1.00  0.00    -0.000 C 
BRANCH  13  14
ATOM     14  C   UNL     1     165.790 155.109 164.576  1.00  0.00    -0.000 C 
BRANCH  14  15
ATOM     15  C   UNL     1     164.869 156.284 164.945  1.00  0.00    -0.000 C 
BRANCH  15  16
ATOM     16  C   UNL     1     163.907 155.958 166.104  1.00  0.00    -0.000 C 
BRANCH  16  17
ATOM     17  C   UNL     1     162.674 156.878 166.201  1.00  0.00    -0.000 C 
BRANCH  17  18
ATOM     18  C   UNL     1     162.807 158.190 165.397  1.00  0.00    -0.000 C 
BRANCH  18  19
ATOM     19  C   UNL     1     161.515 159.025 165.364  1.00  0.00    -0.003 C 
ATOM     20  C   UNL     1     160.393 158.352 164.574  1.00  0.00     0.004 C 
ENDBRANCH  18  19
ENDBRANCH  17  18
ENDBRANCH  16  17
ENDBRANCH  15  16
ENDBRANCH  14  15
ENDBRANCH  13  14
ENDBRANCH  12  13
ENDBRANCH   1  12
TORSDOF 16
ENDMDL
MODEL 9
REMARK VINA RESULT:    -3.835      5.257      7.341
REMARK INTER + INTRA:          -8.873
REMARK INTER:                  -6.243
REMARK INTRA:                  -2.630
REMARK UNBOUND:                -1.451
REMARK SMILES CCCCCCCCCCCCCCCCCC(=O)[O-]
REMARK SMILES IDX 10 1 11 2 12 3 13 4 14 5 15 6 16 7 17 8 18 9 19 10 20 11
REMARK SMILES IDX 9 12 8 13 7 14 6 15 5 16 4 17 3 18 2 19 1 20
REMARK H PARENT
REMARK Flexibility Score: inf
ROOT
ATOM      1  C   UNL     1     159.805 156.018 151.700  1.00  0.00     0.000 C 
ENDROOT
BRANCH   1   2
ATOM      2  C   UNL     1     160.292 156.936 150.567  1.00  0.00     0.000 C 
BRANCH   2   3
ATOM      3  C   UNL     1     159.147 157.749 149.935  1.00  0.00     0.000 C 
BRANCH   3   4
ATOM      4  C   UNL     1     158.440 158.656 150.954  1.00  0.00     0.000 C 
BRANCH   4   5
ATOM      5  C   UNL     1     156.925 158.395 151.023  1.00  0.00     0.000 C 
BRANCH   5   6
ATOM      6  C   UNL     1     156.522 157.074 150.350  1.00  0.00     0.000 C 
BRANCH   6   7
ATOM      7  C   UNL     1     156.230 155.960 151.367  1.00  0.00     0.006 C 
BRANCH   7   8
ATOM      8  C   UNL     1     154.831 155.374 151.155  1.00  0.00     0.053 C 
BRANCH   8   9
ATOM      9  C   UNL     1     154.924 153.936 150.751  1.00  0.00     0.041 C 
ATOM     10  O   UNL     1     155.803 153.563 149.929  1.00  0.00    -0.550 OA
ATOM     11  O   UNL     1     154.085 152.995 151.333  1.00  0.00    -0.550 OA
ENDBRANCH   8   9
ENDBRANCH   7   8
ENDBRANCH   6   7
ENDBRANCH   5   6
ENDBRANCH   4   5
ENDBRANCH   3   4
ENDBRANCH   2   3
ENDBRANCH   1   2
BRANCH   1  12
ATOM     12  C   UNL     1     159.701 154.546 151.263  1.00  0.00     0.000 C 
BRANCH  12  13
ATOM     13  C   UNL     1     160.495 153.602 152.181  1.00  0.00    -0.000 C 
BRANCH  13  14
ATOM     14  C   UNL     1     159.790 152.253 152.392  1.00  0.00    -0.000 C 
BRANCH  14  15
ATOM     15  C   UNL     1     158.287 152.364 152.086  1.00  0.00    -0.000 C 
BRANCH  15  16
ATOM     16  C   UNL     1     157.395 151.939 153.269  1.00  0.00    -0.000 C 
BRANCH  16  17
ATOM     17  C   UNL     1     156.614 153.087 153.938  1.00  0.00    -0.000 C 
BRANCH  17  18
ATOM     18  C   UNL     1     157.495 154.291 154.342  1.00  0.00    -0.000 C 
BRANCH  18  19
ATOM     19  C   UNL     1     158.040 154.197 155.778  1.00  0.00    -0.003 C 
ATOM     20  C   UNL     1     159.508 153.777 155.830  1.00  0.00     0.004 C 
ENDBRANCH  18  19
ENDBRANCH  17  18
ENDBRANCH  16  17
ENDBRANCH  15  16
ENDBRANCH  14  15
ENDBRANCH  13  14
ENDBRANCH  12  13
ENDBRANCH   1  12
TORSDOF 16
ENDMDL
