MODEL 1
REMARK VINA RESULT:    -5.950      0.000      0.000
REMARK INTER + INTRA:          -7.309
REMARK INTER:                  -6.994
REMARK INTRA:                  -0.315
REMARK UNBOUND:                -0.315
REMARK SMILES O=c1cc(-c2ccc(O)c(O)c2)oc2cc(O)cc(O)c12
REMARK SMILES IDX 4 1 3 2 2 3 1 4 21 5 19 6 18 7 16 8 15 9 14 10 13 11 5 12
REMARK SMILES IDX 6 13 7 14 8 15 12 16 10 17 9 18 11 20 20 22 17 24
REMARK H PARENT 9 19 11 21 20 23 17 25
REMARK Flexibility Score: inf
ROOT
ATOM      1  C   UNL     1      46.188  16.504  -4.166  1.00  0.00     0.138 A 
ATOM      2  C   UNL     1      45.856  17.540  -5.055  1.00  0.00     0.100 A 
ATOM      3  C   UNL     1      44.598  18.139  -4.974  1.00  0.00     0.197 A 
ATOM      4  O   UNL     1      44.310  19.066  -5.777  1.00  0.00    -0.289 OA
ATOM      5  C   UNL     1      43.678  17.694  -4.004  1.00  0.00     0.107 A 
ATOM      6  C   UNL     1      42.383  18.246  -3.854  1.00  0.00     0.134 A 
ATOM      7  C   UNL     1      41.524  17.743  -2.866  1.00  0.00     0.093 A 
ATOM      8  C   UNL     1      41.931  16.702  -2.030  1.00  0.00     0.123 A 
ATOM      9  C   UNL     1      43.209  16.151  -2.174  1.00  0.00     0.094 A 
ATOM     10  C   UNL     1      44.081  16.639  -3.151  1.00  0.00     0.146 A 
ATOM     11  O   UNL     1      45.291  16.101  -3.268  1.00  0.00    -0.456 OA
ENDROOT
BRANCH   1  12
ATOM     12  C   UNL     1      47.510  15.830  -4.206  1.00  0.00     0.021 A 
ATOM     13  C   UNL     1      48.609  16.396  -4.881  1.00  0.00     0.016 A 
ATOM     14  C   UNL     1      49.845  15.744  -4.893  1.00  0.00     0.051 A 
ATOM     15  C   UNL     1      50.009  14.525  -4.231  1.00  0.00     0.157 A 
ATOM     16  C   UNL     1      47.686  14.610  -3.530  1.00  0.00     0.062 A 
ATOM     17  C   UNL     1      48.925  13.954  -3.544  1.00  0.00     0.158 A 
BRANCH  15  18
ATOM     18  O   UNL     1      51.254  13.898  -4.264  1.00  0.00    -0.504 OA
ATOM     19  H   UNL     1      52.081  14.364  -4.619  1.00  0.00     0.293 HD
ENDBRANCH  15  18
BRANCH  17  20
ATOM     20  O   UNL     1      49.084  12.740  -2.878  1.00  0.00    -0.504 OA
ATOM     21  H   UNL     1      48.902  11.854  -3.337  1.00  0.00     0.293 HD
ENDBRANCH  17  20
ENDBRANCH   1  12
BRANCH   6  22
ATOM     22  O   UNL     1      41.948  19.288  -4.675  1.00  0.00    -0.507 OA
ATOM     23  H   UNL     1      41.696  19.131  -5.644  1.00  0.00     0.293 HD
ENDBRANCH   6  22
BRANCH   8  24
ATOM     24  O   UNL     1      41.057  16.220  -1.057  1.00  0.00    -0.508 OA
ATOM     25  H   UNL     1      40.058  16.383  -1.116  1.00  0.00     0.293 HD
ENDBRANCH   8  24
TORSDOF 5
ENDMDL
MODEL 2
REMARK VINA RESULT:    -5.873      1.340      7.260
REMARK INTER + INTRA:          -7.218
REMARK INTER:                  -6.924
REMARK INTRA:                  -0.294
REMARK UNBOUND:                -0.315
REMARK SMILES O=c1cc(-c2ccc(O)c(O)c2)oc2cc(O)cc(O)c12
REMARK SMILES IDX 4 1 3 2 2 3 1 4 21 5 19 6 18 7 16 8 15 9 14 10 13 11 5 12
REMARK SMILES IDX 6 13 7 14 8 15 12 16 10 17 9 18 11 20 20 22 17 24
REMARK H PARENT 9 19 11 21 20 23 17 25
REMARK Flexibility Score: inf
ROOT
ATOM      1  C   UNL     1      45.560  15.951  -3.313  1.00  0.00     0.138 A 
ATOM      2  C   UNL     1      45.844  14.725  -2.687  1.00  0.00     0.100 A 
ATOM      3  C   UNL     1      47.098  14.140  -2.860  1.00  0.00     0.197 A 
ATOM      4  O   UNL     1      47.342  13.039  -2.296  1.00  0.00    -0.289 OA
ATOM      5  C   UNL     1      48.061  14.783  -3.663  1.00  0.00     0.107 A 
ATOM      6  C   UNL     1      49.356  14.259  -3.890  1.00  0.00     0.134 A 
ATOM      7  C   UNL     1      50.255  14.958  -4.708  1.00  0.00     0.093 A 
ATOM      8  C   UNL     1      49.887  16.167  -5.301  1.00  0.00     0.123 A 
ATOM      9  C   UNL     1      48.608  16.691  -5.081  1.00  0.00     0.094 A 
ATOM     10  C   UNL     1      47.698  16.009  -4.269  1.00  0.00     0.146 A 
ATOM     11  O   UNL     1      46.489  16.527  -4.073  1.00  0.00    -0.456 OA
ENDROOT
BRANCH   1  12
ATOM     12  C   UNL     1      44.243  16.620  -3.165  1.00  0.00     0.021 A 
ATOM     13  C   UNL     1      43.883  17.727  -3.957  1.00  0.00     0.016 A 
ATOM     14  C   UNL     1      42.632  18.331  -3.805  1.00  0.00     0.051 A 
ATOM     15  C   UNL     1      41.718  17.839  -2.869  1.00  0.00     0.157 A 
ATOM     16  C   UNL     1      43.313  16.121  -2.236  1.00  0.00     0.062 A 
ATOM     17  C   UNL     1      42.058  16.728  -2.080  1.00  0.00     0.158 A 
BRANCH  15  18
ATOM     18  O   UNL     1      40.478  18.465  -2.739  1.00  0.00    -0.504 OA
ATOM     19  H   UNL     1      40.370  19.346  -2.250  1.00  0.00     0.293 HD
ENDBRANCH  15  18
BRANCH  17  20
ATOM     20  O   UNL     1      41.150  16.230  -1.148  1.00  0.00    -0.504 OA
ATOM     21  H   UNL     1      41.023  15.234  -1.009  1.00  0.00     0.293 HD
ENDBRANCH  17  20
ENDBRANCH   1  12
BRANCH   6  22
ATOM     22  O   UNL     1      49.753  13.052  -3.311  1.00  0.00    -0.507 OA
ATOM     23  H   UNL     1      50.720  12.871  -3.068  1.00  0.00     0.293 HD
ENDBRANCH   6  22
BRANCH   8  24
ATOM     24  O   UNL     1      50.800  16.842  -6.110  1.00  0.00    -0.508 OA
ATOM     25  H   UNL     1      51.409  17.560  -5.735  1.00  0.00     0.293 HD
ENDBRANCH   8  24
TORSDOF 5
ENDMDL
MODEL 3
REMARK VINA RESULT:    -5.864      1.645      6.798
REMARK INTER + INTRA:          -7.208
REMARK INTER:                  -6.893
REMARK INTRA:                  -0.314
REMARK UNBOUND:                -0.315
REMARK SMILES O=c1cc(-c2ccc(O)c(O)c2)oc2cc(O)cc(O)c12
REMARK SMILES IDX 4 1 3 2 2 3 1 4 21 5 19 6 18 7 16 8 15 9 14 10 13 11 5 12
REMARK SMILES IDX 6 13 7 14 8 15 12 16 10 17 9 18 11 20 20 22 17 24
REMARK H PARENT 9 19 11 21 20 23 17 25
REMARK Flexibility Score: inf
ROOT
ATOM      1  C   UNL     1      45.049  16.332  -3.226  1.00  0.00     0.138 A 
ATOM      2  C   UNL     1      45.826  16.908  -4.244  1.00  0.00     0.100 A 
ATOM      3  C   UNL     1      47.048  16.328  -4.587  1.00  0.00     0.197 A 
ATOM      4  O   UNL     1      47.739  16.854  -5.501  1.00  0.00    -0.289 OA
ATOM      5  C   UNL     1      47.487  15.176  -3.905  1.00  0.00     0.107 A 
ATOM      6  C   UNL     1      48.711  14.525  -4.190  1.00  0.00     0.134 A 
ATOM      7  C   UNL     1      49.078  13.385  -3.461  1.00  0.00     0.093 A 
ATOM      8  C   UNL     1      48.249  12.885  -2.455  1.00  0.00     0.123 A 
ATOM      9  C   UNL     1      47.037  13.523  -2.168  1.00  0.00     0.094 A 
ATOM     10  C   UNL     1      46.653  14.660  -2.884  1.00  0.00     0.146 A 
ATOM     11  O   UNL     1      45.497  15.249  -2.594  1.00  0.00    -0.456 OA
ENDROOT
BRANCH   1  12
ATOM     12  C   UNL     1      43.742  16.906  -2.818  1.00  0.00     0.021 A 
ATOM     13  C   UNL     1      43.364  18.214  -3.177  1.00  0.00     0.016 A 
ATOM     14  C   UNL     1      42.122  18.725  -2.789  1.00  0.00     0.051 A 
ATOM     15  C   UNL     1      41.236  17.942  -2.044  1.00  0.00     0.157 A 
ATOM     16  C   UNL     1      42.839  16.119  -2.081  1.00  0.00     0.062 A 
ATOM     17  C   UNL     1      41.594  16.631  -1.689  1.00  0.00     0.158 A 
BRANCH  15  18
ATOM     18  O   UNL     1      40.005  18.481  -1.670  1.00  0.00    -0.504 OA
ATOM     19  H   UNL     1      39.483  18.128  -0.877  1.00  0.00     0.293 HD
ENDBRANCH  15  18
BRANCH  17  20
ATOM     20  O   UNL     1      40.713  15.844  -0.950  1.00  0.00    -0.504 OA
ATOM     21  H   UNL     1      39.854  15.486  -1.353  1.00  0.00     0.293 HD
ENDBRANCH  17  20
ENDBRANCH   1  12
BRANCH   6  22
ATOM     22  O   UNL     1      49.561  15.003  -5.189  1.00  0.00    -0.507 OA
ATOM     23  H   UNL     1      50.212  14.394  -5.669  1.00  0.00     0.293 HD
ENDBRANCH   6  22
BRANCH   8  24
ATOM     24  O   UNL     1      48.638  11.750  -1.745  1.00  0.00    -0.508 OA
ATOM     25  H   UNL     1      49.571  11.661  -1.359  1.00  0.00     0.293 HD
ENDBRANCH   8  24
TORSDOF 5
ENDMDL
MODEL 4
REMARK VINA RESULT:    -5.293      1.279      2.131
REMARK INTER + INTRA:          -6.537
REMARK INTER:                  -6.246
REMARK INTRA:                  -0.291
REMARK UNBOUND:                -0.315
REMARK SMILES O=c1cc(-c2ccc(O)c(O)c2)oc2cc(O)cc(O)c12
REMARK SMILES IDX 4 1 3 2 2 3 1 4 21 5 19 6 18 7 16 8 15 9 14 10 13 11 5 12
REMARK SMILES IDX 6 13 7 14 8 15 12 16 10 17 9 18 11 20 20 22 17 24
REMARK H PARENT 9 19 11 21 20 23 17 25
REMARK Flexibility Score: inf
ROOT
ATOM      1  C   UNL     1      45.644  15.673  -3.414  1.00  0.00     0.138 A 
ATOM      2  C   UNL     1      45.909  16.569  -4.463  1.00  0.00     0.100 A 
ATOM      3  C   UNL     1      45.007  17.601  -4.729  1.00  0.00     0.197 A 
ATOM      4  O   UNL     1      45.253  18.399  -5.673  1.00  0.00    -0.289 OA
ATOM      5  C   UNL     1      43.843  17.726  -3.945  1.00  0.00     0.107 A 
ATOM      6  C   UNL     1      42.879  18.742  -4.147  1.00  0.00     0.134 A 
ATOM      7  C   UNL     1      41.743  18.795  -3.326  1.00  0.00     0.093 A 
ATOM      8  C   UNL     1      41.552  17.854  -2.312  1.00  0.00     0.123 A 
ATOM      9  C   UNL     1      42.502  16.847  -2.107  1.00  0.00     0.094 A 
ATOM     10  C   UNL     1      43.641  16.778  -2.913  1.00  0.00     0.146 A 
ATOM     11  O   UNL     1      44.530  15.813  -2.699  1.00  0.00    -0.456 OA
ENDROOT
BRANCH   1  12
ATOM     12  C   UNL     1      46.566  14.556  -3.086  1.00  0.00     0.021 A 
ATOM     13  C   UNL     1      46.132  13.425  -2.369  1.00  0.00     0.016 A 
ATOM     14  C   UNL     1      47.019  12.383  -2.083  1.00  0.00     0.051 A 
ATOM     15  C   UNL     1      48.347  12.448  -2.512  1.00  0.00     0.157 A 
ATOM     16  C   UNL     1      47.900  14.608  -3.527  1.00  0.00     0.062 A 
ATOM     17  C   UNL     1      48.792  13.564  -3.239  1.00  0.00     0.158 A 
BRANCH  15  18
ATOM     18  O   UNL     1      49.209  11.393  -2.210  1.00  0.00    -0.504 OA
ATOM     19  H   UNL     1      49.623  11.285  -1.291  1.00  0.00     0.293 HD
ENDBRANCH  15  18
BRANCH  17  20
ATOM     20  O   UNL     1      50.115  13.632  -3.673  1.00  0.00    -0.504 OA
ATOM     21  H   UNL     1      50.392  13.294  -4.588  1.00  0.00     0.293 HD
ENDBRANCH  17  20
ENDBRANCH   1  12
BRANCH   6  22
ATOM     22  O   UNL     1      43.041  19.695  -5.154  1.00  0.00    -0.507 OA
ATOM     23  H   UNL     1      42.560  20.586  -5.125  1.00  0.00     0.293 HD
ENDBRANCH   6  22
BRANCH   8  24
ATOM     24  O   UNL     1      40.414  17.929  -1.511  1.00  0.00    -0.508 OA
ATOM     25  H   UNL     1      39.874  18.784  -1.437  1.00  0.00     0.293 HD
ENDBRANCH   8  24
TORSDOF 5
ENDMDL
MODEL 5
REMARK VINA RESULT:    -5.224      1.731      7.066
REMARK INTER + INTRA:          -6.455
REMARK INTER:                  -6.181
REMARK INTRA:                  -0.274
REMARK UNBOUND:                -0.315
REMARK SMILES O=c1cc(-c2ccc(O)c(O)c2)oc2cc(O)cc(O)c12
REMARK SMILES IDX 4 1 3 2 2 3 1 4 21 5 19 6 18 7 16 8 15 9 14 10 13 11 5 12
REMARK SMILES IDX 6 13 7 14 8 15 12 16 10 17 9 18 11 20 20 22 17 24
REMARK H PARENT 9 19 11 21 20 23 17 25
REMARK Flexibility Score: inf
ROOT
ATOM      1  C   UNL     1      45.275  15.914  -3.455  1.00  0.00     0.138 A 
ATOM      2  C   UNL     1      44.644  14.737  -3.019  1.00  0.00     0.100 A 
ATOM      3  C   UNL     1      45.397  13.573  -2.858  1.00  0.00     0.197 A 
ATOM      4  O   UNL     1      44.821  12.522  -2.467  1.00  0.00    -0.289 OA
ATOM      5  C   UNL     1      46.778  13.593  -3.139  1.00  0.00     0.107 A 
ATOM      6  C   UNL     1      47.613  12.460  -3.002  1.00  0.00     0.134 A 
ATOM      7  C   UNL     1      48.978  12.561  -3.308  1.00  0.00     0.093 A 
ATOM      8  C   UNL     1      49.522  13.770  -3.747  1.00  0.00     0.123 A 
ATOM      9  C   UNL     1      48.701  14.895  -3.886  1.00  0.00     0.094 A 
ATOM     10  C   UNL     1      47.339  14.814  -3.585  1.00  0.00     0.146 A 
ATOM     11  O   UNL     1      46.579  15.897  -3.722  1.00  0.00    -0.456 OA
ENDROOT
BRANCH   1  12
ATOM     12  C   UNL     1      44.525  17.181  -3.645  1.00  0.00     0.021 A 
ATOM     13  C   UNL     1      44.641  17.939  -4.826  1.00  0.00     0.016 A 
ATOM     14  C   UNL     1      43.914  19.123  -4.983  1.00  0.00     0.051 A 
ATOM     15  C   UNL     1      43.058  19.566  -3.972  1.00  0.00     0.157 A 
ATOM     16  C   UNL     1      43.650  17.626  -2.638  1.00  0.00     0.062 A 
ATOM     17  C   UNL     1      42.923  18.815  -2.793  1.00  0.00     0.158 A 
BRANCH  15  18
ATOM     18  O   UNL     1      42.348  20.753  -4.157  1.00  0.00    -0.504 OA
ATOM     19  H   UNL     1      42.667  21.635  -3.774  1.00  0.00     0.293 HD
ENDBRANCH  15  18
BRANCH  17  20
ATOM     20  O   UNL     1      42.067  19.249  -1.783  1.00  0.00    -0.504 OA
ATOM     21  H   UNL     1      41.192  18.775  -1.587  1.00  0.00     0.293 HD
ENDBRANCH  17  20
ENDBRANCH   1  12
BRANCH   6  22
ATOM     22  O   UNL     1      47.098  11.238  -2.566  1.00  0.00    -0.507 OA
ATOM     23  H   UNL     1      47.108  10.415  -3.156  1.00  0.00     0.293 HD
ENDBRANCH   6  22
BRANCH   8  24
ATOM     24  O   UNL     1      50.882  13.843  -4.045  1.00  0.00    -0.508 OA
ATOM     25  H   UNL     1      51.415  13.017  -4.290  1.00  0.00     0.293 HD
ENDBRANCH   8  24
TORSDOF 5
ENDMDL
MODEL 6
REMARK VINA RESULT:    -5.128      1.411      2.746
REMARK INTER + INTRA:          -6.342
REMARK INTER:                  -6.054
REMARK INTRA:                  -0.287
REMARK UNBOUND:                -0.315
REMARK SMILES O=c1cc(-c2ccc(O)c(O)c2)oc2cc(O)cc(O)c12
REMARK SMILES IDX 4 1 3 2 2 3 1 4 21 5 19 6 18 7 16 8 15 9 14 10 13 11 5 12
REMARK SMILES IDX 6 13 7 14 8 15 12 16 10 17 9 18 11 20 20 22 17 24
REMARK H PARENT 9 19 11 21 20 23 17 25
REMARK Flexibility Score: inf
ROOT
ATOM      1  C   UNL     1      46.294  16.041  -4.076  1.00  0.00     0.138 A 
ATOM      2  C   UNL     1      45.742  14.829  -3.628  1.00  0.00     0.100 A 
ATOM      3  C   UNL     1      44.410  14.793  -3.214  1.00  0.00     0.197 A 
ATOM      4  O   UNL     1      43.925  13.701  -2.812  1.00  0.00    -0.289 OA
ATOM      5  C   UNL     1      43.639  15.972  -3.245  1.00  0.00     0.107 A 
ATOM      6  C   UNL     1      42.283  16.022  -2.843  1.00  0.00     0.134 A 
ATOM      7  C   UNL     1      41.586  17.238  -2.900  1.00  0.00     0.093 A 
ATOM      8  C   UNL     1      42.216  18.400  -3.349  1.00  0.00     0.123 A 
ATOM      9  C   UNL     1      43.557  18.358  -3.747  1.00  0.00     0.094 A 
ATOM     10  C   UNL     1      44.269  17.156  -3.699  1.00  0.00     0.146 A 
ATOM     11  O   UNL     1      45.541  17.139  -4.084  1.00  0.00    -0.456 OA
ENDROOT
BRANCH   1  12
ATOM     12  C   UNL     1      47.704  16.140  -4.529  1.00  0.00     0.021 A 
ATOM     13  C   UNL     1      48.122  17.131  -5.438  1.00  0.00     0.016 A 
ATOM     14  C   UNL     1      49.459  17.208  -5.838  1.00  0.00     0.051 A 
ATOM     15  C   UNL     1      50.400  16.306  -5.336  1.00  0.00     0.157 A 
ATOM     16  C   UNL     1      48.660  15.245  -4.017  1.00  0.00     0.062 A 
ATOM     17  C   UNL     1      50.002  15.320  -4.419  1.00  0.00     0.158 A 
BRANCH  15  18
ATOM     18  O   UNL     1      51.727  16.407  -5.757  1.00  0.00    -0.504 OA
ATOM     19  H   UNL     1      52.020  16.118  -6.682  1.00  0.00     0.293 HD
ENDBRANCH  15  18
BRANCH  17  20
ATOM     20  O   UNL     1      50.937  14.420  -3.912  1.00  0.00    -0.504 OA
ATOM     21  H   UNL     1      51.868  14.718  -3.642  1.00  0.00     0.293 HD
ENDBRANCH  17  20
ENDBRANCH   1  12
BRANCH   6  22
ATOM     22  O   UNL     1      41.627  14.877  -2.390  1.00  0.00    -0.507 OA
ATOM     23  H   UNL     1      42.087  14.202  -1.791  1.00  0.00     0.293 HD
ENDBRANCH   6  22
BRANCH   8  24
ATOM     24  O   UNL     1      41.501  19.595  -3.395  1.00  0.00    -0.508 OA
ATOM     25  H   UNL     1      41.387  20.111  -4.260  1.00  0.00     0.293 HD
ENDBRANCH   8  24
TORSDOF 5
ENDMDL
MODEL 7
REMARK VINA RESULT:    -5.099      1.199      2.715
REMARK INTER + INTRA:          -6.308
REMARK INTER:                  -6.014
REMARK INTRA:                  -0.294
REMARK UNBOUND:                -0.315
REMARK SMILES O=c1cc(-c2ccc(O)c(O)c2)oc2cc(O)cc(O)c12
REMARK SMILES IDX 4 1 3 2 2 3 1 4 21 5 19 6 18 7 16 8 15 9 14 10 13 11 5 12
REMARK SMILES IDX 6 13 7 14 8 15 12 16 10 17 9 18 11 20 20 22 17 24
REMARK H PARENT 9 19 11 21 20 23 17 25
REMARK Flexibility Score: inf
ROOT
ATOM      1  C   UNL     1      46.027  16.294  -3.860  1.00  0.00     0.138 A 
ATOM      2  C   UNL     1      45.062  15.797  -2.969  1.00  0.00     0.100 A 
ATOM      3  C   UNL     1      43.821  16.429  -2.876  1.00  0.00     0.197 A 
ATOM      4  O   UNL     1      42.963  15.976  -2.073  1.00  0.00    -0.289 OA
ATOM      5  C   UNL     1      43.555  17.559  -3.675  1.00  0.00     0.107 A 
ATOM      6  C   UNL     1      42.326  18.258  -3.644  1.00  0.00     0.134 A 
ATOM      7  C   UNL     1      42.142  19.378  -4.467  1.00  0.00     0.093 A 
ATOM      8  C   UNL     1      43.161  19.813  -5.317  1.00  0.00     0.123 A 
ATOM      9  C   UNL     1      44.380  19.126  -5.353  1.00  0.00     0.094 A 
ATOM     10  C   UNL     1      44.582  18.007  -4.541  1.00  0.00     0.146 A 
ATOM     11  O   UNL     1      45.748  17.370  -4.593  1.00  0.00    -0.456 OA
ENDROOT
BRANCH   1  12
ATOM     12  C   UNL     1      47.364  15.664  -4.000  1.00  0.00     0.021 A 
ATOM     13  C   UNL     1      48.408  16.292  -4.705  1.00  0.00     0.016 A 
ATOM     14  C   UNL     1      49.660  15.680  -4.811  1.00  0.00     0.051 A 
ATOM     15  C   UNL     1      49.894  14.439  -4.213  1.00  0.00     0.157 A 
ATOM     16  C   UNL     1      47.611  14.421  -3.389  1.00  0.00     0.062 A 
ATOM     17  C   UNL     1      48.866  13.805  -3.497  1.00  0.00     0.158 A 
BRANCH  15  18
ATOM     18  O   UNL     1      51.154  13.853  -4.339  1.00  0.00    -0.504 OA
ATOM     19  H   UNL     1      51.922  14.326  -4.801  1.00  0.00     0.293 HD
ENDBRANCH  15  18
BRANCH  17  20
ATOM     20  O   UNL     1      49.095  12.570  -2.895  1.00  0.00    -0.504 OA
ATOM     21  H   UNL     1      48.368  11.865  -2.836  1.00  0.00     0.293 HD
ENDBRANCH  17  20
ENDBRANCH   1  12
BRANCH   6  22
ATOM     22  O   UNL     1      41.289  17.848  -2.804  1.00  0.00    -0.507 OA
ATOM     23  H   UNL     1      40.449  17.414  -3.168  1.00  0.00     0.293 HD
ENDBRANCH   6  22
BRANCH   8  24
ATOM     24  O   UNL     1      42.952  20.929  -6.125  1.00  0.00    -0.508 OA
ATOM     25  H   UNL     1      43.691  21.306  -6.708  1.00  0.00     0.293 HD
ENDBRANCH   8  24
TORSDOF 5
ENDMDL
MODEL 8
REMARK VINA RESULT:    -5.048      1.746      3.736
REMARK INTER + INTRA:          -6.248
REMARK INTER:                  -5.938
REMARK INTRA:                  -0.310
REMARK UNBOUND:                -0.315
REMARK SMILES O=c1cc(-c2ccc(O)c(O)c2)oc2cc(O)cc(O)c12
REMARK SMILES IDX 4 1 3 2 2 3 1 4 21 5 19 6 18 7 16 8 15 9 14 10 13 11 5 12
REMARK SMILES IDX 6 13 7 14 8 15 12 16 10 17 9 18 11 20 20 22 17 24
REMARK H PARENT 9 19 11 21 20 23 17 25
REMARK Flexibility Score: inf
ROOT
ATOM      1  C   UNL     1      47.942  14.916  -4.231  1.00  0.00     0.138 A 
ATOM      2  C   UNL     1      47.217  13.989  -3.463  1.00  0.00     0.100 A 
ATOM      3  C   UNL     1      45.894  14.268  -3.119  1.00  0.00     0.197 A 
ATOM      4  O   UNL     1      45.252  13.431  -2.429  1.00  0.00    -0.289 OA
ATOM      5  C   UNL     1      45.305  15.476  -3.542  1.00  0.00     0.107 A 
ATOM      6  C   UNL     1      43.971  15.837  -3.237  1.00  0.00     0.134 A 
ATOM      7  C   UNL     1      43.461  17.062  -3.691  1.00  0.00     0.093 A 
ATOM      8  C   UNL     1      44.256  17.931  -4.441  1.00  0.00     0.123 A 
ATOM      9  C   UNL     1      45.577  17.581  -4.745  1.00  0.00     0.094 A 
ATOM     10  C   UNL     1      46.103  16.364  -4.303  1.00  0.00     0.146 A 
ATOM     11  O   UNL     1      47.360  16.053  -4.606  1.00  0.00    -0.456 OA
ENDROOT
BRANCH   1  12
ATOM     12  C   UNL     1      49.352  14.673  -4.626  1.00  0.00     0.021 A 
ATOM     13  C   UNL     1      49.873  13.370  -4.746  1.00  0.00     0.016 A 
ATOM     14  C   UNL     1      51.202  13.171  -5.130  1.00  0.00     0.051 A 
ATOM     15  C   UNL     1      52.030  14.262  -5.407  1.00  0.00     0.157 A 
ATOM     16  C   UNL     1      50.187  15.766  -4.920  1.00  0.00     0.062 A 
ATOM     17  C   UNL     1      51.521  15.567  -5.304  1.00  0.00     0.158 A 
BRANCH  15  18
ATOM     18  O   UNL     1      53.352  14.030  -5.786  1.00  0.00    -0.504 OA
ATOM     19  H   UNL     1      53.985  14.787  -6.018  1.00  0.00     0.293 HD
ENDBRANCH  15  18
BRANCH  17  20
ATOM     20  O   UNL     1      52.341  16.659  -5.583  1.00  0.00    -0.504 OA
ATOM     21  H   UNL     1      52.580  16.914  -6.535  1.00  0.00     0.293 HD
ENDBRANCH  17  20
ENDBRANCH   1  12
BRANCH   6  22
ATOM     22  O   UNL     1      43.152  14.989  -2.489  1.00  0.00    -0.507 OA
ATOM     23  H   UNL     1      42.799  14.119  -2.869  1.00  0.00     0.293 HD
ENDBRANCH   6  22
BRANCH   8  24
ATOM     24  O   UNL     1      43.725  19.143  -4.879  1.00  0.00    -0.508 OA
ATOM     25  H   UNL     1      44.308  19.851  -5.311  1.00  0.00     0.293 HD
ENDBRANCH   8  24
TORSDOF 5
ENDMDL
MODEL 9
REMARK VINA RESULT:    -5.027      1.616      2.673
REMARK INTER + INTRA:          -6.224
REMARK INTER:                  -5.936
REMARK INTRA:                  -0.288
REMARK UNBOUND:                -0.315
REMARK SMILES O=c1cc(-c2ccc(O)c(O)c2)oc2cc(O)cc(O)c12
REMARK SMILES IDX 4 1 3 2 2 3 1 4 21 5 19 6 18 7 16 8 15 9 14 10 13 11 5 12
REMARK SMILES IDX 6 13 7 14 8 15 12 16 10 17 9 18 11 20 20 22 17 24
REMARK H PARENT 9 19 11 21 20 23 17 25
REMARK Flexibility Score: inf
ROOT
ATOM      1  C   UNL     1      45.645  15.017  -3.347  1.00  0.00     0.138 A 
ATOM      2  C   UNL     1      44.733  13.949  -3.347  1.00  0.00     0.100 A 
ATOM      3  C   UNL     1      43.380  14.201  -3.117  1.00  0.00     0.197 A 
ATOM      4  O   UNL     1      42.569  13.235  -3.118  1.00  0.00    -0.289 OA
ATOM      5  C   UNL     1      42.948  15.522  -2.883  1.00  0.00     0.107 A 
ATOM      6  C   UNL     1      41.597  15.864  -2.642  1.00  0.00     0.134 A 
ATOM      7  C   UNL     1      41.249  17.204  -2.413  1.00  0.00     0.093 A 
ATOM      8  C   UNL     1      42.224  18.203  -2.419  1.00  0.00     0.123 A 
ATOM      9  C   UNL     1      43.562  17.872  -2.656  1.00  0.00     0.094 A 
ATOM     10  C   UNL     1      43.928  16.543  -2.888  1.00  0.00     0.146 A 
ATOM     11  O   UNL     1      45.206  16.252  -3.113  1.00  0.00    -0.456 OA
ENDROOT
BRANCH   1  12
ATOM     12  C   UNL     1      47.096  14.809  -3.585  1.00  0.00     0.021 A 
ATOM     13  C   UNL     1      47.918  15.837  -4.085  1.00  0.00     0.016 A 
ATOM     14  C   UNL     1      49.283  15.616  -4.289  1.00  0.00     0.051 A 
ATOM     15  C   UNL     1      49.851  14.374  -3.993  1.00  0.00     0.157 A 
ATOM     16  C   UNL     1      47.677  13.566  -3.276  1.00  0.00     0.062 A 
ATOM     17  C   UNL     1      49.046  13.343  -3.483  1.00  0.00     0.158 A 
BRANCH  15  18
ATOM     18  O   UNL     1      51.216  14.185  -4.210  1.00  0.00    -0.504 OA
ATOM     19  H   UNL     1      51.637  13.263  -4.210  1.00  0.00     0.293 HD
ENDBRANCH  15  18
BRANCH  17  20
ATOM     20  O   UNL     1      49.607  12.104  -3.182  1.00  0.00    -0.504 OA
ATOM     21  H   UNL     1      49.387  11.275  -3.723  1.00  0.00     0.293 HD
ENDBRANCH  17  20
ENDBRANCH   1  12
BRANCH   6  22
ATOM     22  O   UNL     1      40.600  14.886  -2.629  1.00  0.00    -0.507 OA
ATOM     23  H   UNL     1      39.814  14.937  -1.992  1.00  0.00     0.293 HD
ENDBRANCH   6  22
BRANCH   8  24
ATOM     24  O   UNL     1      41.852  19.527  -2.188  1.00  0.00    -0.508 OA
ATOM     25  H   UNL     1      42.454  20.165  -1.680  1.00  0.00     0.293 HD
ENDBRANCH   8  24
TORSDOF 5
ENDMDL
