MODEL 1
REMARK VINA RESULT:    -4.963      0.000      0.000
REMARK INTER + INTRA:         -12.359
REMARK INTER:                  -9.606
REMARK INTRA:                  -2.753
REMARK UNBOUND:                -2.753
REMARK SMILES CCCCCCCCCCCCCCCCCC(=O)[O-]
REMARK SMILES IDX 10 1 11 2 12 3 13 4 14 5 15 6 16 7 17 8 18 9 19 10 20 11
REMARK SMILES IDX 9 12 8 13 7 14 6 15 5 16 4 17 3 18 2 19 1 20
REMARK H PARENT
REMARK Flexibility Score: inf
ROOT
ATOM      1  C   UNL     1      20.099  53.288  15.253  1.00  0.00     0.000 C 
ENDROOT
BRANCH   1   2
ATOM      2  C   UNL     1      19.577  53.800  13.897  1.00  0.00     0.000 C 
BRANCH   2   3
ATOM      3  C   UNL     1      18.748  55.097  13.959  1.00  0.00     0.000 C 
BRANCH   3   4
ATOM      4  C   UNL     1      17.635  55.145  12.898  1.00  0.00     0.000 C 
BRANCH   4   5
ATOM      5  C   UNL     1      16.249  54.822  13.483  1.00  0.00     0.000 C 
BRANCH   5   6
ATOM      6  C   UNL     1      16.260  54.722  15.016  1.00  0.00     0.000 C 
BRANCH   6   7
ATOM      7  C   UNL     1      14.831  54.599  15.567  1.00  0.00     0.006 C 
BRANCH   7   8
ATOM      8  C   UNL     1      14.058  55.922  15.479  1.00  0.00     0.053 C 
BRANCH   8   9
ATOM      9  C   UNL     1      14.472  56.881  16.553  1.00  0.00     0.041 C 
ATOM     10  O   UNL     1      14.250  56.611  17.763  1.00  0.00    -0.550 OA
ATOM     11  O   UNL     1      15.071  58.088  16.216  1.00  0.00    -0.550 OA
ENDBRANCH   8   9
ENDBRANCH   7   8
ENDBRANCH   6   7
ENDBRANCH   5   6
ENDBRANCH   4   5
ENDBRANCH   3   4
ENDBRANCH   2   3
ENDBRANCH   1   2
BRANCH   1  12
ATOM     12  C   UNL     1      19.145  52.280  15.918  1.00  0.00     0.000 C 
BRANCH  12  13
ATOM     13  C   UNL     1      19.225  52.319  17.453  1.00  0.00    -0.000 C 
BRANCH  13  14
ATOM     14  C   UNL     1      18.152  53.230  18.074  1.00  0.00    -0.000 C 
BRANCH  14  15
ATOM     15  C   UNL     1      18.690  54.629  18.422  1.00  0.00    -0.000 C 
BRANCH  15  16
ATOM     16  C   UNL     1      17.755  55.757  17.950  1.00  0.00    -0.000 C 
BRANCH  16  17
ATOM     17  C   UNL     1      18.510  56.885  17.229  1.00  0.00    -0.000 C 
BRANCH  17  18
ATOM     18  C   UNL     1      19.995  56.949  17.619  1.00  0.00    -0.000 C 
BRANCH  18  19
ATOM     19  C   UNL     1      20.891  56.883  16.377  1.00  0.00    -0.003 C 
ATOM     20  C   UNL     1      22.135  56.039  16.638  1.00  0.00     0.004 C 
ENDBRANCH  18  19
ENDBRANCH  17  18
ENDBRANCH  16  17
ENDBRANCH  15  16
ENDBRANCH  14  15
ENDBRANCH  13  14
ENDBRANCH  12  13
ENDBRANCH   1  12
TORSDOF 16
ENDMDL
MODEL 2
REMARK VINA RESULT:    -4.923      3.077      5.704
REMARK INTER + INTRA:         -12.280
REMARK INTER:                  -9.535
REMARK INTRA:                  -2.745
REMARK UNBOUND:                -2.753
REMARK SMILES CCCCCCCCCCCCCCCCCC(=O)[O-]
REMARK SMILES IDX 10 1 11 2 12 3 13 4 14 5 15 6 16 7 17 8 18 9 19 10 20 11
REMARK SMILES IDX 9 12 8 13 7 14 6 15 5 16 4 17 3 18 2 19 1 20
REMARK H PARENT
REMARK Flexibility Score: inf
ROOT
ATOM      1  C   UNL     1      19.586  53.847  13.910  1.00  0.00     0.000 C 
ENDROOT
BRANCH   1   2
ATOM      2  C   UNL     1      19.888  52.960  15.132  1.00  0.00     0.000 C 
BRANCH   2   3
ATOM      3  C   UNL     1      18.771  52.895  16.191  1.00  0.00     0.000 C 
BRANCH   3   4
ATOM      4  C   UNL     1      19.237  53.356  17.581  1.00  0.00     0.000 C 
BRANCH   4   5
ATOM      5  C   UNL     1      20.426  54.331  17.511  1.00  0.00     0.000 C 
BRANCH   5   6
ATOM      6  C   UNL     1      20.016  55.788  17.775  1.00  0.00     0.000 C 
BRANCH   6   7
ATOM      7  C   UNL     1      20.903  56.759  16.983  1.00  0.00     0.006 C 
BRANCH   7   8
ATOM      8  C   UNL     1      21.790  56.034  15.961  1.00  0.00     0.053 C 
BRANCH   8   9
ATOM      9  C   UNL     1      23.236  56.392  16.126  1.00  0.00     0.041 C 
ATOM     10  O   UNL     1      23.896  55.931  17.095  1.00  0.00    -0.550 OA
ATOM     11  O   UNL     1      23.845  57.259  15.228  1.00  0.00    -0.550 OA
ENDBRANCH   8   9
ENDBRANCH   7   8
ENDBRANCH   6   7
ENDBRANCH   5   6
ENDBRANCH   4   5
ENDBRANCH   3   4
ENDBRANCH   2   3
ENDBRANCH   1   2
BRANCH   1  12
ATOM     12  C   UNL     1      18.581  54.972  14.220  1.00  0.00     0.000 C 
BRANCH  12  13
ATOM     13  C   UNL     1      17.602  55.221  13.061  1.00  0.00    -0.000 C 
BRANCH  13  14
ATOM     14  C   UNL     1      16.159  54.818  13.416  1.00  0.00    -0.000 C 
BRANCH  14  15
ATOM     15  C   UNL     1      15.946  54.650  14.929  1.00  0.00    -0.000 C 
BRANCH  15  16
ATOM     16  C   UNL     1      14.823  55.552  15.472  1.00  0.00    -0.000 C 
BRANCH  16  17
ATOM     17  C   UNL     1      15.351  56.654  16.405  1.00  0.00    -0.000 C 
BRANCH  17  18
ATOM     18  C   UNL     1      16.560  56.199  17.237  1.00  0.00    -0.000 C 
BRANCH  18  19
ATOM     19  C   UNL     1      16.202  56.122  18.725  1.00  0.00    -0.003 C 
ATOM     20  C   UNL     1      16.227  54.681  19.226  1.00  0.00     0.004 C 
ENDBRANCH  18  19
ENDBRANCH  17  18
ENDBRANCH  16  17
ENDBRANCH  15  16
ENDBRANCH  14  15
ENDBRANCH  13  14
ENDBRANCH  12  13
ENDBRANCH   1  12
TORSDOF 16
ENDMDL
MODEL 3
REMARK VINA RESULT:    -4.837      2.731      5.690
REMARK INTER + INTRA:         -12.114
REMARK INTER:                  -9.519
REMARK INTRA:                  -2.596
REMARK UNBOUND:                -2.753
REMARK SMILES CCCCCCCCCCCCCCCCCC(=O)[O-]
REMARK SMILES IDX 10 1 11 2 12 3 13 4 14 5 15 6 16 7 17 8 18 9 19 10 20 11
REMARK SMILES IDX 9 12 8 13 7 14 6 15 5 16 4 17 3 18 2 19 1 20
REMARK H PARENT
REMARK Flexibility Score: inf
ROOT
ATOM      1  C   UNL     1      19.483  52.722  15.152  1.00  0.00     0.000 C 
ENDROOT
BRANCH   1   2
ATOM      2  C   UNL     1      18.533  52.903  16.350  1.00  0.00     0.000 C 
BRANCH   2   3
ATOM      3  C   UNL     1      19.114  53.692  17.538  1.00  0.00     0.000 C 
BRANCH   3   4
ATOM      4  C   UNL     1      18.146  54.757  18.079  1.00  0.00     0.000 C 
BRANCH   4   5
ATOM      5  C   UNL     1      18.735  56.177  18.015  1.00  0.00     0.000 C 
BRANCH   5   6
ATOM      6  C   UNL     1      18.729  56.759  16.593  1.00  0.00     0.000 C 
BRANCH   6   7
ATOM      7  C   UNL     1      20.159  57.044  16.112  1.00  0.00     0.006 C 
BRANCH   7   8
ATOM      8  C   UNL     1      21.213  56.647  17.154  1.00  0.00     0.053 C 
BRANCH   8   9
ATOM      9  C   UNL     1      22.354  55.899  16.534  1.00  0.00     0.041 C 
ATOM     10  O   UNL     1      22.369  54.639  16.552  1.00  0.00    -0.550 OA
ATOM     11  O   UNL     1      23.416  56.592  15.968  1.00  0.00    -0.550 OA
ENDBRANCH   8   9
ENDBRANCH   7   8
ENDBRANCH   6   7
ENDBRANCH   5   6
ENDBRANCH   4   5
ENDBRANCH   3   4
ENDBRANCH   2   3
ENDBRANCH   1   2
BRANCH   1  12
ATOM     12  C   UNL     1      19.702  54.023  14.359  1.00  0.00     0.000 C 
BRANCH  12  13
ATOM     13  C   UNL     1      18.735  54.158  13.171  1.00  0.00    -0.000 C 
BRANCH  13  14
ATOM     14  C   UNL     1      17.736  55.313  13.356  1.00  0.00    -0.000 C 
BRANCH  14  15
ATOM     15  C   UNL     1      16.327  54.824  13.732  1.00  0.00    -0.000 C 
BRANCH  15  16
ATOM     16  C   UNL     1      15.997  55.055  15.217  1.00  0.00    -0.000 C 
BRANCH  16  17
ATOM     17  C   UNL     1      14.484  55.052  15.492  1.00  0.00    -0.000 C 
BRANCH  17  18
ATOM     18  C   UNL     1      13.876  56.463  15.485  1.00  0.00    -0.000 C 
BRANCH  18  19
ATOM     19  C   UNL     1      14.629  57.388  16.447  1.00  0.00    -0.003 C 
ATOM     20  C   UNL     1      14.392  56.984  17.900  1.00  0.00     0.004 C 
ENDBRANCH  18  19
ENDBRANCH  17  18
ENDBRANCH  16  17
ENDBRANCH  15  16
ENDBRANCH  14  15
ENDBRANCH  13  14
ENDBRANCH  12  13
ENDBRANCH   1  12
TORSDOF 16
ENDMDL
MODEL 4
REMARK VINA RESULT:    -4.821      1.446      2.383
REMARK INTER + INTRA:         -12.084
REMARK INTER:                  -9.483
REMARK INTRA:                  -2.601
REMARK UNBOUND:                -2.753
REMARK SMILES CCCCCCCCCCCCCCCCCC(=O)[O-]
REMARK SMILES IDX 10 1 11 2 12 3 13 4 14 5 15 6 16 7 17 8 18 9 19 10 20 11
REMARK SMILES IDX 9 12 8 13 7 14 6 15 5 16 4 17 3 18 2 19 1 20
REMARK H PARENT
REMARK Flexibility Score: inf
ROOT
ATOM      1  C   UNL     1      19.289  54.106  13.633  1.00  0.00     0.000 C 
ENDROOT
BRANCH   1   2
ATOM      2  C   UNL     1      18.327  55.217  14.094  1.00  0.00     0.000 C 
BRANCH   2   3
ATOM      3  C   UNL     1      16.828  54.892  13.947  1.00  0.00     0.000 C 
BRANCH   3   4
ATOM      4  C   UNL     1      16.084  54.885  15.293  1.00  0.00     0.000 C 
BRANCH   4   5
ATOM      5  C   UNL     1      14.623  55.350  15.161  1.00  0.00     0.000 C 
BRANCH   5   6
ATOM      6  C   UNL     1      14.317  56.595  16.007  1.00  0.00     0.000 C 
BRANCH   6   7
ATOM      7  C   UNL     1      15.421  56.835  17.048  1.00  0.00     0.006 C 
BRANCH   7   8
ATOM      8  C   UNL     1      14.943  56.549  18.478  1.00  0.00     0.053 C 
BRANCH   8   9
ATOM      9  C   UNL     1      15.247  55.143  18.896  1.00  0.00     0.041 C 
ATOM     10  O   UNL     1      16.227  54.904  19.650  1.00  0.00    -0.550 OA
ATOM     11  O   UNL     1      14.468  54.093  18.426  1.00  0.00    -0.550 OA
ENDBRANCH   8   9
ENDBRANCH   7   8
ENDBRANCH   6   7
ENDBRANCH   5   6
ENDBRANCH   4   5
ENDBRANCH   3   4
ENDBRANCH   2   3
ENDBRANCH   1   2
BRANCH   1  12
ATOM     12  C   UNL     1      19.987  53.394  14.806  1.00  0.00     0.000 C 
BRANCH  12  13
ATOM     13  C   UNL     1      19.006  52.580  15.667  1.00  0.00    -0.000 C 
BRANCH  13  14
ATOM     14  C   UNL     1      19.535  52.343  17.092  1.00  0.00    -0.000 C 
BRANCH  14  15
ATOM     15  C   UNL     1      20.345  53.534  17.630  1.00  0.00    -0.000 C 
BRANCH  15  16
ATOM     16  C   UNL     1      19.482  54.521  18.436  1.00  0.00    -0.000 C 
BRANCH  16  17
ATOM     17  C   UNL     1      19.061  55.747  17.608  1.00  0.00    -0.000 C 
BRANCH  17  18
ATOM     18  C   UNL     1      20.150  56.830  17.555  1.00  0.00    -0.000 C 
BRANCH  18  19
ATOM     19  C   UNL     1      20.745  56.940  16.146  1.00  0.00    -0.003 C 
ATOM     20  C   UNL     1      22.115  56.272  16.073  1.00  0.00     0.004 C 
ENDBRANCH  18  19
ENDBRANCH  17  18
ENDBRANCH  16  17
ENDBRANCH  15  16
ENDBRANCH  14  15
ENDBRANCH  13  14
ENDBRANCH  12  13
ENDBRANCH   1  12
TORSDOF 16
ENDMDL
MODEL 5
REMARK VINA RESULT:    -4.803      3.516      5.636
REMARK INTER + INTRA:         -12.048
REMARK INTER:                  -8.964
REMARK INTRA:                  -3.084
REMARK UNBOUND:                -2.753
REMARK SMILES CCCCCCCCCCCCCCCCCC(=O)[O-]
REMARK SMILES IDX 10 1 11 2 12 3 13 4 14 5 15 6 16 7 17 8 18 9 19 10 20 11
REMARK SMILES IDX 9 12 8 13 7 14 6 15 5 16 4 17 3 18 2 19 1 20
REMARK H PARENT
REMARK Flexibility Score: inf
ROOT
ATOM      1  C   UNL     1      19.520  53.826  14.004  1.00  0.00     0.000 C 
ENDROOT
BRANCH   1   2
ATOM      2  C   UNL     1      18.176  54.556  14.186  1.00  0.00     0.000 C 
BRANCH   2   3
ATOM      3  C   UNL     1      18.277  56.001  14.709  1.00  0.00     0.000 C 
BRANCH   3   4
ATOM      4  C   UNL     1      17.864  56.133  16.185  1.00  0.00     0.000 C 
BRANCH   4   5
ATOM      5  C   UNL     1      19.063  56.403  17.110  1.00  0.00     0.000 C 
BRANCH   5   6
ATOM      6  C   UNL     1      20.342  56.759  16.338  1.00  0.00     0.000 C 
BRANCH   6   7
ATOM      7  C   UNL     1      21.592  56.372  17.141  1.00  0.00     0.006 C 
BRANCH   7   8
ATOM      8  C   UNL     1      22.569  55.518  16.322  1.00  0.00     0.053 C 
BRANCH   8   9
ATOM      9  C   UNL     1      23.968  56.050  16.391  1.00  0.00     0.041 C 
ATOM     10  O   UNL     1      24.806  55.531  17.175  1.00  0.00    -0.550 OA
ATOM     11  O   UNL     1      24.337  57.141  15.613  1.00  0.00    -0.550 OA
ENDBRANCH   8   9
ENDBRANCH   7   8
ENDBRANCH   6   7
ENDBRANCH   5   6
ENDBRANCH   4   5
ENDBRANCH   3   4
ENDBRANCH   2   3
ENDBRANCH   1   2
BRANCH   1  12
ATOM     12  C   UNL     1      20.002  53.132  15.290  1.00  0.00     0.000 C 
BRANCH  12  13
ATOM     13  C   UNL     1      18.934  52.208  15.897  1.00  0.00    -0.000 C 
BRANCH  13  14
ATOM     14  C   UNL     1      19.174  51.936  17.392  1.00  0.00    -0.000 C 
BRANCH  14  15
ATOM     15  C   UNL     1      20.047  53.012  18.058  1.00  0.00    -0.000 C 
BRANCH  15  16
ATOM     16  C   UNL     1      19.541  53.402  19.458  1.00  0.00    -0.000 C 
BRANCH  16  17
ATOM     17  C   UNL     1      18.072  53.009  19.684  1.00  0.00    -0.000 C 
BRANCH  17  18
ATOM     18  C   UNL     1      17.093  54.134  19.315  1.00  0.00    -0.000 C 
BRANCH  18  19
ATOM     19  C   UNL     1      15.756  53.561  18.833  1.00  0.00    -0.003 C 
ATOM     20  C   UNL     1      15.734  53.416  17.313  1.00  0.00     0.004 C 
ENDBRANCH  18  19
ENDBRANCH  17  18
ENDBRANCH  16  17
ENDBRANCH  15  16
ENDBRANCH  14  15
ENDBRANCH  13  14
ENDBRANCH  12  13
ENDBRANCH   1  12
TORSDOF 16
ENDMDL
MODEL 6
REMARK VINA RESULT:    -4.794      2.153      4.759
REMARK INTER + INTRA:         -12.032
REMARK INTER:                  -9.222
REMARK INTRA:                  -2.809
REMARK UNBOUND:                -2.753
REMARK SMILES CCCCCCCCCCCCCCCCCC(=O)[O-]
REMARK SMILES IDX 10 1 11 2 12 3 13 4 14 5 15 6 16 7 17 8 18 9 19 10 20 11
REMARK SMILES IDX 9 12 8 13 7 14 6 15 5 16 4 17 3 18 2 19 1 20
REMARK H PARENT
REMARK Flexibility Score: inf
ROOT
ATOM      1  C   UNL     1      17.410  55.112  14.768  1.00  0.00     0.000 C 
ENDROOT
BRANCH   1   2
ATOM      2  C   UNL     1      18.376  54.888  13.589  1.00  0.00     0.000 C 
BRANCH   2   3
ATOM      3  C   UNL     1      19.698  54.184  13.946  1.00  0.00     0.000 C 
BRANCH   3   4
ATOM      4  C   UNL     1      19.510  53.029  14.944  1.00  0.00     0.000 C 
BRANCH   4   5
ATOM      5  C   UNL     1      20.496  53.100  16.122  1.00  0.00     0.000 C 
BRANCH   5   6
ATOM      6  C   UNL     1      19.797  53.029  17.488  1.00  0.00     0.000 C 
BRANCH   6   7
ATOM      7  C   UNL     1      19.975  54.342  18.263  1.00  0.00     0.006 C 
BRANCH   7   8
ATOM      8  C   UNL     1      18.997  55.429  17.797  1.00  0.00     0.053 C 
BRANCH   8   9
ATOM      9  C   UNL     1      19.699  56.718  17.495  1.00  0.00     0.041 C 
ATOM     10  O   UNL     1      19.640  57.678  18.309  1.00  0.00    -0.550 OA
ATOM     11  O   UNL     1      20.390  56.870  16.300  1.00  0.00    -0.550 OA
ENDBRANCH   8   9
ENDBRANCH   7   8
ENDBRANCH   6   7
ENDBRANCH   5   6
ENDBRANCH   4   5
ENDBRANCH   3   4
ENDBRANCH   2   3
ENDBRANCH   1   2
BRANCH   1  12
ATOM     12  C   UNL     1      15.943  54.826  14.403  1.00  0.00     0.000 C 
BRANCH  12  13
ATOM     13  C   UNL     1      15.234  53.955  15.453  1.00  0.00    -0.000 C 
BRANCH  13  14
ATOM     14  C   UNL     1      16.226  53.209  16.363  1.00  0.00    -0.000 C 
BRANCH  14  15
ATOM     15  C   UNL     1      15.954  53.449  17.858  1.00  0.00    -0.000 C 
BRANCH  15  16
ATOM     16  C   UNL     1      14.793  54.431  18.098  1.00  0.00    -0.000 C 
BRANCH  16  17
ATOM     17  C   UNL     1      15.216  55.648  18.936  1.00  0.00    -0.000 C 
BRANCH  17  18
ATOM     18  C   UNL     1      14.366  56.895  18.644  1.00  0.00    -0.000 C 
BRANCH  18  19
ATOM     19  C   UNL     1      13.883  56.899  17.189  1.00  0.00    -0.003 C 
ATOM     20  C   UNL     1      14.738  57.824  16.326  1.00  0.00     0.004 C 
ENDBRANCH  18  19
ENDBRANCH  17  18
ENDBRANCH  16  17
ENDBRANCH  15  16
ENDBRANCH  14  15
ENDBRANCH  13  14
ENDBRANCH  12  13
ENDBRANCH   1  12
TORSDOF 16
ENDMDL
MODEL 7
REMARK VINA RESULT:    -4.757      3.798      6.615
REMARK INTER + INTRA:         -11.960
REMARK INTER:                  -9.236
REMARK INTRA:                  -2.725
REMARK UNBOUND:                -2.753
REMARK SMILES CCCCCCCCCCCCCCCCCC(=O)[O-]
REMARK SMILES IDX 10 1 11 2 12 3 13 4 14 5 15 6 16 7 17 8 18 9 19 10 20 11
REMARK SMILES IDX 9 12 8 13 7 14 6 15 5 16 4 17 3 18 2 19 1 20
REMARK H PARENT
REMARK Flexibility Score: inf
ROOT
ATOM      1  C   UNL     1      16.733  56.607  16.527  1.00  0.00     0.000 C 
ENDROOT
BRANCH   1   2
ATOM      2  C   UNL     1      18.231  56.938  16.393  1.00  0.00     0.000 C 
BRANCH   2   3
ATOM      3  C   UNL     1      18.990  57.106  17.722  1.00  0.00     0.000 C 
BRANCH   3   4
ATOM      4  C   UNL     1      20.487  56.776  17.602  1.00  0.00     0.000 C 
BRANCH   4   5
ATOM      5  C   UNL     1      20.965  56.730  16.140  1.00  0.00     0.000 C 
BRANCH   5   6
ATOM      6  C   UNL     1      22.180  55.812  15.941  1.00  0.00     0.000 C 
BRANCH   6   7
ATOM      7  C   UNL     1      23.326  56.208  16.885  1.00  0.00     0.006 C 
BRANCH   7   8
ATOM      8  C   UNL     1      24.617  55.435  16.587  1.00  0.00     0.053 C 
BRANCH   8   9
ATOM      9  C   UNL     1      25.651  56.305  15.939  1.00  0.00     0.041 C 
ATOM     10  O   UNL     1      26.875  56.116  16.172  1.00  0.00    -0.550 OA
ATOM     11  O   UNL     1      25.261  57.345  15.105  1.00  0.00    -0.550 OA
ENDBRANCH   8   9
ENDBRANCH   7   8
ENDBRANCH   6   7
ENDBRANCH   5   6
ENDBRANCH   4   5
ENDBRANCH   3   4
ENDBRANCH   2   3
ENDBRANCH   1   2
BRANCH   1  12
ATOM     12  C   UNL     1      16.380  55.966  17.881  1.00  0.00     0.000 C 
BRANCH  12  13
ATOM     13  C   UNL     1      16.442  54.430  17.839  1.00  0.00    -0.000 C 
BRANCH  13  14
ATOM     14  C   UNL     1      17.342  53.848  18.943  1.00  0.00    -0.000 C 
BRANCH  14  15
ATOM     15  C   UNL     1      18.272  52.739  18.425  1.00  0.00    -0.000 C 
BRANCH  15  16
ATOM     16  C   UNL     1      19.713  53.232  18.201  1.00  0.00    -0.000 C 
BRANCH  16  17
ATOM     17  C   UNL     1      20.189  53.022  16.754  1.00  0.00    -0.000 C 
BRANCH  17  18
ATOM     18  C   UNL     1      19.063  53.206  15.725  1.00  0.00    -0.000 C 
BRANCH  18  19
ATOM     19  C   UNL     1      19.626  53.649  14.371  1.00  0.00    -0.003 C 
ATOM     20  C   UNL     1      18.637  54.544  13.628  1.00  0.00     0.004 C 
ENDBRANCH  18  19
ENDBRANCH  17  18
ENDBRANCH  16  17
ENDBRANCH  15  16
ENDBRANCH  14  15
ENDBRANCH  13  14
ENDBRANCH  12  13
ENDBRANCH   1  12
TORSDOF 16
ENDMDL
MODEL 8
REMARK VINA RESULT:    -4.720      1.862      4.008
REMARK INTER + INTRA:         -11.888
REMARK INTER:                  -9.073
REMARK INTRA:                  -2.814
REMARK UNBOUND:                -2.753
REMARK SMILES CCCCCCCCCCCCCCCCCC(=O)[O-]
REMARK SMILES IDX 10 1 11 2 12 3 13 4 14 5 15 6 16 7 17 8 18 9 19 10 20 11
REMARK SMILES IDX 9 12 8 13 7 14 6 15 5 16 4 17 3 18 2 19 1 20
REMARK H PARENT
REMARK Flexibility Score: inf
ROOT
ATOM      1  C   UNL     1      17.511  54.990  14.704  1.00  0.00     0.000 C 
ENDROOT
BRANCH   1   2
ATOM      2  C   UNL     1      18.801  54.687  13.919  1.00  0.00     0.000 C 
BRANCH   2   3
ATOM      3  C   UNL     1      19.535  53.397  14.332  1.00  0.00     0.000 C 
BRANCH   3   4
ATOM      4  C   UNL     1      18.995  52.795  15.640  1.00  0.00     0.000 C 
BRANCH   4   5
ATOM      5  C   UNL     1      20.028  52.839  16.780  1.00  0.00     0.000 C 
BRANCH   5   6
ATOM      6  C   UNL     1      19.400  53.186  18.138  1.00  0.00     0.000 C 
BRANCH   6   7
ATOM      7  C   UNL     1      17.869  53.251  18.033  1.00  0.00     0.006 C 
BRANCH   7   8
ATOM      8  C   UNL     1      17.235  53.973  19.229  1.00  0.00     0.053 C 
BRANCH   8   9
ATOM      9  C   UNL     1      16.242  55.007  18.793  1.00  0.00     0.041 C 
ATOM     10  O   UNL     1      15.143  54.656  18.287  1.00  0.00    -0.550 OA
ATOM     11  O   UNL     1      16.544  56.357  18.914  1.00  0.00    -0.550 OA
ENDBRANCH   8   9
ENDBRANCH   7   8
ENDBRANCH   6   7
ENDBRANCH   5   6
ENDBRANCH   4   5
ENDBRANCH   3   4
ENDBRANCH   2   3
ENDBRANCH   1   2
BRANCH   1  12
ATOM     12  C   UNL     1      17.594  56.300  15.508  1.00  0.00     0.000 C 
BRANCH  12  13
ATOM     13  C   UNL     1      19.040  56.791  15.685  1.00  0.00    -0.000 C 
BRANCH  13  14
ATOM     14  C   UNL     1      19.489  56.778  17.157  1.00  0.00    -0.000 C 
BRANCH  14  15
ATOM     15  C   UNL     1      21.006  56.582  17.312  1.00  0.00    -0.000 C 
BRANCH  15  16
ATOM     16  C   UNL     1      21.653  55.961  16.061  1.00  0.00    -0.000 C 
BRANCH  16  17
ATOM     17  C   UNL     1      22.980  55.250  16.377  1.00  0.00    -0.000 C 
BRANCH  17  18
ATOM     18  C   UNL     1      24.144  56.230  16.590  1.00  0.00    -0.000 C 
BRANCH  18  19
ATOM     19  C   UNL     1      25.491  55.543  16.339  1.00  0.00    -0.003 C 
ATOM     20  C   UNL     1      25.449  54.076  16.760  1.00  0.00     0.004 C 
ENDBRANCH  18  19
ENDBRANCH  17  18
ENDBRANCH  16  17
ENDBRANCH  15  16
ENDBRANCH  14  15
ENDBRANCH  13  14
ENDBRANCH  12  13
ENDBRANCH   1  12
TORSDOF 16
ENDMDL
MODEL 9
REMARK VINA RESULT:    -4.702      2.467      5.020
REMARK INTER + INTRA:         -11.854
REMARK INTER:                  -8.792
REMARK INTRA:                  -3.061
REMARK UNBOUND:                -2.753
REMARK SMILES CCCCCCCCCCCCCCCCCC(=O)[O-]
REMARK SMILES IDX 10 1 11 2 12 3 13 4 14 5 15 6 16 7 17 8 18 9 19 10 20 11
REMARK SMILES IDX 9 12 8 13 7 14 6 15 5 16 4 17 3 18 2 19 1 20
REMARK H PARENT
REMARK Flexibility Score: inf
ROOT
ATOM      1  C   UNL     1      15.873  54.841  14.757  1.00  0.00     0.000 C 
ENDROOT
BRANCH   1   2
ATOM      2  C   UNL     1      17.006  55.731  15.303  1.00  0.00     0.000 C 
BRANCH   2   3
ATOM      3  C   UNL     1      18.246  55.846  14.397  1.00  0.00     0.000 C 
BRANCH   3   4
ATOM      4  C   UNL     1      18.383  54.669  13.418  1.00  0.00     0.000 C 
BRANCH   4   5
ATOM      5  C   UNL     1      19.626  53.808  13.700  1.00  0.00     0.000 C 
BRANCH   5   6
ATOM      6  C   UNL     1      19.587  53.143  15.085  1.00  0.00     0.000 C 
BRANCH   6   7
ATOM      7  C   UNL     1      20.876  53.434  15.868  1.00  0.00     0.006 C 
BRANCH   7   8
ATOM      8  C   UNL     1      20.606  54.209  17.164  1.00  0.00     0.053 C 
BRANCH   8   9
ATOM      9  C   UNL     1      20.773  55.686  16.975  1.00  0.00     0.041 C 
ATOM     10  O   UNL     1      20.179  56.494  17.737  1.00  0.00    -0.550 OA
ATOM     11  O   UNL     1      21.558  56.171  15.937  1.00  0.00    -0.550 OA
ENDBRANCH   8   9
ENDBRANCH   7   8
ENDBRANCH   6   7
ENDBRANCH   5   6
ENDBRANCH   4   5
ENDBRANCH   3   4
ENDBRANCH   2   3
ENDBRANCH   1   2
BRANCH   1  12
ATOM     12  C   UNL     1      14.519  55.111  15.437  1.00  0.00     0.000 C 
BRANCH  12  13
ATOM     13  C   UNL     1      13.975  53.876  16.174  1.00  0.00    -0.000 C 
BRANCH  13  14
ATOM     14  C   UNL     1      15.011  52.741  16.263  1.00  0.00    -0.000 C 
BRANCH  14  15
ATOM     15  C   UNL     1      15.563  52.553  17.686  1.00  0.00    -0.000 C 
BRANCH  15  16
ATOM     16  C   UNL     1      17.040  52.967  17.807  1.00  0.00    -0.000 C 
BRANCH  16  17
ATOM     17  C   UNL     1      17.234  54.205  18.699  1.00  0.00    -0.000 C 
BRANCH  17  18
ATOM     18  C   UNL     1      15.907  54.762  19.239  1.00  0.00    -0.000 C 
BRANCH  18  19
ATOM     19  C   UNL     1      15.671  56.192  18.741  1.00  0.00    -0.003 C 
ATOM     20  C   UNL     1      14.198  56.579  18.852  1.00  0.00     0.004 C 
ENDBRANCH  18  19
ENDBRANCH  17  18
ENDBRANCH  16  17
ENDBRANCH  15  16
ENDBRANCH  14  15
ENDBRANCH  13  14
ENDBRANCH  12  13
ENDBRANCH   1  12
TORSDOF 16
ENDMDL
