MODEL 1
REMARK VINA RESULT:    -3.247      0.000      0.000
REMARK INTER + INTRA:          -3.342
REMARK INTER:                  -3.342
REMARK INTRA:                   0.000
REMARK UNBOUND:                 0.000
REMARK SMILES CC1(C)[C@@H]2CC[C@@](C)(C2)[C@H]1O
REMARK SMILES IDX 1 1 2 2 4 3 5 4 6 5 7 6 9 7 10 8 8 9 3 10 11 11
REMARK H PARENT 11 12
REMARK Flexibility Score: inf
ROOT
ATOM      1  C   UNL     1     110.602 110.550 118.611  1.00  0.00     0.014 C 
ATOM      2  C   UNL     1     110.375 111.920 117.924  1.00  0.00    -0.006 C 
ATOM      3  C   UNL     1     109.077 112.653 118.404  1.00  0.00    -0.002 C 
ATOM      4  C   UNL     1     107.859 111.706 118.385  1.00  0.00     0.005 C 
ATOM      5  C   UNL     1     107.641 111.461 116.885  1.00  0.00     0.010 C 
ATOM      6  C   UNL     1     108.691 112.388 116.230  1.00  0.00    -0.006 C 
ATOM      7  C   UNL     1     108.742 113.537 117.215  1.00  0.00     0.013 C 
ATOM      8  C   UNL     1     110.099 111.747 116.391  1.00  0.00     0.126 C 
ATOM      9  C   UNL     1     108.322 112.804 114.801  1.00  0.00     0.014 C 
ATOM     10  C   UNL     1     111.617 112.799 118.232  1.00  0.00     0.014 C 
ENDROOT
BRANCH   8  11
ATOM     11  O   UNL     1     111.056 112.426 115.613  1.00  0.00    -0.392 OA
ATOM     12  H   UNL     1     111.630 111.735 115.191  1.00  0.00     0.211 HD
ENDBRANCH   8  11
TORSDOF 1
ENDMDL
MODEL 2
REMARK VINA RESULT:    -3.220     14.458     16.694
REMARK INTER + INTRA:          -3.314
REMARK INTER:                  -3.314
REMARK INTRA:                   0.000
REMARK UNBOUND:                 0.000
REMARK SMILES CC1(C)[C@@H]2CC[C@@](C)(C2)[C@H]1O
REMARK SMILES IDX 1 1 2 2 4 3 5 4 6 5 7 6 9 7 10 8 8 9 3 10 11 11
REMARK H PARENT 11 12
REMARK Flexibility Score: inf
ROOT
ATOM      1  C   UNL     1     122.097 122.298 119.012  1.00  0.00     0.014 C 
ATOM      2  C   UNL     1     122.428 120.999 118.236  1.00  0.00    -0.006 C 
ATOM      3  C   UNL     1     123.694 120.252 118.777  1.00  0.00    -0.002 C 
ATOM      4  C   UNL     1     124.880 121.221 118.962  1.00  0.00     0.005 C 
ATOM      5  C   UNL     1     125.236 121.602 117.517  1.00  0.00     0.010 C 
ATOM      6  C   UNL     1     124.282 120.715 116.684  1.00  0.00    -0.006 C 
ATOM      7  C   UNL     1     124.167 119.483 117.557  1.00  0.00     0.013 C 
ATOM      8  C   UNL     1     122.847 121.312 116.758  1.00  0.00     0.126 C 
ATOM      9  C   UNL     1     124.800 120.434 115.268  1.00  0.00     0.014 C 
ATOM     10  C   UNL     1     121.187 120.072 118.342  1.00  0.00     0.014 C 
ENDROOT
BRANCH   8  11
ATOM     11  O   UNL     1     121.990 120.685 115.833  1.00  0.00    -0.392 OA
ATOM     12  H   UNL     1     122.132 121.132 114.958  1.00  0.00     0.211 HD
ENDBRANCH   8  11
TORSDOF 1
ENDMDL
MODEL 3
REMARK VINA RESULT:    -3.207     11.041     12.157
REMARK INTER + INTRA:          -3.301
REMARK INTER:                  -3.301
REMARK INTRA:                   0.000
REMARK UNBOUND:                 0.000
REMARK SMILES CC1(C)[C@@H]2CC[C@@](C)(C2)[C@H]1O
REMARK SMILES IDX 1 1 2 2 4 3 5 4 6 5 7 6 9 7 10 8 8 9 3 10 11 11
REMARK H PARENT 11 12
REMARK Flexibility Score: inf
ROOT
ATOM      1  C   UNL     1     110.598 122.649 118.656  1.00  0.00     0.014 C 
ATOM      2  C   UNL     1     111.967 122.919 117.983  1.00  0.00    -0.006 C 
ATOM      3  C   UNL     1     112.652 124.242 118.466  1.00  0.00    -0.002 C 
ATOM      4  C   UNL     1     111.665 125.428 118.433  1.00  0.00     0.005 C 
ATOM      5  C   UNL     1     111.430 125.633 116.930  1.00  0.00     0.010 C 
ATOM      6  C   UNL     1     112.398 124.612 116.289  1.00  0.00    -0.006 C 
ATOM      7  C   UNL     1     113.537 124.602 117.287  1.00  0.00     0.013 C 
ATOM      8  C   UNL     1     111.802 123.184 116.448  1.00  0.00     0.126 C 
ATOM      9  C   UNL     1     112.818 124.990 114.863  1.00  0.00     0.014 C 
ATOM     10  C   UNL     1     112.883 121.708 118.305  1.00  0.00     0.014 C 
ENDROOT
BRANCH   8  11
ATOM     11  O   UNL     1     112.522 122.248 115.680  1.00  0.00    -0.392 OA
ATOM     12  H   UNL     1     112.421 121.368 116.128  1.00  0.00     0.211 HD
ENDBRANCH   8  11
TORSDOF 1
ENDMDL
MODEL 4
REMARK VINA RESULT:    -3.163     10.232     11.405
REMARK INTER + INTRA:          -3.256
REMARK INTER:                  -3.256
REMARK INTRA:                   0.000
REMARK UNBOUND:                 0.000
REMARK SMILES CC1(C)[C@@H]2CC[C@@](C)(C2)[C@H]1O
REMARK SMILES IDX 1 1 2 2 4 3 5 4 6 5 7 6 9 7 10 8 8 9 3 10 11 11
REMARK H PARENT 11 12
REMARK Flexibility Score: inf
ROOT
ATOM      1  C   UNL     1     121.646 111.454 119.085  1.00  0.00     0.014 C 
ATOM      2  C   UNL     1     120.460 111.002 118.197  1.00  0.00    -0.006 C 
ATOM      3  C   UNL     1     119.712 109.740 118.747  1.00  0.00    -0.002 C 
ATOM      4  C   UNL     1     120.705 108.621 119.127  1.00  0.00     0.005 C 
ATOM      5  C   UNL     1     121.264 108.185 117.765  1.00  0.00     0.010 C 
ATOM      6  C   UNL     1     120.438 109.030 116.768  1.00  0.00    -0.006 C 
ATOM      7  C   UNL     1     119.111 109.142 117.487  1.00  0.00     0.013 C 
ATOM      8  C   UNL     1     120.959 110.496 116.800  1.00  0.00     0.126 C 
ATOM      9  C   UNL     1     120.345 108.400 115.373  1.00  0.00     0.014 C 
ATOM     10  C   UNL     1     119.474 112.196 118.105  1.00  0.00     0.014 C 
ENDROOT
BRANCH   8  11
ATOM     11  O   UNL     1     120.405 111.252 115.748  1.00  0.00    -0.392 OA
ATOM     12  H   UNL     1     119.874 111.980 116.163  1.00  0.00     0.211 HD
ENDBRANCH   8  11
TORSDOF 1
ENDMDL
MODEL 5
REMARK VINA RESULT:    -2.916     10.373     12.406
REMARK INTER + INTRA:          -3.001
REMARK INTER:                  -3.001
REMARK INTRA:                   0.000
REMARK UNBOUND:                 0.000
REMARK SMILES CC1(C)[C@@H]2CC[C@@](C)(C2)[C@H]1O
REMARK SMILES IDX 1 1 2 2 4 3 5 4 6 5 7 6 9 7 10 8 8 9 3 10 11 11
REMARK H PARENT 11 12
REMARK Flexibility Score: inf
ROOT
ATOM      1  C   UNL     1     120.438 111.418 118.033  1.00  0.00     0.014 C 
ATOM      2  C   UNL     1     120.257 109.888 117.875  1.00  0.00    -0.006 C 
ATOM      3  C   UNL     1     121.225 109.047 118.775  1.00  0.00    -0.002 C 
ATOM      4  C   UNL     1     122.679 109.547 118.654  1.00  0.00     0.005 C 
ATOM      5  C   UNL     1     123.051 109.166 117.213  1.00  0.00     0.010 C 
ATOM      6  C   UNL     1     121.802 108.395 116.729  1.00  0.00    -0.006 C 
ATOM      7  C   UNL     1     121.330 107.740 118.010  1.00  0.00     0.013 C 
ATOM      8  C   UNL     1     120.663 109.414 116.437  1.00  0.00     0.126 C 
ATOM      9  C   UNL     1     122.102 107.408 115.594  1.00  0.00     0.014 C 
ATOM     10  C   UNL     1     118.785 109.559 118.239  1.00  0.00     0.014 C 
ENDROOT
BRANCH   8  11
ATOM     11  O   UNL     1     119.588 108.794 115.773  1.00  0.00    -0.392 OA
ATOM     12  H   UNL     1     118.821 109.424 115.811  1.00  0.00     0.211 HD
ENDBRANCH   8  11
TORSDOF 1
ENDMDL
MODEL 6
REMARK VINA RESULT:    -2.851     10.285     11.422
REMARK INTER + INTRA:          -2.934
REMARK INTER:                  -2.934
REMARK INTRA:                   0.000
REMARK UNBOUND:                 0.000
REMARK SMILES CC1(C)[C@@H]2CC[C@@](C)(C2)[C@H]1O
REMARK SMILES IDX 1 1 2 2 4 3 5 4 6 5 7 6 9 7 10 8 8 9 3 10 11 11
REMARK H PARENT 11 12
REMARK Flexibility Score: inf
ROOT
ATOM      1  C   UNL     1     113.600 124.314 118.229  1.00  0.00     0.014 C 
ATOM      2  C   UNL     1     112.464 124.057 117.207  1.00  0.00    -0.006 C 
ATOM      3  C   UNL     1     111.042 124.441 117.742  1.00  0.00    -0.002 C 
ATOM      4  C   UNL     1     110.797 123.857 119.149  1.00  0.00     0.005 C 
ATOM      5  C   UNL     1     110.723 122.346 118.883  1.00  0.00     0.010 C 
ATOM      6  C   UNL     1     110.822 122.265 117.342  1.00  0.00    -0.006 C 
ATOM      7  C   UNL     1     110.132 123.545 116.922  1.00  0.00     0.013 C 
ATOM      8  C   UNL     1     112.296 122.526 116.918  1.00  0.00     0.126 C 
ATOM      9  C   UNL     1     110.192 120.992 116.762  1.00  0.00     0.014 C 
ATOM     10  C   UNL     1     112.789 124.892 115.940  1.00  0.00     0.014 C 
ENDROOT
BRANCH   8  11
ATOM     11  O   UNL     1     112.490 122.232 115.555  1.00  0.00    -0.392 OA
ATOM     12  H   UNL     1     113.011 122.983 115.168  1.00  0.00     0.211 HD
ENDBRANCH   8  11
TORSDOF 1
ENDMDL
MODEL 7
REMARK VINA RESULT:    -2.837      9.885     10.869
REMARK INTER + INTRA:          -2.920
REMARK INTER:                  -2.920
REMARK INTRA:                   0.000
REMARK UNBOUND:                 0.000
REMARK SMILES CC1(C)[C@@H]2CC[C@@](C)(C2)[C@H]1O
REMARK SMILES IDX 1 1 2 2 4 3 5 4 6 5 7 6 9 7 10 8 8 9 3 10 11 11
REMARK H PARENT 11 12
REMARK Flexibility Score: inf
ROOT
ATOM      1  C   UNL     1     118.896 116.192 114.333  1.00  0.00     0.014 C 
ATOM      2  C   UNL     1     118.388 117.118 113.200  1.00  0.00    -0.006 C 
ATOM      3  C   UNL     1     118.751 118.627 113.416  1.00  0.00    -0.002 C 
ATOM      4  C   UNL     1     118.396 119.090 114.844  1.00  0.00     0.005 C 
ATOM      5  C   UNL     1     116.861 119.051 114.843  1.00  0.00     0.010 C 
ATOM      6  C   UNL     1     116.528 118.679 113.380  1.00  0.00    -0.006 C 
ATOM      7  C   UNL     1     117.666 119.340 112.630  1.00  0.00     0.013 C 
ATOM      8  C   UNL     1     116.822 117.167 113.165  1.00  0.00     0.126 C 
ATOM      9  C   UNL     1     115.134 119.143 112.940  1.00  0.00     0.014 C 
ATOM     10  C   UNL     1     119.020 116.612 111.876  1.00  0.00     0.014 C 
ENDROOT
BRANCH   8  11
ATOM     11  O   UNL     1     116.318 116.724 111.927  1.00  0.00    -0.392 OA
ATOM     12  H   UNL     1     116.170 117.532 111.369  1.00  0.00     0.211 HD
ENDBRANCH   8  11
TORSDOF 1
ENDMDL
MODEL 8
REMARK VINA RESULT:    -2.822      6.298      7.590
REMARK INTER + INTRA:          -2.904
REMARK INTER:                  -2.904
REMARK INTRA:                   0.000
REMARK UNBOUND:                 0.000
REMARK SMILES CC1(C)[C@@H]2CC[C@@](C)(C2)[C@H]1O
REMARK SMILES IDX 1 1 2 2 4 3 5 4 6 5 7 6 9 7 10 8 8 9 3 10 11 11
REMARK H PARENT 11 12
REMARK Flexibility Score: inf
ROOT
ATOM      1  C   UNL     1     116.488 114.070 115.322  1.00  0.00     0.014 C 
ATOM      2  C   UNL     1     115.127 114.288 114.616  1.00  0.00    -0.006 C 
ATOM      3  C   UNL     1     115.097 113.767 113.139  1.00  0.00    -0.002 C 
ATOM      4  C   UNL     1     116.327 114.257 112.347  1.00  0.00     0.005 C 
ATOM      5  C   UNL     1     116.080 115.768 112.236  1.00  0.00     0.010 C 
ATOM      6  C   UNL     1     114.684 115.936 112.880  1.00  0.00    -0.006 C 
ATOM      7  C   UNL     1     114.017 114.628 112.510  1.00  0.00     0.013 C 
ATOM      8  C   UNL     1     114.825 115.814 114.424  1.00  0.00     0.126 C 
ATOM      9  C   UNL     1     113.937 117.182 112.389  1.00  0.00     0.014 C 
ATOM     10  C   UNL     1     114.051 113.547 115.455  1.00  0.00     0.014 C 
ENDROOT
BRANCH   8  11
ATOM     11  O   UNL     1     113.633 116.191 115.072  1.00  0.00    -0.392 OA
ATOM     12  H   UNL     1     113.273 116.977 114.583  1.00  0.00     0.211 HD
ENDBRANCH   8  11
TORSDOF 1
ENDMDL
MODEL 9
REMARK VINA RESULT:    -2.807      9.482     11.155
REMARK INTER + INTRA:          -2.889
REMARK INTER:                  -2.889
REMARK INTRA:                   0.000
REMARK UNBOUND:                 0.000
REMARK SMILES CC1(C)[C@@H]2CC[C@@](C)(C2)[C@H]1O
REMARK SMILES IDX 1 1 2 2 4 3 5 4 6 5 7 6 9 7 10 8 8 9 3 10 11 11
REMARK H PARENT 11 12
REMARK Flexibility Score: inf
ROOT
ATOM      1  C   UNL     1     115.722 116.919 114.584  1.00  0.00     0.014 C 
ATOM      2  C   UNL     1     116.165 118.348 114.183  1.00  0.00    -0.006 C 
ATOM      3  C   UNL     1     116.683 118.452 112.708  1.00  0.00    -0.002 C 
ATOM      4  C   UNL     1     117.706 117.340 112.394  1.00  0.00     0.005 C 
ATOM      5  C   UNL     1     118.911 117.731 113.263  1.00  0.00     0.010 C 
ATOM      6  C   UNL     1     118.467 119.079 113.878  1.00  0.00    -0.006 C 
ATOM      7  C   UNL     1     117.609 119.653 112.771  1.00  0.00     0.013 C 
ATOM      8  C   UNL     1     117.424 118.801 114.998  1.00  0.00     0.126 C 
ATOM      9  C   UNL     1     119.644 119.973 114.287  1.00  0.00     0.014 C 
ATOM     10  C   UNL     1     114.938 119.279 114.373  1.00  0.00     0.014 C 
ENDROOT
BRANCH   8  11
ATOM     11  O   UNL     1     117.164 119.966 115.746  1.00  0.00    -0.392 OA
ATOM     12  H   UNL     1     117.643 120.711 115.298  1.00  0.00     0.211 HD
ENDBRANCH   8  11
TORSDOF 1
ENDMDL
