MODEL 1
REMARK VINA RESULT:    -4.181      0.000      0.000
REMARK INTER + INTRA:         -12.711
REMARK INTER:                  -9.070
REMARK INTRA:                  -3.641
REMARK UNBOUND:                -3.641
REMARK SMILES CCCCCCCCCCCCCCCCCCCCCC(=O)[O-]
REMARK SMILES IDX 12 1 11 2 10 3 9 4 8 5 7 6 6 7 5 8 4 9 3 10 2 11 1 12 13 13
REMARK SMILES IDX 14 14 15 15 16 16 17 17 18 18 19 19 20 20 21 21 22 22 23 23
REMARK SMILES IDX 24 24
REMARK H PARENT
REMARK Flexibility Score: inf
ROOT
ATOM      1  C   UNL     1      85.735 318.214 204.521  1.00  0.00     0.000 C 
ENDROOT
BRANCH   1   2
ATOM      2  C   UNL     1      84.595 317.499 205.265  1.00  0.00     0.000 C 
BRANCH   2   3
ATOM      3  C   UNL     1      84.998 316.096 205.751  1.00  0.00     0.000 C 
BRANCH   3   4
ATOM      4  C   UNL     1      86.284 316.109 206.593  1.00  0.00    -0.000 C 
BRANCH   4   5
ATOM      5  C   UNL     1      86.948 314.723 206.678  1.00  0.00    -0.000 C 
BRANCH   5   6
ATOM      6  C   UNL     1      88.309 314.673 205.965  1.00  0.00    -0.000 C 
BRANCH   6   7
ATOM      7  C   UNL     1      88.696 316.023 205.336  1.00  0.00    -0.000 C 
BRANCH   7   8
ATOM      8  C   UNL     1      88.650 315.993 203.800  1.00  0.00    -0.000 C 
BRANCH   8   9
ATOM      9  C   UNL     1      89.980 315.545 203.174  1.00  0.00    -0.000 C 
BRANCH   9  10
ATOM     10  C   UNL     1      89.871 315.473 201.646  1.00  0.00    -0.000 C 
BRANCH  10  11
ATOM     11  C   UNL     1      88.808 314.455 201.217  1.00  0.00    -0.003 C 
ATOM     12  C   UNL     1      88.630 314.449 199.702  1.00  0.00     0.004 C 
ENDBRANCH  10  11
ENDBRANCH   9  10
ENDBRANCH   8   9
ENDBRANCH   7   8
ENDBRANCH   6   7
ENDBRANCH   5   6
ENDBRANCH   4   5
ENDBRANCH   3   4
ENDBRANCH   2   3
ENDBRANCH   1   2
BRANCH   1  13
ATOM     13  C   UNL     1      85.774 317.867 203.023  1.00  0.00     0.000 C 
BRANCH  13  14
ATOM     14  C   UNL     1      84.374 317.617 202.433  1.00  0.00     0.000 C 
BRANCH  14  15
ATOM     15  C   UNL     1      84.253 316.347 201.568  1.00  0.00     0.000 C 
BRANCH  15  16
ATOM     16  C   UNL     1      85.282 315.241 201.880  1.00  0.00     0.000 C 
BRANCH  16  17
ATOM     17  C   UNL     1      84.794 314.151 202.850  1.00  0.00     0.000 C 
BRANCH  17  18
ATOM     18  C   UNL     1      85.948 313.367 203.493  1.00  0.00     0.000 C 
BRANCH  18  19
ATOM     19  C   UNL     1      85.420 312.152 204.272  1.00  0.00     0.000 C 
BRANCH  19  20
ATOM     20  C   UNL     1      84.302 312.514 205.266  1.00  0.00     0.006 C 
BRANCH  20  21
ATOM     21  C   UNL     1      84.523 311.958 206.685  1.00  0.00     0.053 C 
BRANCH  21  22
ATOM     22  C   UNL     1      85.232 310.637 206.682  1.00  0.00     0.041 C 
ATOM     23  O   UNL     1      86.407 310.547 207.124  1.00  0.00    -0.550 OA
ATOM     24  O   UNL     1      84.582 309.498 206.223  1.00  0.00    -0.550 OA
ENDBRANCH  21  22
ENDBRANCH  20  21
ENDBRANCH  19  20
ENDBRANCH  18  19
ENDBRANCH  17  18
ENDBRANCH  16  17
ENDBRANCH  15  16
ENDBRANCH  14  15
ENDBRANCH  13  14
ENDBRANCH   1  13
TORSDOF 20
ENDMDL
MODEL 2
REMARK VINA RESULT:    -4.179      3.010      6.179
REMARK INTER + INTRA:         -12.706
REMARK INTER:                  -9.257
REMARK INTRA:                  -3.449
REMARK UNBOUND:                -3.641
REMARK SMILES CCCCCCCCCCCCCCCCCCCCCC(=O)[O-]
REMARK SMILES IDX 12 1 11 2 10 3 9 4 8 5 7 6 6 7 5 8 4 9 3 10 2 11 1 12 13 13
REMARK SMILES IDX 14 14 15 15 16 16 17 17 18 18 19 19 20 20 21 21 22 22 23 23
REMARK SMILES IDX 24 24
REMARK H PARENT
REMARK Flexibility Score: inf
ROOT
ATOM      1  C   UNL     1      84.673 317.677 205.517  1.00  0.00     0.000 C 
ENDROOT
BRANCH   1   2
ATOM      2  C   UNL     1      85.698 318.362 204.599  1.00  0.00     0.000 C 
BRANCH   2   3
ATOM      3  C   UNL     1      85.819 317.669 203.231  1.00  0.00     0.000 C 
BRANCH   3   4
ATOM      4  C   UNL     1      84.480 317.606 202.479  1.00  0.00    -0.000 C 
BRANCH   4   5
ATOM      5  C   UNL     1      84.320 316.310 201.665  1.00  0.00    -0.000 C 
BRANCH   5   6
ATOM      6  C   UNL     1      85.346 315.234 202.058  1.00  0.00    -0.000 C 
BRANCH   6   7
ATOM      7  C   UNL     1      84.741 314.141 202.957  1.00  0.00    -0.000 C 
BRANCH   7   8
ATOM      8  C   UNL     1      85.809 313.372 203.751  1.00  0.00    -0.000 C 
BRANCH   8   9
ATOM      9  C   UNL     1      85.214 312.244 204.609  1.00  0.00    -0.000 C 
BRANCH   9  10
ATOM     10  C   UNL     1      84.185 312.796 205.604  1.00  0.00    -0.000 C 
BRANCH  10  11
ATOM     11  C   UNL     1      84.594 312.485 207.048  1.00  0.00    -0.003 C 
ATOM     12  C   UNL     1      86.004 311.906 207.110  1.00  0.00     0.004 C 
ENDBRANCH  10  11
ENDBRANCH   9  10
ENDBRANCH   8   9
ENDBRANCH   7   8
ENDBRANCH   6   7
ENDBRANCH   5   6
ENDBRANCH   4   5
ENDBRANCH   3   4
ENDBRANCH   2   3
ENDBRANCH   1   2
BRANCH   1  13
ATOM     13  C   UNL     1      85.002 316.196 205.773  1.00  0.00     0.000 C 
BRANCH  13  14
ATOM     14  C   UNL     1      86.133 316.008 206.800  1.00  0.00     0.000 C 
BRANCH  14  15
ATOM     15  C   UNL     1      87.368 315.251 206.273  1.00  0.00     0.000 C 
BRANCH  15  16
ATOM     16  C   UNL     1      88.325 316.088 205.399  1.00  0.00     0.000 C 
BRANCH  16  17
ATOM     17  C   UNL     1      89.614 315.365 204.968  1.00  0.00     0.000 C 
BRANCH  17  18
ATOM     18  C   UNL     1      90.126 315.828 203.596  1.00  0.00     0.000 C 
BRANCH  18  19
ATOM     19  C   UNL     1      89.026 315.711 202.531  1.00  0.00     0.000 C 
BRANCH  19  20
ATOM     20  C   UNL     1      89.058 314.369 201.777  1.00  0.00     0.006 C 
BRANCH  20  21
ATOM     21  C   UNL     1      88.376 314.410 200.397  1.00  0.00     0.053 C 
BRANCH  21  22
ATOM     22  C   UNL     1      89.343 314.692 199.286  1.00  0.00     0.041 C 
ATOM     23  O   UNL     1      90.194 315.611 199.405  1.00  0.00    -0.550 OA
ATOM     24  O   UNL     1      89.325 313.918 198.133  1.00  0.00    -0.550 OA
ENDBRANCH  21  22
ENDBRANCH  20  21
ENDBRANCH  19  20
ENDBRANCH  18  19
ENDBRANCH  17  18
ENDBRANCH  16  17
ENDBRANCH  15  16
ENDBRANCH  14  15
ENDBRANCH  13  14
ENDBRANCH   1  13
TORSDOF 20
ENDMDL
MODEL 3
REMARK VINA RESULT:    -4.142      1.947      3.669
REMARK INTER + INTRA:         -12.626
REMARK INTER:                  -9.300
REMARK INTRA:                  -3.326
REMARK UNBOUND:                -3.641
REMARK SMILES CCCCCCCCCCCCCCCCCCCCCC(=O)[O-]
REMARK SMILES IDX 12 1 11 2 10 3 9 4 8 5 7 6 6 7 5 8 4 9 3 10 2 11 1 12 13 13
REMARK SMILES IDX 14 14 15 15 16 16 17 17 18 18 19 19 20 20 21 21 22 22 23 23
REMARK SMILES IDX 24 24
REMARK H PARENT
REMARK Flexibility Score: inf
ROOT
ATOM      1  C   UNL     1      86.208 314.470 201.822  1.00  0.00     0.000 C 
ENDROOT
BRANCH   1   2
ATOM      2  C   UNL     1      86.845 313.487 202.818  1.00  0.00     0.000 C 
BRANCH   2   3
ATOM      3  C   UNL     1      88.143 314.035 203.437  1.00  0.00     0.000 C 
BRANCH   3   4
ATOM      4  C   UNL     1      88.403 315.503 203.060  1.00  0.00    -0.000 C 
BRANCH   4   5
ATOM      5  C   UNL     1      88.641 316.395 204.292  1.00  0.00    -0.000 C 
BRANCH   5   6
ATOM      6  C   UNL     1      89.415 315.671 205.406  1.00  0.00    -0.000 C 
BRANCH   6   7
ATOM      7  C   UNL     1      90.643 316.466 205.885  1.00  0.00    -0.000 C 
BRANCH   7   8
ATOM      8  C   UNL     1      91.874 316.243 204.991  1.00  0.00    -0.000 C 
BRANCH   8   9
ATOM      9  C   UNL     1      92.205 317.466 204.121  1.00  0.00    -0.000 C 
BRANCH   9  10
ATOM     10  C   UNL     1      91.763 317.242 202.670  1.00  0.00    -0.000 C 
BRANCH  10  11
ATOM     11  C   UNL     1      92.240 318.385 201.767  1.00  0.00    -0.003 C 
ATOM     12  C   UNL     1      92.597 319.623 202.585  1.00  0.00     0.004 C 
ENDBRANCH  10  11
ENDBRANCH   9  10
ENDBRANCH   8   9
ENDBRANCH   7   8
ENDBRANCH   6   7
ENDBRANCH   5   6
ENDBRANCH   4   5
ENDBRANCH   3   4
ENDBRANCH   2   3
ENDBRANCH   1   2
BRANCH   1  13
ATOM     13  C   UNL     1      84.783 314.886 202.228  1.00  0.00     0.000 C 
BRANCH  13  14
ATOM     14  C   UNL     1      84.323 316.181 201.536  1.00  0.00     0.000 C 
BRANCH  14  15
ATOM     15  C   UNL     1      84.260 317.419 202.454  1.00  0.00     0.000 C 
BRANCH  15  16
ATOM     16  C   UNL     1      85.616 317.880 203.026  1.00  0.00     0.000 C 
BRANCH  16  17
ATOM     17  C   UNL     1      85.586 318.317 204.501  1.00  0.00     0.000 C 
BRANCH  17  18
ATOM     18  C   UNL     1      84.754 317.376 205.384  1.00  0.00     0.000 C 
BRANCH  18  19
ATOM     19  C   UNL     1      85.638 316.289 206.014  1.00  0.00     0.000 C 
BRANCH  19  20
ATOM     20  C   UNL     1      85.040 314.876 205.884  1.00  0.00     0.006 C 
BRANCH  20  21
ATOM     21  C   UNL     1      85.958 313.758 206.411  1.00  0.00     0.053 C 
BRANCH  21  22
ATOM     22  C   UNL     1      85.279 312.422 206.443  1.00  0.00     0.041 C 
ATOM     23  O   UNL     1      85.846 311.411 205.951  1.00  0.00    -0.550 OA
ATOM     24  O   UNL     1      84.035 312.285 207.045  1.00  0.00    -0.550 OA
ENDBRANCH  21  22
ENDBRANCH  20  21
ENDBRANCH  19  20
ENDBRANCH  18  19
ENDBRANCH  17  18
ENDBRANCH  16  17
ENDBRANCH  15  16
ENDBRANCH  14  15
ENDBRANCH  13  14
ENDBRANCH   1  13
TORSDOF 20
ENDMDL
MODEL 4
REMARK VINA RESULT:    -4.095      1.298      3.600
REMARK INTER + INTRA:         -12.524
REMARK INTER:                  -9.650
REMARK INTRA:                  -2.875
REMARK UNBOUND:                -3.641
REMARK SMILES CCCCCCCCCCCCCCCCCCCCCC(=O)[O-]
REMARK SMILES IDX 12 1 11 2 10 3 9 4 8 5 7 6 6 7 5 8 4 9 3 10 2 11 1 12 13 13
REMARK SMILES IDX 14 14 15 15 16 16 17 17 18 18 19 19 20 20 21 21 22 22 23 23
REMARK SMILES IDX 24 24
REMARK H PARENT
REMARK Flexibility Score: inf
ROOT
ATOM      1  C   UNL     1      85.869 317.519 203.360  1.00  0.00     0.000 C 
ENDROOT
BRANCH   1   2
ATOM      2  C   UNL     1      84.621 317.457 202.466  1.00  0.00     0.000 C 
BRANCH   2   3
ATOM      3  C   UNL     1      84.556 316.165 201.633  1.00  0.00     0.000 C 
BRANCH   3   4
ATOM      4  C   UNL     1      84.514 314.901 202.506  1.00  0.00    -0.000 C 
BRANCH   4   5
ATOM      5  C   UNL     1      85.804 314.067 202.400  1.00  0.00    -0.000 C 
BRANCH   5   6
ATOM      6  C   UNL     1      86.723 314.541 201.261  1.00  0.00    -0.000 C 
BRANCH   6   7
ATOM      7  C   UNL     1      88.184 314.710 201.714  1.00  0.00    -0.000 C 
BRANCH   7   8
ATOM      8  C   UNL     1      88.329 314.737 203.244  1.00  0.00    -0.000 C 
BRANCH   8   9
ATOM      9  C   UNL     1      89.024 316.009 203.753  1.00  0.00    -0.000 C 
BRANCH   9  10
ATOM     10  C   UNL     1      89.079 316.029 205.286  1.00  0.00    -0.000 C 
BRANCH  10  11
ATOM     11  C   UNL     1      90.468 316.442 205.782  1.00  0.00    -0.003 C 
ATOM     12  C   UNL     1      91.474 316.482 204.635  1.00  0.00     0.004 C 
ENDBRANCH  10  11
ENDBRANCH   9  10
ENDBRANCH   8   9
ENDBRANCH   7   8
ENDBRANCH   6   7
ENDBRANCH   5   6
ENDBRANCH   4   5
ENDBRANCH   3   4
ENDBRANCH   2   3
ENDBRANCH   1   2
BRANCH   1  13
ATOM     13  C   UNL     1      85.678 318.431 204.584  1.00  0.00     0.000 C 
BRANCH  13  14
ATOM     14  C   UNL     1      84.803 317.787 205.674  1.00  0.00     0.000 C 
BRANCH  14  15
ATOM     15  C   UNL     1      84.843 316.247 205.712  1.00  0.00     0.000 C 
BRANCH  15  16
ATOM     16  C   UNL     1      85.999 315.642 206.536  1.00  0.00     0.000 C 
BRANCH  16  17
ATOM     17  C   UNL     1      85.830 314.156 206.901  1.00  0.00     0.000 C 
BRANCH  17  18
ATOM     18  C   UNL     1      84.360 313.712 206.922  1.00  0.00     0.000 C 
BRANCH  18  19
ATOM     19  C   UNL     1      84.241 312.196 206.706  1.00  0.00     0.000 C 
BRANCH  19  20
ATOM     20  C   UNL     1      85.504 311.575 206.080  1.00  0.00     0.006 C 
BRANCH  20  21
ATOM     21  C   UNL     1      85.319 311.121 204.620  1.00  0.00     0.053 C 
BRANCH  21  22
ATOM     22  C   UNL     1      84.936 309.676 204.511  1.00  0.00     0.041 C 
ATOM     23  O   UNL     1      85.545 308.806 205.186  1.00  0.00    -0.550 OA
ATOM     24  O   UNL     1      83.884 309.293 203.688  1.00  0.00    -0.550 OA
ENDBRANCH  21  22
ENDBRANCH  20  21
ENDBRANCH  19  20
ENDBRANCH  18  19
ENDBRANCH  17  18
ENDBRANCH  16  17
ENDBRANCH  15  16
ENDBRANCH  14  15
ENDBRANCH  13  14
ENDBRANCH   1  13
TORSDOF 20
ENDMDL
MODEL 5
REMARK VINA RESULT:    -4.086      3.595      5.540
REMARK INTER + INTRA:         -12.505
REMARK INTER:                  -8.944
REMARK INTRA:                  -3.561
REMARK UNBOUND:                -3.641
REMARK SMILES CCCCCCCCCCCCCCCCCCCCCC(=O)[O-]
REMARK SMILES IDX 12 1 11 2 10 3 9 4 8 5 7 6 6 7 5 8 4 9 3 10 2 11 1 12 13 13
REMARK SMILES IDX 14 14 15 15 16 16 17 17 18 18 19 19 20 20 21 21 22 22 23 23
REMARK SMILES IDX 24 24
REMARK H PARENT
REMARK Flexibility Score: inf
ROOT
ATOM      1  C   UNL     1      85.733 317.712 203.035  1.00  0.00     0.000 C 
ENDROOT
BRANCH   1   2
ATOM      2  C   UNL     1      85.739 318.278 204.464  1.00  0.00     0.000 C 
BRANCH   2   3
ATOM      3  C   UNL     1      84.765 317.538 205.396  1.00  0.00     0.000 C 
BRANCH   3   4
ATOM      4  C   UNL     1      85.435 316.380 206.152  1.00  0.00    -0.000 C 
BRANCH   4   5
ATOM      5  C   UNL     1      84.981 315.000 205.643  1.00  0.00    -0.000 C 
BRANCH   5   6
ATOM      6  C   UNL     1      86.162 314.094 205.256  1.00  0.00    -0.000 C 
BRANCH   6   7
ATOM      7  C   UNL     1      87.433 314.401 206.067  1.00  0.00    -0.000 C 
BRANCH   7   8
ATOM      8  C   UNL     1      88.667 314.608 205.174  1.00  0.00    -0.000 C 
BRANCH   8   9
ATOM      9  C   UNL     1      88.733 316.019 204.569  1.00  0.00    -0.000 C 
BRANCH   9  10
ATOM     10  C   UNL     1      88.769 315.958 203.037  1.00  0.00    -0.000 C 
BRANCH  10  11
ATOM     11  C   UNL     1      90.167 315.583 202.534  1.00  0.00    -0.003 C 
ATOM     12  C   UNL     1      91.211 316.593 203.001  1.00  0.00     0.004 C 
ENDBRANCH  10  11
ENDBRANCH   9  10
ENDBRANCH   8   9
ENDBRANCH   7   8
ENDBRANCH   6   7
ENDBRANCH   5   6
ENDBRANCH   4   5
ENDBRANCH   3   4
ENDBRANCH   2   3
ENDBRANCH   1   2
BRANCH   1  13
ATOM     13  C   UNL     1      84.311 317.484 202.494  1.00  0.00     0.000 C 
BRANCH  13  14
ATOM     14  C   UNL     1      84.212 316.244 201.587  1.00  0.00     0.000 C 
BRANCH  14  15
ATOM     15  C   UNL     1      85.221 315.124 201.907  1.00  0.00     0.000 C 
BRANCH  15  16
ATOM     16  C   UNL     1      86.170 314.746 200.751  1.00  0.00     0.000 C 
BRANCH  16  17
ATOM     17  C   UNL     1      86.836 313.365 200.880  1.00  0.00     0.000 C 
BRANCH  17  18
ATOM     18  C   UNL     1      88.264 313.338 200.314  1.00  0.00     0.000 C 
BRANCH  18  19
ATOM     19  C   UNL     1      88.455 314.431 199.252  1.00  0.00     0.000 C 
BRANCH  19  20
ATOM     20  C   UNL     1      89.927 314.623 198.844  1.00  0.00     0.006 C 
BRANCH  20  21
ATOM     21  C   UNL     1      90.315 316.090 198.578  1.00  0.00     0.053 C 
BRANCH  21  22
ATOM     22  C   UNL     1      91.568 316.493 199.295  1.00  0.00     0.041 C 
ATOM     23  O   UNL     1      91.754 317.695 199.619  1.00  0.00    -0.550 OA
ATOM     24  O   UNL     1      92.515 315.535 199.637  1.00  0.00    -0.550 OA
ENDBRANCH  21  22
ENDBRANCH  20  21
ENDBRANCH  19  20
ENDBRANCH  18  19
ENDBRANCH  17  18
ENDBRANCH  16  17
ENDBRANCH  15  16
ENDBRANCH  14  15
ENDBRANCH  13  14
ENDBRANCH   1  13
TORSDOF 20
ENDMDL
MODEL 6
REMARK VINA RESULT:    -3.998      2.339      4.445
REMARK INTER + INTRA:         -12.314
REMARK INTER:                  -8.390
REMARK INTRA:                  -3.925
REMARK UNBOUND:                -3.641
REMARK SMILES CCCCCCCCCCCCCCCCCCCCCC(=O)[O-]
REMARK SMILES IDX 12 1 11 2 10 3 9 4 8 5 7 6 6 7 5 8 4 9 3 10 2 11 1 12 13 13
REMARK SMILES IDX 14 14 15 15 16 16 17 17 18 18 19 19 20 20 21 21 22 22 23 23
REMARK SMILES IDX 24 24
REMARK H PARENT
REMARK Flexibility Score: inf
ROOT
ATOM      1  C   UNL     1      85.892 317.492 203.275  1.00  0.00     0.000 C 
ENDROOT
BRANCH   1   2
ATOM      2  C   UNL     1      84.620 317.437 202.414  1.00  0.00     0.000 C 
BRANCH   2   3
ATOM      3  C   UNL     1      84.488 316.113 201.641  1.00  0.00     0.000 C 
BRANCH   3   4
ATOM      4  C   UNL     1      84.577 314.883 202.558  1.00  0.00    -0.000 C 
BRANCH   4   5
ATOM      5  C   UNL     1      85.721 313.933 202.161  1.00  0.00    -0.000 C 
BRANCH   5   6
ATOM      6  C   UNL     1      86.598 314.501 201.033  1.00  0.00    -0.000 C 
BRANCH   6   7
ATOM      7  C   UNL     1      88.074 314.641 201.445  1.00  0.00    -0.000 C 
BRANCH   7   8
ATOM      8  C   UNL     1      88.255 314.731 202.969  1.00  0.00    -0.000 C 
BRANCH   8   9
ATOM      9  C   UNL     1      89.049 315.974 203.401  1.00  0.00    -0.000 C 
BRANCH   9  10
ATOM     10  C   UNL     1      89.205 316.023 204.926  1.00  0.00    -0.000 C 
BRANCH  10  11
ATOM     11  C   UNL     1      90.683 316.044 205.328  1.00  0.00    -0.003 C 
ATOM     12  C   UNL     1      90.884 316.769 206.655  1.00  0.00     0.004 C 
ENDBRANCH  10  11
ENDBRANCH   9  10
ENDBRANCH   8   9
ENDBRANCH   7   8
ENDBRANCH   6   7
ENDBRANCH   5   6
ENDBRANCH   4   5
ENDBRANCH   3   4
ENDBRANCH   2   3
ENDBRANCH   1   2
BRANCH   1  13
ATOM     13  C   UNL     1      85.706 318.321 204.557  1.00  0.00     0.000 C 
BRANCH  13  14
ATOM     14  C   UNL     1      84.863 317.593 205.619  1.00  0.00     0.000 C 
BRANCH  14  15
ATOM     15  C   UNL     1      85.182 316.094 205.784  1.00  0.00     0.000 C 
BRANCH  15  16
ATOM     16  C   UNL     1      86.105 315.747 206.970  1.00  0.00     0.000 C 
BRANCH  16  17
ATOM     17  C   UNL     1      86.685 314.322 206.949  1.00  0.00     0.000 C 
BRANCH  17  18
ATOM     18  C   UNL     1      86.040 313.433 205.876  1.00  0.00     0.000 C 
BRANCH  18  19
ATOM     19  C   UNL     1      87.023 312.356 205.391  1.00  0.00     0.000 C 
BRANCH  19  20
ATOM     20  C   UNL     1      88.445 312.542 205.951  1.00  0.00     0.006 C 
BRANCH  20  21
ATOM     21  C   UNL     1      89.506 311.660 205.268  1.00  0.00     0.053 C 
BRANCH  21  22
ATOM     22  C   UNL     1      90.782 312.399 204.997  1.00  0.00     0.041 C 
ATOM     23  O   UNL     1      91.576 312.658 205.938  1.00  0.00    -0.550 OA
ATOM     24  O   UNL     1      91.109 312.773 203.699  1.00  0.00    -0.550 OA
ENDBRANCH  21  22
ENDBRANCH  20  21
ENDBRANCH  19  20
ENDBRANCH  18  19
ENDBRANCH  17  18
ENDBRANCH  16  17
ENDBRANCH  15  16
ENDBRANCH  14  15
ENDBRANCH  13  14
ENDBRANCH   1  13
TORSDOF 20
ENDMDL
MODEL 7
REMARK VINA RESULT:    -3.987      3.282      5.538
REMARK INTER + INTRA:         -12.290
REMARK INTER:                  -8.767
REMARK INTRA:                  -3.523
REMARK UNBOUND:                -3.641
REMARK SMILES CCCCCCCCCCCCCCCCCCCCCC(=O)[O-]
REMARK SMILES IDX 12 1 11 2 10 3 9 4 8 5 7 6 6 7 5 8 4 9 3 10 2 11 1 12 13 13
REMARK SMILES IDX 14 14 15 15 16 16 17 17 18 18 19 19 20 20 21 21 22 22 23 23
REMARK SMILES IDX 24 24
REMARK H PARENT
REMARK Flexibility Score: inf
ROOT
ATOM      1  C   UNL     1      85.746 317.679 203.288  1.00  0.00     0.000 C 
ENDROOT
BRANCH   1   2
ATOM      2  C   UNL     1      84.454 317.607 202.459  1.00  0.00     0.000 C 
BRANCH   2   3
ATOM      3  C   UNL     1      84.305 316.268 201.716  1.00  0.00     0.000 C 
BRANCH   3   4
ATOM      4  C   UNL     1      85.586 315.418 201.768  1.00  0.00    -0.000 C 
BRANCH   4   5
ATOM      5  C   UNL     1      85.371 314.069 202.477  1.00  0.00    -0.000 C 
BRANCH   5   6
ATOM      6  C   UNL     1      86.315 312.971 201.959  1.00  0.00    -0.000 C 
BRANCH   6   7
ATOM      7  C   UNL     1      86.917 313.310 200.584  1.00  0.00    -0.000 C 
BRANCH   7   8
ATOM      8  C   UNL     1      88.141 312.443 200.246  1.00  0.00    -0.000 C 
BRANCH   8   9
ATOM      9  C   UNL     1      89.129 313.150 199.306  1.00  0.00    -0.000 C 
BRANCH   9  10
ATOM     10  C   UNL     1      88.572 314.501 198.840  1.00  0.00    -0.000 C 
BRANCH  10  11
ATOM     11  C   UNL     1      89.292 314.989 197.578  1.00  0.00    -0.003 C 
ATOM     12  C   UNL     1      90.359 316.025 197.917  1.00  0.00     0.004 C 
ENDBRANCH  10  11
ENDBRANCH   9  10
ENDBRANCH   8   9
ENDBRANCH   7   8
ENDBRANCH   6   7
ENDBRANCH   5   6
ENDBRANCH   4   5
ENDBRANCH   3   4
ENDBRANCH   2   3
ENDBRANCH   1   2
BRANCH   1  13
ATOM     13  C   UNL     1      85.522 318.287 204.683  1.00  0.00     0.000 C 
BRANCH  13  14
ATOM     14  C   UNL     1      84.670 317.386 205.595  1.00  0.00     0.000 C 
BRANCH  14  15
ATOM     15  C   UNL     1      85.107 315.909 205.637  1.00  0.00     0.000 C 
BRANCH  15  16
ATOM     16  C   UNL     1      86.482 315.650 206.286  1.00  0.00     0.000 C 
BRANCH  16  17
ATOM     17  C   UNL     1      87.550 315.071 205.342  1.00  0.00     0.000 C 
BRANCH  17  18
ATOM     18  C   UNL     1      88.717 316.040 205.098  1.00  0.00     0.000 C 
BRANCH  18  19
ATOM     19  C   UNL     1      88.795 316.445 203.619  1.00  0.00     0.000 C 
BRANCH  19  20
ATOM     20  C   UNL     1      89.248 315.294 202.702  1.00  0.00     0.006 C 
BRANCH  20  21
ATOM     21  C   UNL     1      90.445 315.648 201.800  1.00  0.00     0.053 C 
BRANCH  21  22
ATOM     22  C   UNL     1      91.459 316.505 202.497  1.00  0.00     0.041 C 
ATOM     23  O   UNL     1      92.186 316.016 203.401  1.00  0.00    -0.550 OA
ATOM     24  O   UNL     1      91.624 317.833 202.126  1.00  0.00    -0.550 OA
ENDBRANCH  21  22
ENDBRANCH  20  21
ENDBRANCH  19  20
ENDBRANCH  18  19
ENDBRANCH  17  18
ENDBRANCH  16  17
ENDBRANCH  15  16
ENDBRANCH  14  15
ENDBRANCH  13  14
ENDBRANCH   1  13
TORSDOF 20
ENDMDL
MODEL 8
REMARK VINA RESULT:    -3.977      4.160      6.596
REMARK INTER + INTRA:         -12.267
REMARK INTER:                  -9.458
REMARK INTRA:                  -2.809
REMARK UNBOUND:                -3.641
REMARK SMILES CCCCCCCCCCCCCCCCCCCCCC(=O)[O-]
REMARK SMILES IDX 12 1 11 2 10 3 9 4 8 5 7 6 6 7 5 8 4 9 3 10 2 11 1 12 13 13
REMARK SMILES IDX 14 14 15 15 16 16 17 17 18 18 19 19 20 20 21 21 22 22 23 23
REMARK SMILES IDX 24 24
REMARK H PARENT
REMARK Flexibility Score: inf
ROOT
ATOM      1  C   UNL     1      84.594 316.236 201.509  1.00  0.00     0.000 C 
ENDROOT
BRANCH   1   2
ATOM      2  C   UNL     1      84.618 317.481 202.410  1.00  0.00     0.000 C 
BRANCH   2   3
ATOM      3  C   UNL     1      85.848 317.516 203.334  1.00  0.00     0.000 C 
BRANCH   3   4
ATOM      4  C   UNL     1      85.611 318.354 204.601  1.00  0.00    -0.000 C 
BRANCH   4   5
ATOM      5  C   UNL     1      84.996 317.531 205.746  1.00  0.00    -0.000 C 
BRANCH   5   6
ATOM      6  C   UNL     1      85.325 316.033 205.643  1.00  0.00    -0.000 C 
BRANCH   6   7
ATOM      7  C   UNL     1      85.989 315.485 206.918  1.00  0.00    -0.000 C 
BRANCH   7   8
ATOM      8  C   UNL     1      87.333 314.794 206.633  1.00  0.00    -0.000 C 
BRANCH   8   9
ATOM      9  C   UNL     1      87.896 315.140 205.246  1.00  0.00    -0.000 C 
BRANCH   9  10
ATOM     10  C   UNL     1      89.006 316.193 205.351  1.00  0.00    -0.000 C 
BRANCH  10  11
ATOM     11  C   UNL     1      89.903 315.928 206.565  1.00  0.00    -0.003 C 
ATOM     12  C   UNL     1      91.156 316.798 206.526  1.00  0.00     0.004 C 
ENDBRANCH  10  11
ENDBRANCH   9  10
ENDBRANCH   8   9
ENDBRANCH   7   8
ENDBRANCH   6   7
ENDBRANCH   5   6
ENDBRANCH   4   5
ENDBRANCH   3   4
ENDBRANCH   2   3
ENDBRANCH   1   2
BRANCH   1  13
ATOM     13  C   UNL     1      84.633 314.923 202.309  1.00  0.00     0.000 C 
BRANCH  13  14
ATOM     14  C   UNL     1      85.906 314.101 202.040  1.00  0.00     0.000 C 
BRANCH  14  15
ATOM     15  C   UNL     1      86.708 314.536 200.797  1.00  0.00     0.000 C 
BRANCH  15  16
ATOM     16  C   UNL     1      88.214 314.207 200.841  1.00  0.00     0.000 C 
BRANCH  16  17
ATOM     17  C   UNL     1      89.036 315.049 201.833  1.00  0.00     0.000 C 
BRANCH  17  18
ATOM     18  C   UNL     1      90.216 315.771 201.166  1.00  0.00     0.000 C 
BRANCH  18  19
ATOM     19  C   UNL     1      91.321 316.078 202.187  1.00  0.00     0.000 C 
BRANCH  19  20
ATOM     20  C   UNL     1      91.748 317.558 202.186  1.00  0.00     0.006 C 
BRANCH  20  21
ATOM     21  C   UNL     1      92.543 317.980 203.436  1.00  0.00     0.053 C 
BRANCH  21  22
ATOM     22  C   UNL     1      93.043 319.391 203.350  1.00  0.00     0.041 C 
ATOM     23  O   UNL     1      94.138 319.708 203.884  1.00  0.00    -0.550 OA
ATOM     24  O   UNL     1      92.317 320.348 202.653  1.00  0.00    -0.550 OA
ENDBRANCH  21  22
ENDBRANCH  20  21
ENDBRANCH  19  20
ENDBRANCH  18  19
ENDBRANCH  17  18
ENDBRANCH  16  17
ENDBRANCH  15  16
ENDBRANCH  14  15
ENDBRANCH  13  14
ENDBRANCH   1  13
TORSDOF 20
ENDMDL
MODEL 9
REMARK VINA RESULT:    -3.882      1.607      3.241
REMARK INTER + INTRA:         -12.061
REMARK INTER:                  -8.876
REMARK INTRA:                  -3.185
REMARK UNBOUND:                -3.641
REMARK SMILES CCCCCCCCCCCCCCCCCCCCCC(=O)[O-]
REMARK SMILES IDX 12 1 11 2 10 3 9 4 8 5 7 6 6 7 5 8 4 9 3 10 2 11 1 12 13 13
REMARK SMILES IDX 14 14 15 15 16 16 17 17 18 18 19 19 20 20 21 21 22 22 23 23
REMARK SMILES IDX 24 24
REMARK H PARENT
REMARK Flexibility Score: inf
ROOT
ATOM      1  C   UNL     1      85.604 317.523 203.576  1.00  0.00     0.000 C 
ENDROOT
BRANCH   1   2
ATOM      2  C   UNL     1      84.549 317.436 202.462  1.00  0.00     0.000 C 
BRANCH   2   3
ATOM      3  C   UNL     1      84.612 316.103 201.696  1.00  0.00     0.000 C 
BRANCH   3   4
ATOM      4  C   UNL     1      84.897 314.905 202.616  1.00  0.00    -0.000 C 
BRANCH   4   5
ATOM      5  C   UNL     1      85.984 313.973 202.052  1.00  0.00    -0.000 C 
BRANCH   5   6
ATOM      6  C   UNL     1      87.325 314.111 202.792  1.00  0.00    -0.000 C 
BRANCH   6   7
ATOM      7  C   UNL     1      88.126 315.344 202.338  1.00  0.00    -0.000 C 
BRANCH   7   8
ATOM      8  C   UNL     1      89.142 315.810 203.394  1.00  0.00    -0.000 C 
BRANCH   8   9
ATOM      9  C   UNL     1      90.429 316.373 202.772  1.00  0.00    -0.000 C 
BRANCH   9  10
ATOM     10  C   UNL     1      90.688 315.755 201.393  1.00  0.00    -0.000 C 
BRANCH  10  11
ATOM     11  C   UNL     1      91.375 316.758 200.460  1.00  0.00    -0.003 C 
ATOM     12  C   UNL     1      92.111 317.835 201.253  1.00  0.00     0.004 C 
ENDBRANCH  10  11
ENDBRANCH   9  10
ENDBRANCH   8   9
ENDBRANCH   7   8
ENDBRANCH   6   7
ENDBRANCH   5   6
ENDBRANCH   4   5
ENDBRANCH   3   4
ENDBRANCH   2   3
ENDBRANCH   1   2
BRANCH   1  13
ATOM     13  C   UNL     1      85.012 317.992 204.917  1.00  0.00     0.000 C 
BRANCH  13  14
ATOM     14  C   UNL     1      85.202 316.960 206.043  1.00  0.00     0.000 C 
BRANCH  14  15
ATOM     15  C   UNL     1      86.417 316.028 205.870  1.00  0.00     0.000 C 
BRANCH  15  16
ATOM     16  C   UNL     1      86.145 314.536 206.153  1.00  0.00     0.000 C 
BRANCH  16  17
ATOM     17  C   UNL     1      84.658 314.143 206.198  1.00  0.00     0.000 C 
BRANCH  17  18
ATOM     18  C   UNL     1      84.437 312.630 206.044  1.00  0.00     0.000 C 
BRANCH  18  19
ATOM     19  C   UNL     1      85.701 311.943 205.504  1.00  0.00     0.000 C 
BRANCH  19  20
ATOM     20  C   UNL     1      85.419 311.026 204.300  1.00  0.00     0.006 C 
BRANCH  20  21
ATOM     21  C   UNL     1      84.255 310.042 204.523  1.00  0.00     0.053 C 
BRANCH  21  22
ATOM     22  C   UNL     1      84.725 308.637 204.753  1.00  0.00     0.041 C 
ATOM     23  O   UNL     1      85.753 308.209 204.167  1.00  0.00    -0.550 OA
ATOM     24  O   UNL     1      84.046 307.811 205.640  1.00  0.00    -0.550 OA
ENDBRANCH  21  22
ENDBRANCH  20  21
ENDBRANCH  19  20
ENDBRANCH  18  19
ENDBRANCH  17  18
ENDBRANCH  16  17
ENDBRANCH  15  16
ENDBRANCH  14  15
ENDBRANCH  13  14
ENDBRANCH   1  13
TORSDOF 20
ENDMDL
