MODEL 1
REMARK VINA RESULT:    -5.910      0.000      0.000
REMARK INTER + INTRA:         -16.448
REMARK INTER:                 -12.821
REMARK INTRA:                  -3.628
REMARK UNBOUND:                -3.628
REMARK SMILES CCCCCCCCCCCCCCCCCCCCCC(=O)[O-]
REMARK SMILES IDX 12 1 11 2 10 3 9 4 8 5 7 6 6 7 5 8 4 9 3 10 2 11 1 12 13 13
REMARK SMILES IDX 14 14 15 15 16 16 17 17 18 18 19 19 20 20 21 21 22 22 23 23
REMARK SMILES IDX 24 24
REMARK H PARENT
REMARK Flexibility Score: inf
ROOT
ATOM      1  C   UNL     1      10.523  10.660 -13.109  1.00  0.00     0.000 C 
ENDROOT
BRANCH   1   2
ATOM      2  C   UNL     1      11.435  10.233 -11.941  1.00  0.00     0.000 C 
BRANCH   2   3
ATOM      3  C   UNL     1      12.780  10.982 -11.862  1.00  0.00     0.000 C 
BRANCH   3   4
ATOM      4  C   UNL     1      14.026  10.101 -12.082  1.00  0.00    -0.000 C 
BRANCH   4   5
ATOM      5  C   UNL     1      14.414   9.874 -13.557  1.00  0.00    -0.000 C 
BRANCH   5   6
ATOM      6  C   UNL     1      14.027   8.499 -14.131  1.00  0.00    -0.000 C 
BRANCH   6   7
ATOM      7  C   UNL     1      14.070   8.458 -15.668  1.00  0.00    -0.000 C 
BRANCH   7   8
ATOM      8  C   UNL     1      12.849   7.749 -16.274  1.00  0.00    -0.000 C 
BRANCH   8   9
ATOM      9  C   UNL     1      11.561   7.996 -15.474  1.00  0.00    -0.000 C 
BRANCH   9  10
ATOM     10  C   UNL     1      10.347   8.289 -16.372  1.00  0.00    -0.000 C 
BRANCH  10  11
ATOM     11  C   UNL     1       9.190   7.284 -16.194  1.00  0.00    -0.003 C 
ATOM     12  C   UNL     1       9.688   5.867 -15.905  1.00  0.00     0.004 C 
ENDBRANCH  10  11
ENDBRANCH   9  10
ENDBRANCH   8   9
ENDBRANCH   7   8
ENDBRANCH   6   7
ENDBRANCH   5   6
ENDBRANCH   4   5
ENDBRANCH   3   4
ENDBRANCH   2   3
ENDBRANCH   1   2
BRANCH   1  13
ATOM     13  C   UNL     1       9.013  10.650 -12.799  1.00  0.00     0.000 C 
BRANCH  13  14
ATOM     14  C   UNL     1       8.207   9.538 -13.498  1.00  0.00     0.000 C 
BRANCH  14  15
ATOM     15  C   UNL     1       7.560   8.556 -12.506  1.00  0.00     0.000 C 
BRANCH  15  16
ATOM     16  C   UNL     1       8.078   7.116 -12.669  1.00  0.00     0.000 C 
BRANCH  16  17
ATOM     17  C   UNL     1       9.206   6.707 -11.701  1.00  0.00     0.000 C 
BRANCH  17  18
ATOM     18  C   UNL     1       9.924   5.393 -12.056  1.00  0.00     0.000 C 
BRANCH  18  19
ATOM     19  C   UNL     1      11.322   5.618 -12.651  1.00  0.00     0.000 C 
BRANCH  19  20
ATOM     20  C   UNL     1      12.054   6.751 -11.915  1.00  0.00     0.006 C 
BRANCH  20  21
ATOM     21  C   UNL     1      13.215   6.230 -11.058  1.00  0.00     0.053 C 
BRANCH  21  22
ATOM     22  C   UNL     1      12.832   6.106  -9.616  1.00  0.00     0.041 C 
ATOM     23  O   UNL     1      13.648   5.635  -8.782  1.00  0.00    -0.550 OA
ATOM     24  O   UNL     1      11.583   6.538  -9.188  1.00  0.00    -0.550 OA
ENDBRANCH  21  22
ENDBRANCH  20  21
ENDBRANCH  19  20
ENDBRANCH  18  19
ENDBRANCH  17  18
ENDBRANCH  16  17
ENDBRANCH  15  16
ENDBRANCH  14  15
ENDBRANCH  13  14
ENDBRANCH   1  13
TORSDOF 20
ENDMDL
MODEL 2
REMARK VINA RESULT:    -5.909      2.232      4.956
REMARK INTER + INTRA:         -16.445
REMARK INTER:                 -12.538
REMARK INTRA:                  -3.907
REMARK UNBOUND:                -3.628
REMARK SMILES CCCCCCCCCCCCCCCCCCCCCC(=O)[O-]
REMARK SMILES IDX 12 1 11 2 10 3 9 4 8 5 7 6 6 7 5 8 4 9 3 10 2 11 1 12 13 13
REMARK SMILES IDX 14 14 15 15 16 16 17 17 18 18 19 19 20 20 21 21 22 22 23 23
REMARK SMILES IDX 24 24
REMARK H PARENT
REMARK Flexibility Score: inf
ROOT
ATOM      1  C   UNL     1      13.569   8.185 -15.460  1.00  0.00     0.000 C 
ENDROOT
BRANCH   1   2
ATOM      2  C   UNL     1      12.944   8.226 -14.051  1.00  0.00     0.000 C 
BRANCH   2   3
ATOM      3  C   UNL     1      13.907   7.865 -12.904  1.00  0.00     0.000 C 
BRANCH   3   4
ATOM      4  C   UNL     1      13.828   6.402 -12.427  1.00  0.00    -0.000 C 
BRANCH   4   5
ATOM      5  C   UNL     1      13.392   6.214 -10.960  1.00  0.00    -0.000 C 
BRANCH   5   6
ATOM      6  C   UNL     1      12.179   7.056 -10.525  1.00  0.00    -0.000 C 
BRANCH   6   7
ATOM      7  C   UNL     1      10.952   6.200 -10.169  1.00  0.00    -0.000 C 
BRANCH   7   8
ATOM      8  C   UNL     1       9.881   6.217 -11.271  1.00  0.00    -0.000 C 
BRANCH   8   9
ATOM      9  C   UNL     1      10.019   5.041 -12.251  1.00  0.00    -0.000 C 
BRANCH   9  10
ATOM     10  C   UNL     1      10.587   5.467 -13.617  1.00  0.00    -0.000 C 
BRANCH  10  11
ATOM     11  C   UNL     1      11.343   4.338 -14.349  1.00  0.00    -0.003 C 
ATOM     12  C   UNL     1      12.070   4.839 -15.598  1.00  0.00     0.004 C 
ENDBRANCH  10  11
ENDBRANCH   9  10
ENDBRANCH   8   9
ENDBRANCH   7   8
ENDBRANCH   6   7
ENDBRANCH   5   6
ENDBRANCH   4   5
ENDBRANCH   3   4
ENDBRANCH   2   3
ENDBRANCH   1   2
BRANCH   1  13
ATOM     13  C   UNL     1      12.565   8.282 -16.626  1.00  0.00     0.000 C 
BRANCH  13  14
ATOM     14  C   UNL     1      11.165   8.798 -16.245  1.00  0.00     0.000 C 
BRANCH  14  15
ATOM     15  C   UNL     1      10.042   7.821 -16.635  1.00  0.00     0.000 C 
BRANCH  15  16
ATOM     16  C   UNL     1       8.756   8.537 -17.082  1.00  0.00     0.000 C 
BRANCH  16  17
ATOM     17  C   UNL     1       7.624   8.575 -16.036  1.00  0.00     0.000 C 
BRANCH  17  18
ATOM     18  C   UNL     1       7.551   7.349 -15.109  1.00  0.00     0.000 C 
BRANCH  18  19
ATOM     19  C   UNL     1       7.640   7.720 -13.621  1.00  0.00     0.000 C 
BRANCH  19  20
ATOM     20  C   UNL     1       8.104   9.173 -13.446  1.00  0.00     0.006 C 
BRANCH  20  21
ATOM     21  C   UNL     1       9.549   9.263 -12.937  1.00  0.00     0.053 C 
BRANCH  21  22
ATOM     22  C   UNL     1       9.999  10.683 -12.787  1.00  0.00     0.041 C 
ATOM     23  O   UNL     1       9.198  11.628 -13.007  1.00  0.00    -0.550 OA
ATOM     24  O   UNL     1      11.296  10.963 -12.376  1.00  0.00    -0.550 OA
ENDBRANCH  21  22
ENDBRANCH  20  21
ENDBRANCH  19  20
ENDBRANCH  18  19
ENDBRANCH  17  18
ENDBRANCH  16  17
ENDBRANCH  15  16
ENDBRANCH  14  15
ENDBRANCH  13  14
ENDBRANCH   1  13
TORSDOF 20
ENDMDL
MODEL 3
REMARK VINA RESULT:    -5.853      1.834      5.677
REMARK INTER + INTRA:         -16.323
REMARK INTER:                 -12.457
REMARK INTRA:                  -3.866
REMARK UNBOUND:                -3.628
REMARK SMILES CCCCCCCCCCCCCCCCCCCCCC(=O)[O-]
REMARK SMILES IDX 12 1 11 2 10 3 9 4 8 5 7 6 6 7 5 8 4 9 3 10 2 11 1 12 13 13
REMARK SMILES IDX 14 14 15 15 16 16 17 17 18 18 19 19 20 20 21 21 22 22 23 23
REMARK SMILES IDX 24 24
REMARK H PARENT
REMARK Flexibility Score: inf
ROOT
ATOM      1  C   UNL     1      12.416   8.270 -16.957  1.00  0.00     0.000 C 
ENDROOT
BRANCH   1   2
ATOM      2  C   UNL     1      11.102   8.814 -16.359  1.00  0.00     0.000 C 
BRANCH   2   3
ATOM      3  C   UNL     1       9.821   8.148 -16.899  1.00  0.00     0.000 C 
BRANCH   3   4
ATOM      4  C   UNL     1       9.183   7.110 -15.955  1.00  0.00    -0.000 C 
BRANCH   4   5
ATOM      5  C   UNL     1       9.996   5.813 -15.764  1.00  0.00    -0.000 C 
BRANCH   5   6
ATOM      6  C   UNL     1      10.670   5.660 -14.389  1.00  0.00    -0.000 C 
BRANCH   6   7
ATOM      7  C   UNL     1      12.013   4.914 -14.460  1.00  0.00    -0.000 C 
BRANCH   7   8
ATOM      8  C   UNL     1      12.828   5.042 -13.164  1.00  0.00    -0.000 C 
BRANCH   8   9
ATOM      9  C   UNL     1      12.214   6.041 -12.171  1.00  0.00    -0.000 C 
BRANCH   9  10
ATOM     10  C   UNL     1      13.154   6.373 -11.000  1.00  0.00    -0.000 C 
BRANCH  10  11
ATOM     11  C   UNL     1      12.554   6.047  -9.616  1.00  0.00    -0.003 C 
ATOM     12  C   UNL     1      11.027   6.133  -9.607  1.00  0.00     0.004 C 
ENDBRANCH  10  11
ENDBRANCH   9  10
ENDBRANCH   8   9
ENDBRANCH   7   8
ENDBRANCH   6   7
ENDBRANCH   5   6
ENDBRANCH   4   5
ENDBRANCH   3   4
ENDBRANCH   2   3
ENDBRANCH   1   2
BRANCH   1  13
ATOM     13  C   UNL     1      13.625   8.279 -16.000  1.00  0.00     0.000 C 
BRANCH  13  14
ATOM     14  C   UNL     1      13.282   8.485 -14.512  1.00  0.00     0.000 C 
BRANCH  14  15
ATOM     15  C   UNL     1      14.407   9.188 -13.732  1.00  0.00     0.000 C 
BRANCH  15  16
ATOM     16  C   UNL     1      13.877  10.227 -12.728  1.00  0.00     0.000 C 
BRANCH  16  17
ATOM     17  C   UNL     1      12.607   9.814 -11.959  1.00  0.00     0.000 C 
BRANCH  17  18
ATOM     18  C   UNL     1      11.452  10.830 -12.015  1.00  0.00     0.000 C 
BRANCH  18  19
ATOM     19  C   UNL     1      10.368  10.446 -13.034  1.00  0.00     0.000 C 
BRANCH  19  20
ATOM     20  C   UNL     1       9.905   8.998 -12.820  1.00  0.00     0.006 C 
BRANCH  20  21
ATOM     21  C   UNL     1       8.375   8.876 -12.795  1.00  0.00     0.053 C 
BRANCH  21  22
ATOM     22  C   UNL     1       7.932   7.459 -12.604  1.00  0.00     0.041 C 
ATOM     23  O   UNL     1       8.517   6.719 -11.770  1.00  0.00    -0.550 OA
ATOM     24  O   UNL     1       6.853   6.963 -13.324  1.00  0.00    -0.550 OA
ENDBRANCH  21  22
ENDBRANCH  20  21
ENDBRANCH  19  20
ENDBRANCH  18  19
ENDBRANCH  17  18
ENDBRANCH  16  17
ENDBRANCH  15  16
ENDBRANCH  14  15
ENDBRANCH  13  14
ENDBRANCH   1  13
TORSDOF 20
ENDMDL
MODEL 4
REMARK VINA RESULT:    -5.835      1.907      4.171
REMARK INTER + INTRA:         -16.284
REMARK INTER:                 -12.529
REMARK INTRA:                  -3.754
REMARK UNBOUND:                -3.628
REMARK SMILES CCCCCCCCCCCCCCCCCCCCCC(=O)[O-]
REMARK SMILES IDX 12 1 11 2 10 3 9 4 8 5 7 6 6 7 5 8 4 9 3 10 2 11 1 12 13 13
REMARK SMILES IDX 14 14 15 15 16 16 17 17 18 18 19 19 20 20 21 21 22 22 23 23
REMARK SMILES IDX 24 24
REMARK H PARENT
REMARK Flexibility Score: inf
ROOT
ATOM      1  C   UNL     1      10.626   6.021  -9.993  1.00  0.00     0.000 C 
ENDROOT
BRANCH   1   2
ATOM      2  C   UNL     1      11.794   6.923 -10.441  1.00  0.00     0.000 C 
BRANCH   2   3
ATOM      3  C   UNL     1      12.974   6.178 -11.096  1.00  0.00     0.000 C 
BRANCH   3   4
ATOM      4  C   UNL     1      12.956   6.165 -12.637  1.00  0.00    -0.000 C 
BRANCH   4   5
ATOM      5  C   UNL     1      12.608   4.806 -13.277  1.00  0.00    -0.000 C 
BRANCH   5   6
ATOM      6  C   UNL     1      11.829   4.887 -14.603  1.00  0.00    -0.000 C 
BRANCH   6   7
ATOM      7  C   UNL     1      10.926   6.128 -14.691  1.00  0.00    -0.000 C 
BRANCH   7   8
ATOM      8  C   UNL     1       9.988   6.090 -15.909  1.00  0.00    -0.000 C 
BRANCH   8   9
ATOM      9  C   UNL     1       9.895   7.444 -16.629  1.00  0.00    -0.000 C 
BRANCH   9  10
ATOM     10  C   UNL     1      10.884   8.484 -16.076  1.00  0.00    -0.000 C 
BRANCH  10  11
ATOM     11  C   UNL     1      12.143   8.664 -16.951  1.00  0.00    -0.003 C 
ATOM     12  C   UNL     1      13.419   8.218 -16.237  1.00  0.00     0.004 C 
ENDBRANCH  10  11
ENDBRANCH   9  10
ENDBRANCH   8   9
ENDBRANCH   7   8
ENDBRANCH   6   7
ENDBRANCH   5   6
ENDBRANCH   4   5
ENDBRANCH   3   4
ENDBRANCH   2   3
ENDBRANCH   1   2
BRANCH   1  13
ATOM     13  C   UNL     1       9.514   5.820 -11.042  1.00  0.00     0.000 C 
BRANCH  13  14
ATOM     14  C   UNL     1       9.417   6.922 -12.114  1.00  0.00     0.000 C 
BRANCH  14  15
ATOM     15  C   UNL     1       7.989   7.471 -12.279  1.00  0.00     0.000 C 
BRANCH  15  16
ATOM     16  C   UNL     1       7.661   7.853 -13.733  1.00  0.00     0.000 C 
BRANCH  16  17
ATOM     17  C   UNL     1       7.783   9.354 -14.064  1.00  0.00     0.000 C 
BRANCH  17  18
ATOM     18  C   UNL     1       8.389  10.221 -12.947  1.00  0.00     0.000 C 
BRANCH  18  19
ATOM     19  C   UNL     1       9.788  10.752 -13.296  1.00  0.00     0.000 C 
BRANCH  19  20
ATOM     20  C   UNL     1      10.813  10.333 -12.231  1.00  0.00     0.006 C 
BRANCH  20  21
ATOM     21  C   UNL     1      12.067   9.702 -12.850  1.00  0.00     0.053 C 
BRANCH  21  22
ATOM     22  C   UNL     1      13.315  10.138 -12.147  1.00  0.00     0.041 C 
ATOM     23  O   UNL     1      14.376   9.472 -12.269  1.00  0.00    -0.550 OA
ATOM     24  O   UNL     1      13.315  11.297 -11.382  1.00  0.00    -0.550 OA
ENDBRANCH  21  22
ENDBRANCH  20  21
ENDBRANCH  19  20
ENDBRANCH  18  19
ENDBRANCH  17  18
ENDBRANCH  16  17
ENDBRANCH  15  16
ENDBRANCH  14  15
ENDBRANCH  13  14
ENDBRANCH   1  13
TORSDOF 20
ENDMDL
MODEL 5
REMARK VINA RESULT:    -5.791      2.239      5.845
REMARK INTER + INTRA:         -16.190
REMARK INTER:                 -12.585
REMARK INTRA:                  -3.604
REMARK UNBOUND:                -3.628
REMARK SMILES CCCCCCCCCCCCCCCCCCCCCC(=O)[O-]
REMARK SMILES IDX 12 1 11 2 10 3 9 4 8 5 7 6 6 7 5 8 4 9 3 10 2 11 1 12 13 13
REMARK SMILES IDX 14 14 15 15 16 16 17 17 18 18 19 19 20 20 21 21 22 22 23 23
REMARK SMILES IDX 24 24
REMARK H PARENT
REMARK Flexibility Score: inf
ROOT
ATOM      1  C   UNL     1      12.003   7.244 -15.369  1.00  0.00     0.000 C 
ENDROOT
BRANCH   1   2
ATOM      2  C   UNL     1      12.115   5.717 -15.551  1.00  0.00     0.000 C 
BRANCH   2   3
ATOM      3  C   UNL     1      11.739   4.887 -14.308  1.00  0.00     0.000 C 
BRANCH   3   4
ATOM      4  C   UNL     1      11.453   5.713 -13.039  1.00  0.00    -0.000 C 
BRANCH   4   5
ATOM      5  C   UNL     1      10.200   5.285 -12.247  1.00  0.00    -0.000 C 
BRANCH   5   6
ATOM      6  C   UNL     1       9.978   6.034 -10.920  1.00  0.00    -0.000 C 
BRANCH   6   7
ATOM      7  C   UNL     1      11.216   6.822 -10.463  1.00  0.00    -0.000 C 
BRANCH   7   8
ATOM      8  C   UNL     1      12.092   6.027  -9.482  1.00  0.00    -0.000 C 
BRANCH   8   9
ATOM      9  C   UNL     1      13.596   6.220  -9.737  1.00  0.00    -0.000 C 
BRANCH   9  10
ATOM     10  C   UNL     1      13.897   7.429 -10.639  1.00  0.00    -0.000 C 
BRANCH  10  11
ATOM     11  C   UNL     1      14.592   7.051 -11.965  1.00  0.00    -0.003 C 
ATOM     12  C   UNL     1      14.536   8.179 -12.995  1.00  0.00     0.004 C 
ENDBRANCH  10  11
ENDBRANCH   9  10
ENDBRANCH   8   9
ENDBRANCH   7   8
ENDBRANCH   6   7
ENDBRANCH   5   6
ENDBRANCH   4   5
ENDBRANCH   3   4
ENDBRANCH   2   3
ENDBRANCH   1   2
BRANCH   1  13
ATOM     13  C   UNL     1      12.809   8.085 -16.379  1.00  0.00     0.000 C 
BRANCH  13  14
ATOM     14  C   UNL     1      11.964   8.866 -17.404  1.00  0.00     0.000 C 
BRANCH  14  15
ATOM     15  C   UNL     1      10.613   9.330 -16.834  1.00  0.00     0.000 C 
BRANCH  15  16
ATOM     16  C   UNL     1       9.417   8.580 -17.446  1.00  0.00     0.000 C 
BRANCH  16  17
ATOM     17  C   UNL     1       8.226   8.350 -16.496  1.00  0.00     0.000 C 
BRANCH  17  18
ATOM     18  C   UNL     1       8.396   7.184 -15.506  1.00  0.00     0.000 C 
BRANCH  18  19
ATOM     19  C   UNL     1       7.960   7.544 -14.078  1.00  0.00     0.000 C 
BRANCH  19  20
ATOM     20  C   UNL     1       8.345   8.991 -13.737  1.00  0.00     0.006 C 
BRANCH  20  21
ATOM     21  C   UNL     1       9.733   9.085 -13.088  1.00  0.00     0.053 C 
BRANCH  21  22
ATOM     22  C   UNL     1      10.181  10.504 -12.932  1.00  0.00     0.041 C 
ATOM     23  O   UNL     1       9.341  11.441 -12.969  1.00  0.00    -0.550 OA
ATOM     24  O   UNL     1      11.522  10.792 -12.715  1.00  0.00    -0.550 OA
ENDBRANCH  21  22
ENDBRANCH  20  21
ENDBRANCH  19  20
ENDBRANCH  18  19
ENDBRANCH  17  18
ENDBRANCH  16  17
ENDBRANCH  15  16
ENDBRANCH  14  15
ENDBRANCH  13  14
ENDBRANCH   1  13
TORSDOF 20
ENDMDL
MODEL 6
REMARK VINA RESULT:    -5.786      1.264      5.131
REMARK INTER + INTRA:         -16.180
REMARK INTER:                 -12.391
REMARK INTRA:                  -3.789
REMARK UNBOUND:                -3.628
REMARK SMILES CCCCCCCCCCCCCCCCCCCCCC(=O)[O-]
REMARK SMILES IDX 12 1 11 2 10 3 9 4 8 5 7 6 6 7 5 8 4 9 3 10 2 11 1 12 13 13
REMARK SMILES IDX 14 14 15 15 16 16 17 17 18 18 19 19 20 20 21 21 22 22 23 23
REMARK SMILES IDX 24 24
REMARK H PARENT
REMARK Flexibility Score: inf
ROOT
ATOM      1  C   UNL     1      11.461   5.193 -15.650  1.00  0.00     0.000 C 
ENDROOT
BRANCH   1   2
ATOM      2  C   UNL     1      12.003   4.912 -14.234  1.00  0.00     0.000 C 
BRANCH   2   3
ATOM      3  C   UNL     1      10.921   4.683 -13.161  1.00  0.00     0.000 C 
BRANCH   3   4
ATOM      4  C   UNL     1      10.959   5.675 -11.981  1.00  0.00    -0.000 C 
BRANCH   4   5
ATOM      5  C   UNL     1      10.079   6.930 -12.152  1.00  0.00    -0.000 C 
BRANCH   5   6
ATOM      6  C   UNL     1       8.561   6.679 -12.080  1.00  0.00    -0.000 C 
BRANCH   6   7
ATOM      7  C   UNL     1       7.765   7.543 -13.072  1.00  0.00    -0.000 C 
BRANCH   7   8
ATOM      8  C   UNL     1       7.668   9.012 -12.630  1.00  0.00    -0.000 C 
BRANCH   8   9
ATOM      9  C   UNL     1       8.372   9.972 -13.601  1.00  0.00    -0.000 C 
BRANCH   9  10
ATOM     10  C   UNL     1       9.374  10.904 -12.898  1.00  0.00    -0.000 C 
BRANCH  10  11
ATOM     11  C   UNL     1      10.848  10.504 -13.118  1.00  0.00    -0.003 C 
ATOM     12  C   UNL     1      11.669  10.569 -11.830  1.00  0.00     0.004 C 
ENDBRANCH  10  11
ENDBRANCH   9  10
ENDBRANCH   8   9
ENDBRANCH   7   8
ENDBRANCH   6   7
ENDBRANCH   5   6
ENDBRANCH   4   5
ENDBRANCH   3   4
ENDBRANCH   2   3
ENDBRANCH   1   2
BRANCH   1  13
ATOM     13  C   UNL     1       9.989   5.647 -15.712  1.00  0.00     0.000 C 
BRANCH  13  14
ATOM     14  C   UNL     1       9.767   7.088 -16.208  1.00  0.00     0.000 C 
BRANCH  14  15
ATOM     15  C   UNL     1      10.816   8.074 -15.668  1.00  0.00     0.000 C 
BRANCH  15  16
ATOM     16  C   UNL     1      11.978   8.306 -16.649  1.00  0.00     0.000 C 
BRANCH  16  17
ATOM     17  C   UNL     1      13.386   8.289 -16.020  1.00  0.00     0.000 C 
BRANCH  17  18
ATOM     18  C   UNL     1      13.413   8.316 -14.482  1.00  0.00     0.000 C 
BRANCH  18  19
ATOM     19  C   UNL     1      14.740   8.845 -13.917  1.00  0.00     0.000 C 
BRANCH  19  20
ATOM     20  C   UNL     1      15.355   7.841 -12.931  1.00  0.00     0.006 C 
BRANCH  20  21
ATOM     21  C   UNL     1      14.285   7.060 -12.156  1.00  0.00     0.053 C 
BRANCH  21  22
ATOM     22  C   UNL     1      14.376   7.305 -10.682  1.00  0.00     0.041 C 
ATOM     23  O   UNL     1      15.212   8.128 -10.227  1.00  0.00    -0.550 OA
ATOM     24  O   UNL     1      13.516   6.646  -9.813  1.00  0.00    -0.550 OA
ENDBRANCH  21  22
ENDBRANCH  20  21
ENDBRANCH  19  20
ENDBRANCH  18  19
ENDBRANCH  17  18
ENDBRANCH  16  17
ENDBRANCH  15  16
ENDBRANCH  14  15
ENDBRANCH  13  14
ENDBRANCH   1  13
TORSDOF 20
ENDMDL
MODEL 7
REMARK VINA RESULT:    -5.761      2.644      5.802
REMARK INTER + INTRA:         -16.124
REMARK INTER:                 -11.934
REMARK INTRA:                  -4.190
REMARK UNBOUND:                -3.628
REMARK SMILES CCCCCCCCCCCCCCCCCCCCCC(=O)[O-]
REMARK SMILES IDX 12 1 11 2 10 3 9 4 8 5 7 6 6 7 5 8 4 9 3 10 2 11 1 12 13 13
REMARK SMILES IDX 14 14 15 15 16 16 17 17 18 18 19 19 20 20 21 21 22 22 23 23
REMARK SMILES IDX 24 24
REMARK H PARENT
REMARK Flexibility Score: inf
ROOT
ATOM      1  C   UNL     1       9.989   5.585 -12.280  1.00  0.00     0.000 C 
ENDROOT
BRANCH   1   2
ATOM      2  C   UNL     1       9.730   7.104 -12.211  1.00  0.00     0.000 C 
BRANCH   2   3
ATOM      3  C   UNL     1      10.949   7.985 -12.550  1.00  0.00     0.000 C 
BRANCH   3   4
ATOM      4  C   UNL     1      10.731   9.497 -12.347  1.00  0.00    -0.000 C 
BRANCH   4   5
ATOM      5  C   UNL     1      12.019  10.345 -12.311  1.00  0.00    -0.000 C 
BRANCH   5   6
ATOM      6  C   UNL     1      13.204   9.770 -13.109  1.00  0.00    -0.000 C 
BRANCH   6   7
ATOM      7  C   UNL     1      14.361   9.304 -12.210  1.00  0.00    -0.000 C 
BRANCH   7   8
ATOM      8  C   UNL     1      14.991   7.988 -12.693  1.00  0.00    -0.000 C 
BRANCH   8   9
ATOM      9  C   UNL     1      14.441   6.759 -11.952  1.00  0.00    -0.000 C 
BRANCH   9  10
ATOM     10  C   UNL     1      13.837   7.110 -10.581  1.00  0.00    -0.000 C 
BRANCH  10  11
ATOM     11  C   UNL     1      13.122   5.924  -9.900  1.00  0.00    -0.003 C 
ATOM     12  C   UNL     1      11.802   6.335  -9.248  1.00  0.00     0.004 C 
ENDBRANCH  10  11
ENDBRANCH   9  10
ENDBRANCH   8   9
ENDBRANCH   7   8
ENDBRANCH   6   7
ENDBRANCH   5   6
ENDBRANCH   4   5
ENDBRANCH   3   4
ENDBRANCH   2   3
ENDBRANCH   1   2
BRANCH   1  13
ATOM     13  C   UNL     1      11.282   5.173 -13.012  1.00  0.00     0.000 C 
BRANCH  13  14
ATOM     14  C   UNL     1      11.091   4.696 -14.464  1.00  0.00     0.000 C 
BRANCH  14  15
ATOM     15  C   UNL     1      12.132   5.288 -15.429  1.00  0.00     0.000 C 
BRANCH  15  16
ATOM     16  C   UNL     1      12.497   6.745 -15.093  1.00  0.00     0.000 C 
BRANCH  16  17
ATOM     17  C   UNL     1      13.012   7.587 -16.277  1.00  0.00     0.000 C 
BRANCH  17  18
ATOM     18  C   UNL     1      11.979   8.546 -16.894  1.00  0.00     0.000 C 
BRANCH  18  19
ATOM     19  C   UNL     1      10.673   8.615 -16.087  1.00  0.00     0.000 C 
BRANCH  19  20
ATOM     20  C   UNL     1       9.605   7.693 -16.694  1.00  0.00     0.006 C 
BRANCH  20  21
ATOM     21  C   UNL     1       8.493   7.356 -15.691  1.00  0.00     0.053 C 
BRANCH  21  22
ATOM     22  C   UNL     1       7.637   8.546 -15.388  1.00  0.00     0.041 C 
ATOM     23  O   UNL     1       7.622   9.037 -14.230  1.00  0.00    -0.550 OA
ATOM     24  O   UNL     1       6.877   9.131 -16.393  1.00  0.00    -0.550 OA
ENDBRANCH  21  22
ENDBRANCH  20  21
ENDBRANCH  19  20
ENDBRANCH  18  19
ENDBRANCH  17  18
ENDBRANCH  16  17
ENDBRANCH  15  16
ENDBRANCH  14  15
ENDBRANCH  13  14
ENDBRANCH   1  13
TORSDOF 20
ENDMDL
MODEL 8
REMARK VINA RESULT:    -5.759      2.336      5.855
REMARK INTER + INTRA:         -16.119
REMARK INTER:                 -12.326
REMARK INTRA:                  -3.793
REMARK UNBOUND:                -3.628
REMARK SMILES CCCCCCCCCCCCCCCCCCCCCC(=O)[O-]
REMARK SMILES IDX 12 1 11 2 10 3 9 4 8 5 7 6 6 7 5 8 4 9 3 10 2 11 1 12 13 13
REMARK SMILES IDX 14 14 15 15 16 16 17 17 18 18 19 19 20 20 21 21 22 22 23 23
REMARK SMILES IDX 24 24
REMARK H PARENT
REMARK Flexibility Score: inf
ROOT
ATOM      1  C   UNL     1      12.053   5.001 -15.405  1.00  0.00     0.000 C 
ENDROOT
BRANCH   1   2
ATOM      2  C   UNL     1      10.743   5.206 -14.618  1.00  0.00     0.000 C 
BRANCH   2   3
ATOM      3  C   UNL     1      10.780   4.713 -13.158  1.00  0.00     0.000 C 
BRANCH   3   4
ATOM      4  C   UNL     1      10.276   5.733 -12.118  1.00  0.00    -0.000 C 
BRANCH   4   5
ATOM      5  C   UNL     1      11.227   6.917 -11.848  1.00  0.00    -0.000 C 
BRANCH   5   6
ATOM      6  C   UNL     1      11.943   6.883 -10.485  1.00  0.00    -0.000 C 
BRANCH   6   7
ATOM      7  C   UNL     1      13.459   6.659 -10.612  1.00  0.00    -0.000 C 
BRANCH   7   8
ATOM      8  C   UNL     1      13.917   6.531 -12.073  1.00  0.00    -0.000 C 
BRANCH   8   9
ATOM      9  C   UNL     1      15.023   7.534 -12.439  1.00  0.00    -0.000 C 
BRANCH   9  10
ATOM     10  C   UNL     1      14.623   8.469 -13.594  1.00  0.00    -0.000 C 
BRANCH  10  11
ATOM     11  C   UNL     1      13.947   9.775 -13.124  1.00  0.00    -0.003 C 
ATOM     12  C   UNL     1      14.326  10.144 -11.690  1.00  0.00     0.004 C 
ENDBRANCH  10  11
ENDBRANCH   9  10
ENDBRANCH   8   9
ENDBRANCH   7   8
ENDBRANCH   6   7
ENDBRANCH   5   6
ENDBRANCH   4   5
ENDBRANCH   3   4
ENDBRANCH   2   3
ENDBRANCH   1   2
BRANCH   1  13
ATOM     13  C   UNL     1      12.688   6.288 -15.969  1.00  0.00     0.000 C 
BRANCH  13  14
ATOM     14  C   UNL     1      11.931   7.589 -15.644  1.00  0.00     0.000 C 
BRANCH  14  15
ATOM     15  C   UNL     1      11.975   8.609 -16.794  1.00  0.00     0.000 C 
BRANCH  15  16
ATOM     16  C   UNL     1      10.576   8.979 -17.319  1.00  0.00     0.000 C 
BRANCH  16  17
ATOM     17  C   UNL     1       9.443   8.016 -16.912  1.00  0.00     0.000 C 
BRANCH  17  18
ATOM     18  C   UNL     1       8.044   8.652 -16.832  1.00  0.00     0.000 C 
BRANCH  18  19
ATOM     19  C   UNL     1       7.369   8.439 -15.468  1.00  0.00     0.000 C 
BRANCH  19  20
ATOM     20  C   UNL     1       8.403   8.057 -14.399  1.00  0.00     0.006 C 
BRANCH  20  21
ATOM     21  C   UNL     1       8.331   8.973 -13.169  1.00  0.00     0.053 C 
BRANCH  21  22
ATOM     22  C   UNL     1       9.152  10.211 -13.347  1.00  0.00     0.041 C 
ATOM     23  O   UNL     1      10.315  10.137 -13.825  1.00  0.00    -0.550 OA
ATOM     24  O   UNL     1       8.623  11.452 -13.015  1.00  0.00    -0.550 OA
ENDBRANCH  21  22
ENDBRANCH  20  21
ENDBRANCH  19  20
ENDBRANCH  18  19
ENDBRANCH  17  18
ENDBRANCH  16  17
ENDBRANCH  15  16
ENDBRANCH  14  15
ENDBRANCH  13  14
ENDBRANCH   1  13
TORSDOF 20
ENDMDL
MODEL 9
REMARK VINA RESULT:    -5.757      2.006      4.953
REMARK INTER + INTRA:         -16.116
REMARK INTER:                 -12.760
REMARK INTRA:                  -3.356
REMARK UNBOUND:                -3.628
REMARK SMILES CCCCCCCCCCCCCCCCCCCCCC(=O)[O-]
REMARK SMILES IDX 12 1 11 2 10 3 9 4 8 5 7 6 6 7 5 8 4 9 3 10 2 11 1 12 13 13
REMARK SMILES IDX 14 14 15 15 16 16 17 17 18 18 19 19 20 20 21 21 22 22 23 23
REMARK SMILES IDX 24 24
REMARK H PARENT
REMARK Flexibility Score: inf
ROOT
ATOM      1  C   UNL     1      10.781   9.110 -17.384  1.00  0.00     0.000 C 
ENDROOT
BRANCH   1   2
ATOM      2  C   UNL     1      11.462   8.616 -16.091  1.00  0.00     0.000 C 
BRANCH   2   3
ATOM      3  C   UNL     1      12.830   7.937 -16.299  1.00  0.00     0.000 C 
BRANCH   3   4
ATOM      4  C   UNL     1      12.936   6.508 -15.731  1.00  0.00    -0.000 C 
BRANCH   4   5
ATOM      5  C   UNL     1      11.588   5.805 -15.471  1.00  0.00    -0.000 C 
BRANCH   5   6
ATOM      6  C   UNL     1      11.678   4.496 -14.665  1.00  0.00    -0.000 C 
BRANCH   6   7
ATOM      7  C   UNL     1      10.918   4.562 -13.330  1.00  0.00    -0.000 C 
BRANCH   7   8
ATOM      8  C   UNL     1      10.915   5.974 -12.723  1.00  0.00    -0.000 C 
BRANCH   8   9
ATOM      9  C   UNL     1       9.849   6.149 -11.630  1.00  0.00    -0.000 C 
BRANCH   9  10
ATOM     10  C   UNL     1      10.421   6.000 -10.209  1.00  0.00    -0.000 C 
BRANCH  10  11
ATOM     11  C   UNL     1      11.751   6.754  -9.998  1.00  0.00    -0.003 C 
ATOM     12  C   UNL     1      12.740   5.963  -9.142  1.00  0.00     0.004 C 
ENDBRANCH  10  11
ENDBRANCH   9  10
ENDBRANCH   8   9
ENDBRANCH   7   8
ENDBRANCH   6   7
ENDBRANCH   5   6
ENDBRANCH   4   5
ENDBRANCH   3   4
ENDBRANCH   2   3
ENDBRANCH   1   2
BRANCH   1  13
ATOM     13  C   UNL     1       9.421   8.456 -17.698  1.00  0.00     0.000 C 
BRANCH  13  14
ATOM     14  C   UNL     1       8.345   8.625 -16.609  1.00  0.00     0.000 C 
BRANCH  14  15
ATOM     15  C   UNL     1       8.335   7.468 -15.595  1.00  0.00     0.000 C 
BRANCH  15  16
ATOM     16  C   UNL     1       8.039   7.936 -14.159  1.00  0.00     0.000 C 
BRANCH  16  17
ATOM     17  C   UNL     1       7.918   9.461 -13.973  1.00  0.00     0.000 C 
BRANCH  17  18
ATOM     18  C   UNL     1       8.815  10.057 -12.874  1.00  0.00     0.000 C 
BRANCH  18  19
ATOM     19  C   UNL     1      10.251  10.318 -13.352  1.00  0.00     0.000 C 
BRANCH  19  20
ATOM     20  C   UNL     1      11.262   9.536 -12.500  1.00  0.00     0.006 C 
BRANCH  20  21
ATOM     21  C   UNL     1      12.641  10.208 -12.474  1.00  0.00     0.053 C 
BRANCH  21  22
ATOM     22  C   UNL     1      13.716   9.296 -12.978  1.00  0.00     0.041 C 
ATOM     23  O   UNL     1      13.777   8.106 -12.573  1.00  0.00    -0.550 OA
ATOM     24  O   UNL     1      14.631   9.750 -13.918  1.00  0.00    -0.550 OA
ENDBRANCH  21  22
ENDBRANCH  20  21
ENDBRANCH  19  20
ENDBRANCH  18  19
ENDBRANCH  17  18
ENDBRANCH  16  17
ENDBRANCH  15  16
ENDBRANCH  14  15
ENDBRANCH  13  14
ENDBRANCH   1  13
TORSDOF 20
ENDMDL
