MODEL 1
REMARK VINA RESULT:    -4.472      0.000      0.000
REMARK INTER + INTRA:          -9.039
REMARK INTER:                  -8.133
REMARK INTRA:                  -0.906
REMARK UNBOUND:                -0.906
REMARK SMILES CCCCCCCCCCCCCCCC(=O)[O-]
REMARK SMILES IDX 9 1 10 2 11 3 12 4 13 5 14 6 15 7 16 8 17 9 18 10 8 11 7 12
REMARK SMILES IDX 6 13 5 14 4 15 3 16 2 17 1 18
REMARK H PARENT
REMARK Flexibility Score: inf
ROOT
ATOM      1  C   UNL     1      50.461  33.765   2.236  1.00  0.00     0.000 C 
ENDROOT
BRANCH   1   2
ATOM      2  C   UNL     1      50.312  33.651   3.769  1.00  0.00     0.000 C 
BRANCH   2   3
ATOM      3  C   UNL     1      51.291  32.628   4.370  1.00  0.00     0.000 C 
BRANCH   3   4
ATOM      4  C   UNL     1      50.861  32.141   5.764  1.00  0.00     0.000 C 
BRANCH   4   5
ATOM      5  C   UNL     1      49.363  32.369   6.033  1.00  0.00     0.000 C 
BRANCH   5   6
ATOM      6  C   UNL     1      49.095  32.943   7.432  1.00  0.00     0.006 C 
BRANCH   6   7
ATOM      7  C   UNL     1      49.701  34.341   7.627  1.00  0.00     0.053 C 
BRANCH   7   8
ATOM      8  C   UNL     1      49.484  34.809   9.032  1.00  0.00     0.041 C 
ATOM      9  O   UNL     1      50.448  35.257   9.707  1.00  0.00    -0.550 OA
ATOM     10  O   UNL     1      48.207  34.804   9.576  1.00  0.00    -0.550 OA
ENDBRANCH   7   8
ENDBRANCH   6   7
ENDBRANCH   5   6
ENDBRANCH   4   5
ENDBRANCH   3   4
ENDBRANCH   2   3
ENDBRANCH   1   2
BRANCH   1  11
ATOM     11  C   UNL     1      51.836  33.317   1.714  1.00  0.00     0.000 C 
BRANCH  11  12
ATOM     12  C   UNL     1      51.776  31.991   0.938  1.00  0.00    -0.000 C 
BRANCH  12  13
ATOM     13  C   UNL     1      51.150  32.139  -0.461  1.00  0.00    -0.000 C 
BRANCH  13  14
ATOM     14  C   UNL     1      51.889  33.092  -1.419  1.00  0.00    -0.000 C 
BRANCH  14  15
ATOM     15  C   UNL     1      50.939  33.988  -2.231  1.00  0.00    -0.000 C 
BRANCH  15  16
ATOM     16  C   UNL     1      49.534  33.377  -2.397  1.00  0.00    -0.000 C 
BRANCH  16  17
ATOM     17  C   UNL     1      48.861  33.646  -3.755  1.00  0.00    -0.003 C 
ATOM     18  C   UNL     1      48.593  32.373  -4.556  1.00  0.00     0.004 C 
ENDBRANCH  16  17
ENDBRANCH  15  16
ENDBRANCH  14  15
ENDBRANCH  13  14
ENDBRANCH  12  13
ENDBRANCH  11  12
ENDBRANCH   1  11
TORSDOF 14
ENDMDL
MODEL 2
REMARK VINA RESULT:    -4.436      4.660      9.588
REMARK INTER + INTRA:          -8.973
REMARK INTER:                  -8.094
REMARK INTRA:                  -0.879
REMARK UNBOUND:                -0.906
REMARK SMILES CCCCCCCCCCCCCCCC(=O)[O-]
REMARK SMILES IDX 9 1 10 2 11 3 12 4 13 5 14 6 15 7 16 8 17 9 18 10 8 11 7 12
REMARK SMILES IDX 6 13 5 14 4 15 3 16 2 17 1 18
REMARK H PARENT
REMARK Flexibility Score: inf
ROOT
ATOM      1  C   UNL     1      50.216  33.505   4.598  1.00  0.00     0.000 C 
ENDROOT
BRANCH   1   2
ATOM      2  C   UNL     1      50.371  33.750   3.081  1.00  0.00     0.000 C 
BRANCH   2   3
ATOM      3  C   UNL     1      51.576  32.994   2.494  1.00  0.00     0.000 C 
BRANCH   3   4
ATOM      4  C   UNL     1      51.534  32.908   0.959  1.00  0.00     0.000 C 
BRANCH   4   5
ATOM      5  C   UNL     1      50.161  33.298   0.384  1.00  0.00     0.000 C 
BRANCH   5   6
ATOM      6  C   UNL     1      49.752  32.424  -0.811  1.00  0.00     0.006 C 
BRANCH   6   7
ATOM      7  C   UNL     1      50.827  32.375  -1.907  1.00  0.00     0.053 C 
BRANCH   7   8
ATOM      8  C   UNL     1      50.270  32.877  -3.203  1.00  0.00     0.041 C 
ATOM      9  O   UNL     1      51.009  32.964  -4.219  1.00  0.00    -0.550 OA
ATOM     10  O   UNL     1      48.922  33.195  -3.302  1.00  0.00    -0.550 OA
ENDBRANCH   7   8
ENDBRANCH   6   7
ENDBRANCH   5   6
ENDBRANCH   4   5
ENDBRANCH   3   4
ENDBRANCH   2   3
ENDBRANCH   1   2
BRANCH   1  11
ATOM     11  C   UNL     1      50.982  32.272   5.106  1.00  0.00     0.000 C 
BRANCH  11  12
ATOM     12  C   UNL     1      50.727  31.984   6.594  1.00  0.00    -0.000 C 
BRANCH  12  13
ATOM     13  C   UNL     1      49.262  32.213   7.010  1.00  0.00    -0.000 C 
BRANCH  13  14
ATOM     14  C   UNL     1      49.051  33.185   8.186  1.00  0.00    -0.000 C 
BRANCH  14  15
ATOM     15  C   UNL     1      49.670  34.571   7.942  1.00  0.00    -0.000 C 
BRANCH  15  16
ATOM     16  C   UNL     1      50.181  35.236   9.234  1.00  0.00    -0.000 C 
BRANCH  16  17
ATOM     17  C   UNL     1      49.368  34.913  10.501  1.00  0.00    -0.003 C 
ATOM     18  C   UNL     1      48.150  35.818  10.681  1.00  0.00     0.004 C 
ENDBRANCH  16  17
ENDBRANCH  15  16
ENDBRANCH  14  15
ENDBRANCH  13  14
ENDBRANCH  12  13
ENDBRANCH  11  12
ENDBRANCH   1  11
TORSDOF 14
ENDMDL
MODEL 3
REMARK VINA RESULT:    -4.385      4.161      9.702
REMARK INTER + INTRA:          -8.880
REMARK INTER:                  -7.948
REMARK INTRA:                  -0.932
REMARK UNBOUND:                -0.906
REMARK SMILES CCCCCCCCCCCCCCCC(=O)[O-]
REMARK SMILES IDX 9 1 10 2 11 3 12 4 13 5 14 6 15 7 16 8 17 9 18 10 8 11 7 12
REMARK SMILES IDX 6 13 5 14 4 15 3 16 2 17 1 18
REMARK H PARENT
REMARK Flexibility Score: inf
ROOT
ATOM      1  C   UNL     1      50.827  32.090   6.416  1.00  0.00     0.000 C 
ENDROOT
BRANCH   1   2
ATOM      2  C   UNL     1      51.039  32.331   4.906  1.00  0.00     0.000 C 
BRANCH   2   3
ATOM      3  C   UNL     1      50.115  33.435   4.362  1.00  0.00     0.000 C 
BRANCH   3   4
ATOM      4  C   UNL     1      50.459  33.842   2.919  1.00  0.00     0.000 C 
BRANCH   4   5
ATOM      5  C   UNL     1      51.643  33.043   2.347  1.00  0.00     0.000 C 
BRANCH   5   6
ATOM      6  C   UNL     1      51.349  32.468   0.954  1.00  0.00     0.006 C 
BRANCH   6   7
ATOM      7  C   UNL     1      50.129  33.121   0.287  1.00  0.00     0.053 C 
BRANCH   7   8
ATOM      8  C   UNL     1      50.473  33.568  -1.099  1.00  0.00     0.041 C 
ATOM      9  O   UNL     1      51.673  33.778  -1.419  1.00  0.00    -0.550 OA
ATOM     10  O   UNL     1      49.473  33.700  -2.054  1.00  0.00    -0.550 OA
ENDBRANCH   7   8
ENDBRANCH   6   7
ENDBRANCH   5   6
ENDBRANCH   4   5
ENDBRANCH   3   4
ENDBRANCH   2   3
ENDBRANCH   1   2
BRANCH   1  11
ATOM     11  C   UNL     1      49.924  33.138   7.088  1.00  0.00     0.000 C 
BRANCH  11  12
ATOM     12  C   UNL     1      48.676  32.519   7.738  1.00  0.00    -0.000 C 
BRANCH  12  13
ATOM     13  C   UNL     1      48.398  33.066   9.150  1.00  0.00    -0.000 C 
BRANCH  13  14
ATOM     14  C   UNL     1      49.568  33.817   9.813  1.00  0.00    -0.000 C 
BRANCH  14  15
ATOM     15  C   UNL     1      49.306  35.325   9.968  1.00  0.00    -0.000 C 
BRANCH  15  16
ATOM     16  C   UNL     1      49.016  35.736  11.424  1.00  0.00    -0.000 C 
BRANCH  16  17
ATOM     17  C   UNL     1      47.653  36.414  11.652  1.00  0.00    -0.003 C 
ATOM     18  C   UNL     1      46.633  36.098  10.559  1.00  0.00     0.004 C 
ENDBRANCH  16  17
ENDBRANCH  15  16
ENDBRANCH  14  15
ENDBRANCH  13  14
ENDBRANCH  12  13
ENDBRANCH  11  12
ENDBRANCH   1  11
TORSDOF 14
ENDMDL
MODEL 4
REMARK VINA RESULT:    -4.367      1.155      2.376
REMARK INTER + INTRA:          -8.848
REMARK INTER:                  -7.569
REMARK INTRA:                  -1.279
REMARK UNBOUND:                -0.906
REMARK SMILES CCCCCCCCCCCCCCCC(=O)[O-]
REMARK SMILES IDX 9 1 10 2 11 3 12 4 13 5 14 6 15 7 16 8 17 9 18 10 8 11 7 12
REMARK SMILES IDX 6 13 5 14 4 15 3 16 2 17 1 18
REMARK H PARENT
REMARK Flexibility Score: inf
ROOT
ATOM      1  C   UNL     1      51.934  33.133   1.348  1.00  0.00     0.000 C 
ENDROOT
BRANCH   1   2
ATOM      2  C   UNL     1      51.629  32.988   2.855  1.00  0.00     0.000 C 
BRANCH   2   3
ATOM      3  C   UNL     1      50.361  33.758   3.264  1.00  0.00     0.000 C 
BRANCH   3   4
ATOM      4  C   UNL     1      49.843  33.355   4.654  1.00  0.00     0.000 C 
BRANCH   4   5
ATOM      5  C   UNL     1      50.843  32.473   5.423  1.00  0.00     0.000 C 
BRANCH   5   6
ATOM      6  C   UNL     1      50.466  32.306   6.903  1.00  0.00     0.006 C 
BRANCH   6   7
ATOM      7  C   UNL     1      49.049  32.810   7.216  1.00  0.00     0.053 C 
BRANCH   7   8
ATOM      8  C   UNL     1      49.107  33.969   8.161  1.00  0.00     0.041 C 
ATOM      9  O   UNL     1      49.929  34.903   7.969  1.00  0.00    -0.550 OA
ATOM     10  O   UNL     1      48.214  34.045   9.222  1.00  0.00    -0.550 OA
ENDBRANCH   7   8
ENDBRANCH   6   7
ENDBRANCH   5   6
ENDBRANCH   4   5
ENDBRANCH   3   4
ENDBRANCH   2   3
ENDBRANCH   1   2
BRANCH   1  11
ATOM     11  C   UNL     1      51.312  32.024   0.483  1.00  0.00     0.000 C 
BRANCH  11  12
ATOM     12  C   UNL     1      50.160  32.533  -0.398  1.00  0.00    -0.000 C 
BRANCH  12  13
ATOM     13  C   UNL     1      50.133  31.881  -1.793  1.00  0.00    -0.000 C 
BRANCH  13  14
ATOM     14  C   UNL     1      49.372  32.666  -2.877  1.00  0.00    -0.000 C 
BRANCH  14  15
ATOM     15  C   UNL     1      49.924  34.085  -3.093  1.00  0.00    -0.000 C 
BRANCH  15  16
ATOM     16  C   UNL     1      51.408  34.095  -3.506  1.00  0.00    -0.000 C 
BRANCH  16  17
ATOM     17  C   UNL     1      52.358  34.789  -2.514  1.00  0.00    -0.003 C 
ATOM     18  C   UNL     1      53.467  33.872  -2.001  1.00  0.00     0.004 C 
ENDBRANCH  16  17
ENDBRANCH  15  16
ENDBRANCH  14  15
ENDBRANCH  13  14
ENDBRANCH  12  13
ENDBRANCH  11  12
ENDBRANCH   1  11
TORSDOF 14
ENDMDL
MODEL 5
REMARK VINA RESULT:    -4.328     16.022     17.726
REMARK INTER + INTRA:          -8.777
REMARK INTER:                  -6.485
REMARK INTRA:                  -2.292
REMARK UNBOUND:                -0.906
REMARK SMILES CCCCCCCCCCCCCCCC(=O)[O-]
REMARK SMILES IDX 9 1 10 2 11 3 12 4 13 5 14 6 15 7 16 8 17 9 18 10 8 11 7 12
REMARK SMILES IDX 6 13 5 14 4 15 3 16 2 17 1 18
REMARK H PARENT
REMARK Flexibility Score: inf
ROOT
ATOM      1  C   UNL     1      50.012  48.442  13.480  1.00  0.00     0.000 C 
ENDROOT
BRANCH   1   2
ATOM      2  C   UNL     1      49.998  49.654  12.524  1.00  0.00     0.000 C 
BRANCH   2   3
ATOM      3  C   UNL     1      50.674  49.336  11.179  1.00  0.00     0.000 C 
BRANCH   3   4
ATOM      4  C   UNL     1      50.394  47.903  10.695  1.00  0.00     0.000 C 
BRANCH   4   5
ATOM      5  C   UNL     1      51.684  47.119  10.396  1.00  0.00     0.000 C 
BRANCH   5   6
ATOM      6  C   UNL     1      51.988  46.054  11.461  1.00  0.00     0.006 C 
BRANCH   6   7
ATOM      7  C   UNL     1      53.309  46.312  12.199  1.00  0.00     0.053 C 
BRANCH   7   8
ATOM      8  C   UNL     1      54.284  45.211  11.920  1.00  0.00     0.041 C 
ATOM      9  O   UNL     1      54.749  45.054  10.760  1.00  0.00    -0.550 OA
ATOM     10  O   UNL     1      54.723  44.394  12.954  1.00  0.00    -0.550 OA
ENDBRANCH   7   8
ENDBRANCH   6   7
ENDBRANCH   5   6
ENDBRANCH   4   5
ENDBRANCH   3   4
ENDBRANCH   2   3
ENDBRANCH   1   2
BRANCH   1  11
ATOM     11  C   UNL     1      48.622  48.066  14.021  1.00  0.00     0.000 C 
BRANCH  11  12
ATOM     12  C   UNL     1      48.371  46.550  14.015  1.00  0.00    -0.000 C 
BRANCH  12  13
ATOM     13  C   UNL     1      47.894  46.023  12.649  1.00  0.00    -0.000 C 
BRANCH  13  14
ATOM     14  C   UNL     1      46.371  45.846  12.503  1.00  0.00    -0.000 C 
BRANCH  14  15
ATOM     15  C   UNL     1      45.683  47.057  11.851  1.00  0.00    -0.000 C 
BRANCH  15  16
ATOM     16  C   UNL     1      46.521  47.687  10.721  1.00  0.00    -0.000 C 
BRANCH  16  17
ATOM     17  C   UNL     1      46.749  49.204  10.845  1.00  0.00    -0.003 C 
ATOM     18  C   UNL     1      46.036  49.824  12.046  1.00  0.00     0.004 C 
ENDBRANCH  16  17
ENDBRANCH  15  16
ENDBRANCH  14  15
ENDBRANCH  13  14
ENDBRANCH  12  13
ENDBRANCH  11  12
ENDBRANCH   1  11
TORSDOF 14
ENDMDL
MODEL 6
REMARK VINA RESULT:    -4.286     17.363     18.398
REMARK INTER + INTRA:          -8.700
REMARK INTER:                  -7.859
REMARK INTRA:                  -0.842
REMARK UNBOUND:                -0.906
REMARK SMILES CCCCCCCCCCCCCCCC(=O)[O-]
REMARK SMILES IDX 9 1 10 2 11 3 12 4 13 5 14 6 15 7 16 8 17 9 18 10 8 11 7 12
REMARK SMILES IDX 6 13 5 14 4 15 3 16 2 17 1 18
REMARK H PARENT
REMARK Flexibility Score: inf
ROOT
ATOM      1  C   UNL     1      50.073  51.485   0.692  1.00  0.00     0.000 C 
ENDROOT
BRANCH   1   2
ATOM      2  C   UNL     1      51.512  51.776   1.169  1.00  0.00     0.000 C 
BRANCH   2   3
ATOM      3  C   UNL     1      51.720  51.393   2.645  1.00  0.00     0.000 C 
BRANCH   3   4
ATOM      4  C   UNL     1      53.088  51.838   3.188  1.00  0.00     0.000 C 
BRANCH   4   5
ATOM      5  C   UNL     1      54.222  51.640   2.166  1.00  0.00     0.000 C 
BRANCH   5   6
ATOM      6  C   UNL     1      54.854  50.242   2.250  1.00  0.00     0.006 C 
BRANCH   6   7
ATOM      7  C   UNL     1      55.189  49.658   0.870  1.00  0.00     0.053 C 
BRANCH   7   8
ATOM      8  C   UNL     1      55.419  48.182   0.973  1.00  0.00     0.041 C 
ATOM      9  O   UNL     1      54.930  47.403   0.113  1.00  0.00    -0.550 OA
ATOM     10  O   UNL     1      56.220  47.673   1.986  1.00  0.00    -0.550 OA
ENDBRANCH   7   8
ENDBRANCH   6   7
ENDBRANCH   5   6
ENDBRANCH   4   5
ENDBRANCH   3   4
ENDBRANCH   2   3
ENDBRANCH   1   2
BRANCH   1  11
ATOM     11  C   UNL     1      49.223  50.723   1.723  1.00  0.00     0.000 C 
BRANCH  11  12
ATOM     12  C   UNL     1      47.799  51.288   1.854  1.00  0.00    -0.000 C 
BRANCH  12  13
ATOM     13  C   UNL     1      47.216  51.771   0.514  1.00  0.00    -0.000 C 
BRANCH  13  14
ATOM     14  C   UNL     1      45.678  51.782   0.425  1.00  0.00    -0.000 C 
BRANCH  14  15
ATOM     15  C   UNL     1      45.008  50.868   1.465  1.00  0.00    -0.000 C 
BRANCH  15  16
ATOM     16  C   UNL     1      44.738  49.449   0.931  1.00  0.00    -0.000 C 
BRANCH  16  17
ATOM     17  C   UNL     1      43.296  49.191   0.458  1.00  0.00    -0.003 C 
ATOM     18  C   UNL     1      42.249  49.499   1.526  1.00  0.00     0.004 C 
ENDBRANCH  16  17
ENDBRANCH  15  16
ENDBRANCH  14  15
ENDBRANCH  13  14
ENDBRANCH  12  13
ENDBRANCH  11  12
ENDBRANCH   1  11
TORSDOF 14
ENDMDL
MODEL 7
REMARK VINA RESULT:    -4.283      3.887      9.308
REMARK INTER + INTRA:          -8.694
REMARK INTER:                  -7.829
REMARK INTRA:                  -0.865
REMARK UNBOUND:                -0.906
REMARK SMILES CCCCCCCCCCCCCCCC(=O)[O-]
REMARK SMILES IDX 9 1 10 2 11 3 12 4 13 5 14 6 15 7 16 8 17 9 18 10 8 11 7 12
REMARK SMILES IDX 6 13 5 14 4 15 3 16 2 17 1 18
REMARK H PARENT
REMARK Flexibility Score: inf
ROOT
ATOM      1  C   UNL     1      50.558  33.483   4.067  1.00  0.00     0.000 C 
ENDROOT
BRANCH   1   2
ATOM      2  C   UNL     1      51.061  33.478   2.607  1.00  0.00     0.000 C 
BRANCH   2   3
ATOM      3  C   UNL     1      49.945  33.835   1.610  1.00  0.00     0.000 C 
BRANCH   3   4
ATOM      4  C   UNL     1      50.136  33.167   0.238  1.00  0.00     0.000 C 
BRANCH   4   5
ATOM      5  C   UNL     1      51.243  32.098   0.252  1.00  0.00     0.000 C 
BRANCH   5   6
ATOM      6  C   UNL     1      52.242  32.268  -0.902  1.00  0.00     0.006 C 
BRANCH   6   7
ATOM      7  C   UNL     1      52.301  33.709  -1.429  1.00  0.00     0.053 C 
BRANCH   7   8
ATOM      8  C   UNL     1      53.518  34.405  -0.904  1.00  0.00     0.041 C 
ATOM      9  O   UNL     1      54.320  34.965  -1.697  1.00  0.00    -0.550 OA
ATOM     10  O   UNL     1      53.737  34.482   0.465  1.00  0.00    -0.550 OA
ENDBRANCH   7   8
ENDBRANCH   6   7
ENDBRANCH   5   6
ENDBRANCH   4   5
ENDBRANCH   3   4
ENDBRANCH   2   3
ENDBRANCH   1   2
BRANCH   1  11
ATOM     11  C   UNL     1      51.072  32.298   4.901  1.00  0.00     0.000 C 
BRANCH  11  12
ATOM     12  C   UNL     1      50.712  32.419   6.391  1.00  0.00    -0.000 C 
BRANCH  12  13
ATOM     13  C   UNL     1      49.326  33.047   6.627  1.00  0.00    -0.000 C 
BRANCH  13  14
ATOM     14  C   UNL     1      48.675  32.723   7.985  1.00  0.00    -0.000 C 
BRANCH  14  15
ATOM     15  C   UNL     1      48.381  33.976   8.828  1.00  0.00    -0.000 C 
BRANCH  15  16
ATOM     16  C   UNL     1      49.652  34.771   9.183  1.00  0.00    -0.000 C 
BRANCH  16  17
ATOM     17  C   UNL     1      49.762  35.204  10.656  1.00  0.00    -0.003 C 
ATOM     18  C   UNL     1      48.582  36.056  11.121  1.00  0.00     0.004 C 
ENDBRANCH  16  17
ENDBRANCH  15  16
ENDBRANCH  14  15
ENDBRANCH  13  14
ENDBRANCH  12  13
ENDBRANCH  11  12
ENDBRANCH   1  11
TORSDOF 14
ENDMDL
MODEL 8
REMARK VINA RESULT:    -4.274      1.751      3.026
REMARK INTER + INTRA:          -8.677
REMARK INTER:                  -7.333
REMARK INTRA:                  -1.344
REMARK UNBOUND:                -0.906
REMARK SMILES CCCCCCCCCCCCCCCC(=O)[O-]
REMARK SMILES IDX 9 1 10 2 11 3 12 4 13 5 14 6 15 7 16 8 17 9 18 10 8 11 7 12
REMARK SMILES IDX 6 13 5 14 4 15 3 16 2 17 1 18
REMARK H PARENT
REMARK Flexibility Score: inf
ROOT
ATOM      1  C   UNL     1      51.566  32.623   2.103  1.00  0.00     0.000 C 
ENDROOT
BRANCH   1   2
ATOM      2  C   UNL     1      51.460  32.668   3.643  1.00  0.00     0.000 C 
BRANCH   2   3
ATOM      3  C   UNL     1      50.552  33.812   4.126  1.00  0.00     0.000 C 
BRANCH   3   4
ATOM      4  C   UNL     1      49.380  33.318   4.989  1.00  0.00     0.000 C 
BRANCH   4   5
ATOM      5  C   UNL     1      49.806  32.239   6.001  1.00  0.00     0.000 C 
BRANCH   5   6
ATOM      6  C   UNL     1      50.124  32.822   7.387  1.00  0.00     0.006 C 
BRANCH   6   7
ATOM      7  C   UNL     1      49.679  34.285   7.532  1.00  0.00     0.053 C 
BRANCH   7   8
ATOM      8  C   UNL     1      49.233  34.555   8.935  1.00  0.00     0.041 C 
ATOM      9  O   UNL     1      48.059  34.275   9.292  1.00  0.00    -0.550 OA
ATOM     10  O   UNL     1      50.132  35.065   9.863  1.00  0.00    -0.550 OA
ENDBRANCH   7   8
ENDBRANCH   6   7
ENDBRANCH   5   6
ENDBRANCH   4   5
ENDBRANCH   3   4
ENDBRANCH   2   3
ENDBRANCH   1   2
BRANCH   1  11
ATOM     11  C   UNL     1      50.651  33.633   1.391  1.00  0.00     0.000 C 
BRANCH  11  12
ATOM     12  C   UNL     1      50.170  33.136   0.018  1.00  0.00    -0.000 C 
BRANCH  12  13
ATOM     13  C   UNL     1      50.922  31.882  -0.466  1.00  0.00    -0.000 C 
BRANCH  13  14
ATOM     14  C   UNL     1      52.129  32.147  -1.385  1.00  0.00    -0.000 C 
BRANCH  14  15
ATOM     15  C   UNL     1      52.338  33.640  -1.691  1.00  0.00    -0.000 C 
BRANCH  15  16
ATOM     16  C   UNL     1      53.768  34.122  -1.379  1.00  0.00    -0.000 C 
BRANCH  16  17
ATOM     17  C   UNL     1      53.935  34.838  -0.027  1.00  0.00    -0.003 C 
ATOM     18  C   UNL     1      54.736  34.026   0.990  1.00  0.00     0.004 C 
ENDBRANCH  16  17
ENDBRANCH  15  16
ENDBRANCH  14  15
ENDBRANCH  13  14
ENDBRANCH  12  13
ENDBRANCH  11  12
ENDBRANCH   1  11
TORSDOF 14
ENDMDL
MODEL 9
REMARK VINA RESULT:    -4.265     17.817     18.969
REMARK INTER + INTRA:          -8.662
REMARK INTER:                  -7.558
REMARK INTRA:                  -1.104
REMARK UNBOUND:                -0.906
REMARK SMILES CCCCCCCCCCCCCCCC(=O)[O-]
REMARK SMILES IDX 9 1 10 2 11 3 12 4 13 5 14 6 15 7 16 8 17 9 18 10 8 11 7 12
REMARK SMILES IDX 6 13 5 14 4 15 3 16 2 17 1 18
REMARK H PARENT
REMARK Flexibility Score: inf
ROOT
ATOM      1  C   UNL     1      49.666  51.848   0.708  1.00  0.00     0.000 C 
ENDROOT
BRANCH   1   2
ATOM      2  C   UNL     1      49.995  50.647   1.621  1.00  0.00     0.000 C 
BRANCH   2   3
ATOM      3  C   UNL     1      50.883  51.052   2.811  1.00  0.00     0.000 C 
BRANCH   3   4
ATOM      4  C   UNL     1      52.141  51.824   2.379  1.00  0.00     0.000 C 
BRANCH   4   5
ATOM      5  C   UNL     1      53.414  50.963   2.448  1.00  0.00     0.000 C 
BRANCH   5   6
ATOM      6  C   UNL     1      54.155  50.895   1.104  1.00  0.00     0.006 C 
BRANCH   6   7
ATOM      7  C   UNL     1      53.337  51.482  -0.055  1.00  0.00     0.053 C 
BRANCH   7   8
ATOM      8  C   UNL     1      52.848  50.388  -0.952  1.00  0.00     0.041 C 
ATOM      9  O   UNL     1      53.262  49.209  -0.798  1.00  0.00    -0.550 OA
ATOM     10  O   UNL     1      51.891  50.660  -1.921  1.00  0.00    -0.550 OA
ENDBRANCH   7   8
ENDBRANCH   6   7
ENDBRANCH   5   6
ENDBRANCH   4   5
ENDBRANCH   3   4
ENDBRANCH   2   3
ENDBRANCH   1   2
BRANCH   1  11
ATOM     11  C   UNL     1      48.161  52.035   0.452  1.00  0.00     0.000 C 
BRANCH  11  12
ATOM     12  C   UNL     1      47.297  51.626   1.656  1.00  0.00    -0.000 C 
BRANCH  12  13
ATOM     13  C   UNL     1      45.812  51.438   1.296  1.00  0.00    -0.000 C 
BRANCH  13  14
ATOM     14  C   UNL     1      45.185  50.105   1.745  1.00  0.00    -0.000 C 
BRANCH  14  15
ATOM     15  C   UNL     1      44.188  49.533   0.723  1.00  0.00    -0.000 C 
BRANCH  15  16
ATOM     16  C   UNL     1      42.731  49.570   1.221  1.00  0.00    -0.000 C 
BRANCH  16  17
ATOM     17  C   UNL     1      42.487  50.446   2.464  1.00  0.00    -0.003 C 
ATOM     18  C   UNL     1      41.514  49.818   3.461  1.00  0.00     0.004 C 
ENDBRANCH  16  17
ENDBRANCH  15  16
ENDBRANCH  14  15
ENDBRANCH  13  14
ENDBRANCH  12  13
ENDBRANCH  11  12
ENDBRANCH   1  11
TORSDOF 14
ENDMDL
