MODEL 1
REMARK VINA RESULT:    -1.252      0.000      0.000
REMARK INTER + INTRA:          -1.513
REMARK INTER:                  -1.508
REMARK INTRA:                  -0.005
REMARK UNBOUND:                -0.005
REMARK SMILES Oc1cc(O)c2cc(O)c(-c3ccc(O)c(O)c3)[o+]c2c1
REMARK SMILES IDX 10 1 19 2 20 3 21 4 2 5 3 6 4 7 6 8 7 9 8 10 11 11 12 12
REMARK SMILES IDX 13 13 14 14 18 15 16 16 15 17 17 19 9 21 1 23 5 25
REMARK H PARENT 15 18 17 20 9 22 1 24 5 26
REMARK Flexibility Score: inf
ROOT
ATOM      1  C   UNL     1      19.571  11.477  -9.140  1.00  0.00     0.402 A 
ATOM      2  O   UNL     1      20.109  12.654  -9.449  1.00  0.00    -0.202 OA
ATOM      3  C   UNL     1      19.418  13.654  -9.984  1.00  0.00     0.368 A 
ATOM      4  C   UNL     1      20.072  14.855 -10.272  1.00  0.00     0.162 A 
ATOM      5  C   UNL     1      19.368  15.925 -10.833  1.00  0.00     0.128 A 
ATOM      6  C   UNL     1      18.004  15.794 -11.106  1.00  0.00     0.093 A 
ATOM      7  C   UNL     1      17.326  14.601 -10.827  1.00  0.00     0.136 A 
ATOM      8  C   UNL     1      18.037  13.511 -10.260  1.00  0.00     0.125 A 
ATOM      9  C   UNL     1      17.443  12.275  -9.959  1.00  0.00     0.078 A 
ATOM     10  C   UNL     1      18.209  11.244  -9.406  1.00  0.00     0.223 A 
ENDROOT
BRANCH   1  11
ATOM     11  C   UNL     1      20.444  10.444  -8.538  1.00  0.00     0.087 A 
ATOM     12  C   UNL     1      21.733  10.242  -9.057  1.00  0.00     0.022 A 
ATOM     13  C   UNL     1      22.582   9.286  -8.492  1.00  0.00     0.051 A 
ATOM     14  C   UNL     1      22.163   8.530  -7.393  1.00  0.00     0.157 A 
ATOM     15  C   UNL     1      20.032   9.696  -7.420  1.00  0.00     0.068 A 
ATOM     16  C   UNL     1      20.884   8.737  -6.851  1.00  0.00     0.158 A 
BRANCH  14  17
ATOM     17  O   UNL     1      23.031   7.581  -6.853  1.00  0.00    -0.504 OA
ATOM     18  H   UNL     1      23.983   7.474  -7.181  1.00  0.00     0.293 HD
ENDBRANCH  14  17
BRANCH  16  19
ATOM     19  O   UNL     1      20.465   7.997  -5.746  1.00  0.00    -0.504 OA
ATOM     20  H   UNL     1      19.568   8.161  -5.306  1.00  0.00     0.293 HD
ENDBRANCH  16  19
ENDBRANCH   1  11
BRANCH  10  21
ATOM     21  O   UNL     1      17.630  10.000  -9.153  1.00  0.00    -0.500 OA
ATOM     22  H   UNL     1      16.749   9.729  -9.572  1.00  0.00     0.294 HD
ENDBRANCH  10  21
BRANCH   5  23
ATOM     23  O   UNL     1      20.014  17.125 -11.123  1.00  0.00    -0.507 OA
ATOM     24  H   UNL     1      20.948  17.142 -11.517  1.00  0.00     0.293 HD
ENDBRANCH   5  23
BRANCH   7  25
ATOM     25  O   UNL     1      15.961  14.551 -11.125  1.00  0.00    -0.507 OA
ATOM     26  H   UNL     1      15.225  14.734 -10.460  1.00  0.00     0.293 HD
ENDBRANCH   7  25
TORSDOF 6
ENDMDL
MODEL 2
REMARK VINA RESULT:    -1.120      1.340      7.229
REMARK INTER + INTRA:          -1.355
REMARK INTER:                  -1.048
REMARK INTRA:                  -0.307
REMARK UNBOUND:                -0.005
REMARK SMILES Oc1cc(O)c2cc(O)c(-c3ccc(O)c(O)c3)[o+]c2c1
REMARK SMILES IDX 10 1 19 2 20 3 21 4 2 5 3 6 4 7 6 8 7 9 8 10 11 11 12 12
REMARK SMILES IDX 13 13 14 14 18 15 16 16 15 17 17 19 9 21 1 23 5 25
REMARK H PARENT 15 18 17 20 9 22 1 24 5 26
REMARK Flexibility Score: inf
ROOT
ATOM      1  C   UNL     1      19.589  12.307  -9.483  1.00  0.00     0.402 A 
ATOM      2  O   UNL     1      19.146  11.501  -8.520  1.00  0.00    -0.202 OA
ATOM      3  C   UNL     1      19.844  10.473  -8.051  1.00  0.00     0.368 A 
ATOM      4  C   UNL     1      19.295   9.685  -7.036  1.00  0.00     0.162 A 
ATOM      5  C   UNL     1      20.009   8.598  -6.522  1.00  0.00     0.128 A 
ATOM      6  C   UNL     1      21.278   8.299  -7.024  1.00  0.00     0.093 A 
ATOM      7  C   UNL     1      21.850   9.073  -8.042  1.00  0.00     0.136 A 
ATOM      8  C   UNL     1      21.128  10.176  -8.568  1.00  0.00     0.125 A 
ATOM      9  C   UNL     1      21.617  10.998  -9.597  1.00  0.00     0.078 A 
ATOM     10  C   UNL     1      20.844  12.064 -10.069  1.00  0.00     0.223 A 
ENDROOT
BRANCH   1  11
ATOM     11  C   UNL     1      18.721  13.426  -9.914  1.00  0.00     0.087 A 
ATOM     12  C   UNL     1      17.563  13.155 -10.659  1.00  0.00     0.022 A 
ATOM     13  C   UNL     1      16.718  14.193 -11.059  1.00  0.00     0.051 A 
ATOM     14  C   UNL     1      17.009  15.515 -10.709  1.00  0.00     0.157 A 
ATOM     15  C   UNL     1      19.000  14.754  -9.544  1.00  0.00     0.068 A 
ATOM     16  C   UNL     1      18.153  15.799  -9.944  1.00  0.00     0.158 A 
BRANCH  14  17
ATOM     17  O   UNL     1      16.149  16.532 -11.125  1.00  0.00    -0.504 OA
ATOM     18  H   UNL     1      15.250  16.690 -10.685  1.00  0.00     0.293 HD
ENDBRANCH  14  17
BRANCH  16  19
ATOM     19  O   UNL     1      18.441  17.112  -9.578  1.00  0.00    -0.504 OA
ATOM     20  H   UNL     1      19.392  17.458  -9.546  1.00  0.00     0.293 HD
ENDBRANCH  16  19
ENDBRANCH   1  11
BRANCH  10  21
ATOM     21  O   UNL     1      21.308  12.850 -11.124  1.00  0.00    -0.500 OA
ATOM     22  H   UNL     1      20.731  13.053 -11.931  1.00  0.00     0.294 HD
ENDBRANCH  10  21
BRANCH   5  23
ATOM     23  O   UNL     1      19.468   7.809  -5.510  1.00  0.00    -0.507 OA
ATOM     24  H   UNL     1      18.645   7.237  -5.666  1.00  0.00     0.293 HD
ENDBRANCH   5  23
BRANCH   7  25
ATOM     25  O   UNL     1      23.125   8.711  -8.487  1.00  0.00    -0.507 OA
ATOM     26  H   UNL     1      23.966   9.233  -8.293  1.00  0.00     0.293 HD
ENDBRANCH   7  25
TORSDOF 6
ENDMDL
