MODEL 1
REMARK VINA RESULT:    -7.032      0.000      0.000
REMARK INTER + INTRA:          -8.746
REMARK INTER:                  -8.471
REMARK INTRA:                  -0.275
REMARK UNBOUND:                -0.275
REMARK SMILES O=c1c(O)c(-c2ccc(O)c(O)c2)oc2cc(O)cc(O)c12
REMARK SMILES IDX 5 1 3 2 2 3 1 4 22 5 20 6 19 7 17 8 16 9 15 10 14 11 6 12
REMARK SMILES IDX 7 13 8 14 9 15 13 16 11 17 10 18 12 20 4 22 21 24 18 26
REMARK H PARENT 10 19 12 21 4 23 21 25 18 27
REMARK Flexibility Score: inf
ROOT
ATOM      1  C   UNL     1     -21.887  14.536 -39.581  1.00  0.00     0.180 A 
ATOM      2  C   UNL     1     -21.673  15.477 -40.604  1.00  0.00     0.208 A 
ATOM      3  C   UNL     1     -22.599  16.517 -40.776  1.00  0.00     0.238 A 
ATOM      4  O   UNL     1     -22.432  17.325 -41.728  1.00  0.00    -0.285 OA
ATOM      5  C   UNL     1     -23.718  16.616 -39.914  1.00  0.00     0.111 A 
ATOM      6  C   UNL     1     -24.697  17.652 -39.972  1.00  0.00     0.134 A 
ATOM      7  C   UNL     1     -25.832  17.577 -39.154  1.00  0.00     0.093 A 
ATOM      8  C   UNL     1     -25.989  16.537 -38.235  1.00  0.00     0.123 A 
ATOM      9  C   UNL     1     -25.009  15.552 -38.130  1.00  0.00     0.094 A 
ATOM     10  C   UNL     1     -23.884  15.581 -38.957  1.00  0.00     0.146 A 
ATOM     11  O   UNL     1     -22.980  14.618 -38.831  1.00  0.00    -0.452 OA
ENDROOT
BRANCH   1  12
ATOM     12  C   UNL     1     -20.942  13.426 -39.322  1.00  0.00     0.025 A 
ATOM     13  C   UNL     1     -20.907  12.287 -40.145  1.00  0.00     0.016 A 
ATOM     14  C   UNL     1     -19.990  11.263 -39.897  1.00  0.00     0.051 A 
ATOM     15  C   UNL     1     -19.086  11.366 -38.832  1.00  0.00     0.157 A 
ATOM     16  C   UNL     1     -20.019  13.535 -38.268  1.00  0.00     0.062 A 
ATOM     17  C   UNL     1     -19.100  12.510 -38.016  1.00  0.00     0.158 A 
BRANCH  15  18
ATOM     18  O   UNL     1     -18.174  10.342 -38.585  1.00  0.00    -0.504 OA
ATOM     19  H   UNL     1     -17.187  10.449 -38.791  1.00  0.00     0.293 HD
ENDBRANCH  15  18
BRANCH  17  20
ATOM     20  O   UNL     1     -18.208  12.647 -36.953  1.00  0.00    -0.504 OA
ATOM     21  H   UNL     1     -17.676  11.865 -36.592  1.00  0.00     0.293 HD
ENDBRANCH  17  20
ENDBRANCH   1  12
BRANCH   2  22
ATOM     22  O   UNL     1     -20.574  15.350 -41.458  1.00  0.00    -0.502 OA
ATOM     23  H   UNL     1     -20.356  16.036 -42.170  1.00  0.00     0.293 HD
ENDBRANCH   2  22
BRANCH   6  24
ATOM     24  O   UNL     1     -24.591  18.782 -40.788  1.00  0.00    -0.507 OA
ATOM     25  H   UNL     1     -24.243  18.776 -41.735  1.00  0.00     0.293 HD
ENDBRANCH   6  24
BRANCH   8  26
ATOM     26  O   UNL     1     -27.113  16.477 -37.414  1.00  0.00    -0.508 OA
ATOM     27  H   UNL     1     -27.036  16.286 -36.422  1.00  0.00     0.293 HD
ENDBRANCH   8  26
TORSDOF 6
ENDMDL
MODEL 2
REMARK VINA RESULT:    -6.984      4.652      8.066
REMARK INTER + INTRA:          -8.688
REMARK INTER:                  -8.456
REMARK INTRA:                  -0.233
REMARK UNBOUND:                -0.275
REMARK SMILES O=c1c(O)c(-c2ccc(O)c(O)c2)oc2cc(O)cc(O)c12
REMARK SMILES IDX 5 1 3 2 2 3 1 4 22 5 20 6 19 7 17 8 16 9 15 10 14 11 6 12
REMARK SMILES IDX 7 13 8 14 9 15 13 16 11 17 10 18 12 20 4 22 21 24 18 26
REMARK H PARENT 10 19 12 21 4 23 21 25 18 27
REMARK Flexibility Score: inf
ROOT
ATOM      1  C   UNL     1     -21.985  12.091 -35.083  1.00  0.00     0.180 A 
ATOM      2  C   UNL     1     -20.764  12.066 -34.387  1.00  0.00     0.208 A 
ATOM      3  C   UNL     1     -19.576  11.851 -35.105  1.00  0.00     0.238 A 
ATOM      4  O   UNL     1     -18.491  11.775 -34.470  1.00  0.00    -0.285 OA
ATOM      5  C   UNL     1     -19.622  11.681 -36.510  1.00  0.00     0.111 A 
ATOM      6  C   UNL     1     -18.477  11.498 -37.342  1.00  0.00     0.134 A 
ATOM      7  C   UNL     1     -18.651  11.209 -38.701  1.00  0.00     0.093 A 
ATOM      8  C   UNL     1     -19.925  11.163 -39.270  1.00  0.00     0.123 A 
ATOM      9  C   UNL     1     -21.047  11.399 -38.478  1.00  0.00     0.094 A 
ATOM     10  C   UNL     1     -20.907  11.654 -37.111  1.00  0.00     0.146 A 
ATOM     11  O   UNL     1     -22.002  11.863 -36.391  1.00  0.00    -0.452 OA
ENDROOT
BRANCH   1  12
ATOM     12  C   UNL     1     -23.276  12.336 -34.399  1.00  0.00     0.025 A 
ATOM     13  C   UNL     1     -23.983  13.537 -34.580  1.00  0.00     0.016 A 
ATOM     14  C   UNL     1     -25.212  13.736 -33.944  1.00  0.00     0.051 A 
ATOM     15  C   UNL     1     -25.757  12.736 -33.130  1.00  0.00     0.157 A 
ATOM     16  C   UNL     1     -23.837  11.327 -33.599  1.00  0.00     0.062 A 
ATOM     17  C   UNL     1     -25.066  11.524 -32.959  1.00  0.00     0.158 A 
BRANCH  15  18
ATOM     18  O   UNL     1     -26.981  12.938 -32.495  1.00  0.00    -0.504 OA
ATOM     19  H   UNL     1     -27.354  13.869 -32.345  1.00  0.00     0.293 HD
ENDBRANCH  15  18
BRANCH  17  20
ATOM     20  O   UNL     1     -25.585  10.505 -32.162  1.00  0.00    -0.504 OA
ATOM     21  H   UNL     1     -26.270   9.845 -32.510  1.00  0.00     0.293 HD
ENDBRANCH  17  20
ENDBRANCH   1  12
BRANCH   2  22
ATOM     22  O   UNL     1     -20.742  12.214 -32.997  1.00  0.00    -0.502 OA
ATOM     23  H   UNL     1     -20.186  11.619 -32.396  1.00  0.00     0.293 HD
ENDBRANCH   2  22
BRANCH   6  24
ATOM     24  O   UNL     1     -17.159  11.615 -36.893  1.00  0.00    -0.507 OA
ATOM     25  H   UNL     1     -16.887  12.014 -36.007  1.00  0.00     0.293 HD
ENDBRANCH   6  24
BRANCH   8  26
ATOM     26  O   UNL     1     -20.088  10.890 -40.627  1.00  0.00    -0.508 OA
ATOM     27  H   UNL     1     -19.294  10.809 -41.250  1.00  0.00     0.293 HD
ENDBRANCH   8  26
TORSDOF 6
ENDMDL
MODEL 3
REMARK VINA RESULT:    -6.871      3.470      5.852
REMARK INTER + INTRA:          -8.552
REMARK INTER:                  -8.370
REMARK INTRA:                  -0.181
REMARK UNBOUND:                -0.275
REMARK SMILES O=c1c(O)c(-c2ccc(O)c(O)c2)oc2cc(O)cc(O)c12
REMARK SMILES IDX 5 1 3 2 2 3 1 4 22 5 20 6 19 7 17 8 16 9 15 10 14 11 6 12
REMARK SMILES IDX 7 13 8 14 9 15 13 16 11 17 10 18 12 20 4 22 21 24 18 26
REMARK H PARENT 10 19 12 21 4 23 21 25 18 27
REMARK Flexibility Score: inf
ROOT
ATOM      1  C   UNL     1     -24.651  16.569 -37.597  1.00  0.00     0.180 A 
ATOM      2  C   UNL     1     -24.916  17.941 -37.748  1.00  0.00     0.208 A 
ATOM      3  C   UNL     1     -24.438  18.606 -38.888  1.00  0.00     0.238 A 
ATOM      4  O   UNL     1     -24.631  19.846 -38.991  1.00  0.00    -0.285 OA
ATOM      5  C   UNL     1     -23.716  17.888 -39.872  1.00  0.00     0.111 A 
ATOM      6  C   UNL     1     -23.220  18.451 -41.086  1.00  0.00     0.134 A 
ATOM      7  C   UNL     1     -22.407  17.678 -41.924  1.00  0.00     0.093 A 
ATOM      8  C   UNL     1     -22.127  16.343 -41.624  1.00  0.00     0.123 A 
ATOM      9  C   UNL     1     -22.656  15.767 -40.471  1.00  0.00     0.094 A 
ATOM     10  C   UNL     1     -23.441  16.523 -39.597  1.00  0.00     0.146 A 
ATOM     11  O   UNL     1     -23.915  15.938 -38.505  1.00  0.00    -0.452 OA
ENDROOT
BRANCH   1  12
ATOM     12  C   UNL     1     -25.143  15.795 -36.434  1.00  0.00     0.025 A 
ATOM     13  C   UNL     1     -26.092  14.770 -36.586  1.00  0.00     0.016 A 
ATOM     14  C   UNL     1     -26.523  14.036 -35.478  1.00  0.00     0.051 A 
ATOM     15  C   UNL     1     -26.003  14.306 -34.205  1.00  0.00     0.157 A 
ATOM     16  C   UNL     1     -24.608  16.048 -35.160  1.00  0.00     0.062 A 
ATOM     17  C   UNL     1     -25.039  15.316 -34.048  1.00  0.00     0.158 A 
BRANCH  15  18
ATOM     18  O   UNL     1     -26.436  13.575 -33.101  1.00  0.00    -0.504 OA
ATOM     19  H   UNL     1     -25.783  13.099 -32.489  1.00  0.00     0.293 HD
ENDBRANCH  15  18
BRANCH  17  20
ATOM     20  O   UNL     1     -24.496  15.604 -32.796  1.00  0.00    -0.504 OA
ATOM     21  H   UNL     1     -24.856  16.348 -32.211  1.00  0.00     0.293 HD
ENDBRANCH  17  20
ENDBRANCH   1  12
BRANCH   2  22
ATOM     22  O   UNL     1     -25.611  18.637 -36.755  1.00  0.00    -0.502 OA
ATOM     23  H   UNL     1     -26.570  18.939 -36.872  1.00  0.00     0.293 HD
ENDBRANCH   2  22
BRANCH   6  24
ATOM     24  O   UNL     1     -23.517  19.744 -41.525  1.00  0.00    -0.507 OA
ATOM     25  H   UNL     1     -22.828  20.433 -41.789  1.00  0.00     0.293 HD
ENDBRANCH   6  24
BRANCH   8  26
ATOM     26  O   UNL     1     -21.330  15.576 -42.472  1.00  0.00    -0.508 OA
ATOM     27  H   UNL     1     -21.729  15.038 -43.232  1.00  0.00     0.293 HD
ENDBRANCH   8  26
TORSDOF 6
ENDMDL
MODEL 4
REMARK VINA RESULT:    -6.783      2.147      3.719
REMARK INTER + INTRA:          -8.446
REMARK INTER:                  -8.288
REMARK INTRA:                  -0.158
REMARK UNBOUND:                -0.275
REMARK SMILES O=c1c(O)c(-c2ccc(O)c(O)c2)oc2cc(O)cc(O)c12
REMARK SMILES IDX 5 1 3 2 2 3 1 4 22 5 20 6 19 7 17 8 16 9 15 10 14 11 6 12
REMARK SMILES IDX 7 13 8 14 9 15 13 16 11 17 10 18 12 20 4 22 21 24 18 26
REMARK H PARENT 10 19 12 21 4 23 21 25 18 27
REMARK Flexibility Score: inf
ROOT
ATOM      1  C   UNL     1     -23.239  15.467 -39.430  1.00  0.00     0.180 A 
ATOM      2  C   UNL     1     -23.831  15.967 -38.257  1.00  0.00     0.208 A 
ATOM      3  C   UNL     1     -24.222  17.315 -38.212  1.00  0.00     0.238 A 
ATOM      4  O   UNL     1     -24.700  17.771 -37.141  1.00  0.00    -0.285 OA
ATOM      5  C   UNL     1     -24.034  18.142 -39.347  1.00  0.00     0.111 A 
ATOM      6  C   UNL     1     -24.431  19.510 -39.427  1.00  0.00     0.134 A 
ATOM      7  C   UNL     1     -24.076  20.267 -40.551  1.00  0.00     0.093 A 
ATOM      8  C   UNL     1     -23.399  19.686 -41.626  1.00  0.00     0.123 A 
ATOM      9  C   UNL     1     -23.059  18.335 -41.582  1.00  0.00     0.094 A 
ATOM     10  C   UNL     1     -23.368  17.564 -40.458  1.00  0.00     0.146 A 
ATOM     11  O   UNL     1     -23.017  16.284 -40.453  1.00  0.00    -0.452 OA
ENDROOT
BRANCH   1  12
ATOM     12  C   UNL     1     -22.823  14.053 -39.560  1.00  0.00     0.025 A 
ATOM     13  C   UNL     1     -23.753  13.004 -39.463  1.00  0.00     0.016 A 
ATOM     14  C   UNL     1     -23.342  11.677 -39.614  1.00  0.00     0.051 A 
ATOM     15  C   UNL     1     -21.999  11.379 -39.878  1.00  0.00     0.157 A 
ATOM     16  C   UNL     1     -21.481  13.750 -39.847  1.00  0.00     0.062 A 
ATOM     17  C   UNL     1     -21.065  12.423 -39.997  1.00  0.00     0.158 A 
BRANCH  15  18
ATOM     18  O   UNL     1     -21.590  10.055 -40.026  1.00  0.00    -0.504 OA
ATOM     19  H   UNL     1     -20.610   9.808 -40.105  1.00  0.00     0.293 HD
ENDBRANCH  15  18
BRANCH  17  20
ATOM     20  O   UNL     1     -19.723  12.160 -40.268  1.00  0.00    -0.504 OA
ATOM     21  H   UNL     1     -18.986  12.398 -39.615  1.00  0.00     0.293 HD
ENDBRANCH  17  20
ENDBRANCH   1  12
BRANCH   2  22
ATOM     22  O   UNL     1     -23.987  15.141 -37.140  1.00  0.00    -0.502 OA
ATOM     23  H   UNL     1     -23.262  15.024 -36.444  1.00  0.00     0.293 HD
ENDBRANCH   2  22
BRANCH   6  24
ATOM     24  O   UNL     1     -25.190  20.162 -38.451  1.00  0.00    -0.507 OA
ATOM     25  H   UNL     1     -26.073  20.619 -38.621  1.00  0.00     0.293 HD
ENDBRANCH   6  24
BRANCH   8  26
ATOM     26  O   UNL     1     -23.064  20.442 -42.747  1.00  0.00    -0.508 OA
ATOM     27  H   UNL     1     -22.714  21.389 -42.663  1.00  0.00     0.293 HD
ENDBRANCH   8  26
TORSDOF 6
ENDMDL
MODEL 5
REMARK VINA RESULT:    -6.769      1.231      2.932
REMARK INTER + INTRA:          -8.429
REMARK INTER:                  -8.116
REMARK INTRA:                  -0.313
REMARK UNBOUND:                -0.275
REMARK SMILES O=c1c(O)c(-c2ccc(O)c(O)c2)oc2cc(O)cc(O)c12
REMARK SMILES IDX 5 1 3 2 2 3 1 4 22 5 20 6 19 7 17 8 16 9 15 10 14 11 6 12
REMARK SMILES IDX 7 13 8 14 9 15 13 16 11 17 10 18 12 20 4 22 21 24 18 26
REMARK H PARENT 10 19 12 21 4 23 21 25 18 27
REMARK Flexibility Score: inf
ROOT
ATOM      1  C   UNL     1     -22.131  14.681 -39.394  1.00  0.00     0.180 A 
ATOM      2  C   UNL     1     -23.310  14.738 -38.630  1.00  0.00     0.208 A 
ATOM      3  C   UNL     1     -24.207  15.797 -38.840  1.00  0.00     0.238 A 
ATOM      4  O   UNL     1     -25.234  15.874 -38.114  1.00  0.00    -0.285 OA
ATOM      5  C   UNL     1     -23.925  16.776 -39.824  1.00  0.00     0.111 A 
ATOM      6  C   UNL     1     -24.783  17.869 -40.149  1.00  0.00     0.134 A 
ATOM      7  C   UNL     1     -24.342  18.849 -41.047  1.00  0.00     0.093 A 
ATOM      8  C   UNL     1     -23.102  18.740 -41.680  1.00  0.00     0.123 A 
ATOM      9  C   UNL     1     -22.282  17.646 -41.413  1.00  0.00     0.094 A 
ATOM     10  C   UNL     1     -22.680  16.670 -40.495  1.00  0.00     0.146 A 
ATOM     11  O   UNL     1     -21.864  15.650 -40.262  1.00  0.00    -0.452 OA
ENDROOT
BRANCH   1  12
ATOM     12  C   UNL     1     -21.150  13.583 -39.247  1.00  0.00     0.025 A 
ATOM     13  C   UNL     1     -21.152  12.477 -40.113  1.00  0.00     0.016 A 
ATOM     14  C   UNL     1     -20.200  11.464 -39.971  1.00  0.00     0.051 A 
ATOM     15  C   UNL     1     -19.224  11.548 -38.970  1.00  0.00     0.157 A 
ATOM     16  C   UNL     1     -20.155  13.673 -38.258  1.00  0.00     0.062 A 
ATOM     17  C   UNL     1     -19.201  12.660 -38.111  1.00  0.00     0.158 A 
BRANCH  15  18
ATOM     18  O   UNL     1     -18.277  10.535 -38.828  1.00  0.00    -0.504 OA
ATOM     19  H   UNL     1     -17.294  10.743 -38.695  1.00  0.00     0.293 HD
ENDBRANCH  15  18
BRANCH  17  20
ATOM     20  O   UNL     1     -18.238  12.777 -37.110  1.00  0.00    -0.504 OA
ATOM     21  H   UNL     1     -17.612  12.017 -36.873  1.00  0.00     0.293 HD
ENDBRANCH  17  20
ENDBRANCH   1  12
BRANCH   2  22
ATOM     22  O   UNL     1     -23.559  13.775 -37.648  1.00  0.00    -0.502 OA
ATOM     23  H   UNL     1     -24.240  13.036 -37.772  1.00  0.00     0.293 HD
ENDBRANCH   2  22
BRANCH   6  24
ATOM     24  O   UNL     1     -26.077  18.023 -39.644  1.00  0.00    -0.507 OA
ATOM     25  H   UNL     1     -26.586  18.894 -39.625  1.00  0.00     0.293 HD
ENDBRANCH   6  24
BRANCH   8  26
ATOM     26  O   UNL     1     -22.678  19.712 -42.584  1.00  0.00    -0.508 OA
ATOM     27  H   UNL     1     -23.145  20.608 -42.658  1.00  0.00     0.293 HD
ENDBRANCH   8  26
TORSDOF 6
ENDMDL
MODEL 6
REMARK VINA RESULT:    -6.759      4.434      7.150
REMARK INTER + INTRA:          -8.418
REMARK INTER:                  -8.221
REMARK INTRA:                  -0.197
REMARK UNBOUND:                -0.275
REMARK SMILES O=c1c(O)c(-c2ccc(O)c(O)c2)oc2cc(O)cc(O)c12
REMARK SMILES IDX 5 1 3 2 2 3 1 4 22 5 20 6 19 7 17 8 16 9 15 10 14 11 6 12
REMARK SMILES IDX 7 13 8 14 9 15 13 16 11 17 10 18 12 20 4 22 21 24 18 26
REMARK H PARENT 10 19 12 21 4 23 21 25 18 27
REMARK Flexibility Score: inf
ROOT
ATOM      1  C   UNL     1     -24.186  18.337 -38.673  1.00  0.00     0.180 A 
ATOM      2  C   UNL     1     -25.488  17.810 -38.743  1.00  0.00     0.208 A 
ATOM      3  C   UNL     1     -25.894  16.868 -37.784  1.00  0.00     0.238 A 
ATOM      4  O   UNL     1     -27.041  16.359 -37.884  1.00  0.00    -0.285 OA
ATOM      5  C   UNL     1     -25.000  16.477 -36.757  1.00  0.00     0.111 A 
ATOM      6  C   UNL     1     -25.320  15.562 -35.710  1.00  0.00     0.134 A 
ATOM      7  C   UNL     1     -24.316  15.148 -34.825  1.00  0.00     0.093 A 
ATOM      8  C   UNL     1     -23.023  15.669 -34.909  1.00  0.00     0.123 A 
ATOM      9  C   UNL     1     -22.717  16.608 -35.891  1.00  0.00     0.094 A 
ATOM     10  C   UNL     1     -23.687  17.012 -36.811  1.00  0.00     0.146 A 
ATOM     11  O   UNL     1     -23.351  17.901 -37.738  1.00  0.00    -0.452 OA
ENDROOT
BRANCH   1  12
ATOM     12  C   UNL     1     -23.695  19.351 -39.633  1.00  0.00     0.025 A 
ATOM     13  C   UNL     1     -23.482  19.036 -40.986  1.00  0.00     0.016 A 
ATOM     14  C   UNL     1     -23.042  20.016 -41.880  1.00  0.00     0.051 A 
ATOM     15  C   UNL     1     -22.820  21.327 -41.439  1.00  0.00     0.157 A 
ATOM     16  C   UNL     1     -23.493  20.672 -39.200  1.00  0.00     0.062 A 
ATOM     17  C   UNL     1     -23.050  21.656 -40.092  1.00  0.00     0.158 A 
BRANCH  15  18
ATOM     18  O   UNL     1     -22.379  22.302 -42.331  1.00  0.00    -0.504 OA
ATOM     19  H   UNL     1     -22.302  22.116 -43.325  1.00  0.00     0.293 HD
ENDBRANCH  15  18
BRANCH  17  20
ATOM     20  O   UNL     1     -22.848  22.953 -39.623  1.00  0.00    -0.504 OA
ATOM     21  H   UNL     1     -23.321  23.308 -38.801  1.00  0.00     0.293 HD
ENDBRANCH  17  20
ENDBRANCH   1  12
BRANCH   2  22
ATOM     22  O   UNL     1     -26.347  18.192 -39.777  1.00  0.00    -0.502 OA
ATOM     23  H   UNL     1     -26.072  18.166 -40.751  1.00  0.00     0.293 HD
ENDBRANCH   2  22
BRANCH   6  24
ATOM     24  O   UNL     1     -26.601  15.054 -35.481  1.00  0.00    -0.507 OA
ATOM     25  H   UNL     1     -27.088  14.422 -36.100  1.00  0.00     0.293 HD
ENDBRANCH   6  24
BRANCH   8  26
ATOM     26  O   UNL     1     -22.035  15.264 -34.014  1.00  0.00    -0.508 OA
ATOM     27  H   UNL     1     -21.050  15.357 -34.234  1.00  0.00     0.293 HD
ENDBRANCH   8  26
TORSDOF 6
ENDMDL
MODEL 7
REMARK VINA RESULT:    -6.661      6.061      9.258
REMARK INTER + INTRA:          -8.299
REMARK INTER:                  -8.529
REMARK INTRA:                   0.229
REMARK UNBOUND:                -0.275
REMARK SMILES O=c1c(O)c(-c2ccc(O)c(O)c2)oc2cc(O)cc(O)c12
REMARK SMILES IDX 5 1 3 2 2 3 1 4 22 5 20 6 19 7 17 8 16 9 15 10 14 11 6 12
REMARK SMILES IDX 7 13 8 14 9 15 13 16 11 17 10 18 12 20 4 22 21 24 18 26
REMARK H PARENT 10 19 12 21 4 23 21 25 18 27
REMARK Flexibility Score: inf
ROOT
ATOM      1  C   UNL     1     -16.832  13.110 -34.184  1.00  0.00     0.180 A 
ATOM      2  C   UNL     1     -17.174  11.940 -33.484  1.00  0.00     0.208 A 
ATOM      3  C   UNL     1     -17.787  10.885 -34.179  1.00  0.00     0.238 A 
ATOM      4  O   UNL     1     -18.140   9.861 -33.537  1.00  0.00    -0.285 OA
ATOM      5  C   UNL     1     -18.035  11.006 -35.568  1.00  0.00     0.111 A 
ATOM      6  C   UNL     1     -18.613   9.985 -36.380  1.00  0.00     0.134 A 
ATOM      7  C   UNL     1     -18.933  10.263 -37.715  1.00  0.00     0.093 A 
ATOM      8  C   UNL     1     -18.634  11.503 -38.284  1.00  0.00     0.123 A 
ATOM      9  C   UNL     1     -18.015  12.486 -37.515  1.00  0.00     0.094 A 
ATOM     10  C   UNL     1     -17.717  12.251 -36.171  1.00  0.00     0.146 A 
ATOM     11  O   UNL     1     -17.138  13.219 -35.472  1.00  0.00    -0.452 OA
ENDROOT
BRANCH   1  12
ATOM     12  C   UNL     1     -16.162  14.254 -33.525  1.00  0.00     0.025 A 
ATOM     13  C   UNL     1     -16.489  15.582 -33.852  1.00  0.00     0.016 A 
ATOM     14  C   UNL     1     -15.861  16.646 -33.199  1.00  0.00     0.051 A 
ATOM     15  C   UNL     1     -14.908  16.400 -32.202  1.00  0.00     0.157 A 
ATOM     16  C   UNL     1     -15.222  14.013 -32.509  1.00  0.00     0.062 A 
ATOM     17  C   UNL     1     -14.590  15.076 -31.855  1.00  0.00     0.158 A 
BRANCH  15  18
ATOM     18  O   UNL     1     -14.282  17.463 -31.554  1.00  0.00    -0.504 OA
ATOM     19  H   UNL     1     -14.177  17.483 -30.546  1.00  0.00     0.293 HD
ENDBRANCH  15  18
BRANCH  17  20
ATOM     20  O   UNL     1     -13.652  14.798 -30.861  1.00  0.00    -0.504 OA
ATOM     21  H   UNL     1     -13.154  13.918 -30.823  1.00  0.00     0.293 HD
ENDBRANCH  17  20
ENDBRANCH   1  12
BRANCH   2  22
ATOM     22  O   UNL     1     -16.940  11.849 -32.109  1.00  0.00    -0.502 OA
ATOM     23  H   UNL     1     -16.806  10.963 -31.638  1.00  0.00     0.293 HD
ENDBRANCH   2  22
BRANCH   6  24
ATOM     24  O   UNL     1     -18.866   8.684 -35.936  1.00  0.00    -0.507 OA
ATOM     25  H   UNL     1     -19.785   8.283 -35.826  1.00  0.00     0.293 HD
ENDBRANCH   6  24
BRANCH   8  26
ATOM     26  O   UNL     1     -18.941  11.765 -39.618  1.00  0.00    -0.508 OA
ATOM     27  H   UNL     1     -19.019  11.021 -40.300  1.00  0.00     0.293 HD
ENDBRANCH   8  26
TORSDOF 6
ENDMDL
MODEL 8
REMARK VINA RESULT:    -6.639      3.170      7.684
REMARK INTER + INTRA:          -8.272
REMARK INTER:                  -7.943
REMARK INTRA:                  -0.329
REMARK UNBOUND:                -0.275
REMARK SMILES O=c1c(O)c(-c2ccc(O)c(O)c2)oc2cc(O)cc(O)c12
REMARK SMILES IDX 5 1 3 2 2 3 1 4 22 5 20 6 19 7 17 8 16 9 15 10 14 11 6 12
REMARK SMILES IDX 7 13 8 14 9 15 13 16 11 17 10 18 12 20 4 22 21 24 18 26
REMARK H PARENT 10 19 12 21 4 23 21 25 18 27
REMARK Flexibility Score: inf
ROOT
ATOM      1  C   UNL     1     -22.288  13.489 -36.460  1.00  0.00     0.180 A 
ATOM      2  C   UNL     1     -21.673  12.724 -35.454  1.00  0.00     0.208 A 
ATOM      3  C   UNL     1     -20.624  11.858 -35.802  1.00  0.00     0.238 A 
ATOM      4  O   UNL     1     -20.114  11.134 -34.906  1.00  0.00    -0.285 OA
ATOM      5  C   UNL     1     -20.191  11.781 -37.148  1.00  0.00     0.111 A 
ATOM      6  C   UNL     1     -19.111  10.969 -37.607  1.00  0.00     0.134 A 
ATOM      7  C   UNL     1     -18.855  10.871 -38.980  1.00  0.00     0.093 A 
ATOM      8  C   UNL     1     -19.598  11.609 -39.905  1.00  0.00     0.123 A 
ATOM      9  C   UNL     1     -20.617  12.450 -39.462  1.00  0.00     0.094 A 
ATOM     10  C   UNL     1     -20.918  12.540 -38.101  1.00  0.00     0.146 A 
ATOM     11  O   UNL     1     -21.903  13.345 -37.723  1.00  0.00    -0.452 OA
ENDROOT
BRANCH   1  12
ATOM     12  C   UNL     1     -23.383  14.441 -36.166  1.00  0.00     0.025 A 
ATOM     13  C   UNL     1     -23.123  15.793 -35.885  1.00  0.00     0.016 A 
ATOM     14  C   UNL     1     -24.174  16.679 -35.636  1.00  0.00     0.051 A 
ATOM     15  C   UNL     1     -25.500  16.231 -35.676  1.00  0.00     0.157 A 
ATOM     16  C   UNL     1     -24.716  14.001 -36.226  1.00  0.00     0.062 A 
ATOM     17  C   UNL     1     -25.772  14.886 -35.975  1.00  0.00     0.158 A 
BRANCH  15  18
ATOM     18  O   UNL     1     -26.547  17.116 -35.424  1.00  0.00    -0.504 OA
ATOM     19  H   UNL     1     -26.750  17.445 -34.486  1.00  0.00     0.293 HD
ENDBRANCH  15  18
BRANCH  17  20
ATOM     20  O   UNL     1     -27.081  14.410 -36.031  1.00  0.00    -0.504 OA
ATOM     21  H   UNL     1     -27.610  14.192 -35.196  1.00  0.00     0.293 HD
ENDBRANCH  17  20
ENDBRANCH   1  12
BRANCH   2  22
ATOM     22  O   UNL     1     -22.130  12.798 -34.135  1.00  0.00    -0.502 OA
ATOM     23  H   UNL     1     -21.533  13.082 -33.368  1.00  0.00     0.293 HD
ENDBRANCH   2  22
BRANCH   6  24
ATOM     24  O   UNL     1     -18.249  10.265 -36.761  1.00  0.00    -0.507 OA
ATOM     25  H   UNL     1     -17.242  10.320 -36.791  1.00  0.00     0.293 HD
ENDBRANCH   6  24
BRANCH   8  26
ATOM     26  O   UNL     1     -19.327  11.518 -41.269  1.00  0.00    -0.508 OA
ATOM     27  H   UNL     1     -18.690  12.159 -41.726  1.00  0.00     0.293 HD
ENDBRANCH   8  26
TORSDOF 6
ENDMDL
MODEL 9
REMARK VINA RESULT:    -6.626      6.323      8.009
REMARK INTER + INTRA:          -8.257
REMARK INTER:                  -8.183
REMARK INTRA:                  -0.075
REMARK UNBOUND:                -0.275
REMARK SMILES O=c1c(O)c(-c2ccc(O)c(O)c2)oc2cc(O)cc(O)c12
REMARK SMILES IDX 5 1 3 2 2 3 1 4 22 5 20 6 19 7 17 8 16 9 15 10 14 11 6 12
REMARK SMILES IDX 7 13 8 14 9 15 13 16 11 17 10 18 12 20 4 22 21 24 18 26
REMARK H PARENT 10 19 12 21 4 23 21 25 18 27
REMARK Flexibility Score: inf
ROOT
ATOM      1  C   UNL     1     -17.652  12.288 -34.412  1.00  0.00     0.180 A 
ATOM      2  C   UNL     1     -17.493  11.478 -35.550  1.00  0.00     0.208 A 
ATOM      3  C   UNL     1     -18.623  10.861 -36.109  1.00  0.00     0.238 A 
ATOM      4  O   UNL     1     -18.468  10.093 -37.095  1.00  0.00    -0.285 OA
ATOM      5  C   UNL     1     -19.900  11.075 -35.536  1.00  0.00     0.111 A 
ATOM      6  C   UNL     1     -21.119  10.533 -36.045  1.00  0.00     0.134 A 
ATOM      7  C   UNL     1     -22.305  10.704 -35.321  1.00  0.00     0.093 A 
ATOM      8  C   UNL     1     -22.328  11.453 -34.142  1.00  0.00     0.123 A 
ATOM      9  C   UNL     1     -21.154  12.035 -33.669  1.00  0.00     0.094 A 
ATOM     10  C   UNL     1     -19.948  11.852 -34.350  1.00  0.00     0.146 A 
ATOM     11  O   UNL     1     -18.852  12.416 -33.859  1.00  0.00    -0.452 OA
ENDROOT
BRANCH   1  12
ATOM     12  C   UNL     1     -16.511  12.990 -33.780  1.00  0.00     0.025 A 
ATOM     13  C   UNL     1     -15.670  13.836 -34.523  1.00  0.00     0.016 A 
ATOM     14  C   UNL     1     -14.615  14.509 -33.901  1.00  0.00     0.051 A 
ATOM     15  C   UNL     1     -14.393  14.356 -32.526  1.00  0.00     0.157 A 
ATOM     16  C   UNL     1     -16.297  12.857 -32.398  1.00  0.00     0.062 A 
ATOM     17  C   UNL     1     -15.241  13.527 -31.772  1.00  0.00     0.158 A 
BRANCH  15  18
ATOM     18  O   UNL     1     -13.338  15.025 -31.909  1.00  0.00    -0.504 OA
ATOM     19  H   UNL     1     -13.171  14.946 -30.912  1.00  0.00     0.293 HD
ENDBRANCH  15  18
BRANCH  17  20
ATOM     20  O   UNL     1     -15.051  13.360 -30.401  1.00  0.00    -0.504 OA
ATOM     21  H   UNL     1     -14.153  13.104 -30.009  1.00  0.00     0.293 HD
ENDBRANCH  17  20
ENDBRANCH   1  12
BRANCH   2  22
ATOM     22  O   UNL     1     -16.221  11.261 -36.088  1.00  0.00    -0.502 OA
ATOM     23  H   UNL     1     -15.550  12.008 -36.214  1.00  0.00     0.293 HD
ENDBRANCH   2  22
BRANCH   6  24
ATOM     24  O   UNL     1     -21.222   9.849 -37.259  1.00  0.00    -0.507 OA
ATOM     25  H   UNL     1     -22.010   9.908 -37.886  1.00  0.00     0.293 HD
ENDBRANCH   6  24
BRANCH   8  26
ATOM     26  O   UNL     1     -23.516  11.631 -33.436  1.00  0.00    -0.508 OA
ATOM     27  H   UNL     1     -24.251  12.238 -33.779  1.00  0.00     0.293 HD
ENDBRANCH   8  26
TORSDOF 6
ENDMDL
