MODEL 1
REMARK VINA RESULT:     3.401      0.000      0.000
REMARK INTER + INTRA:           4.672
REMARK INTER:                   4.693
REMARK INTRA:                  -0.021
REMARK UNBOUND:                -0.021
REMARK SMILES CC[C@H](CC[C@H](C)[C@@H]1CC[C@H]2[C@@H]3CC=C4C[C@H](O)CC[C@@]4(C)[C@@H]3CC[C@]21C)C(C)C
REMARK SMILES IDX 5 1 4 2 3 3 2 4 1 5 28 6 29 7 30 8 6 9 7 10 8 11 9 12 26 13
REMARK SMILES IDX 10 14 11 15 25 16 27 17 12 18 24 19 23 20 13 21 21 22 14 23
REMARK SMILES IDX 15 24 20 25 22 26 16 27 19 28 17 29 18 30
REMARK H PARENT 18 31
REMARK Flexibility Score: inf
ROOT
ATOM      1  C   UNL     1      16.318 -10.730  11.877  1.00  0.00     0.004 C 
ENDROOT
BRANCH   1   2
ATOM      2  C   UNL     1      15.159 -10.927  12.886  1.00  0.00     0.004 C 
BRANCH   2   3
ATOM      3  C   UNL     1      13.838 -11.468  12.260  1.00  0.00    -0.009 C 
BRANCH   3   4
ATOM      4  C   UNL     1      13.799 -13.022  12.381  1.00  0.00     0.000 C 
ATOM      5  C   UNL     1      15.172 -13.671  12.566  1.00  0.00     0.004 C 
ENDBRANCH   3   4
BRANCH   3   6
ATOM      6  C   UNL     1      12.605 -10.721  12.882  1.00  0.00    -0.014 C 
ATOM      7  C   UNL     1      12.091  -9.567  12.006  1.00  0.00     0.007 C 
ATOM      8  C   UNL     1      11.453 -11.656  13.287  1.00  0.00     0.007 C 
ENDBRANCH   3   6
ENDBRANCH   2   3
ENDBRANCH   1   2
BRANCH   1   9
ATOM      9  C   UNL     1      16.982  -9.318  11.936  1.00  0.00    -0.011 C 
ATOM     10  C   UNL     1      18.395  -9.418  12.543  1.00  0.00     0.008 C 
BRANCH   9  11
ATOM     11  C   UNL     1      16.141  -8.212  12.680  1.00  0.00    -0.002 C 
ATOM     12  C   UNL     1      15.011  -7.545  11.877  1.00  0.00     0.005 C 
ATOM     13  C   UNL     1      16.931  -7.046  13.347  1.00  0.00    -0.026 C 
ATOM     14  C   UNL     1      14.875  -6.119  12.423  1.00  0.00     0.005 C 
ATOM     15  C   UNL     1      15.824  -6.000  13.638  1.00  0.00    -0.001 C 
ATOM     16  C   UNL     1      17.708  -7.475  14.621  1.00  0.00     0.007 C 
ATOM     17  C   UNL     1      17.967  -6.416  12.373  1.00  0.00     0.012 C 
ATOM     18  C   UNL     1      15.009  -6.208  14.966  1.00  0.00     0.000 C 
ATOM     19  C   UNL     1      16.834  -7.798  15.828  1.00  0.00     0.005 C 
ATOM     20  C   UNL     1      15.835  -6.678  16.198  1.00  0.00     0.003 C 
ATOM     21  C   UNL     1      14.132  -4.955  15.269  1.00  0.00     0.031 C 
ATOM     22  C   UNL     1      16.335  -5.523  17.154  1.00  0.00    -0.008 C 
ATOM     23  C   UNL     1      14.081  -4.523  16.710  1.00  0.00    -0.027 C 
ATOM     24  C   UNL     1      15.101  -4.715  17.574  1.00  0.00    -0.065 C 
ATOM     25  C   UNL     1      17.012  -6.155  18.416  1.00  0.00     0.014 C 
ATOM     26  C   UNL     1      17.334  -4.549  16.485  1.00  0.00     0.016 C 
ATOM     27  C   UNL     1      15.090  -3.934  18.876  1.00  0.00     0.063 C 
ATOM     28  C   UNL     1      17.120  -5.206  19.613  1.00  0.00     0.033 C 
ATOM     29  C   UNL     1      15.736  -4.714  20.025  1.00  0.00     0.118 C 
BRANCH  29  30
ATOM     30  O   UNL     1      15.863  -3.883  21.148  1.00  0.00    -0.393 OA
ATOM     31  H   UNL     1      16.834  -3.746  21.295  1.00  0.00     0.210 HD
ENDBRANCH  29  30
ENDBRANCH   9  11
ENDBRANCH   1   9
TORSDOF 7
ENDMDL
