MODEL 1
REMARK VINA RESULT:    -6.931      0.000      0.000
REMARK INTER + INTRA:          -8.411
REMARK INTER:                  -8.147
REMARK INTRA:                  -0.264
REMARK UNBOUND:                -0.264
REMARK SMILES O=c1cc(-c2ccc(O)c(O)c2)oc2cc(O)cc(O)c12
REMARK SMILES IDX 4 1 3 2 2 3 1 4 21 5 19 6 18 7 16 8 15 9 14 10 13 11 5 12
REMARK SMILES IDX 6 13 7 14 8 15 12 16 10 17 9 18 11 20 20 22 17 24
REMARK H PARENT 9 19 11 21 20 23 17 25
REMARK Flexibility Score: inf
ROOT
ATOM      1  C   UNL     1     126.474 132.757 130.672  1.00  0.00     0.138 A 
ATOM      2  C   UNL     1     125.214 132.970 131.255  1.00  0.00     0.100 A 
ATOM      3  C   UNL     1     124.333 133.882 130.673  1.00  0.00     0.197 A 
ATOM      4  O   UNL     1     123.204 134.065 131.202  1.00  0.00    -0.289 OA
ATOM      5  C   UNL     1     124.718 134.574 129.507  1.00  0.00     0.107 A 
ATOM      6  C   UNL     1     123.886 135.516 128.854  1.00  0.00     0.134 A 
ATOM      7  C   UNL     1     124.343 136.158 127.694  1.00  0.00     0.093 A 
ATOM      8  C   UNL     1     125.609 135.878 127.175  1.00  0.00     0.123 A 
ATOM      9  C   UNL     1     126.435 134.949 127.815  1.00  0.00     0.094 A 
ATOM     10  C   UNL     1     125.999 134.298 128.974  1.00  0.00     0.146 A 
ATOM     11  O   UNL     1     126.803 133.420 129.565  1.00  0.00    -0.456 OA
ENDROOT
BRANCH   1  12
ATOM     12  C   UNL     1     127.451 131.799 131.246  1.00  0.00     0.021 A 
ATOM     13  C   UNL     1     128.430 132.263 132.142  1.00  0.00     0.016 A 
ATOM     14  C   UNL     1     129.356 131.380 132.702  1.00  0.00     0.051 A 
ATOM     15  C   UNL     1     129.316 130.017 132.384  1.00  0.00     0.157 A 
ATOM     16  C   UNL     1     127.408 130.424 130.941  1.00  0.00     0.062 A 
ATOM     17  C   UNL     1     128.334 129.537 131.502  1.00  0.00     0.158 A 
BRANCH  15  18
ATOM     18  O   UNL     1     130.243 129.139 132.944  1.00  0.00    -0.504 OA
ATOM     19  H   UNL     1     131.232 129.359 132.973  1.00  0.00     0.293 HD
ENDBRANCH  15  18
BRANCH  17  20
ATOM     20  O   UNL     1     128.261 128.183 131.175  1.00  0.00    -0.504 OA
ATOM     21  H   UNL     1     127.549 127.818 130.554  1.00  0.00     0.293 HD
ENDBRANCH  17  20
ENDBRANCH   1  12
BRANCH   6  22
ATOM     22  O   UNL     1     122.617 135.815 129.349  1.00  0.00    -0.507 OA
ATOM     23  H   UNL     1     121.834 135.998 128.732  1.00  0.00     0.293 HD
ENDBRANCH   6  22
BRANCH   8  24
ATOM     24  O   UNL     1     126.037 136.532 126.021  1.00  0.00    -0.508 OA
ATOM     25  H   UNL     1     125.472 137.248 125.577  1.00  0.00     0.293 HD
ENDBRANCH   8  24
TORSDOF 5
ENDMDL
MODEL 2
REMARK VINA RESULT:    -6.829      1.596      3.033
REMARK INTER + INTRA:          -8.291
REMARK INTER:                  -7.981
REMARK INTRA:                  -0.309
REMARK UNBOUND:                -0.264
REMARK SMILES O=c1cc(-c2ccc(O)c(O)c2)oc2cc(O)cc(O)c12
REMARK SMILES IDX 4 1 3 2 2 3 1 4 21 5 19 6 18 7 16 8 15 9 14 10 13 11 5 12
REMARK SMILES IDX 6 13 7 14 8 15 12 16 10 17 9 18 11 20 20 22 17 24
REMARK H PARENT 9 19 11 21 20 23 17 25
REMARK Flexibility Score: inf
ROOT
ATOM      1  C   UNL     1     127.510 132.556 129.108  1.00  0.00     0.138 A 
ATOM      2  C   UNL     1     127.896 133.410 128.061  1.00  0.00     0.100 A 
ATOM      3  C   UNL     1     127.045 134.444 127.669  1.00  0.00     0.197 A 
ATOM      4  O   UNL     1     127.402 135.206 126.730  1.00  0.00    -0.289 OA
ATOM      5  C   UNL     1     125.812 134.618 128.329  1.00  0.00     0.107 A 
ATOM      6  C   UNL     1     124.891 135.640 127.993  1.00  0.00     0.134 A 
ATOM      7  C   UNL     1     123.687 135.750 128.703  1.00  0.00     0.093 A 
ATOM      8  C   UNL     1     123.386 134.863 129.739  1.00  0.00     0.123 A 
ATOM      9  C   UNL     1     124.292 133.851 130.076  1.00  0.00     0.094 A 
ATOM     10  C   UNL     1     125.498 133.724 129.379  1.00  0.00     0.146 A 
ATOM     11  O   UNL     1     126.343 132.754 129.717  1.00  0.00    -0.456 OA
ENDROOT
BRANCH   1  12
ATOM     12  C   UNL     1     128.374 131.441 129.568  1.00  0.00     0.021 A 
ATOM     13  C   UNL     1     129.765 131.523 129.386  1.00  0.00     0.016 A 
ATOM     14  C   UNL     1     130.601 130.490 129.817  1.00  0.00     0.051 A 
ATOM     15  C   UNL     1     130.063 129.361 130.446  1.00  0.00     0.157 A 
ATOM     16  C   UNL     1     127.840 130.308 130.214  1.00  0.00     0.062 A 
ATOM     17  C   UNL     1     128.676 129.273 130.649  1.00  0.00     0.158 A 
BRANCH  15  18
ATOM     18  O   UNL     1     130.899 128.331 130.874  1.00  0.00    -0.504 OA
ATOM     19  H   UNL     1     131.226 127.613 130.237  1.00  0.00     0.293 HD
ENDBRANCH  15  18
BRANCH  17  20
ATOM     20  O   UNL     1     128.110 128.166 131.282  1.00  0.00    -0.504 OA
ATOM     21  H   UNL     1     127.113 128.087 131.438  1.00  0.00     0.293 HD
ENDBRANCH  17  20
ENDBRANCH   1  12
BRANCH   6  22
ATOM     22  O   UNL     1     125.164 136.541 126.963  1.00  0.00    -0.507 OA
ATOM     23  H   UNL     1     124.437 136.874 126.340  1.00  0.00     0.293 HD
ENDBRANCH   6  22
BRANCH   8  24
ATOM     24  O   UNL     1     122.182 134.994 130.428  1.00  0.00    -0.508 OA
ATOM     25  H   UNL     1     121.749 135.900 130.568  1.00  0.00     0.293 HD
ENDBRANCH   8  24
TORSDOF 5
ENDMDL
MODEL 3
REMARK VINA RESULT:    -6.752      4.916      9.956
REMARK INTER + INTRA:          -8.200
REMARK INTER:                  -7.931
REMARK INTRA:                  -0.269
REMARK UNBOUND:                -0.264
REMARK SMILES O=c1cc(-c2ccc(O)c(O)c2)oc2cc(O)cc(O)c12
REMARK SMILES IDX 4 1 3 2 2 3 1 4 21 5 19 6 18 7 16 8 15 9 14 10 13 11 5 12
REMARK SMILES IDX 6 13 7 14 8 15 12 16 10 17 9 18 11 20 20 22 17 24
REMARK H PARENT 9 19 11 21 20 23 17 25
REMARK Flexibility Score: inf
ROOT
ATOM      1  C   UNL     1     131.897 129.325 130.567  1.00  0.00     0.138 A 
ATOM      2  C   UNL     1     131.785 128.805 129.266  1.00  0.00     0.100 A 
ATOM      3  C   UNL     1     132.500 127.657 128.922  1.00  0.00     0.197 A 
ATOM      4  O   UNL     1     132.391 127.197 127.754  1.00  0.00    -0.289 OA
ATOM      5  C   UNL     1     133.321 127.035 129.884  1.00  0.00     0.107 A 
ATOM      6  C   UNL     1     134.080 125.869 129.617  1.00  0.00     0.134 A 
ATOM      7  C   UNL     1     134.869 125.308 130.632  1.00  0.00     0.093 A 
ATOM      8  C   UNL     1     134.914 125.885 131.903  1.00  0.00     0.123 A 
ATOM      9  C   UNL     1     134.167 127.037 132.172  1.00  0.00     0.094 A 
ATOM     10  C   UNL     1     133.374 127.613 131.174  1.00  0.00     0.146 A 
ATOM     11  O   UNL     1     132.674 128.708 131.454  1.00  0.00    -0.456 OA
ENDROOT
BRANCH   1  12
ATOM     12  C   UNL     1     131.159 130.542 130.989  1.00  0.00     0.021 A 
ATOM     13  C   UNL     1     130.264 130.468 132.070  1.00  0.00     0.016 A 
ATOM     14  C   UNL     1     129.563 131.600 132.492  1.00  0.00     0.051 A 
ATOM     15  C   UNL     1     129.752 132.829 131.848  1.00  0.00     0.157 A 
ATOM     16  C   UNL     1     131.354 131.785 130.354  1.00  0.00     0.062 A 
ATOM     17  C   UNL     1     130.655 132.921 130.777  1.00  0.00     0.158 A 
BRANCH  15  18
ATOM     18  O   UNL     1     129.050 133.957 132.271  1.00  0.00    -0.504 OA
ATOM     19  H   UNL     1     128.351 133.904 133.004  1.00  0.00     0.293 HD
ENDBRANCH  15  18
BRANCH  17  20
ATOM     20  O   UNL     1     130.873 134.133 130.122  1.00  0.00    -0.504 OA
ATOM     21  H   UNL     1     131.692 134.295 129.548  1.00  0.00     0.293 HD
ENDBRANCH  17  20
ENDBRANCH   1  12
BRANCH   6  22
ATOM     22  O   UNL     1     134.054 125.270 128.358  1.00  0.00    -0.507 OA
ATOM     23  H   UNL     1     133.196 125.191 127.823  1.00  0.00     0.293 HD
ENDBRANCH   6  22
BRANCH   8  24
ATOM     24  O   UNL     1     135.707 125.307 132.892  1.00  0.00    -0.508 OA
ATOM     25  H   UNL     1     135.677 125.633 133.852  1.00  0.00     0.293 HD
ENDBRANCH   8  24
TORSDOF 5
ENDMDL
MODEL 4
REMARK VINA RESULT:    -6.734      1.572      1.707
REMARK INTER + INTRA:          -8.179
REMARK INTER:                  -7.911
REMARK INTRA:                  -0.268
REMARK UNBOUND:                -0.264
REMARK SMILES O=c1cc(-c2ccc(O)c(O)c2)oc2cc(O)cc(O)c12
REMARK SMILES IDX 4 1 3 2 2 3 1 4 21 5 19 6 18 7 16 8 15 9 14 10 13 11 5 12
REMARK SMILES IDX 6 13 7 14 8 15 12 16 10 17 9 18 11 20 20 22 17 24
REMARK H PARENT 9 19 11 21 20 23 17 25
REMARK Flexibility Score: inf
ROOT
ATOM      1  C   UNL     1     127.207 132.634 129.467  1.00  0.00     0.138 A 
ATOM      2  C   UNL     1     126.500 133.287 130.490  1.00  0.00     0.100 A 
ATOM      3  C   UNL     1     125.653 134.349 130.169  1.00  0.00     0.197 A 
ATOM      4  O   UNL     1     125.020 134.927 131.093  1.00  0.00    -0.289 OA
ATOM      5  C   UNL     1     125.517 134.748 128.824  1.00  0.00     0.107 A 
ATOM      6  C   UNL     1     124.680 135.814 128.413  1.00  0.00     0.134 A 
ATOM      7  C   UNL     1     124.596 136.146 127.053  1.00  0.00     0.093 A 
ATOM      8  C   UNL     1     125.328 135.436 126.099  1.00  0.00     0.123 A 
ATOM      9  C   UNL     1     126.156 134.381 126.499  1.00  0.00     0.094 A 
ATOM     10  C   UNL     1     126.255 134.035 127.850  1.00  0.00     0.146 A 
ATOM     11  O   UNL     1     127.049 133.030 128.206  1.00  0.00    -0.456 OA
ENDROOT
BRANCH   1  12
ATOM     12  C   UNL     1     128.121 131.499 129.748  1.00  0.00     0.021 A 
ATOM     13  C   UNL     1     129.480 131.603 129.403  1.00  0.00     0.016 A 
ATOM     14  C   UNL     1     130.362 130.552 129.663  1.00  0.00     0.051 A 
ATOM     15  C   UNL     1     129.905 129.381 130.281  1.00  0.00     0.157 A 
ATOM     16  C   UNL     1     127.670 130.324 130.382  1.00  0.00     0.062 A 
ATOM     17  C   UNL     1     128.553 129.270 130.646  1.00  0.00     0.158 A 
BRANCH  15  18
ATOM     18  O   UNL     1     130.787 128.334 130.539  1.00  0.00    -0.504 OA
ATOM     19  H   UNL     1     131.073 128.100 131.483  1.00  0.00     0.293 HD
ENDBRANCH  15  18
BRANCH  17  20
ATOM     20  O   UNL     1     128.069 128.122 131.273  1.00  0.00    -0.504 OA
ATOM     21  H   UNL     1     128.202 127.954 132.263  1.00  0.00     0.293 HD
ENDBRANCH  17  20
ENDBRANCH   1  12
BRANCH   6  22
ATOM     22  O   UNL     1     123.937 136.542 129.344  1.00  0.00    -0.507 OA
ATOM     23  H   UNL     1     124.220 137.468 129.643  1.00  0.00     0.293 HD
ENDBRANCH   6  22
BRANCH   8  24
ATOM     24  O   UNL     1     125.226 135.787 124.755  1.00  0.00    -0.508 OA
ATOM     25  H   UNL     1     125.612 135.200 124.023  1.00  0.00     0.293 HD
ENDBRANCH   8  24
TORSDOF 5
ENDMDL
MODEL 5
REMARK VINA RESULT:    -6.695      4.600      7.311
REMARK INTER + INTRA:          -8.133
REMARK INTER:                  -7.851
REMARK INTRA:                  -0.282
REMARK UNBOUND:                -0.264
REMARK SMILES O=c1cc(-c2ccc(O)c(O)c2)oc2cc(O)cc(O)c12
REMARK SMILES IDX 4 1 3 2 2 3 1 4 21 5 19 6 18 7 16 8 15 9 14 10 13 11 5 12
REMARK SMILES IDX 6 13 7 14 8 15 12 16 10 17 9 18 11 20 20 22 17 24
REMARK H PARENT 9 19 11 21 20 23 17 25
REMARK Flexibility Score: inf
ROOT
ATOM      1  C   UNL     1     132.119 128.427 130.896  1.00  0.00     0.138 A 
ATOM      2  C   UNL     1     130.805 127.933 130.936  1.00  0.00     0.100 A 
ATOM      3  C   UNL     1     129.734 128.819 130.815  1.00  0.00     0.197 A 
ATOM      4  O   UNL     1     128.558 128.366 130.849  1.00  0.00    -0.289 OA
ATOM      5  C   UNL     1     129.986 130.196 130.651  1.00  0.00     0.107 A 
ATOM      6  C   UNL     1     128.958 131.162 130.521  1.00  0.00     0.134 A 
ATOM      7  C   UNL     1     129.293 132.513 130.355  1.00  0.00     0.093 A 
ATOM      8  C   UNL     1     130.629 132.918 130.315  1.00  0.00     0.123 A 
ATOM      9  C   UNL     1     131.649 131.968 130.443  1.00  0.00     0.094 A 
ATOM     10  C   UNL     1     131.336 130.616 130.610  1.00  0.00     0.146 A 
ATOM     11  O   UNL     1     132.323 129.732 130.730  1.00  0.00    -0.456 OA
ENDROOT
BRANCH   1  12
ATOM     12  C   UNL     1     133.297 127.532 131.019  1.00  0.00     0.021 A 
ATOM     13  C   UNL     1     133.446 126.459 130.124  1.00  0.00     0.016 A 
ATOM     14  C   UNL     1     134.549 125.606 130.215  1.00  0.00     0.051 A 
ATOM     15  C   UNL     1     135.527 125.816 131.195  1.00  0.00     0.157 A 
ATOM     16  C   UNL     1     134.291 127.746 131.995  1.00  0.00     0.062 A 
ATOM     17  C   UNL     1     135.398 126.894 132.085  1.00  0.00     0.158 A 
BRANCH  15  18
ATOM     18  O   UNL     1     136.625 124.963 131.283  1.00  0.00    -0.504 OA
ATOM     19  H   UNL     1     136.626 124.050 130.841  1.00  0.00     0.293 HD
ENDBRANCH  15  18
BRANCH  17  20
ATOM     20  O   UNL     1     136.360 127.137 133.065  1.00  0.00    -0.504 OA
ATOM     21  H   UNL     1     137.216 126.598 133.124  1.00  0.00     0.293 HD
ENDBRANCH  17  20
ENDBRANCH   1  12
BRANCH   6  22
ATOM     22  O   UNL     1     127.615 130.788 130.556  1.00  0.00    -0.507 OA
ATOM     23  H   UNL     1     126.926 131.219 129.950  1.00  0.00     0.293 HD
ENDBRANCH   6  22
BRANCH   8  24
ATOM     24  O   UNL     1     130.934 134.267 130.150  1.00  0.00    -0.508 OA
ATOM     25  H   UNL     1     131.824 134.566 129.768  1.00  0.00     0.293 HD
ENDBRANCH   8  24
TORSDOF 5
ENDMDL
MODEL 6
REMARK VINA RESULT:    -6.591      3.415      7.725
REMARK INTER + INTRA:          -8.012
REMARK INTER:                  -7.700
REMARK INTRA:                  -0.312
REMARK UNBOUND:                -0.264
REMARK SMILES O=c1cc(-c2ccc(O)c(O)c2)oc2cc(O)cc(O)c12
REMARK SMILES IDX 4 1 3 2 2 3 1 4 21 5 19 6 18 7 16 8 15 9 14 10 13 11 5 12
REMARK SMILES IDX 6 13 7 14 8 15 12 16 10 17 9 18 11 20 20 22 17 24
REMARK H PARENT 9 19 11 21 20 23 17 25
REMARK Flexibility Score: inf
ROOT
ATOM      1  C   UNL     1     129.277 131.414 131.880  1.00  0.00     0.138 A 
ATOM      2  C   UNL     1     130.512 131.895 132.347  1.00  0.00     0.100 A 
ATOM      3  C   UNL     1     131.667 131.142 132.134  1.00  0.00     0.197 A 
ATOM      4  O   UNL     1     132.770 131.582 132.554  1.00  0.00    -0.289 OA
ATOM      5  C   UNL     1     131.580 129.912 131.451  1.00  0.00     0.107 A 
ATOM      6  C   UNL     1     132.701 129.087 131.193  1.00  0.00     0.134 A 
ATOM      7  C   UNL     1     132.531 127.880 130.501  1.00  0.00     0.093 A 
ATOM      8  C   UNL     1     131.266 127.482 130.062  1.00  0.00     0.123 A 
ATOM      9  C   UNL     1     130.154 128.292 130.313  1.00  0.00     0.094 A 
ATOM     10  C   UNL     1     130.303 129.500 131.002  1.00  0.00     0.146 A 
ATOM     11  O   UNL     1     129.231 130.253 131.230  1.00  0.00    -0.456 OA
ENDROOT
BRANCH   1  12
ATOM     12  C   UNL     1     128.016 132.171 132.078  1.00  0.00     0.021 A 
ATOM     13  C   UNL     1     128.070 133.557 132.307  1.00  0.00     0.016 A 
ATOM     14  C   UNL     1     126.898 134.293 132.489  1.00  0.00     0.051 A 
ATOM     15  C   UNL     1     125.650 133.661 132.436  1.00  0.00     0.157 A 
ATOM     16  C   UNL     1     126.756 131.543 132.012  1.00  0.00     0.062 A 
ATOM     17  C   UNL     1     125.580 132.280 132.192  1.00  0.00     0.158 A 
BRANCH  15  18
ATOM     18  O   UNL     1     124.482 134.399 132.619  1.00  0.00    -0.504 OA
ATOM     19  H   UNL     1     124.304 135.251 132.098  1.00  0.00     0.293 HD
ENDBRANCH  15  18
BRANCH  17  20
ATOM     20  O   UNL     1     124.352 131.622 132.122  1.00  0.00    -0.504 OA
ATOM     21  H   UNL     1     123.492 132.054 132.438  1.00  0.00     0.293 HD
ENDBRANCH  17  20
ENDBRANCH   1  12
BRANCH   6  22
ATOM     22  O   UNL     1     133.977 129.459 131.619  1.00  0.00    -0.507 OA
ATOM     23  H   UNL     1     134.813 129.049 131.217  1.00  0.00     0.293 HD
ENDBRANCH   6  22
BRANCH   8  24
ATOM     24  O   UNL     1     131.125 126.276 129.377  1.00  0.00    -0.508 OA
ATOM     25  H   UNL     1     130.659 126.230 128.477  1.00  0.00     0.293 HD
ENDBRANCH   8  24
TORSDOF 5
ENDMDL
MODEL 7
REMARK VINA RESULT:    -6.576      9.069     13.531
REMARK INTER + INTRA:          -7.993
REMARK INTER:                  -7.707
REMARK INTRA:                  -0.286
REMARK UNBOUND:                -0.264
REMARK SMILES O=c1cc(-c2ccc(O)c(O)c2)oc2cc(O)cc(O)c12
REMARK SMILES IDX 4 1 3 2 2 3 1 4 21 5 19 6 18 7 16 8 15 9 14 10 13 11 5 12
REMARK SMILES IDX 6 13 7 14 8 15 12 16 10 17 9 18 11 20 20 22 17 24
REMARK H PARENT 9 19 11 21 20 23 17 25
REMARK Flexibility Score: inf
ROOT
ATOM      1  C   UNL     1     125.724 137.974 118.288  1.00  0.00     0.138 A 
ATOM      2  C   UNL     1     124.495 138.656 118.288  1.00  0.00     0.100 A 
ATOM      3  C   UNL     1     123.545 138.357 119.265  1.00  0.00     0.197 A 
ATOM      4  O   UNL     1     122.446 138.976 119.258  1.00  0.00    -0.289 OA
ATOM      5  C   UNL     1     123.831 137.379 120.238  1.00  0.00     0.107 A 
ATOM      6  C   UNL     1     122.923 137.017 121.263  1.00  0.00     0.134 A 
ATOM      7  C   UNL     1     123.287 136.037 122.198  1.00  0.00     0.093 A 
ATOM      8  C   UNL     1     124.537 135.416 122.130  1.00  0.00     0.123 A 
ATOM      9  C   UNL     1     125.438 135.770 121.121  1.00  0.00     0.094 A 
ATOM     10  C   UNL     1     125.094 136.744 120.178  1.00  0.00     0.146 A 
ATOM     11  O   UNL     1     125.967 137.063 119.227  1.00  0.00    -0.456 OA
ENDROOT
BRANCH   1  12
ATOM     12  C   UNL     1     126.773 138.250 117.275  1.00  0.00     0.021 A 
ATOM     13  C   UNL     1     126.435 138.241 115.910  1.00  0.00     0.016 A 
ATOM     14  C   UNL     1     127.402 138.504 114.937  1.00  0.00     0.051 A 
ATOM     15  C   UNL     1     128.721 138.791 115.310  1.00  0.00     0.157 A 
ATOM     16  C   UNL     1     128.098 138.553 117.643  1.00  0.00     0.062 A 
ATOM     17  C   UNL     1     129.068 138.820 116.670  1.00  0.00     0.158 A 
BRANCH  15  18
ATOM     18  O   UNL     1     129.684 139.053 114.337  1.00  0.00    -0.504 OA
ATOM     19  H   UNL     1     129.454 139.053 113.349  1.00  0.00     0.293 HD
ENDBRANCH  15  18
BRANCH  17  20
ATOM     20  O   UNL     1     130.370 139.114 117.075  1.00  0.00    -0.504 OA
ATOM     21  H   UNL     1     130.848 139.957 116.780  1.00  0.00     0.293 HD
ENDBRANCH  17  20
ENDBRANCH   1  12
BRANCH   6  22
ATOM     22  O   UNL     1     121.669 137.620 121.356  1.00  0.00    -0.507 OA
ATOM     23  H   UNL     1     121.026 137.636 120.571  1.00  0.00     0.293 HD
ENDBRANCH   6  22
BRANCH   8  24
ATOM     24  O   UNL     1     124.872 134.445 123.072  1.00  0.00    -0.508 OA
ATOM     25  H   UNL     1     125.812 134.068 123.132  1.00  0.00     0.293 HD
ENDBRANCH   8  24
TORSDOF 5
ENDMDL
MODEL 8
REMARK VINA RESULT:    -6.478      4.917      9.912
REMARK INTER + INTRA:          -7.878
REMARK INTER:                  -7.614
REMARK INTRA:                  -0.264
REMARK UNBOUND:                -0.264
REMARK SMILES O=c1cc(-c2ccc(O)c(O)c2)oc2cc(O)cc(O)c12
REMARK SMILES IDX 4 1 3 2 2 3 1 4 21 5 19 6 18 7 16 8 15 9 14 10 13 11 5 12
REMARK SMILES IDX 6 13 7 14 8 15 12 16 10 17 9 18 11 20 20 22 17 24
REMARK H PARENT 9 19 11 21 20 23 17 25
REMARK Flexibility Score: inf
ROOT
ATOM      1  C   UNL     1     131.944 129.198 130.561  1.00  0.00     0.138 A 
ATOM      2  C   UNL     1     132.435 128.865 131.835  1.00  0.00     0.100 A 
ATOM      3  C   UNL     1     133.285 127.768 131.978  1.00  0.00     0.197 A 
ATOM      4  O   UNL     1     133.722 127.479 133.125  1.00  0.00    -0.289 OA
ATOM      5  C   UNL     1     133.641 127.011 130.844  1.00  0.00     0.107 A 
ATOM      6  C   UNL     1     134.496 125.884 130.902  1.00  0.00     0.134 A 
ATOM      7  C   UNL     1     134.806 125.187 129.725  1.00  0.00     0.093 A 
ATOM      8  C   UNL     1     134.282 125.593 128.496  1.00  0.00     0.123 A 
ATOM      9  C   UNL     1     133.436 126.706 128.433  1.00  0.00     0.094 A 
ATOM     10  C   UNL     1     133.114 127.414 129.595  1.00  0.00     0.146 A 
ATOM     11  O   UNL     1     132.307 128.468 129.509  1.00  0.00    -0.456 OA
ENDROOT
BRANCH   1  12
ATOM     12  C   UNL     1     131.038 130.354 130.349  1.00  0.00     0.021 A 
ATOM     13  C   UNL     1     129.664 130.129 130.153  1.00  0.00     0.016 A 
ATOM     14  C   UNL     1     128.790 131.201 129.957  1.00  0.00     0.051 A 
ATOM     15  C   UNL     1     129.270 132.516 129.963  1.00  0.00     0.157 A 
ATOM     16  C   UNL     1     131.513 131.681 130.366  1.00  0.00     0.062 A 
ATOM     17  C   UNL     1     130.638 132.756 130.173  1.00  0.00     0.158 A 
BRANCH  15  18
ATOM     18  O   UNL     1     128.395 133.582 129.766  1.00  0.00    -0.504 OA
ATOM     19  H   UNL     1     127.522 133.468 129.262  1.00  0.00     0.293 HD
ENDBRANCH  15  18
BRANCH  17  20
ATOM     20  O   UNL     1     131.145 134.055 130.195  1.00  0.00    -0.504 OA
ATOM     21  H   UNL     1     131.077 134.673 129.396  1.00  0.00     0.293 HD
ENDBRANCH  17  20
ENDBRANCH   1  12
BRANCH   6  22
ATOM     22  O   UNL     1     135.035 125.455 132.115  1.00  0.00    -0.507 OA
ATOM     23  H   UNL     1     134.457 125.317 132.936  1.00  0.00     0.293 HD
ENDBRANCH   6  22
BRANCH   8  24
ATOM     24  O   UNL     1     134.606 124.882 127.342  1.00  0.00    -0.508 OA
ATOM     25  H   UNL     1     133.945 124.780 126.580  1.00  0.00     0.293 HD
ENDBRANCH   8  24
TORSDOF 5
ENDMDL
MODEL 9
REMARK VINA RESULT:    -6.434     11.209     14.498
REMARK INTER + INTRA:          -7.827
REMARK INTER:                  -7.530
REMARK INTRA:                  -0.297
REMARK UNBOUND:                -0.264
REMARK SMILES O=c1cc(-c2ccc(O)c(O)c2)oc2cc(O)cc(O)c12
REMARK SMILES IDX 4 1 3 2 2 3 1 4 21 5 19 6 18 7 16 8 15 9 14 10 13 11 5 12
REMARK SMILES IDX 6 13 7 14 8 15 12 16 10 17 9 18 11 20 20 22 17 24
REMARK H PARENT 9 19 11 21 20 23 17 25
REMARK Flexibility Score: inf
ROOT
ATOM      1  C   UNL     1     126.417 137.846 117.872  1.00  0.00     0.138 A 
ATOM      2  C   UNL     1     126.391 138.500 116.629  1.00  0.00     0.100 A 
ATOM      3  C   UNL     1     127.548 138.538 115.849  1.00  0.00     0.197 A 
ATOM      4  O   UNL     1     127.514 139.125 114.734  1.00  0.00    -0.289 OA
ATOM      5  C   UNL     1     128.723 137.917 116.317  1.00  0.00     0.107 A 
ATOM      6  C   UNL     1     129.938 137.909 115.590  1.00  0.00     0.134 A 
ATOM      7  C   UNL     1     131.062 137.264 116.124  1.00  0.00     0.093 A 
ATOM      8  C   UNL     1     130.997 136.628 117.366  1.00  0.00     0.123 A 
ATOM      9  C   UNL     1     129.800 136.632 118.089  1.00  0.00     0.094 A 
ATOM     10  C   UNL     1     128.667 137.271 117.574  1.00  0.00     0.146 A 
ATOM     11  O   UNL     1     127.541 137.262 118.281  1.00  0.00    -0.456 OA
ENDROOT
BRANCH   1  12
ATOM     12  C   UNL     1     125.218 137.774 118.744  1.00  0.00     0.021 A 
ATOM     13  C   UNL     1     125.270 137.022 119.930  1.00  0.00     0.016 A 
ATOM     14  C   UNL     1     124.157 136.944 120.771  1.00  0.00     0.051 A 
ATOM     15  C   UNL     1     122.976 137.622 120.447  1.00  0.00     0.157 A 
ATOM     16  C   UNL     1     124.030 138.465 118.430  1.00  0.00     0.062 A 
ATOM     17  C   UNL     1     122.915 138.390 119.273  1.00  0.00     0.158 A 
BRANCH  15  18
ATOM     18  O   UNL     1     121.868 137.541 121.288  1.00  0.00    -0.504 OA
ATOM     19  H   UNL     1     121.843 138.019 122.182  1.00  0.00     0.293 HD
ENDBRANCH  15  18
BRANCH  17  20
ATOM     20  O   UNL     1     121.757 139.086 118.927  1.00  0.00    -0.504 OA
ATOM     21  H   UNL     1     120.968 138.632 118.484  1.00  0.00     0.293 HD
ENDBRANCH  17  20
ENDBRANCH   1  12
BRANCH   6  22
ATOM     22  O   UNL     1     130.033 138.536 114.347  1.00  0.00    -0.507 OA
ATOM     23  H   UNL     1     130.895 138.533 113.814  1.00  0.00     0.293 HD
ENDBRANCH   6  22
BRANCH   8  24
ATOM     24  O   UNL     1     132.130 135.994 117.873  1.00  0.00    -0.508 OA
ATOM     25  H   UNL     1     132.931 136.524 118.199  1.00  0.00     0.293 HD
ENDBRANCH   8  24
TORSDOF 5
ENDMDL
