MODEL 1
REMARK VINA RESULT:    -5.019      0.000      0.000
REMARK INTER + INTRA:         -10.589
REMARK INTER:                  -9.126
REMARK INTRA:                  -1.463
REMARK UNBOUND:                -1.463
REMARK SMILES CCCCCCCCCCCCCCCC(=O)[O-]
REMARK SMILES IDX 9 1 10 2 11 3 12 4 13 5 14 6 15 7 16 8 17 9 18 10 8 11 7 12
REMARK SMILES IDX 6 13 5 14 4 15 3 16 2 17 1 18
REMARK H PARENT
REMARK Flexibility Score: inf
ROOT
ATOM      1  C   UNL     1     -21.205 -24.434  39.865  1.00  0.00     0.000 C 
ENDROOT
BRANCH   1   2
ATOM      2  C   UNL     1     -21.921 -23.978  41.149  1.00  0.00     0.000 C 
BRANCH   2   3
ATOM      3  C   UNL     1     -23.443 -24.216  41.102  1.00  0.00     0.000 C 
BRANCH   3   4
ATOM      4  C   UNL     1     -23.935 -25.445  41.887  1.00  0.00     0.000 C 
BRANCH   4   5
ATOM      5  C   UNL     1     -25.346 -25.895  41.470  1.00  0.00     0.000 C 
BRANCH   5   6
ATOM      6  C   UNL     1     -26.419 -24.839  41.785  1.00  0.00     0.006 C 
BRANCH   6   7
ATOM      7  C   UNL     1     -27.326 -25.252  42.951  1.00  0.00     0.053 C 
BRANCH   7   8
ATOM      8  C   UNL     1     -28.765 -25.137  42.559  1.00  0.00     0.041 C 
ATOM      9  O   UNL     1     -29.452 -24.156  42.949  1.00  0.00    -0.550 OA
ATOM     10  O   UNL     1     -29.335 -26.087  41.722  1.00  0.00    -0.550 OA
ENDBRANCH   7   8
ENDBRANCH   6   7
ENDBRANCH   5   6
ENDBRANCH   4   5
ENDBRANCH   3   4
ENDBRANCH   2   3
ENDBRANCH   1   2
BRANCH   1  11
ATOM     11  C   UNL     1     -20.719 -25.891  39.945  1.00  0.00     0.000 C 
BRANCH  11  12
ATOM     12  C   UNL     1     -20.881 -26.643  38.612  1.00  0.00    -0.000 C 
BRANCH  12  13
ATOM     13  C   UNL     1     -21.913 -27.779  38.699  1.00  0.00    -0.000 C 
BRANCH  13  14
ATOM     14  C   UNL     1     -22.388 -28.038  40.137  1.00  0.00    -0.000 C 
BRANCH  14  15
ATOM     15  C   UNL     1     -23.014 -29.432  40.265  1.00  0.00    -0.000 C 
BRANCH  15  16
ATOM     16  C   UNL     1     -24.376 -29.362  40.972  1.00  0.00    -0.000 C 
BRANCH  16  17
ATOM     17  C   UNL     1     -25.554 -29.382  39.986  1.00  0.00    -0.003 C 
ATOM     18  C   UNL     1     -25.171 -29.948  38.619  1.00  0.00     0.004 C 
ENDBRANCH  16  17
ENDBRANCH  15  16
ENDBRANCH  14  15
ENDBRANCH  13  14
ENDBRANCH  12  13
ENDBRANCH  11  12
ENDBRANCH   1  11
TORSDOF 14
ENDMDL
MODEL 2
REMARK VINA RESULT:    -4.986      1.256      4.290
REMARK INTER + INTRA:         -10.529
REMARK INTER:                  -8.896
REMARK INTRA:                  -1.633
REMARK UNBOUND:                -1.463
REMARK SMILES CCCCCCCCCCCCCCCC(=O)[O-]
REMARK SMILES IDX 9 1 10 2 11 3 12 4 13 5 14 6 15 7 16 8 17 9 18 10 8 11 7 12
REMARK SMILES IDX 6 13 5 14 4 15 3 16 2 17 1 18
REMARK H PARENT
REMARK Flexibility Score: inf
ROOT
ATOM      1  C   UNL     1     -23.449 -28.789  37.483  1.00  0.00     0.000 C 
ENDROOT
BRANCH   1   2
ATOM      2  C   UNL     1     -24.635 -29.240  38.351  1.00  0.00     0.000 C 
BRANCH   2   3
ATOM      3  C   UNL     1     -24.215 -29.638  39.779  1.00  0.00     0.000 C 
BRANCH   3   4
ATOM      4  C   UNL     1     -25.119 -29.093  40.900  1.00  0.00     0.000 C 
BRANCH   4   5
ATOM      5  C   UNL     1     -25.558 -27.638  40.660  1.00  0.00     0.000 C 
BRANCH   5   6
ATOM      6  C   UNL     1     -25.454 -26.773  41.926  1.00  0.00     0.006 C 
BRANCH   6   7
ATOM      7  C   UNL     1     -26.075 -25.383  41.741  1.00  0.00     0.053 C 
BRANCH   7   8
ATOM      8  C   UNL     1     -27.346 -25.271  42.522  1.00  0.00     0.041 C 
ATOM      9  O   UNL     1     -28.025 -26.300  42.778  1.00  0.00    -0.550 OA
ATOM     10  O   UNL     1     -27.756 -24.037  43.010  1.00  0.00    -0.550 OA
ENDBRANCH   7   8
ENDBRANCH   6   7
ENDBRANCH   5   6
ENDBRANCH   4   5
ENDBRANCH   3   4
ENDBRANCH   2   3
ENDBRANCH   1   2
BRANCH   1  11
ATOM     11  C   UNL     1     -22.196 -28.465  38.314  1.00  0.00     0.000 C 
BRANCH  11  12
ATOM     12  C   UNL     1     -21.387 -27.291  37.734  1.00  0.00    -0.000 C 
BRANCH  12  13
ATOM     13  C   UNL     1     -20.868 -26.340  38.824  1.00  0.00    -0.000 C 
BRANCH  13  14
ATOM     14  C   UNL     1     -21.475 -26.634  40.205  1.00  0.00    -0.000 C 
BRANCH  14  15
ATOM     15  C   UNL     1     -22.259 -25.425  40.729  1.00  0.00    -0.000 C 
BRANCH  15  16
ATOM     16  C   UNL     1     -21.425 -24.139  40.621  1.00  0.00    -0.000 C 
BRANCH  16  17
ATOM     17  C   UNL     1     -22.192 -22.896  41.098  1.00  0.00    -0.003 C 
ATOM     18  C   UNL     1     -23.648 -22.885  40.632  1.00  0.00     0.004 C 
ENDBRANCH  16  17
ENDBRANCH  15  16
ENDBRANCH  14  15
ENDBRANCH  13  14
ENDBRANCH  12  13
ENDBRANCH  11  12
ENDBRANCH   1  11
TORSDOF 14
ENDMDL
MODEL 3
REMARK VINA RESULT:    -4.958      1.166      3.754
REMARK INTER + INTRA:         -10.479
REMARK INTER:                  -8.991
REMARK INTRA:                  -1.488
REMARK UNBOUND:                -1.463
REMARK SMILES CCCCCCCCCCCCCCCC(=O)[O-]
REMARK SMILES IDX 9 1 10 2 11 3 12 4 13 5 14 6 15 7 16 8 17 9 18 10 8 11 7 12
REMARK SMILES IDX 6 13 5 14 4 15 3 16 2 17 1 18
REMARK H PARENT
REMARK Flexibility Score: inf
ROOT
ATOM      1  C   UNL     1     -23.530 -29.045  40.185  1.00  0.00     0.000 C 
ENDROOT
BRANCH   1   2
ATOM      2  C   UNL     1     -24.408 -28.343  41.235  1.00  0.00     0.000 C 
BRANCH   2   3
ATOM      3  C   UNL     1     -25.817 -28.007  40.709  1.00  0.00     0.000 C 
BRANCH   3   4
ATOM      4  C   UNL     1     -26.354 -26.625  41.123  1.00  0.00     0.000 C 
BRANCH   4   5
ATOM      5  C   UNL     1     -25.873 -26.190  42.518  1.00  0.00     0.000 C 
BRANCH   5   6
ATOM      6  C   UNL     1     -26.959 -25.445  43.312  1.00  0.00     0.006 C 
BRANCH   6   7
ATOM      7  C   UNL     1     -27.519 -24.237  42.550  1.00  0.00     0.053 C 
BRANCH   7   8
ATOM      8  C   UNL     1     -29.015 -24.240  42.595  1.00  0.00     0.041 C 
ATOM      9  O   UNL     1     -29.636 -25.280  42.941  1.00  0.00    -0.550 OA
ATOM     10  O   UNL     1     -29.721 -23.081  42.303  1.00  0.00    -0.550 OA
ENDBRANCH   7   8
ENDBRANCH   6   7
ENDBRANCH   5   6
ENDBRANCH   4   5
ENDBRANCH   3   4
ENDBRANCH   2   3
ENDBRANCH   1   2
BRANCH   1  11
ATOM     11  C   UNL     1     -22.297 -28.213  39.793  1.00  0.00     0.000 C 
BRANCH  11  12
ATOM     12  C   UNL     1     -22.094 -28.138  38.269  1.00  0.00    -0.000 C 
BRANCH  12  13
ATOM     13  C   UNL     1     -21.121 -27.019  37.861  1.00  0.00    -0.000 C 
BRANCH  13  14
ATOM     14  C   UNL     1     -20.511 -26.294  39.070  1.00  0.00    -0.000 C 
BRANCH  14  15
ATOM     15  C   UNL     1     -21.137 -24.906  39.251  1.00  0.00    -0.000 C 
BRANCH  15  16
ATOM     16  C   UNL     1     -21.378 -24.599  40.737  1.00  0.00    -0.000 C 
BRANCH  16  17
ATOM     17  C   UNL     1     -22.849 -24.774  41.145  1.00  0.00    -0.003 C 
ATOM     18  C   UNL     1     -23.695 -23.536  40.850  1.00  0.00     0.004 C 
ENDBRANCH  16  17
ENDBRANCH  15  16
ENDBRANCH  14  15
ENDBRANCH  13  14
ENDBRANCH  12  13
ENDBRANCH  11  12
ENDBRANCH   1  11
TORSDOF 14
ENDMDL
MODEL 4
REMARK VINA RESULT:    -4.941      2.938      6.431
REMARK INTER + INTRA:         -10.448
REMARK INTER:                  -9.171
REMARK INTRA:                  -1.277
REMARK UNBOUND:                -1.463
REMARK SMILES CCCCCCCCCCCCCCCC(=O)[O-]
REMARK SMILES IDX 9 1 10 2 11 3 12 4 13 5 14 6 15 7 16 8 17 9 18 10 8 11 7 12
REMARK SMILES IDX 6 13 5 14 4 15 3 16 2 17 1 18
REMARK H PARENT
REMARK Flexibility Score: inf
ROOT
ATOM      1  C   UNL     1     -25.360 -28.685  39.900  1.00  0.00     0.000 C 
ENDROOT
BRANCH   1   2
ATOM      2  C   UNL     1     -24.488 -29.629  40.745  1.00  0.00     0.000 C 
BRANCH   2   3
ATOM      3  C   UNL     1     -22.993 -29.550  40.379  1.00  0.00     0.000 C 
BRANCH   3   4
ATOM      4  C   UNL     1     -22.630 -28.467  39.348  1.00  0.00     0.000 C 
BRANCH   4   5
ATOM      5  C   UNL     1     -21.928 -27.252  39.979  1.00  0.00     0.000 C 
BRANCH   5   6
ATOM      6  C   UNL     1     -20.908 -26.601  39.031  1.00  0.00     0.006 C 
BRANCH   6   7
ATOM      7  C   UNL     1     -20.195 -25.401  39.668  1.00  0.00     0.053 C 
BRANCH   7   8
ATOM      8  C   UNL     1     -21.149 -24.261  39.843  1.00  0.00     0.041 C 
ATOM      9  O   UNL     1     -21.591 -23.645  38.837  1.00  0.00    -0.550 OA
ATOM     10  O   UNL     1     -21.588 -23.911  41.113  1.00  0.00    -0.550 OA
ENDBRANCH   7   8
ENDBRANCH   6   7
ENDBRANCH   5   6
ENDBRANCH   4   5
ENDBRANCH   3   4
ENDBRANCH   2   3
ENDBRANCH   1   2
BRANCH   1  11
ATOM     11  C   UNL     1     -26.032 -27.587  40.742  1.00  0.00     0.000 C 
BRANCH  11  12
ATOM     12  C   UNL     1     -25.109 -27.038  41.844  1.00  0.00    -0.000 C 
BRANCH  12  13
ATOM     13  C   UNL     1     -24.933 -25.513  41.759  1.00  0.00    -0.000 C 
BRANCH  13  14
ATOM     14  C   UNL     1     -26.273 -24.768  41.659  1.00  0.00    -0.000 C 
BRANCH  14  15
ATOM     15  C   UNL     1     -27.126 -25.001  42.912  1.00  0.00    -0.000 C 
BRANCH  15  16
ATOM     16  C   UNL     1     -28.621 -24.835  42.599  1.00  0.00    -0.000 C 
BRANCH  16  17
ATOM     17  C   UNL     1     -29.381 -26.169  42.628  1.00  0.00    -0.003 C 
ATOM     18  C   UNL     1     -30.867 -25.996  42.942  1.00  0.00     0.004 C 
ENDBRANCH  16  17
ENDBRANCH  15  16
ENDBRANCH  14  15
ENDBRANCH  13  14
ENDBRANCH  12  13
ENDBRANCH  11  12
ENDBRANCH   1  11
TORSDOF 14
ENDMDL
MODEL 5
REMARK VINA RESULT:    -4.926      2.591      4.037
REMARK INTER + INTRA:         -10.420
REMARK INTER:                  -8.821
REMARK INTRA:                  -1.599
REMARK UNBOUND:                -1.463
REMARK SMILES CCCCCCCCCCCCCCCC(=O)[O-]
REMARK SMILES IDX 9 1 10 2 11 3 12 4 13 5 14 6 15 7 16 8 17 9 18 10 8 11 7 12
REMARK SMILES IDX 6 13 5 14 4 15 3 16 2 17 1 18
REMARK H PARENT
REMARK Flexibility Score: inf
ROOT
ATOM      1  C   UNL     1     -23.545 -22.071  38.901  1.00  0.00     0.000 C 
ENDROOT
BRANCH   1   2
ATOM      2  C   UNL     1     -23.745 -22.288  40.411  1.00  0.00     0.000 C 
BRANCH   2   3
ATOM      3  C   UNL     1     -25.225 -22.474  40.798  1.00  0.00     0.000 C 
BRANCH   3   4
ATOM      4  C   UNL     1     -25.636 -23.920  41.126  1.00  0.00     0.000 C 
BRANCH   4   5
ATOM      5  C   UNL     1     -24.436 -24.818  41.475  1.00  0.00     0.000 C 
BRANCH   5   6
ATOM      6  C   UNL     1     -24.863 -26.166  42.080  1.00  0.00     0.006 C 
BRANCH   6   7
ATOM      7  C   UNL     1     -25.734 -26.990  41.122  1.00  0.00     0.053 C 
BRANCH   7   8
ATOM      8  C   UNL     1     -25.157 -28.358  40.940  1.00  0.00     0.041 C 
ATOM      9  O   UNL     1     -25.821 -29.252  40.351  1.00  0.00    -0.550 OA
ATOM     10  O   UNL     1     -23.868 -28.633  41.376  1.00  0.00    -0.550 OA
ENDBRANCH   7   8
ENDBRANCH   6   7
ENDBRANCH   5   6
ENDBRANCH   4   5
ENDBRANCH   3   4
ENDBRANCH   2   3
ENDBRANCH   1   2
BRANCH   1  11
ATOM     11  C   UNL     1     -22.253 -22.719  38.376  1.00  0.00     0.000 C 
BRANCH  11  12
ATOM     12  C   UNL     1     -21.117 -22.702  39.415  1.00  0.00    -0.000 C 
BRANCH  12  13
ATOM     13  C   UNL     1     -20.428 -24.069  39.554  1.00  0.00    -0.000 C 
BRANCH  13  14
ATOM     14  C   UNL     1     -21.137 -24.991  40.557  1.00  0.00    -0.000 C 
BRANCH  14  15
ATOM     15  C   UNL     1     -21.187 -26.433  40.038  1.00  0.00    -0.000 C 
BRANCH  15  16
ATOM     16  C   UNL     1     -20.438 -26.563  38.703  1.00  0.00    -0.000 C 
BRANCH  16  17
ATOM     17  C   UNL     1     -21.208 -27.405  37.674  1.00  0.00    -0.003 C 
ATOM     18  C   UNL     1     -22.314 -28.248  38.308  1.00  0.00     0.004 C 
ENDBRANCH  16  17
ENDBRANCH  15  16
ENDBRANCH  14  15
ENDBRANCH  13  14
ENDBRANCH  12  13
ENDBRANCH  11  12
ENDBRANCH   1  11
TORSDOF 14
ENDMDL
MODEL 6
REMARK VINA RESULT:    -4.901      3.876      6.982
REMARK INTER + INTRA:         -10.375
REMARK INTER:                  -8.919
REMARK INTRA:                  -1.456
REMARK UNBOUND:                -1.463
REMARK SMILES CCCCCCCCCCCCCCCC(=O)[O-]
REMARK SMILES IDX 9 1 10 2 11 3 12 4 13 5 14 6 15 7 16 8 17 9 18 10 8 11 7 12
REMARK SMILES IDX 6 13 5 14 4 15 3 16 2 17 1 18
REMARK H PARENT
REMARK Flexibility Score: inf
ROOT
ATOM      1  C   UNL     1     -25.962 -27.197  40.986  1.00  0.00     0.000 C 
ENDROOT
BRANCH   1   2
ATOM      2  C   UNL     1     -25.310 -28.404  40.291  1.00  0.00     0.000 C 
BRANCH   2   3
ATOM      3  C   UNL     1     -24.299 -29.140  41.192  1.00  0.00     0.000 C 
BRANCH   3   4
ATOM      4  C   UNL     1     -22.914 -29.373  40.562  1.00  0.00     0.000 C 
BRANCH   4   5
ATOM      5  C   UNL     1     -22.604 -28.390  39.419  1.00  0.00     0.000 C 
BRANCH   5   6
ATOM      6  C   UNL     1     -21.645 -27.268  39.850  1.00  0.00     0.006 C 
BRANCH   6   7
ATOM      7  C   UNL     1     -20.897 -26.647  38.663  1.00  0.00     0.053 C 
BRANCH   7   8
ATOM      8  C   UNL     1     -19.647 -25.970  39.132  1.00  0.00     0.041 C 
ATOM      9  O   UNL     1     -19.707 -25.065  40.007  1.00  0.00    -0.550 OA
ATOM     10  O   UNL     1     -18.413 -26.371  38.640  1.00  0.00    -0.550 OA
ENDBRANCH   7   8
ENDBRANCH   6   7
ENDBRANCH   5   6
ENDBRANCH   4   5
ENDBRANCH   3   4
ENDBRANCH   2   3
ENDBRANCH   1   2
BRANCH   1  11
ATOM     11  C   UNL     1     -25.021 -26.515  41.994  1.00  0.00     0.000 C 
BRANCH  11  12
ATOM     12  C   UNL     1     -24.601 -25.102  41.550  1.00  0.00    -0.000 C 
BRANCH  12  13
ATOM     13  C   UNL     1     -23.075 -24.948  41.447  1.00  0.00    -0.000 C 
BRANCH  13  14
ATOM     14  C   UNL     1     -22.639 -23.489  41.245  1.00  0.00    -0.000 C 
BRANCH  14  15
ATOM     15  C   UNL     1     -23.378 -22.854  40.061  1.00  0.00    -0.000 C 
BRANCH  15  16
ATOM     16  C   UNL     1     -23.881 -21.446  40.416  1.00  0.00    -0.000 C 
BRANCH  16  17
ATOM     17  C   UNL     1     -25.322 -21.198  39.944  1.00  0.00    -0.003 C 
ATOM     18  C   UNL     1     -26.354 -21.980  40.757  1.00  0.00     0.004 C 
ENDBRANCH  16  17
ENDBRANCH  15  16
ENDBRANCH  14  15
ENDBRANCH  13  14
ENDBRANCH  12  13
ENDBRANCH  11  12
ENDBRANCH   1  11
TORSDOF 14
ENDMDL
MODEL 7
REMARK VINA RESULT:    -4.858      1.884      4.833
REMARK INTER + INTRA:         -10.297
REMARK INTER:                  -8.927
REMARK INTRA:                  -1.370
REMARK UNBOUND:                -1.463
REMARK SMILES CCCCCCCCCCCCCCCC(=O)[O-]
REMARK SMILES IDX 9 1 10 2 11 3 12 4 13 5 14 6 15 7 16 8 17 9 18 10 8 11 7 12
REMARK SMILES IDX 6 13 5 14 4 15 3 16 2 17 1 18
REMARK H PARENT
REMARK Flexibility Score: inf
ROOT
ATOM      1  C   UNL     1     -21.115 -27.099  38.154  1.00  0.00     0.000 C 
ENDROOT
BRANCH   1   2
ATOM      2  C   UNL     1     -22.225 -28.162  38.096  1.00  0.00     0.000 C 
BRANCH   2   3
ATOM      3  C   UNL     1     -22.595 -28.720  39.484  1.00  0.00     0.000 C 
BRANCH   3   4
ATOM      4  C   UNL     1     -24.036 -29.244  39.613  1.00  0.00     0.000 C 
BRANCH   4   5
ATOM      5  C   UNL     1     -24.781 -28.654  40.824  1.00  0.00     0.000 C 
BRANCH   5   6
ATOM      6  C   UNL     1     -24.286 -27.245  41.192  1.00  0.00     0.006 C 
BRANCH   6   7
ATOM      7  C   UNL     1     -25.095 -26.618  42.334  1.00  0.00     0.053 C 
BRANCH   7   8
ATOM      8  C   UNL     1     -26.304 -25.920  41.796  1.00  0.00     0.041 C 
ATOM      9  O   UNL     1     -27.406 -26.526  41.728  1.00  0.00    -0.550 OA
ATOM     10  O   UNL     1     -26.226 -24.587  41.415  1.00  0.00    -0.550 OA
ENDBRANCH   7   8
ENDBRANCH   6   7
ENDBRANCH   5   6
ENDBRANCH   4   5
ENDBRANCH   3   4
ENDBRANCH   2   3
ENDBRANCH   1   2
BRANCH   1  11
ATOM     11  C   UNL     1     -20.926 -26.518  39.566  1.00  0.00     0.000 C 
BRANCH  11  12
ATOM     12  C   UNL     1     -20.074 -25.236  39.569  1.00  0.00    -0.000 C 
BRANCH  12  13
ATOM     13  C   UNL     1     -20.870 -24.002  40.025  1.00  0.00    -0.000 C 
BRANCH  13  14
ATOM     14  C   UNL     1     -22.209 -24.370  40.681  1.00  0.00    -0.000 C 
BRANCH  14  15
ATOM     15  C   UNL     1     -22.960 -23.114  41.138  1.00  0.00    -0.000 C 
BRANCH  15  16
ATOM     16  C   UNL     1     -23.469 -22.308  39.933  1.00  0.00    -0.000 C 
BRANCH  16  17
ATOM     17  C   UNL     1     -24.830 -21.646  40.198  1.00  0.00    -0.003 C 
ATOM     18  C   UNL     1     -24.918 -20.228  39.635  1.00  0.00     0.004 C 
ENDBRANCH  16  17
ENDBRANCH  15  16
ENDBRANCH  14  15
ENDBRANCH  13  14
ENDBRANCH  12  13
ENDBRANCH  11  12
ENDBRANCH   1  11
TORSDOF 14
ENDMDL
MODEL 8
REMARK VINA RESULT:    -4.812      2.459      5.711
REMARK INTER + INTRA:         -10.213
REMARK INTER:                  -8.722
REMARK INTRA:                  -1.491
REMARK UNBOUND:                -1.463
REMARK SMILES CCCCCCCCCCCCCCCC(=O)[O-]
REMARK SMILES IDX 9 1 10 2 11 3 12 4 13 5 14 6 15 7 16 8 17 9 18 10 8 11 7 12
REMARK SMILES IDX 6 13 5 14 4 15 3 16 2 17 1 18
REMARK H PARENT
REMARK Flexibility Score: inf
ROOT
ATOM      1  C   UNL     1     -23.482 -23.385  40.767  1.00  0.00     0.000 C 
ENDROOT
BRANCH   1   2
ATOM      2  C   UNL     1     -22.195 -24.110  41.198  1.00  0.00     0.000 C 
BRANCH   2   3
ATOM      3  C   UNL     1     -21.437 -24.739  40.013  1.00  0.00     0.000 C 
BRANCH   3   4
ATOM      4  C   UNL     1     -21.261 -26.266  40.089  1.00  0.00     0.000 C 
BRANCH   4   5
ATOM      5  C   UNL     1     -21.200 -26.930  38.702  1.00  0.00     0.000 C 
BRANCH   5   6
ATOM      6  C   UNL     1     -22.206 -28.083  38.554  1.00  0.00     0.006 C 
BRANCH   6   7
ATOM      7  C   UNL     1     -22.618 -28.680  39.906  1.00  0.00     0.053 C 
BRANCH   7   8
ATOM      8  C   UNL     1     -24.049 -29.118  39.868  1.00  0.00     0.041 C 
ATOM      9  O   UNL     1     -24.581 -29.632  40.888  1.00  0.00    -0.550 OA
ATOM     10  O   UNL     1     -24.808 -28.913  38.724  1.00  0.00    -0.550 OA
ENDBRANCH   7   8
ENDBRANCH   6   7
ENDBRANCH   5   6
ENDBRANCH   4   5
ENDBRANCH   3   4
ENDBRANCH   2   3
ENDBRANCH   1   2
BRANCH   1  11
ATOM     11  C   UNL     1     -24.754 -24.167  41.132  1.00  0.00     0.000 C 
BRANCH  11  12
ATOM     12  C   UNL     1     -24.445 -25.522  41.795  1.00  0.00    -0.000 C 
BRANCH  12  13
ATOM     13  C   UNL     1     -25.702 -26.391  41.967  1.00  0.00    -0.000 C 
BRANCH  13  14
ATOM     14  C   UNL     1     -26.659 -25.844  43.037  1.00  0.00    -0.000 C 
BRANCH  14  15
ATOM     15  C   UNL     1     -28.121 -26.095  42.646  1.00  0.00    -0.000 C 
BRANCH  15  16
ATOM     16  C   UNL     1     -28.855 -24.771  42.383  1.00  0.00    -0.000 C 
BRANCH  16  17
ATOM     17  C   UNL     1     -28.138 -23.564  43.007  1.00  0.00    -0.003 C 
ATOM     18  C   UNL     1     -27.932 -22.420  42.015  1.00  0.00     0.004 C 
ENDBRANCH  16  17
ENDBRANCH  15  16
ENDBRANCH  14  15
ENDBRANCH  13  14
ENDBRANCH  12  13
ENDBRANCH  11  12
ENDBRANCH   1  11
TORSDOF 14
ENDMDL
MODEL 9
REMARK VINA RESULT:    -4.811      2.610      5.130
REMARK INTER + INTRA:         -10.211
REMARK INTER:                  -8.893
REMARK INTRA:                  -1.318
REMARK UNBOUND:                -1.463
REMARK SMILES CCCCCCCCCCCCCCCC(=O)[O-]
REMARK SMILES IDX 9 1 10 2 11 3 12 4 13 5 14 6 15 7 16 8 17 9 18 10 8 11 7 12
REMARK SMILES IDX 6 13 5 14 4 15 3 16 2 17 1 18
REMARK H PARENT
REMARK Flexibility Score: inf
ROOT
ATOM      1  C   UNL     1     -21.364 -24.516  39.413  1.00  0.00     0.000 C 
ENDROOT
BRANCH   1   2
ATOM      2  C   UNL     1     -21.255 -25.961  38.896  1.00  0.00     0.000 C 
BRANCH   2   3
ATOM      3  C   UNL     1     -21.366 -27.009  40.020  1.00  0.00     0.000 C 
BRANCH   3   4
ATOM      4  C   UNL     1     -22.429 -28.099  39.792  1.00  0.00     0.000 C 
BRANCH   4   5
ATOM      5  C   UNL     1     -23.125 -28.537  41.093  1.00  0.00     0.000 C 
BRANCH   5   6
ATOM      6  C   UNL     1     -24.262 -29.541  40.844  1.00  0.00     0.006 C 
BRANCH   6   7
ATOM      7  C   UNL     1     -25.341 -28.987  39.905  1.00  0.00     0.053 C 
BRANCH   7   8
ATOM      8  C   UNL     1     -25.496 -29.872  38.708  1.00  0.00     0.041 C 
ATOM      9  O   UNL     1     -26.324 -30.821  38.726  1.00  0.00    -0.550 OA
ATOM     10  O   UNL     1     -24.763 -29.618  37.557  1.00  0.00    -0.550 OA
ENDBRANCH   7   8
ENDBRANCH   6   7
ENDBRANCH   5   6
ENDBRANCH   4   5
ENDBRANCH   3   4
ENDBRANCH   2   3
ENDBRANCH   1   2
BRANCH   1  11
ATOM     11  C   UNL     1     -21.831 -24.445  40.876  1.00  0.00     0.000 C 
BRANCH  11  12
ATOM     12  C   UNL     1     -23.319 -24.076  41.005  1.00  0.00    -0.000 C 
BRANCH  12  13
ATOM     13  C   UNL     1     -24.170 -25.241  41.535  1.00  0.00    -0.000 C 
BRANCH  13  14
ATOM     14  C   UNL     1     -25.671 -24.914  41.565  1.00  0.00    -0.000 C 
BRANCH  14  15
ATOM     15  C   UNL     1     -26.404 -25.787  42.591  1.00  0.00    -0.000 C 
BRANCH  15  16
ATOM     16  C   UNL     1     -27.725 -26.320  42.018  1.00  0.00    -0.000 C 
BRANCH  16  17
ATOM     17  C   UNL     1     -28.943 -25.903  42.855  1.00  0.00    -0.003 C 
ATOM     18  C   UNL     1     -30.237 -26.571  42.392  1.00  0.00     0.004 C 
ENDBRANCH  16  17
ENDBRANCH  15  16
ENDBRANCH  14  15
ENDBRANCH  13  14
ENDBRANCH  12  13
ENDBRANCH  11  12
ENDBRANCH   1  11
TORSDOF 14
ENDMDL
