MODEL 1
REMARK VINA RESULT:    -3.969      0.000      0.000
REMARK INTER + INTRA:          -4.201
REMARK INTER:                  -4.201
REMARK INTRA:                   0.000
REMARK UNBOUND:                 0.000
REMARK SMILES O=c1ccc2cc(O)c(O)cc2o1
REMARK SMILES IDX 4 1 3 2 2 3 1 4 13 5 12 6 11 7 9 8 7 9 6 10 5 11 8 12 10 14
REMARK H PARENT 8 13 10 15
REMARK Flexibility Score: inf
ROOT
ATOM      1  C   UNL     1       5.070   1.222 -15.062  1.00  0.00     0.019 A 
ATOM      2  C   UNL     1       5.798   2.068 -14.227  1.00  0.00     0.094 A 
ATOM      3  C   UNL     1       6.138   3.346 -14.685  1.00  0.00     0.336 A 
ATOM      4  O   UNL     1       6.796   4.124 -13.947  1.00  0.00    -0.246 OA
ATOM      5  O   UNL     1       5.770   3.745 -15.900  1.00  0.00    -0.423 OA
ATOM      6  C   UNL     1       5.074   2.970 -16.728  1.00  0.00     0.142 A 
ATOM      7  C   UNL     1       4.714   3.443 -17.993  1.00  0.00     0.098 A 
ATOM      8  C   UNL     1       3.981   2.630 -18.871  1.00  0.00     0.161 A 
ATOM      9  C   UNL     1       3.604   1.333 -18.476  1.00  0.00     0.158 A 
ATOM     10  C   UNL     1       3.963   0.856 -17.209  1.00  0.00     0.062 A 
ATOM     11  C   UNL     1       4.696   1.667 -16.333  1.00  0.00     0.022 A 
ENDROOT
BRANCH   9  12
ATOM     12  O   UNL     1       2.875   0.505 -19.328  1.00  0.00    -0.504 OA
ATOM     13  H   UNL     1       2.729   0.732 -20.305  1.00  0.00     0.293 HD
ENDBRANCH   9  12
BRANCH   8  14
ATOM     14  O   UNL     1       3.624   3.106 -20.131  1.00  0.00    -0.504 OA
ATOM     15  H   UNL     1       3.967   2.671 -20.981  1.00  0.00     0.293 HD
ENDBRANCH   8  14
TORSDOF 2
ENDMDL
MODEL 2
REMARK VINA RESULT:    -3.794      1.961      2.892
REMARK INTER + INTRA:          -4.016
REMARK INTER:                  -4.016
REMARK INTRA:                   0.000
REMARK UNBOUND:                 0.000
REMARK SMILES O=c1ccc2cc(O)c(O)cc2o1
REMARK SMILES IDX 4 1 3 2 2 3 1 4 13 5 12 6 11 7 9 8 7 9 6 10 5 11 8 12 10 14
REMARK H PARENT 8 13 10 15
REMARK Flexibility Score: inf
ROOT
ATOM      1  C   UNL     1       3.653   4.012 -17.334  1.00  0.00     0.019 A 
ATOM      2  C   UNL     1       3.857   4.121 -15.959  1.00  0.00     0.094 A 
ATOM      3  C   UNL     1       3.873   2.958 -15.181  1.00  0.00     0.336 A 
ATOM      4  O   UNL     1       4.055   3.034 -13.938  1.00  0.00    -0.246 OA
ATOM      5  O   UNL     1       3.695   1.767 -15.748  1.00  0.00    -0.423 OA
ATOM      6  C   UNL     1       3.497   1.618 -17.055  1.00  0.00     0.142 A 
ATOM      7  C   UNL     1       3.316   0.342 -17.595  1.00  0.00     0.098 A 
ATOM      8  C   UNL     1       3.107   0.178 -18.973  1.00  0.00     0.161 A 
ATOM      9  C   UNL     1       3.080   1.305 -19.816  1.00  0.00     0.158 A 
ATOM     10  C   UNL     1       3.261   2.585 -19.278  1.00  0.00     0.062 A 
ATOM     11  C   UNL     1       3.469   2.748 -17.902  1.00  0.00     0.022 A 
ENDROOT
BRANCH   9  12
ATOM     12  O   UNL     1       2.875   1.171 -21.188  1.00  0.00    -0.504 OA
ATOM     13  H   UNL     1       3.635   1.233 -21.856  1.00  0.00     0.293 HD
ENDBRANCH   9  12
BRANCH   8  14
ATOM     14  O   UNL     1       2.928  -1.096 -19.507  1.00  0.00    -0.504 OA
ATOM     15  H   UNL     1       3.246  -1.331 -20.440  1.00  0.00     0.293 HD
ENDBRANCH   8  14
TORSDOF 2
ENDMDL
MODEL 3
REMARK VINA RESULT:    -3.767      1.661      5.133
REMARK INTER + INTRA:          -3.987
REMARK INTER:                  -3.987
REMARK INTRA:                   0.000
REMARK UNBOUND:                 0.000
REMARK SMILES O=c1ccc2cc(O)c(O)cc2o1
REMARK SMILES IDX 4 1 3 2 2 3 1 4 13 5 12 6 11 7 9 8 7 9 6 10 5 11 8 12 10 14
REMARK H PARENT 8 13 10 15
REMARK Flexibility Score: inf
ROOT
ATOM      1  C   UNL     1       3.166   2.356 -19.123  1.00  0.00     0.019 A 
ATOM      2  C   UNL     1       2.875   1.244 -19.912  1.00  0.00     0.094 A 
ATOM      3  C   UNL     1       3.130  -0.035 -19.405  1.00  0.00     0.336 A 
ATOM      4  O   UNL     1       2.875  -1.051 -20.103  1.00  0.00    -0.246 OA
ATOM      5  O   UNL     1       3.643  -0.185 -18.186  1.00  0.00    -0.423 OA
ATOM      6  C   UNL     1       3.934   0.848 -17.400  1.00  0.00     0.142 A 
ATOM      7  C   UNL     1       4.471   0.629 -16.128  1.00  0.00     0.098 A 
ATOM      8  C   UNL     1       4.781   1.714 -15.294  1.00  0.00     0.161 A 
ATOM      9  C   UNL     1       4.550   3.029 -15.739  1.00  0.00     0.158 A 
ATOM     10  C   UNL     1       4.013   3.251 -17.013  1.00  0.00     0.062 A 
ATOM     11  C   UNL     1       3.704   2.168 -17.846  1.00  0.00     0.022 A 
ENDROOT
BRANCH   9  12
ATOM     12  O   UNL     1       4.849   4.125 -14.931  1.00  0.00    -0.504 OA
ATOM     13  H   UNL     1       5.548   4.810 -15.189  1.00  0.00     0.293 HD
ENDBRANCH   9  12
BRANCH   8  14
ATOM     14  O   UNL     1       5.316   1.491 -14.027  1.00  0.00    -0.504 OA
ATOM     15  H   UNL     1       5.477   2.253 -13.376  1.00  0.00     0.293 HD
ENDBRANCH   8  14
TORSDOF 2
ENDMDL
MODEL 4
REMARK VINA RESULT:    -3.407      3.150      5.871
REMARK INTER + INTRA:          -3.607
REMARK INTER:                  -3.607
REMARK INTRA:                   0.000
REMARK UNBOUND:                 0.000
REMARK SMILES O=c1ccc2cc(O)c(O)cc2o1
REMARK SMILES IDX 4 1 3 2 2 3 1 4 13 5 12 6 11 7 9 8 7 9 6 10 5 11 8 12 10 14
REMARK H PARENT 8 13 10 15
REMARK Flexibility Score: inf
ROOT
ATOM      1  C   UNL     1       2.885  -1.120 -20.784  1.00  0.00     0.019 A 
ATOM      2  C   UNL     1       2.885  -0.850 -22.152  1.00  0.00     0.094 A 
ATOM      3  C   UNL     1       2.882   0.482 -22.581  1.00  0.00     0.336 A 
ATOM      4  O   UNL     1       2.880   0.747 -23.811  1.00  0.00    -0.246 OA
ATOM      5  O   UNL     1       2.879   1.474 -21.694  1.00  0.00    -0.423 OA
ATOM      6  C   UNL     1       2.880   1.261 -20.381  1.00  0.00     0.142 A 
ATOM      7  C   UNL     1       2.877   2.343 -19.496  1.00  0.00     0.098 A 
ATOM      8  C   UNL     1       2.877   2.125 -18.110  1.00  0.00     0.161 A 
ATOM      9  C   UNL     1       2.881   0.810 -17.608  1.00  0.00     0.158 A 
ATOM     10  C   UNL     1       2.883  -0.276 -18.491  1.00  0.00     0.062 A 
ATOM     11  C   UNL     1       2.883  -0.058 -19.876  1.00  0.00     0.022 A 
ENDROOT
BRANCH   9  12
ATOM     12  O   UNL     1       2.882   0.565 -16.235  1.00  0.00    -0.504 OA
ATOM     13  H   UNL     1       3.029  -0.362 -15.853  1.00  0.00     0.293 HD
ENDBRANCH   9  12
BRANCH   8  14
ATOM     14  O   UNL     1       2.875   3.206 -17.232  1.00  0.00    -0.504 OA
ATOM     15  H   UNL     1       3.631   3.358 -16.572  1.00  0.00     0.293 HD
ENDBRANCH   8  14
TORSDOF 2
ENDMDL
MODEL 5
REMARK VINA RESULT:    -3.386      1.458      4.416
REMARK INTER + INTRA:          -3.584
REMARK INTER:                  -3.584
REMARK INTRA:                   0.000
REMARK UNBOUND:                 0.000
REMARK SMILES O=c1ccc2cc(O)c(O)cc2o1
REMARK SMILES IDX 4 1 3 2 2 3 1 4 13 5 12 6 11 7 9 8 7 9 6 10 5 11 8 12 10 14
REMARK H PARENT 8 13 10 15
REMARK Flexibility Score: inf
ROOT
ATOM      1  C   UNL     1       3.237   1.147 -18.302  1.00  0.00     0.019 A 
ATOM      2  C   UNL     1       2.928   2.014 -19.348  1.00  0.00     0.094 A 
ATOM      3  C   UNL     1       3.431   3.319 -19.320  1.00  0.00     0.336 A 
ATOM      4  O   UNL     1       3.162   4.118 -20.255  1.00  0.00    -0.246 OA
ATOM      5  O   UNL     1       4.194   3.724 -18.307  1.00  0.00    -0.423 OA
ATOM      6  C   UNL     1       4.514   2.929 -17.290  1.00  0.00     0.142 A 
ATOM      7  C   UNL     1       5.320   3.410 -16.253  1.00  0.00     0.098 A 
ATOM      8  C   UNL     1       5.661   2.576 -15.177  1.00  0.00     0.161 A 
ATOM      9  C   UNL     1       5.190   1.251 -15.140  1.00  0.00     0.158 A 
ATOM     10  C   UNL     1       4.382   0.767 -16.176  1.00  0.00     0.062 A 
ATOM     11  C   UNL     1       4.042   1.599 -17.251  1.00  0.00     0.022 A 
ENDROOT
BRANCH   9  12
ATOM     12  O   UNL     1       5.514   0.402 -14.083  1.00  0.00    -0.504 OA
ATOM     13  H   UNL     1       5.372  -0.600 -14.133  1.00  0.00     0.293 HD
ENDBRANCH   9  12
BRANCH   8  14
ATOM     14  O   UNL     1       6.465   3.060 -14.146  1.00  0.00    -0.504 OA
ATOM     15  H   UNL     1       7.475   3.100 -14.234  1.00  0.00     0.293 HD
ENDBRANCH   8  14
TORSDOF 2
ENDMDL
MODEL 6
REMARK VINA RESULT:    -3.013      1.602      2.472
REMARK INTER + INTRA:          -3.189
REMARK INTER:                  -3.189
REMARK INTRA:                   0.000
REMARK UNBOUND:                 0.000
REMARK SMILES O=c1ccc2cc(O)c(O)cc2o1
REMARK SMILES IDX 4 1 3 2 2 3 1 4 13 5 12 6 11 7 9 8 7 9 6 10 5 11 8 12 10 14
REMARK H PARENT 8 13 10 15
REMARK Flexibility Score: inf
ROOT
ATOM      1  C   UNL     1       5.312   3.333 -15.618  1.00  0.00     0.019 A 
ATOM      2  C   UNL     1       5.657   2.437 -14.607  1.00  0.00     0.094 A 
ATOM      3  C   UNL     1       5.383   1.076 -14.783  1.00  0.00     0.336 A 
ATOM      4  O   UNL     1       5.686   0.251 -13.882  1.00  0.00    -0.246 OA
ATOM      5  O   UNL     1       4.802   0.646 -15.900  1.00  0.00    -0.423 OA
ATOM      6  C   UNL     1       4.456   1.466 -16.890  1.00  0.00     0.142 A 
ATOM      7  C   UNL     1       3.848   0.957 -18.040  1.00  0.00     0.098 A 
ATOM      8  C   UNL     1       3.481   1.817 -19.087  1.00  0.00     0.161 A 
ATOM      9  C   UNL     1       3.727   3.198 -18.978  1.00  0.00     0.158 A 
ATOM     10  C   UNL     1       4.336   3.711 -17.826  1.00  0.00     0.062 A 
ATOM     11  C   UNL     1       4.702   2.853 -16.781  1.00  0.00     0.022 A 
ENDROOT
BRANCH   9  12
ATOM     12  O   UNL     1       3.374   4.074 -20.003  1.00  0.00    -0.504 OA
ATOM     13  H   UNL     1       4.003   4.292 -20.767  1.00  0.00     0.293 HD
ENDBRANCH   9  12
BRANCH   8  14
ATOM     14  O   UNL     1       2.875   1.305 -20.232  1.00  0.00    -0.504 OA
ATOM     15  H   UNL     1       2.011   0.776 -20.185  1.00  0.00     0.293 HD
ENDBRANCH   8  14
TORSDOF 2
ENDMDL
MODEL 7
REMARK VINA RESULT:    -2.946      3.136      6.176
REMARK INTER + INTRA:          -3.118
REMARK INTER:                  -3.118
REMARK INTRA:                   0.000
REMARK UNBOUND:                 0.000
REMARK SMILES O=c1ccc2cc(O)c(O)cc2o1
REMARK SMILES IDX 4 1 3 2 2 3 1 4 13 5 12 6 11 7 9 8 7 9 6 10 5 11 8 12 10 14
REMARK H PARENT 8 13 10 15
REMARK Flexibility Score: inf
ROOT
ATOM      1  C   UNL     1       2.875   1.131 -21.869  1.00  0.00     0.019 A 
ATOM      2  C   UNL     1       2.875  -0.130 -22.462  1.00  0.00     0.094 A 
ATOM      3  C   UNL     1       2.877  -1.266 -21.644  1.00  0.00     0.336 A 
ATOM      4  O   UNL     1       2.878  -2.413 -22.161  1.00  0.00    -0.246 OA
ATOM      5  O   UNL     1       2.879  -1.140 -20.320  1.00  0.00    -0.423 OA
ATOM      6  C   UNL     1       2.878   0.044 -19.712  1.00  0.00     0.142 A 
ATOM      7  C   UNL     1       2.880   0.114 -18.316  1.00  0.00     0.098 A 
ATOM      8  C   UNL     1       2.879   1.360 -17.670  1.00  0.00     0.161 A 
ATOM      9  C   UNL     1       2.876   2.544 -18.430  1.00  0.00     0.158 A 
ATOM     10  C   UNL     1       2.876   2.477 -19.829  1.00  0.00     0.062 A 
ATOM     11  C   UNL     1       2.876   1.233 -20.474  1.00  0.00     0.022 A 
ENDROOT
BRANCH   9  12
ATOM     12  O   UNL     1       2.875   3.794 -17.814  1.00  0.00    -0.504 OA
ATOM     13  H   UNL     1       2.087   4.127 -17.272  1.00  0.00     0.293 HD
ENDBRANCH   9  12
BRANCH   8  14
ATOM     14  O   UNL     1       2.880   1.425 -16.278  1.00  0.00    -0.504 OA
ATOM     15  H   UNL     1       3.253   0.671 -15.711  1.00  0.00     0.293 HD
ENDBRANCH   8  14
TORSDOF 2
ENDMDL
MODEL 8
REMARK VINA RESULT:    -2.928      2.387      3.340
REMARK INTER + INTRA:          -3.099
REMARK INTER:                  -3.099
REMARK INTRA:                   0.000
REMARK UNBOUND:                 0.000
REMARK SMILES O=c1ccc2cc(O)c(O)cc2o1
REMARK SMILES IDX 4 1 3 2 2 3 1 4 13 5 12 6 11 7 9 8 7 9 6 10 5 11 8 12 10 14
REMARK H PARENT 8 13 10 15
REMARK Flexibility Score: inf
ROOT
ATOM      1  C   UNL     1       3.268   0.058 -17.178  1.00  0.00     0.019 A 
ATOM      2  C   UNL     1       3.360   1.161 -16.329  1.00  0.00     0.094 A 
ATOM      3  C   UNL     1       3.352   2.446 -16.881  1.00  0.00     0.336 A 
ATOM      4  O   UNL     1       3.435   3.454 -16.132  1.00  0.00    -0.246 OA
ATOM      5  O   UNL     1       3.257   2.611 -18.198  1.00  0.00    -0.423 OA
ATOM      6  C   UNL     1       3.166   1.588 -19.044  1.00  0.00     0.142 A 
ATOM      7  C   UNL     1       3.068   1.823 -20.418  1.00  0.00     0.098 A 
ATOM      8  C   UNL     1       2.973   0.748 -21.316  1.00  0.00     0.161 A 
ATOM      9  C   UNL     1       2.975  -0.573 -20.829  1.00  0.00     0.158 A 
ATOM     10  C   UNL     1       3.073  -0.811 -19.453  1.00  0.00     0.062 A 
ATOM     11  C   UNL     1       3.169   0.262 -18.557  1.00  0.00     0.022 A 
ENDROOT
BRANCH   9  12
ATOM     12  O   UNL     1       2.880  -1.659 -21.699  1.00  0.00    -0.504 OA
ATOM     13  H   UNL     1       3.037  -2.611 -21.390  1.00  0.00     0.293 HD
ENDBRANCH   9  12
BRANCH   8  14
ATOM     14  O   UNL     1       2.875   0.987 -22.685  1.00  0.00    -0.504 OA
ATOM     15  H   UNL     1       3.507   1.622 -23.160  1.00  0.00     0.293 HD
ENDBRANCH   8  14
TORSDOF 2
ENDMDL
