MODEL 1
REMARK VINA RESULT:    -5.362      0.000      0.000
REMARK INTER + INTRA:          -5.880
REMARK INTER:                  -5.832
REMARK INTRA:                  -0.048
REMARK UNBOUND:                -0.048
REMARK SMILES COc1cc2ccc(=O)oc2cc1O
REMARK SMILES IDX 3 1 13 2 12 3 11 4 5 5 4 6 6 7 7 8 8 9 9 10 10 11 2 12 1 13
REMARK SMILES IDX 14 14
REMARK H PARENT 14 15
REMARK Flexibility Score: inf
ROOT
ATOM      1  C   UNL     1      20.431  -0.083 -20.172  1.00  0.00     0.161 A 
ATOM      2  C   UNL     1      19.438  -0.493 -19.269  1.00  0.00     0.161 A 
ATOM      3  C   UNL     1      19.561  -0.204 -17.902  1.00  0.00     0.098 A 
ATOM      4  C   UNL     1      20.674   0.494 -17.427  1.00  0.00     0.142 A 
ATOM      5  C   UNL     1      21.677   0.909 -18.329  1.00  0.00     0.022 A 
ATOM      6  C   UNL     1      21.555   0.622 -19.695  1.00  0.00     0.062 A 
ATOM      7  C   UNL     1      22.779   1.606 -17.824  1.00  0.00     0.019 A 
ATOM      8  C   UNL     1      22.856   1.869 -16.456  1.00  0.00     0.094 A 
ATOM      9  C   UNL     1      21.824   1.426 -15.622  1.00  0.00     0.336 A 
ATOM     10  O   UNL     1      21.874   1.653 -14.386  1.00  0.00    -0.246 OA
ATOM     11  O   UNL     1      20.785   0.765 -16.129  1.00  0.00    -0.423 OA
ENDROOT
BRANCH   1  12
ATOM     12  O   UNL     1      20.265  -0.394 -21.531  1.00  0.00    -0.493 OA
ATOM     13  C   UNL     1      21.336  -0.623 -22.442  1.00  0.00     0.278 C 
ENDBRANCH   1  12
BRANCH   2  14
ATOM     14  O   UNL     1      18.326  -1.189 -19.739  1.00  0.00    -0.504 OA
ATOM     15  H   UNL     1      17.706  -0.793 -20.436  1.00  0.00     0.293 HD
ENDBRANCH   2  14
TORSDOF 2
ENDMDL
MODEL 2
REMARK VINA RESULT:    -5.232      2.209      3.103
REMARK INTER + INTRA:          -5.738
REMARK INTER:                  -5.674
REMARK INTRA:                  -0.064
REMARK UNBOUND:                -0.048
REMARK SMILES COc1cc2ccc(=O)oc2cc1O
REMARK SMILES IDX 3 1 13 2 12 3 11 4 5 5 4 6 6 7 7 8 8 9 9 10 10 11 2 12 1 13
REMARK SMILES IDX 14 14
REMARK H PARENT 14 15
REMARK Flexibility Score: inf
ROOT
ATOM      1  C   UNL     1      21.643   0.404 -21.361  1.00  0.00     0.161 A 
ATOM      2  C   UNL     1      20.881  -0.728 -21.691  1.00  0.00     0.161 A 
ATOM      3  C   UNL     1      20.061  -1.334 -20.729  1.00  0.00     0.098 A 
ATOM      4  C   UNL     1      19.994  -0.817 -19.432  1.00  0.00     0.142 A 
ATOM      5  C   UNL     1      20.757   0.320 -19.093  1.00  0.00     0.022 A 
ATOM      6  C   UNL     1      21.577   0.928 -20.054  1.00  0.00     0.062 A 
ATOM      7  C   UNL     1      20.670   0.816 -17.788  1.00  0.00     0.019 A 
ATOM      8  C   UNL     1      19.839   0.176 -16.867  1.00  0.00     0.094 A 
ATOM      9  C   UNL     1      19.113  -0.947 -17.275  1.00  0.00     0.336 A 
ATOM     10  O   UNL     1      18.358  -1.537 -16.460  1.00  0.00    -0.246 OA
ATOM     11  O   UNL     1      19.214  -1.397 -18.524  1.00  0.00    -0.423 OA
ENDROOT
BRANCH   1  12
ATOM     12  O   UNL     1      22.450   0.978 -22.356  1.00  0.00    -0.493 OA
ATOM     13  C   UNL     1      22.092   2.125 -23.122  1.00  0.00     0.278 C 
ENDBRANCH   1  12
BRANCH   2  14
ATOM     14  O   UNL     1      20.945  -1.247 -22.983  1.00  0.00    -0.504 OA
ATOM     15  H   UNL     1      21.376  -0.731 -23.741  1.00  0.00     0.293 HD
ENDBRANCH   2  14
TORSDOF 2
ENDMDL
MODEL 3
REMARK VINA RESULT:    -5.130     15.994     17.973
REMARK INTER + INTRA:          -5.628
REMARK INTER:                  -5.577
REMARK INTRA:                  -0.051
REMARK UNBOUND:                -0.048
REMARK SMILES COc1cc2ccc(=O)oc2cc1O
REMARK SMILES IDX 3 1 13 2 12 3 11 4 5 5 4 6 6 7 7 8 8 9 9 10 10 11 2 12 1 13
REMARK SMILES IDX 14 14
REMARK H PARENT 14 15
REMARK Flexibility Score: inf
ROOT
ATOM      1  C   UNL     1       8.035  -7.088  -7.439  1.00  0.00     0.161 A 
ATOM      2  C   UNL     1       7.733  -5.734  -7.222  1.00  0.00     0.161 A 
ATOM      3  C   UNL     1       7.608  -4.854  -8.305  1.00  0.00     0.098 A 
ATOM      4  C   UNL     1       7.781  -5.316  -9.612  1.00  0.00     0.142 A 
ATOM      5  C   UNL     1       8.084  -6.675  -9.840  1.00  0.00     0.022 A 
ATOM      6  C   UNL     1       8.210  -7.556  -8.757  1.00  0.00     0.062 A 
ATOM      7  C   UNL     1       8.252  -7.109 -11.159  1.00  0.00     0.019 A 
ATOM      8  C   UNL     1       8.116  -6.193 -12.203  1.00  0.00     0.094 A 
ATOM      9  C   UNL     1       7.815  -4.861 -11.902  1.00  0.00     0.336 A 
ATOM     10  O   UNL     1       7.688  -4.021 -12.829  1.00  0.00    -0.246 OA
ATOM     11  O   UNL     1       7.660  -4.475 -10.637  1.00  0.00    -0.423 OA
ENDROOT
BRANCH   1  12
ATOM     12  O   UNL     1       8.152  -7.932  -6.323  1.00  0.00    -0.493 OA
ATOM     13  C   UNL     1       7.087  -8.714  -5.790  1.00  0.00     0.278 C 
ENDBRANCH   1  12
BRANCH   2  14
ATOM     14  O   UNL     1       7.560  -5.269  -5.919  1.00  0.00    -0.504 OA
ATOM     15  H   UNL     1       8.263  -4.703  -5.459  1.00  0.00     0.293 HD
ENDBRANCH   2  14
TORSDOF 2
ENDMDL
MODEL 4
REMARK VINA RESULT:    -5.103      1.680      5.001
REMARK INTER + INTRA:          -5.598
REMARK INTER:                  -5.546
REMARK INTRA:                  -0.052
REMARK UNBOUND:                -0.048
REMARK SMILES COc1cc2ccc(=O)oc2cc1O
REMARK SMILES IDX 3 1 13 2 12 3 11 4 5 5 4 6 6 7 7 8 8 9 9 10 10 11 2 12 1 13
REMARK SMILES IDX 14 14
REMARK H PARENT 14 15
REMARK Flexibility Score: inf
ROOT
ATOM      1  C   UNL     1      19.448  -0.534 -17.416  1.00  0.00     0.161 A 
ATOM      2  C   UNL     1      20.415   0.462 -17.206  1.00  0.00     0.161 A 
ATOM      3  C   UNL     1      21.207   0.916 -18.270  1.00  0.00     0.098 A 
ATOM      4  C   UNL     1      21.041   0.381 -19.550  1.00  0.00     0.142 A 
ATOM      5  C   UNL     1      20.072  -0.621 -19.769  1.00  0.00     0.022 A 
ATOM      6  C   UNL     1      19.279  -1.075 -18.706  1.00  0.00     0.062 A 
ATOM      7  C   UNL     1      19.929  -1.138 -21.061  1.00  0.00     0.019 A 
ATOM      8  C   UNL     1      20.741  -0.653 -22.086  1.00  0.00     0.094 A 
ATOM      9  C   UNL     1      21.681   0.340 -21.794  1.00  0.00     0.336 A 
ATOM     10  O   UNL     1      22.422   0.791 -22.705  1.00  0.00    -0.246 OA
ATOM     11  O   UNL     1      21.796   0.815 -20.556  1.00  0.00    -0.423 OA
ENDROOT
BRANCH   1  12
ATOM     12  O   UNL     1      18.679  -0.957 -16.320  1.00  0.00    -0.493 OA
ATOM     13  C   UNL     1      17.403  -0.424 -15.978  1.00  0.00     0.278 C 
ENDBRANCH   1  12
BRANCH   2  14
ATOM     14  O   UNL     1      20.583   0.999 -15.930  1.00  0.00    -0.504 OA
ATOM     15  H   UNL     1      20.328   1.956 -15.718  1.00  0.00     0.293 HD
ENDBRANCH   2  14
TORSDOF 2
ENDMDL
MODEL 5
REMARK VINA RESULT:    -5.012      1.550      5.454
REMARK INTER + INTRA:          -5.499
REMARK INTER:                  -5.435
REMARK INTRA:                  -0.065
REMARK UNBOUND:                -0.048
REMARK SMILES COc1cc2ccc(=O)oc2cc1O
REMARK SMILES IDX 3 1 13 2 12 3 11 4 5 5 4 6 6 7 7 8 8 9 9 10 10 11 2 12 1 13
REMARK SMILES IDX 14 14
REMARK H PARENT 14 15
REMARK Flexibility Score: inf
ROOT
ATOM      1  C   UNL     1      20.076   0.988 -15.574  1.00  0.00     0.161 A 
ATOM      2  C   UNL     1      21.350   1.317 -16.064  1.00  0.00     0.161 A 
ATOM      3  C   UNL     1      21.728   0.943 -17.361  1.00  0.00     0.098 A 
ATOM      4  C   UNL     1      20.840   0.239 -18.178  1.00  0.00     0.142 A 
ATOM      5  C   UNL     1      19.558  -0.097 -17.692  1.00  0.00     0.022 A 
ATOM      6  C   UNL     1      19.178   0.278 -16.396  1.00  0.00     0.062 A 
ATOM      7  C   UNL     1      18.690  -0.802 -18.533  1.00  0.00     0.019 A 
ATOM      8  C   UNL     1      19.114  -1.151 -19.816  1.00  0.00     0.094 A 
ATOM      9  C   UNL     1      20.399  -0.786 -20.229  1.00  0.00     0.336 A 
ATOM     10  O   UNL     1      20.800  -1.091 -21.381  1.00  0.00    -0.246 OA
ATOM     11  O   UNL     1      21.204  -0.114 -19.408  1.00  0.00    -0.423 OA
ENDROOT
BRANCH   1  12
ATOM     12  O   UNL     1      19.741   1.383 -14.268  1.00  0.00    -0.493 OA
ATOM     13  C   UNL     1      19.771   0.523 -13.133  1.00  0.00     0.278 C 
ENDBRANCH   1  12
BRANCH   2  14
ATOM     14  O   UNL     1      22.238   2.020 -15.252  1.00  0.00    -0.504 OA
ATOM     15  H   UNL     1      23.108   2.392 -15.614  1.00  0.00     0.293 HD
ENDBRANCH   2  14
TORSDOF 2
ENDMDL
MODEL 6
REMARK VINA RESULT:    -4.998     16.110     18.131
REMARK INTER + INTRA:          -5.484
REMARK INTER:                  -5.435
REMARK INTRA:                  -0.049
REMARK UNBOUND:                -0.048
REMARK SMILES COc1cc2ccc(=O)oc2cc1O
REMARK SMILES IDX 3 1 13 2 12 3 11 4 5 5 4 6 6 7 7 8 8 9 9 10 10 11 2 12 1 13
REMARK SMILES IDX 14 14
REMARK H PARENT 14 15
REMARK Flexibility Score: inf
ROOT
ATOM      1  C   UNL     1       7.953  -6.482  -6.786  1.00  0.00     0.161 A 
ATOM      2  C   UNL     1       8.318  -7.749  -7.270  1.00  0.00     0.161 A 
ATOM      3  C   UNL     1       8.455  -7.968  -8.648  1.00  0.00     0.098 A 
ATOM      4  C   UNL     1       8.231  -6.927  -9.552  1.00  0.00     0.142 A 
ATOM      5  C   UNL     1       7.864  -5.651  -9.074  1.00  0.00     0.022 A 
ATOM      6  C   UNL     1       7.727  -5.430  -7.696  1.00  0.00     0.062 A 
ATOM      7  C   UNL     1       7.647  -4.628 -10.003  1.00  0.00     0.019 A 
ATOM      8  C   UNL     1       7.796  -4.897 -11.364  1.00  0.00     0.094 A 
ATOM      9  C   UNL     1       8.161  -6.186 -11.765  1.00  0.00     0.336 A 
ATOM     10  O   UNL     1       8.301  -6.448 -12.987  1.00  0.00    -0.246 OA
ATOM     11  O   UNL     1       8.362  -7.141 -10.859  1.00  0.00    -0.423 OA
ENDROOT
BRANCH   1  12
ATOM     12  O   UNL     1       7.828  -6.310  -5.398  1.00  0.00    -0.493 OA
ATOM     13  C   UNL     1       8.189  -5.123  -4.698  1.00  0.00     0.278 C 
ENDBRANCH   1  12
BRANCH   2  14
ATOM     14  O   UNL     1       8.542  -8.790  -6.370  1.00  0.00    -0.504 OA
ATOM     15  H   UNL     1       8.880  -9.694  -6.678  1.00  0.00     0.293 HD
ENDBRANCH   2  14
TORSDOF 2
ENDMDL
MODEL 7
REMARK VINA RESULT:    -4.928     10.587     12.140
REMARK INTER + INTRA:          -5.407
REMARK INTER:                  -5.342
REMARK INTRA:                  -0.065
REMARK UNBOUND:                -0.048
REMARK SMILES COc1cc2ccc(=O)oc2cc1O
REMARK SMILES IDX 3 1 13 2 12 3 11 4 5 5 4 6 6 7 7 8 8 9 9 10 10 11 2 12 1 13
REMARK SMILES IDX 14 14
REMARK H PARENT 14 15
REMARK Flexibility Score: inf
ROOT
ATOM      1  C   UNL     1      19.135  -1.973  -7.826  1.00  0.00     0.161 A 
ATOM      2  C   UNL     1      18.816  -2.614  -6.618  1.00  0.00     0.161 A 
ATOM      3  C   UNL     1      19.831  -3.137  -5.805  1.00  0.00     0.098 A 
ATOM      4  C   UNL     1      21.170  -3.024  -6.189  1.00  0.00     0.142 A 
ATOM      5  C   UNL     1      21.498  -2.381  -7.401  1.00  0.00     0.022 A 
ATOM      6  C   UNL     1      20.484  -1.857  -8.215  1.00  0.00     0.062 A 
ATOM      7  C   UNL     1      22.847  -2.283  -7.759  1.00  0.00     0.019 A 
ATOM      8  C   UNL     1      23.820  -2.820  -6.915  1.00  0.00     0.094 A 
ATOM      9  C   UNL     1      23.420  -3.444  -5.729  1.00  0.00     0.336 A 
ATOM     10  O   UNL     1      24.282  -3.933  -4.955  1.00  0.00    -0.246 OA
ATOM     11  O   UNL     1      22.129  -3.523  -5.413  1.00  0.00    -0.423 OA
ENDROOT
BRANCH   1  12
ATOM     12  O   UNL     1      18.085  -1.465  -8.608  1.00  0.00    -0.493 OA
ATOM     13  C   UNL     1      17.709  -0.091  -8.658  1.00  0.00     0.278 C 
ENDBRANCH   1  12
BRANCH   2  14
ATOM     14  O   UNL     1      17.481  -2.729  -6.232  1.00  0.00    -0.504 OA
ATOM     15  H   UNL     1      16.873  -3.437  -6.626  1.00  0.00     0.293 HD
ENDBRANCH   2  14
TORSDOF 2
ENDMDL
MODEL 8
REMARK VINA RESULT:    -4.909     15.490     17.397
REMARK INTER + INTRA:          -5.387
REMARK INTER:                  -5.340
REMARK INTRA:                  -0.047
REMARK UNBOUND:                -0.048
REMARK SMILES COc1cc2ccc(=O)oc2cc1O
REMARK SMILES IDX 3 1 13 2 12 3 11 4 5 5 4 6 6 7 7 8 8 9 9 10 10 11 2 12 1 13
REMARK SMILES IDX 14 14
REMARK H PARENT 14 15
REMARK Flexibility Score: inf
ROOT
ATOM      1  C   UNL     1       7.974  -5.639  -6.989  1.00  0.00     0.161 A 
ATOM      2  C   UNL     1       7.339  -5.186  -8.157  1.00  0.00     0.161 A 
ATOM      3  C   UNL     1       7.897  -5.452  -9.415  1.00  0.00     0.098 A 
ATOM      4  C   UNL     1       9.091  -6.171  -9.519  1.00  0.00     0.142 A 
ATOM      5  C   UNL     1       9.735  -6.629  -8.350  1.00  0.00     0.022 A 
ATOM      6  C   UNL     1       9.178  -6.364  -7.091  1.00  0.00     0.062 A 
ATOM      7  C   UNL     1      10.929  -7.345  -8.485  1.00  0.00     0.019 A 
ATOM      8  C   UNL     1      11.443  -7.584  -9.760  1.00  0.00     0.094 A 
ATOM      9  C   UNL     1      10.750  -7.098 -10.873  1.00  0.00     0.336 A 
ATOM     10  O   UNL     1      11.197  -7.304 -12.031  1.00  0.00    -0.246 OA
ATOM     11  O   UNL     1       9.616  -6.420 -10.716  1.00  0.00    -0.423 OA
ENDROOT
BRANCH   1  12
ATOM     12  O   UNL     1       7.378  -5.349  -5.751  1.00  0.00    -0.493 OA
ATOM     13  C   UNL     1       8.087  -5.252  -4.519  1.00  0.00     0.278 C 
ENDBRANCH   1  12
BRANCH   2  14
ATOM     14  O   UNL     1       6.147  -4.469  -8.057  1.00  0.00    -0.504 OA
ATOM     15  H   UNL     1       5.559  -4.528  -7.234  1.00  0.00     0.293 HD
ENDBRANCH   2  14
TORSDOF 2
ENDMDL
MODEL 9
REMARK VINA RESULT:    -4.884     16.073     17.564
REMARK INTER + INTRA:          -5.360
REMARK INTER:                  -5.296
REMARK INTRA:                  -0.064
REMARK UNBOUND:                -0.048
REMARK SMILES COc1cc2ccc(=O)oc2cc1O
REMARK SMILES IDX 3 1 13 2 12 3 11 4 5 5 4 6 6 7 7 8 8 9 9 10 10 11 2 12 1 13
REMARK SMILES IDX 14 14
REMARK H PARENT 14 15
REMARK Flexibility Score: inf
ROOT
ATOM      1  C   UNL     1       8.137  -6.953 -10.750  1.00  0.00     0.161 A 
ATOM      2  C   UNL     1       8.173  -5.561 -10.568  1.00  0.00     0.161 A 
ATOM      3  C   UNL     1       8.117  -5.013  -9.279  1.00  0.00     0.098 A 
ATOM      4  C   UNL     1       8.025  -5.848  -8.162  1.00  0.00     0.142 A 
ATOM      5  C   UNL     1       7.989  -7.248  -8.336  1.00  0.00     0.022 A 
ATOM      6  C   UNL     1       8.046  -7.797  -9.625  1.00  0.00     0.062 A 
ATOM      7  C   UNL     1       7.897  -8.058  -7.200  1.00  0.00     0.019 A 
ATOM      8  C   UNL     1       7.845  -7.464  -5.938  1.00  0.00     0.094 A 
ATOM      9  C   UNL     1       7.885  -6.070  -5.843  1.00  0.00     0.336 A 
ATOM     10  O   UNL     1       7.839  -5.515  -4.715  1.00  0.00    -0.246 OA
ATOM     11  O   UNL     1       7.972  -5.322  -6.941  1.00  0.00    -0.423 OA
ENDROOT
BRANCH   1  12
ATOM     12  O   UNL     1       8.196  -7.456 -12.060  1.00  0.00    -0.493 OA
ATOM     13  C   UNL     1       9.376  -7.961 -12.676  1.00  0.00     0.278 C 
ENDBRANCH   1  12
BRANCH   2  14
ATOM     14  O   UNL     1       8.264  -4.725 -11.680  1.00  0.00    -0.504 OA
ATOM     15  H   UNL     1       8.834  -4.968 -12.482  1.00  0.00     0.293 HD
ENDBRANCH   2  14
TORSDOF 2
ENDMDL
