MODEL 1
REMARK VINA RESULT:     1.378      0.000      0.000
REMARK INTER + INTRA:           1.459
REMARK INTER:                   3.151
REMARK INTRA:                  -1.692
REMARK UNBOUND:                -1.692
REMARK SMILES CCCCCCCCCCCCCCCCCCCCCCCC(=O)[O-]
REMARK SMILES IDX 13 1 14 2 15 3 16 4 17 5 18 6 19 7 20 8 21 9 22 10 23 11
REMARK SMILES IDX 24 12 25 13 26 14 12 15 11 16 10 17 9 18 8 19 7 20 6 21 5 22
REMARK SMILES IDX 4 23 3 24 2 25 1 26
REMARK H PARENT
REMARK Flexibility Score: inf
ROOT
ATOM      1  C   UNL     1       4.511   4.507   1.041  1.00  0.00     0.000 C 
ENDROOT
BRANCH   1   2
ATOM      2  C   UNL     1       3.639   3.321   1.492  1.00  0.00     0.000 C 
BRANCH   2   3
ATOM      3  C   UNL     1       2.723   2.806   0.369  1.00  0.00     0.000 C 
BRANCH   3   4
ATOM      4  C   UNL     1       2.796   1.276   0.211  1.00  0.00     0.000 C 
BRANCH   4   5
ATOM      5  C   UNL     1       1.824   0.744  -0.854  1.00  0.00     0.000 C 
BRANCH   5   6
ATOM      6  C   UNL     1       1.584  -0.772  -0.738  1.00  0.00     0.000 C 
BRANCH   6   7
ATOM      7  C   UNL     1       1.414  -1.234   0.725  1.00  0.00     0.000 C 
BRANCH   7   8
ATOM      8  C   UNL     1       0.949  -2.696   0.870  1.00  0.00     0.000 C 
BRANCH   8   9
ATOM      9  C   UNL     1       0.407  -3.079   2.258  1.00  0.00     0.000 C 
BRANCH   9  10
ATOM     10  C   UNL     1      -0.876  -2.341   2.692  1.00  0.00     0.006 C 
BRANCH  10  11
ATOM     11  C   UNL     1      -1.877  -3.223   3.459  1.00  0.00     0.053 C 
BRANCH  11  12
ATOM     12  C   UNL     1      -1.988  -2.850   4.907  1.00  0.00     0.041 C 
ATOM     13  O   UNL     1      -3.011  -2.250   5.334  1.00  0.00    -0.550 OA
ATOM     14  O   UNL     1      -0.978  -3.200   5.796  1.00  0.00    -0.550 OA
ENDBRANCH  11  12
ENDBRANCH  10  11
ENDBRANCH   9  10
ENDBRANCH   8   9
ENDBRANCH   7   8
ENDBRANCH   6   7
ENDBRANCH   5   6
ENDBRANCH   4   5
ENDBRANCH   3   4
ENDBRANCH   2   3
ENDBRANCH   1   2
BRANCH   1  15
ATOM     15  C   UNL     1       5.278   5.154   2.206  1.00  0.00     0.000 C 
BRANCH  15  16
ATOM     16  C   UNL     1       6.428   6.054   1.721  1.00  0.00     0.000 C 
BRANCH  16  17
ATOM     17  C   UNL     1       7.595   5.254   1.118  1.00  0.00     0.000 C 
BRANCH  17  18
ATOM     18  C   UNL     1       8.858   6.110   0.921  1.00  0.00    -0.000 C 
BRANCH  18  19
ATOM     19  C   UNL     1       9.886   5.928   2.052  1.00  0.00    -0.000 C 
BRANCH  19  20
ATOM     20  C   UNL     1       9.759   4.617   2.854  1.00  0.00    -0.000 C 
BRANCH  20  21
ATOM     21  C   UNL     1       9.643   4.794   4.379  1.00  0.00    -0.000 C 
BRANCH  21  22
ATOM     22  C   UNL     1       9.553   6.271   4.801  1.00  0.00    -0.000 C 
BRANCH  22  23
ATOM     23  C   UNL     1       8.103   6.779   4.871  1.00  0.00    -0.000 C 
BRANCH  23  24
ATOM     24  C   UNL     1       8.007   8.307   4.710  1.00  0.00    -0.000 C 
BRANCH  24  25
ATOM     25  C   UNL     1       9.388   8.982   4.684  1.00  0.00    -0.003 C 
ATOM     26  C   UNL     1       9.841   9.352   3.271  1.00  0.00     0.004 C 
ENDBRANCH  24  25
ENDBRANCH  23  24
ENDBRANCH  22  23
ENDBRANCH  21  22
ENDBRANCH  20  21
ENDBRANCH  19  20
ENDBRANCH  18  19
ENDBRANCH  17  18
ENDBRANCH  16  17
ENDBRANCH  15  16
ENDBRANCH   1  15
TORSDOF 22
ENDMDL
MODEL 2
REMARK VINA RESULT:     1.543      4.221     11.631
REMARK INTER + INTRA:           1.836
REMARK INTER:                   3.166
REMARK INTRA:                  -1.329
REMARK UNBOUND:                -1.692
REMARK SMILES CCCCCCCCCCCCCCCCCCCCCCCC(=O)[O-]
REMARK SMILES IDX 13 1 14 2 15 3 16 4 17 5 18 6 19 7 20 8 21 9 22 10 23 11
REMARK SMILES IDX 24 12 25 13 26 14 12 15 11 16 10 17 9 18 8 19 7 20 6 21 5 22
REMARK SMILES IDX 4 23 3 24 2 25 1 26
REMARK H PARENT
REMARK Flexibility Score: inf
ROOT
ATOM      1  C   UNL     1       3.846   3.642   1.602  1.00  0.00     0.000 C 
ENDROOT
BRANCH   1   2
ATOM      2  C   UNL     1       4.670   4.749   0.921  1.00  0.00     0.000 C 
BRANCH   2   3
ATOM      3  C   UNL     1       5.763   5.317   1.841  1.00  0.00     0.000 C 
BRANCH   3   4
ATOM      4  C   UNL     1       6.793   6.165   1.072  1.00  0.00     0.000 C 
BRANCH   4   5
ATOM      5  C   UNL     1       8.189   5.524   1.047  1.00  0.00     0.000 C 
BRANCH   5   6
ATOM      6  C   UNL     1       9.323   6.557   1.170  1.00  0.00     0.000 C 
BRANCH   6   7
ATOM      7  C   UNL     1       9.980   6.550   2.567  1.00  0.00     0.000 C 
BRANCH   7   8
ATOM      8  C   UNL     1       9.631   5.313   3.417  1.00  0.00     0.000 C 
BRANCH   8   9
ATOM      9  C   UNL     1       9.848   5.472   4.932  1.00  0.00     0.000 C 
BRANCH   9  10
ATOM     10  C   UNL     1       9.319   6.788   5.539  1.00  0.00     0.006 C 
BRANCH  10  11
ATOM     11  C   UNL     1       7.815   7.024   5.309  1.00  0.00     0.053 C 
BRANCH  11  12
ATOM     12  C   UNL     1       7.510   8.420   4.856  1.00  0.00     0.041 C 
ATOM     13  O   UNL     1       6.325   8.848   4.865  1.00  0.00    -0.550 OA
ATOM     14  O   UNL     1       8.541   9.264   4.461  1.00  0.00    -0.550 OA
ENDBRANCH  11  12
ENDBRANCH  10  11
ENDBRANCH   9  10
ENDBRANCH   8   9
ENDBRANCH   7   8
ENDBRANCH   6   7
ENDBRANCH   5   6
ENDBRANCH   4   5
ENDBRANCH   3   4
ENDBRANCH   2   3
ENDBRANCH   1   2
BRANCH   1  15
ATOM     15  C   UNL     1       2.792   3.028   0.666  1.00  0.00     0.000 C 
BRANCH  15  16
ATOM     16  C   UNL     1       2.973   1.509   0.497  1.00  0.00     0.000 C 
BRANCH  16  17
ATOM     17  C   UNL     1       2.568   1.014  -0.902  1.00  0.00     0.000 C 
BRANCH  17  18
ATOM     18  C   UNL     1       1.570  -0.154  -0.850  1.00  0.00    -0.000 C 
BRANCH  18  19
ATOM     19  C   UNL     1       1.626  -0.930   0.479  1.00  0.00    -0.000 C 
BRANCH  19  20
ATOM     20  C   UNL     1       0.657  -2.125   0.587  1.00  0.00    -0.000 C 
BRANCH  20  21
ATOM     21  C   UNL     1       1.014  -3.158   1.670  1.00  0.00    -0.000 C 
BRANCH  21  22
ATOM     22  C   UNL     1      -0.219  -3.662   2.440  1.00  0.00    -0.000 C 
BRANCH  22  23
ATOM     23  C   UNL     1      -1.330  -2.604   2.538  1.00  0.00    -0.000 C 
BRANCH  23  24
ATOM     24  C   UNL     1      -1.445  -2.002   3.951  1.00  0.00    -0.000 C 
BRANCH  24  25
ATOM     25  C   UNL     1      -2.905  -1.864   4.413  1.00  0.00    -0.003 C 
ATOM     26  C   UNL     1      -3.114  -2.315   5.859  1.00  0.00     0.004 C 
ENDBRANCH  24  25
ENDBRANCH  23  24
ENDBRANCH  22  23
ENDBRANCH  21  22
ENDBRANCH  20  21
ENDBRANCH  19  20
ENDBRANCH  18  19
ENDBRANCH  17  18
ENDBRANCH  16  17
ENDBRANCH  15  16
ENDBRANCH   1  15
TORSDOF 22
ENDMDL
MODEL 3
REMARK VINA RESULT:     1.749      3.958     11.416
REMARK INTER + INTRA:           2.307
REMARK INTER:                   3.903
REMARK INTRA:                  -1.596
REMARK UNBOUND:                -1.692
REMARK SMILES CCCCCCCCCCCCCCCCCCCCCCCC(=O)[O-]
REMARK SMILES IDX 13 1 14 2 15 3 16 4 17 5 18 6 19 7 20 8 21 9 22 10 23 11
REMARK SMILES IDX 24 12 25 13 26 14 12 15 11 16 10 17 9 18 8 19 7 20 6 21 5 22
REMARK SMILES IDX 4 23 3 24 2 25 1 26
REMARK H PARENT
REMARK Flexibility Score: inf
ROOT
ATOM      1  C   UNL     1       4.898   4.537   1.105  1.00  0.00     0.000 C 
ENDROOT
BRANCH   1   2
ATOM      2  C   UNL     1       5.491   5.418   2.219  1.00  0.00     0.000 C 
BRANCH   2   3
ATOM      3  C   UNL     1       6.794   6.112   1.787  1.00  0.00     0.000 C 
BRANCH   3   4
ATOM      4  C   UNL     1       7.562   5.305   0.724  1.00  0.00     0.000 C 
BRANCH   4   5
ATOM      5  C   UNL     1       9.049   5.133   1.070  1.00  0.00     0.000 C 
BRANCH   5   6
ATOM      6  C   UNL     1       9.529   6.122   2.148  1.00  0.00     0.000 C 
BRANCH   6   7
ATOM      7  C   UNL     1       9.953   5.414   3.453  1.00  0.00     0.000 C 
BRANCH   7   8
ATOM      8  C   UNL     1       9.375   6.054   4.729  1.00  0.00     0.000 C 
BRANCH   8   9
ATOM      9  C   UNL     1       9.692   7.548   4.918  1.00  0.00     0.000 C 
BRANCH   9  10
ATOM     10  C   UNL     1       8.484   8.499   4.792  1.00  0.00     0.006 C 
BRANCH  10  11
ATOM     11  C   UNL     1       7.118   7.793   4.882  1.00  0.00     0.053 C 
BRANCH  11  12
ATOM     12  C   UNL     1       5.967   8.753   4.851  1.00  0.00     0.041 C 
ATOM     13  O   UNL     1       5.929   9.728   5.648  1.00  0.00    -0.550 OA
ATOM     14  O   UNL     1       4.953   8.594   3.914  1.00  0.00    -0.550 OA
ENDBRANCH  11  12
ENDBRANCH  10  11
ENDBRANCH   9  10
ENDBRANCH   8   9
ENDBRANCH   7   8
ENDBRANCH   6   7
ENDBRANCH   5   6
ENDBRANCH   4   5
ENDBRANCH   3   4
ENDBRANCH   2   3
ENDBRANCH   1   2
BRANCH   1  15
ATOM     15  C   UNL     1       3.694   3.710   1.583  1.00  0.00     0.000 C 
BRANCH  15  16
ATOM     16  C   UNL     1       2.950   3.032   0.419  1.00  0.00     0.000 C 
BRANCH  16  17
ATOM     17  C   UNL     1       2.952   1.498   0.525  1.00  0.00     0.000 C 
BRANCH  17  18
ATOM     18  C   UNL     1       2.568   0.813  -0.797  1.00  0.00    -0.000 C 
BRANCH  18  19
ATOM     19  C   UNL     1       1.475  -0.257  -0.621  1.00  0.00    -0.000 C 
BRANCH  19  20
ATOM     20  C   UNL     1       1.559  -1.076   0.683  1.00  0.00    -0.000 C 
BRANCH  20  21
ATOM     21  C   UNL     1       0.718  -2.365   0.698  1.00  0.00    -0.000 C 
BRANCH  21  22
ATOM     22  C   UNL     1       0.558  -2.955   2.111  1.00  0.00    -0.000 C 
BRANCH  22  23
ATOM     23  C   UNL     1      -0.915  -3.110   2.525  1.00  0.00    -0.000 C 
BRANCH  23  24
ATOM     24  C   UNL     1      -1.436  -1.894   3.311  1.00  0.00    -0.000 C 
BRANCH  24  25
ATOM     25  C   UNL     1      -2.228  -2.299   4.564  1.00  0.00    -0.003 C 
ATOM     26  C   UNL     1      -1.528  -3.386   5.382  1.00  0.00     0.004 C 
ENDBRANCH  24  25
ENDBRANCH  23  24
ENDBRANCH  22  23
ENDBRANCH  21  22
ENDBRANCH  20  21
ENDBRANCH  19  20
ENDBRANCH  18  19
ENDBRANCH  17  18
ENDBRANCH  16  17
ENDBRANCH  15  16
ENDBRANCH   1  15
TORSDOF 22
ENDMDL
MODEL 4
REMARK VINA RESULT:     1.800     17.409     19.949
REMARK INTER + INTRA:           2.422
REMARK INTER:                   1.293
REMARK INTRA:                   1.129
REMARK UNBOUND:                -1.692
REMARK SMILES CCCCCCCCCCCCCCCCCCCCCCCC(=O)[O-]
REMARK SMILES IDX 13 1 14 2 15 3 16 4 17 5 18 6 19 7 20 8 21 9 22 10 23 11
REMARK SMILES IDX 24 12 25 13 26 14 12 15 11 16 10 17 9 18 8 19 7 20 6 21 5 22
REMARK SMILES IDX 4 23 3 24 2 25 1 26
REMARK H PARENT
REMARK Flexibility Score: inf
ROOT
ATOM      1  C   UNL     1      -3.476  -8.644  -6.210  1.00  0.00     0.000 C 
ENDROOT
BRANCH   1   2
ATOM      2  C   UNL     1      -2.251  -9.081  -7.035  1.00  0.00     0.000 C 
BRANCH   2   3
ATOM      3  C   UNL     1      -2.547  -9.128  -8.543  1.00  0.00     0.000 C 
BRANCH   3   4
ATOM      4  C   UNL     1      -3.732 -10.053  -8.878  1.00  0.00     0.000 C 
BRANCH   4   5
ATOM      5  C   UNL     1      -4.528  -9.576 -10.103  1.00  0.00     0.000 C 
BRANCH   5   6
ATOM      6  C   UNL     1      -5.310  -8.277  -9.838  1.00  0.00     0.000 C 
BRANCH   6   7
ATOM      7  C   UNL     1      -4.457  -7.014 -10.081  1.00  0.00     0.000 C 
BRANCH   7   8
ATOM      8  C   UNL     1      -4.863  -5.807  -9.213  1.00  0.00     0.000 C 
BRANCH   8   9
ATOM      9  C   UNL     1      -6.375  -5.637  -8.987  1.00  0.00     0.000 C 
BRANCH   9  10
ATOM     10  C   UNL     1      -6.777  -4.462  -8.072  1.00  0.00     0.006 C 
BRANCH  10  11
ATOM     11  C   UNL     1      -7.124  -4.880  -6.632  1.00  0.00     0.053 C 
BRANCH  11  12
ATOM     12  C   UNL     1      -8.561  -4.631  -6.286  1.00  0.00     0.041 C 
ATOM     13  O   UNL     1      -9.252  -5.533  -5.741  1.00  0.00    -0.550 OA
ATOM     14  O   UNL     1      -9.130  -3.386  -6.528  1.00  0.00    -0.550 OA
ENDBRANCH  11  12
ENDBRANCH  10  11
ENDBRANCH   9  10
ENDBRANCH   8   9
ENDBRANCH   7   8
ENDBRANCH   6   7
ENDBRANCH   5   6
ENDBRANCH   4   5
ENDBRANCH   3   4
ENDBRANCH   2   3
ENDBRANCH   1   2
BRANCH   1  15
ATOM     15  C   UNL     1      -4.785  -9.271  -6.718  1.00  0.00     0.000 C 
BRANCH  15  16
ATOM     16  C   UNL     1      -5.480 -10.125  -5.644  1.00  0.00     0.000 C 
BRANCH  16  17
ATOM     17  C   UNL     1      -6.858  -9.571  -5.243  1.00  0.00     0.000 C 
BRANCH  17  18
ATOM     18  C   UNL     1      -7.606  -8.935  -6.427  1.00  0.00    -0.000 C 
BRANCH  18  19
ATOM     19  C   UNL     1      -7.130  -9.469  -7.791  1.00  0.00    -0.000 C 
BRANCH  19  20
ATOM     20  C   UNL     1      -8.252  -9.893  -8.761  1.00  0.00    -0.000 C 
BRANCH  20  21
ATOM     21  C   UNL     1      -9.600  -9.180  -8.550  1.00  0.00    -0.000 C 
BRANCH  21  22
ATOM     22  C   UNL     1      -9.438  -7.681  -8.245  1.00  0.00    -0.000 C 
BRANCH  22  23
ATOM     23  C   UNL     1     -10.104  -6.785  -9.302  1.00  0.00    -0.000 C 
BRANCH  23  24
ATOM     24  C   UNL     1     -10.092  -5.298  -8.905  1.00  0.00    -0.000 C 
BRANCH  24  25
ATOM     25  C   UNL     1      -9.966  -4.366 -10.120  1.00  0.00    -0.003 C 
ATOM     26  C   UNL     1      -9.962  -2.886  -9.735  1.00  0.00     0.004 C 
ENDBRANCH  24  25
ENDBRANCH  23  24
ENDBRANCH  22  23
ENDBRANCH  21  22
ENDBRANCH  20  21
ENDBRANCH  19  20
ENDBRANCH  18  19
ENDBRANCH  17  18
ENDBRANCH  16  17
ENDBRANCH  15  16
ENDBRANCH   1  15
TORSDOF 22
ENDMDL
MODEL 5
REMARK VINA RESULT:     1.953      0.770      1.151
REMARK INTER + INTRA:           2.772
REMARK INTER:                   4.518
REMARK INTRA:                  -1.746
REMARK UNBOUND:                -1.692
REMARK SMILES CCCCCCCCCCCCCCCCCCCCCCCC(=O)[O-]
REMARK SMILES IDX 13 1 14 2 15 3 16 4 17 5 18 6 19 7 20 8 21 9 22 10 23 11
REMARK SMILES IDX 24 12 25 13 26 14 12 15 11 16 10 17 9 18 8 19 7 20 6 21 5 22
REMARK SMILES IDX 4 23 3 24 2 25 1 26
REMARK H PARENT
REMARK Flexibility Score: inf
ROOT
ATOM      1  C   UNL     1       4.530   4.527   1.074  1.00  0.00     0.000 C 
ENDROOT
BRANCH   1   2
ATOM      2  C   UNL     1       3.699   3.307   1.511  1.00  0.00     0.000 C 
BRANCH   2   3
ATOM      3  C   UNL     1       2.789   2.785   0.386  1.00  0.00     0.000 C 
BRANCH   3   4
ATOM      4  C   UNL     1       2.716   1.247   0.360  1.00  0.00     0.000 C 
BRANCH   4   5
ATOM      5  C   UNL     1       1.716   0.720  -0.681  1.00  0.00     0.000 C 
BRANCH   5   6
ATOM      6  C   UNL     1       1.526  -0.806  -0.606  1.00  0.00     0.000 C 
BRANCH   6   7
ATOM      7  C   UNL     1       1.324  -1.306   0.841  1.00  0.00     0.000 C 
BRANCH   7   8
ATOM      8  C   UNL     1       1.118  -2.828   0.955  1.00  0.00     0.000 C 
BRANCH   8   9
ATOM      9  C   UNL     1       0.292  -3.292   2.167  1.00  0.00     0.000 C 
BRANCH   9  10
ATOM     10  C   UNL     1      -0.669  -2.237   2.753  1.00  0.00     0.006 C 
BRANCH  10  11
ATOM     11  C   UNL     1      -1.955  -2.828   3.358  1.00  0.00     0.053 C 
BRANCH  11  12
ATOM     12  C   UNL     1      -2.003  -2.703   4.851  1.00  0.00     0.041 C 
ATOM     13  O   UNL     1      -3.029  -2.242   5.420  1.00  0.00    -0.550 OA
ATOM     14  O   UNL     1      -0.929  -3.134   5.621  1.00  0.00    -0.550 OA
ENDBRANCH  11  12
ENDBRANCH  10  11
ENDBRANCH   9  10
ENDBRANCH   8   9
ENDBRANCH   7   8
ENDBRANCH   6   7
ENDBRANCH   5   6
ENDBRANCH   4   5
ENDBRANCH   3   4
ENDBRANCH   2   3
ENDBRANCH   1   2
BRANCH   1  15
ATOM     15  C   UNL     1       5.230   5.219   2.255  1.00  0.00     0.000 C 
BRANCH  15  16
ATOM     16  C   UNL     1       6.359   6.159   1.798  1.00  0.00     0.000 C 
BRANCH  16  17
ATOM     17  C   UNL     1       7.586   5.399   1.265  1.00  0.00     0.000 C 
BRANCH  17  18
ATOM     18  C   UNL     1       8.822   6.302   1.117  1.00  0.00    -0.000 C 
BRANCH  18  19
ATOM     19  C   UNL     1       9.924   5.978   2.142  1.00  0.00    -0.000 C 
BRANCH  19  20
ATOM     20  C   UNL     1       9.589   4.846   3.135  1.00  0.00    -0.000 C 
BRANCH  20  21
ATOM     21  C   UNL     1       9.539   5.269   4.614  1.00  0.00    -0.000 C 
BRANCH  21  22
ATOM     22  C   UNL     1       9.340   6.785   4.792  1.00  0.00    -0.000 C 
BRANCH  22  23
ATOM     23  C   UNL     1       7.864   7.170   4.982  1.00  0.00    -0.000 C 
BRANCH  23  24
ATOM     24  C   UNL     1       7.588   8.640   4.617  1.00  0.00    -0.000 C 
BRANCH  24  25
ATOM     25  C   UNL     1       6.275   9.160   5.223  1.00  0.00    -0.003 C 
ATOM     26  C   UNL     1       5.189   9.397   4.173  1.00  0.00     0.004 C 
ENDBRANCH  24  25
ENDBRANCH  23  24
ENDBRANCH  22  23
ENDBRANCH  21  22
ENDBRANCH  20  21
ENDBRANCH  19  20
ENDBRANCH  18  19
ENDBRANCH  17  18
ENDBRANCH  16  17
ENDBRANCH  15  16
ENDBRANCH   1  15
TORSDOF 22
ENDMDL
MODEL 6
REMARK VINA RESULT:     2.125      1.178      2.752
REMARK INTER + INTRA:           3.166
REMARK INTER:                   5.089
REMARK INTRA:                  -1.923
REMARK UNBOUND:                -1.692
REMARK SMILES CCCCCCCCCCCCCCCCCCCCCCCC(=O)[O-]
REMARK SMILES IDX 13 1 14 2 15 3 16 4 17 5 18 6 19 7 20 8 21 9 22 10 23 11
REMARK SMILES IDX 24 12 25 13 26 14 12 15 11 16 10 17 9 18 8 19 7 20 6 21 5 22
REMARK SMILES IDX 4 23 3 24 2 25 1 26
REMARK H PARENT
REMARK Flexibility Score: inf
ROOT
ATOM      1  C   UNL     1       4.811   4.302   2.114  1.00  0.00     0.000 C 
ENDROOT
BRANCH   1   2
ATOM      2  C   UNL     1       4.036   4.034   0.811  1.00  0.00     0.000 C 
BRANCH   2   3
ATOM      3  C   UNL     1       2.876   3.044   1.012  1.00  0.00     0.000 C 
BRANCH   3   4
ATOM      4  C   UNL     1       3.200   1.643   0.462  1.00  0.00     0.000 C 
BRANCH   4   5
ATOM      5  C   UNL     1       2.322   1.261  -0.740  1.00  0.00     0.000 C 
BRANCH   5   6
ATOM      6  C   UNL     1       1.754  -0.166  -0.634  1.00  0.00     0.000 C 
BRANCH   6   7
ATOM      7  C   UNL     1       1.682  -0.667   0.825  1.00  0.00     0.000 C 
BRANCH   7   8
ATOM      8  C   UNL     1       1.458  -2.185   0.955  1.00  0.00     0.000 C 
BRANCH   8   9
ATOM      9  C   UNL     1       0.008  -2.614   1.240  1.00  0.00     0.000 C 
BRANCH   9  10
ATOM     10  C   UNL     1      -0.232  -3.247   2.627  1.00  0.00     0.006 C 
BRANCH  10  11
ATOM     11  C   UNL     1      -1.692  -3.167   3.107  1.00  0.00     0.053 C 
BRANCH  11  12
ATOM     12  C   UNL     1      -1.911  -2.084   4.121  1.00  0.00     0.041 C 
ATOM     13  O   UNL     1      -1.047  -1.182   4.286  1.00  0.00    -0.550 OA
ATOM     14  O   UNL     1      -3.089  -2.048   4.858  1.00  0.00    -0.550 OA
ENDBRANCH  11  12
ENDBRANCH  10  11
ENDBRANCH   9  10
ENDBRANCH   8   9
ENDBRANCH   7   8
ENDBRANCH   6   7
ENDBRANCH   5   6
ENDBRANCH   4   5
ENDBRANCH   3   4
ENDBRANCH   2   3
ENDBRANCH   1   2
BRANCH   1  15
ATOM     15  C   UNL     1       5.504   5.674   2.117  1.00  0.00     0.000 C 
BRANCH  15  16
ATOM     16  C   UNL     1       5.819   6.167   3.540  1.00  0.00     0.000 C 
BRANCH  16  17
ATOM     17  C   UNL     1       6.021   7.690   3.610  1.00  0.00     0.000 C 
BRANCH  17  18
ATOM     18  C   UNL     1       7.060   8.101   4.668  1.00  0.00    -0.000 C 
BRANCH  18  19
ATOM     19  C   UNL     1       7.676   6.895   5.400  1.00  0.00    -0.000 C 
BRANCH  19  20
ATOM     20  C   UNL     1       9.187   7.002   5.692  1.00  0.00    -0.000 C 
BRANCH  20  21
ATOM     21  C   UNL     1      10.081   6.065   4.858  1.00  0.00    -0.000 C 
BRANCH  21  22
ATOM     22  C   UNL     1       9.417   5.628   3.541  1.00  0.00    -0.000 C 
BRANCH  22  23
ATOM     23  C   UNL     1       9.615   6.650   2.410  1.00  0.00    -0.000 C 
BRANCH  23  24
ATOM     24  C   UNL     1       9.019   6.171   1.074  1.00  0.00    -0.000 C 
BRANCH  24  25
ATOM     25  C   UNL     1       8.868   4.643   1.012  1.00  0.00    -0.003 C 
ATOM     26  C   UNL     1       9.625   4.019  -0.161  1.00  0.00     0.004 C 
ENDBRANCH  24  25
ENDBRANCH  23  24
ENDBRANCH  22  23
ENDBRANCH  21  22
ENDBRANCH  20  21
ENDBRANCH  19  20
ENDBRANCH  18  19
ENDBRANCH  17  18
ENDBRANCH  16  17
ENDBRANCH  15  16
ENDBRANCH   1  15
TORSDOF 22
ENDMDL
MODEL 7
REMARK VINA RESULT:     2.185      3.841     11.606
REMARK INTER + INTRA:           3.302
REMARK INTER:                   4.506
REMARK INTRA:                  -1.204
REMARK UNBOUND:                -1.692
REMARK SMILES CCCCCCCCCCCCCCCCCCCCCCCC(=O)[O-]
REMARK SMILES IDX 13 1 14 2 15 3 16 4 17 5 18 6 19 7 20 8 21 9 22 10 23 11
REMARK SMILES IDX 24 12 25 13 26 14 12 15 11 16 10 17 9 18 8 19 7 20 6 21 5 22
REMARK SMILES IDX 4 23 3 24 2 25 1 26
REMARK H PARENT
REMARK Flexibility Score: inf
ROOT
ATOM      1  C   UNL     1       3.013   3.196   0.718  1.00  0.00     0.000 C 
ENDROOT
BRANCH   1   2
ATOM      2  C   UNL     1       4.075   3.811   1.648  1.00  0.00     0.000 C 
BRANCH   2   3
ATOM      3  C   UNL     1       4.854   4.952   0.974  1.00  0.00     0.000 C 
BRANCH   3   4
ATOM      4  C   UNL     1       5.997   5.482   1.859  1.00  0.00     0.000 C 
BRANCH   4   5
ATOM      5  C   UNL     1       7.190   5.999   1.040  1.00  0.00     0.000 C 
BRANCH   5   6
ATOM      6  C   UNL     1       8.369   5.009   1.014  1.00  0.00     0.000 C 
BRANCH   6   7
ATOM      7  C   UNL     1       9.738   5.719   1.094  1.00  0.00     0.000 C 
BRANCH   7   8
ATOM      8  C   UNL     1      10.061   6.304   2.482  1.00  0.00     0.000 C 
BRANCH   8   9
ATOM      9  C   UNL     1       9.552   5.482   3.678  1.00  0.00     0.000 C 
BRANCH   9  10
ATOM     10  C   UNL     1       9.337   6.277   4.982  1.00  0.00     0.006 C 
BRANCH  10  11
ATOM     11  C   UNL     1       8.770   7.692   4.767  1.00  0.00     0.053 C 
BRANCH  11  12
ATOM     12  C   UNL     1       7.274   7.735   4.843  1.00  0.00     0.041 C 
ATOM     13  O   UNL     1       6.602   6.671   4.777  1.00  0.00    -0.550 OA
ATOM     14  O   UNL     1       6.620   8.947   5.029  1.00  0.00    -0.550 OA
ENDBRANCH  11  12
ENDBRANCH  10  11
ENDBRANCH   9  10
ENDBRANCH   8   9
ENDBRANCH   7   8
ENDBRANCH   6   7
ENDBRANCH   5   6
ENDBRANCH   4   5
ENDBRANCH   3   4
ENDBRANCH   2   3
ENDBRANCH   1   2
BRANCH   1  15
ATOM     15  C   UNL     1       3.226   1.690   0.492  1.00  0.00     0.000 C 
BRANCH  15  16
ATOM     16  C   UNL     1       2.688   1.221  -0.871  1.00  0.00     0.000 C 
BRANCH  16  17
ATOM     17  C   UNL     1       1.400   0.389  -0.747  1.00  0.00     0.000 C 
BRANCH  17  18
ATOM     18  C   UNL     1       1.677  -1.079  -0.382  1.00  0.00    -0.000 C 
BRANCH  18  19
ATOM     19  C   UNL     1       1.408  -1.387   1.102  1.00  0.00    -0.000 C 
BRANCH  19  20
ATOM     20  C   UNL     1       0.768  -2.762   1.385  1.00  0.00    -0.000 C 
BRANCH  20  21
ATOM     21  C   UNL     1      -0.706  -2.717   1.826  1.00  0.00    -0.000 C 
BRANCH  21  22
ATOM     22  C   UNL     1      -0.998  -3.642   3.020  1.00  0.00    -0.000 C 
BRANCH  22  23
ATOM     23  C   UNL     1      -1.300  -2.865   4.312  1.00  0.00    -0.000 C 
BRANCH  23  24
ATOM     24  C   UNL     1      -2.236  -1.667   4.072  1.00  0.00    -0.000 C 
BRANCH  24  25
ATOM     25  C   UNL     1      -3.525  -1.752   4.906  1.00  0.00    -0.003 C 
ATOM     26  C   UNL     1      -3.402  -2.708   6.093  1.00  0.00     0.004 C 
ENDBRANCH  24  25
ENDBRANCH  23  24
ENDBRANCH  22  23
ENDBRANCH  21  22
ENDBRANCH  20  21
ENDBRANCH  19  20
ENDBRANCH  18  19
ENDBRANCH  17  18
ENDBRANCH  16  17
ENDBRANCH  15  16
ENDBRANCH   1  15
TORSDOF 22
ENDMDL
MODEL 8
REMARK VINA RESULT:     2.376      1.034      2.171
REMARK INTER + INTRA:           3.739
REMARK INTER:                   5.112
REMARK INTRA:                  -1.372
REMARK UNBOUND:                -1.692
REMARK SMILES CCCCCCCCCCCCCCCCCCCCCCCC(=O)[O-]
REMARK SMILES IDX 13 1 14 2 15 3 16 4 17 5 18 6 19 7 20 8 21 9 22 10 23 11
REMARK SMILES IDX 24 12 25 13 26 14 12 15 11 16 10 17 9 18 8 19 7 20 6 21 5 22
REMARK SMILES IDX 4 23 3 24 2 25 1 26
REMARK H PARENT
REMARK Flexibility Score: inf
ROOT
ATOM      1  C   UNL     1       2.905   3.183   0.608  1.00  0.00     0.000 C 
ENDROOT
BRANCH   1   2
ATOM      2  C   UNL     1       3.160   1.764   0.069  1.00  0.00     0.000 C 
BRANCH   2   3
ATOM      3  C   UNL     1       2.289   1.435  -1.154  1.00  0.00     0.000 C 
BRANCH   3   4
ATOM      4  C   UNL     1       1.685   0.021  -1.080  1.00  0.00     0.000 C 
BRANCH   4   5
ATOM      5  C   UNL     1       1.758  -0.581   0.332  1.00  0.00     0.000 C 
BRANCH   5   6
ATOM      6  C   UNL     1       1.187  -2.009   0.402  1.00  0.00     0.000 C 
BRANCH   6   7
ATOM      7  C   UNL     1       0.994  -2.497   1.854  1.00  0.00     0.000 C 
BRANCH   7   8
ATOM      8  C   UNL     1      -0.016  -3.652   1.997  1.00  0.00     0.000 C 
BRANCH   8   9
ATOM      9  C   UNL     1      -1.352  -3.281   2.663  1.00  0.00     0.000 C 
BRANCH   9  10
ATOM     10  C   UNL     1      -1.268  -2.178   3.739  1.00  0.00     0.006 C 
BRANCH  10  11
ATOM     11  C   UNL     1      -2.637  -1.655   4.209  1.00  0.00     0.053 C 
BRANCH  11  12
ATOM     12  C   UNL     1      -3.152  -2.382   5.415  1.00  0.00     0.041 C 
ATOM     13  O   UNL     1      -2.499  -3.339   5.909  1.00  0.00    -0.550 OA
ATOM     14  O   UNL     1      -4.336  -1.975   6.019  1.00  0.00    -0.550 OA
ENDBRANCH  11  12
ENDBRANCH  10  11
ENDBRANCH   9  10
ENDBRANCH   8   9
ENDBRANCH   7   8
ENDBRANCH   6   7
ENDBRANCH   5   6
ENDBRANCH   4   5
ENDBRANCH   3   4
ENDBRANCH   2   3
ENDBRANCH   1   2
BRANCH   1  15
ATOM     15  C   UNL     1       4.013   3.662   1.560  1.00  0.00     0.000 C 
BRANCH  15  16
ATOM     16  C   UNL     1       4.805   4.849   0.986  1.00  0.00     0.000 C 
BRANCH  16  17
ATOM     17  C   UNL     1       5.791   5.452   2.001  1.00  0.00     0.000 C 
BRANCH  17  18
ATOM     18  C   UNL     1       6.927   6.240   1.326  1.00  0.00    -0.000 C 
BRANCH  18  19
ATOM     19  C   UNL     1       7.936   5.330   0.601  1.00  0.00    -0.000 C 
BRANCH  19  20
ATOM     20  C   UNL     1       9.058   4.752   1.487  1.00  0.00    -0.000 C 
BRANCH  20  21
ATOM     21  C   UNL     1       9.652   5.736   2.511  1.00  0.00    -0.000 C 
BRANCH  21  22
ATOM     22  C   UNL     1      10.044   7.084   1.882  1.00  0.00    -0.000 C 
BRANCH  22  23
ATOM     23  C   UNL     1      10.122   8.220   2.916  1.00  0.00    -0.000 C 
BRANCH  23  24
ATOM     24  C   UNL     1       9.701   7.763   4.324  1.00  0.00    -0.000 C 
BRANCH  24  25
ATOM     25  C   UNL     1       8.363   8.377   4.766  1.00  0.00    -0.003 C 
ATOM     26  C   UNL     1       7.265   7.330   4.959  1.00  0.00     0.004 C 
ENDBRANCH  24  25
ENDBRANCH  23  24
ENDBRANCH  22  23
ENDBRANCH  21  22
ENDBRANCH  20  21
ENDBRANCH  19  20
ENDBRANCH  18  19
ENDBRANCH  17  18
ENDBRANCH  16  17
ENDBRANCH  15  16
ENDBRANCH   1  15
TORSDOF 22
ENDMDL
MODEL 9
REMARK VINA RESULT:     2.464      3.992     11.508
REMARK INTER + INTRA:           3.942
REMARK INTER:                   4.887
REMARK INTRA:                  -0.945
REMARK UNBOUND:                -1.692
REMARK SMILES CCCCCCCCCCCCCCCCCCCCCCCC(=O)[O-]
REMARK SMILES IDX 13 1 14 2 15 3 16 4 17 5 18 6 19 7 20 8 21 9 22 10 23 11
REMARK SMILES IDX 24 12 25 13 26 14 12 15 11 16 10 17 9 18 8 19 7 20 6 21 5 22
REMARK SMILES IDX 4 23 3 24 2 25 1 26
REMARK H PARENT
REMARK Flexibility Score: inf
ROOT
ATOM      1  C   UNL     1       4.038   4.448   1.007  1.00  0.00     0.000 C 
ENDROOT
BRANCH   1   2
ATOM      2  C   UNL     1       5.278   4.568   1.911  1.00  0.00     0.000 C 
BRANCH   2   3
ATOM      3  C   UNL     1       5.882   5.982   1.893  1.00  0.00     0.000 C 
BRANCH   3   4
ATOM      4  C   UNL     1       5.669   6.725   3.225  1.00  0.00     0.000 C 
BRANCH   4   5
ATOM      5  C   UNL     1       6.860   6.573   4.185  1.00  0.00     0.000 C 
BRANCH   5   6
ATOM      6  C   UNL     1       7.566   7.910   4.477  1.00  0.00     0.000 C 
BRANCH   6   7
ATOM      7  C   UNL     1       8.811   7.737   5.372  1.00  0.00     0.000 C 
BRANCH   7   8
ATOM      8  C   UNL     1       9.870   6.778   4.795  1.00  0.00     0.000 C 
BRANCH   8   9
ATOM      9  C   UNL     1       9.539   5.281   4.917  1.00  0.00     0.000 C 
BRANCH   9  10
ATOM     10  C   UNL     1      10.117   4.384   3.803  1.00  0.00     0.006 C 
BRANCH  10  11
ATOM     11  C   UNL     1      10.004   4.987   2.391  1.00  0.00     0.053 C 
BRANCH  11  12
ATOM     12  C   UNL     1       9.680   3.962   1.347  1.00  0.00     0.041 C 
ATOM     13  O   UNL     1      10.024   2.760   1.505  1.00  0.00    -0.550 OA
ATOM     14  O   UNL     1       8.960   4.325   0.215  1.00  0.00    -0.550 OA
ENDBRANCH  11  12
ENDBRANCH  10  11
ENDBRANCH   9  10
ENDBRANCH   8   9
ENDBRANCH   7   8
ENDBRANCH   6   7
ENDBRANCH   5   6
ENDBRANCH   4   5
ENDBRANCH   3   4
ENDBRANCH   2   3
ENDBRANCH   1   2
BRANCH   1  15
ATOM     15  C   UNL     1       3.204   3.193   1.311  1.00  0.00     0.000 C 
BRANCH  15  16
ATOM     16  C   UNL     1       2.581   2.583   0.043  1.00  0.00     0.000 C 
BRANCH  16  17
ATOM     17  C   UNL     1       2.801   1.063  -0.055  1.00  0.00     0.000 C 
BRANCH  17  18
ATOM     18  C   UNL     1       1.809   0.383  -1.015  1.00  0.00    -0.000 C 
BRANCH  18  19
ATOM     19  C   UNL     1       1.241  -0.933  -0.453  1.00  0.00    -0.000 C 
BRANCH  19  20
ATOM     20  C   UNL     1       1.670  -1.273   0.989  1.00  0.00    -0.000 C 
BRANCH  20  21
ATOM     21  C   UNL     1       1.137  -2.613   1.529  1.00  0.00    -0.000 C 
BRANCH  21  22
ATOM     22  C   UNL     1      -0.401  -2.675   1.550  1.00  0.00    -0.000 C 
BRANCH  22  23
ATOM     23  C   UNL     1      -0.959  -3.052   2.933  1.00  0.00    -0.000 C 
BRANCH  23  24
ATOM     24  C   UNL     1      -1.804  -1.925   3.553  1.00  0.00    -0.000 C 
BRANCH  24  25
ATOM     25  C   UNL     1      -2.525  -2.369   4.836  1.00  0.00    -0.003 C 
ATOM     26  C   UNL     1      -1.654  -3.251   5.731  1.00  0.00     0.004 C 
ENDBRANCH  24  25
ENDBRANCH  23  24
ENDBRANCH  22  23
ENDBRANCH  21  22
ENDBRANCH  20  21
ENDBRANCH  19  20
ENDBRANCH  18  19
ENDBRANCH  17  18
ENDBRANCH  16  17
ENDBRANCH  15  16
ENDBRANCH   1  15
TORSDOF 22
ENDMDL
