MODEL 1
REMARK VINA RESULT:     0.000      0.000      0.000
REMARK INTER + INTRA:          -3.107
REMARK INTER:                   0.000
REMARK INTRA:                  -3.107
REMARK UNBOUND:                -3.107
REMARK SMILES CCCCCCCCCCCCCCCC(=O)[O-]
REMARK SMILES IDX 9 1 10 2 11 3 12 4 13 5 14 6 15 7 16 8 17 9 18 10 8 11 7 12
REMARK SMILES IDX 6 13 5 14 4 15 3 16 2 17 1 18
REMARK H PARENT
REMARK Flexibility Score: inf
ROOT
ATOM      1  C   UNL     1     177.901 195.168 194.611  1.00  0.00     0.000 C 
ENDROOT
BRANCH   1   2
ATOM      2  C   UNL     1     179.389 195.225 194.224  1.00  0.00     0.000 C 
BRANCH   2   3
ATOM      3  C   UNL     1     180.251 194.259 195.053  1.00  0.00     0.000 C 
BRANCH   3   4
ATOM      4  C   UNL     1     181.247 193.464 194.191  1.00  0.00     0.000 C 
BRANCH   4   5
ATOM      5  C   UNL     1     181.469 194.098 192.809  1.00  0.00     0.000 C 
BRANCH   5   6
ATOM      6  C   UNL     1     181.474 193.058 191.677  1.00  0.00     0.006 C 
BRANCH   6   7
ATOM      7  C   UNL     1     181.883 191.679 192.203  1.00  0.00     0.053 C 
BRANCH   7   8
ATOM      8  C   UNL     1     181.473 190.609 191.241  1.00  0.00     0.041 C 
ATOM      9  O   UNL     1     180.430 190.745 190.549  1.00  0.00    -0.550 OA
ATOM     10  O   UNL     1     182.268 189.483 191.074  1.00  0.00    -0.550 OA
ENDBRANCH   7   8
ENDBRANCH   6   7
ENDBRANCH   5   6
ENDBRANCH   4   5
ENDBRANCH   3   4
ENDBRANCH   2   3
ENDBRANCH   1   2
BRANCH   1  11
ATOM     11  C   UNL     1     177.034 194.496 193.533  1.00  0.00     0.000 C 
BRANCH  11  12
ATOM     12  C   UNL     1     177.794 194.269 192.217  1.00  0.00    -0.000 C 
BRANCH  12  13
ATOM     13  C   UNL     1     177.795 192.782 191.835  1.00  0.00    -0.000 C 
BRANCH  13  14
ATOM     14  C   UNL     1     177.395 191.864 193.004  1.00  0.00    -0.000 C 
BRANCH  14  15
ATOM     15  C   UNL     1     178.541 191.016 193.591  1.00  0.00    -0.000 C 
BRANCH  15  16
ATOM     16  C   UNL     1     178.582 190.950 195.128  1.00  0.00    -0.000 C 
BRANCH  16  17
ATOM     17  C   UNL     1     177.345 191.576 195.785  1.00  0.00    -0.003 C 
ATOM     18  C   UNL     1     177.725 192.362 197.037  1.00  0.00     0.004 C 
ENDBRANCH  16  17
ENDBRANCH  15  16
ENDBRANCH  14  15
ENDBRANCH  13  14
ENDBRANCH  12  13
ENDBRANCH  11  12
ENDBRANCH   1  11
TORSDOF 14
ENDMDL
MODEL 2
REMARK VINA RESULT:     0.002      8.804     10.607
REMARK INTER + INTRA:          -3.104
REMARK INTER:                   0.000
REMARK INTRA:                  -3.104
REMARK UNBOUND:                -3.107
REMARK SMILES CCCCCCCCCCCCCCCC(=O)[O-]
REMARK SMILES IDX 9 1 10 2 11 3 12 4 13 5 14 6 15 7 16 8 17 9 18 10 8 11 7 12
REMARK SMILES IDX 6 13 5 14 4 15 3 16 2 17 1 18
REMARK H PARENT
REMARK Flexibility Score: inf
ROOT
ATOM      1  C   UNL     1     174.924 184.534 188.214  1.00  0.00     0.000 C 
ENDROOT
BRANCH   1   2
ATOM      2  C   UNL     1     176.462 184.572 188.200  1.00  0.00     0.000 C 
BRANCH   2   3
ATOM      3  C   UNL     1     177.020 185.974 188.492  1.00  0.00     0.000 C 
BRANCH   3   4
ATOM      4  C   UNL     1     178.143 186.380 187.522  1.00  0.00     0.000 C 
BRANCH   4   5
ATOM      5  C   UNL     1     178.765 185.174 186.800  1.00  0.00     0.000 C 
BRANCH   5   6
ATOM      6  C   UNL     1     178.922 185.407 185.290  1.00  0.00     0.006 C 
BRANCH   6   7
ATOM      7  C   UNL     1     179.213 186.881 184.991  1.00  0.00     0.053 C 
BRANCH   7   8
ATOM      8  C   UNL     1     178.898 187.198 183.562  1.00  0.00     0.041 C 
ATOM      9  O   UNL     1     179.369 188.234 183.024  1.00  0.00    -0.550 OA
ATOM     10  O   UNL     1     178.122 186.324 182.812  1.00  0.00    -0.550 OA
ENDBRANCH   7   8
ENDBRANCH   6   7
ENDBRANCH   5   6
ENDBRANCH   4   5
ENDBRANCH   3   4
ENDBRANCH   2   3
ENDBRANCH   1   2
BRANCH   1  11
ATOM     11  C   UNL     1     174.325 184.304 186.816  1.00  0.00     0.000 C 
BRANCH  11  12
ATOM     12  C   UNL     1     175.389 183.951 185.765  1.00  0.00    -0.000 C 
BRANCH  12  13
ATOM     13  C   UNL     1     175.347 184.939 184.590  1.00  0.00    -0.000 C 
BRANCH  13  14
ATOM     14  C   UNL     1     174.623 186.251 184.938  1.00  0.00    -0.000 C 
BRANCH  14  15
ATOM     15  C   UNL     1     175.542 187.475 185.129  1.00  0.00    -0.000 C 
BRANCH  15  16
ATOM     16  C   UNL     1     175.190 188.375 186.327  1.00  0.00    -0.000 C 
BRANCH  16  17
ATOM     17  C   UNL     1     173.872 187.976 187.005  1.00  0.00    -0.003 C 
ATOM     18  C   UNL     1     173.963 188.133 188.520  1.00  0.00     0.004 C 
ENDBRANCH  16  17
ENDBRANCH  15  16
ENDBRANCH  14  15
ENDBRANCH  13  14
ENDBRANCH  12  13
ENDBRANCH  11  12
ENDBRANCH   1  11
TORSDOF 14
ENDMDL
MODEL 3
REMARK VINA RESULT:     0.011     10.744     12.790
REMARK INTER + INTRA:          -3.086
REMARK INTER:                   0.000
REMARK INTRA:                  -3.086
REMARK UNBOUND:                -3.107
REMARK SMILES CCCCCCCCCCCCCCCC(=O)[O-]
REMARK SMILES IDX 9 1 10 2 11 3 12 4 13 5 14 6 15 7 16 8 17 9 18 10 8 11 7 12
REMARK SMILES IDX 6 13 5 14 4 15 3 16 2 17 1 18
REMARK H PARENT
REMARK Flexibility Score: inf
ROOT
ATOM      1  C   UNL     1     182.092 180.770 186.829  1.00  0.00     0.000 C 
ENDROOT
BRANCH   1   2
ATOM      2  C   UNL     1     183.407 181.243 186.185  1.00  0.00     0.000 C 
BRANCH   2   3
ATOM      3  C   UNL     1     184.647 180.661 186.883  1.00  0.00     0.000 C 
BRANCH   3   4
ATOM      4  C   UNL     1     185.718 181.726 187.177  1.00  0.00     0.000 C 
BRANCH   4   5
ATOM      5  C   UNL     1     185.640 182.923 186.216  1.00  0.00     0.000 C 
BRANCH   5   6
ATOM      6  C   UNL     1     185.803 184.270 186.936  1.00  0.00     0.006 C 
BRANCH   6   7
ATOM      7  C   UNL     1     186.413 184.076 188.328  1.00  0.00     0.053 C 
BRANCH   7   8
ATOM      8  C   UNL     1     186.139 185.268 189.191  1.00  0.00     0.041 C 
ATOM      9  O   UNL     1     185.902 186.388 188.667  1.00  0.00    -0.550 OA
ATOM     10  O   UNL     1     186.099 185.131 190.572  1.00  0.00    -0.550 OA
ENDBRANCH   7   8
ENDBRANCH   6   7
ENDBRANCH   5   6
ENDBRANCH   4   5
ENDBRANCH   3   4
ENDBRANCH   2   3
ENDBRANCH   1   2
BRANCH   1  11
ATOM     11  C   UNL     1     181.506 181.804 187.805  1.00  0.00     0.000 C 
BRANCH  11  12
ATOM     12  C   UNL     1     182.136 183.197 187.644  1.00  0.00    -0.000 C 
BRANCH  12  13
ATOM     13  C   UNL     1     182.740 183.681 188.969  1.00  0.00    -0.000 C 
BRANCH  13  14
ATOM     14  C   UNL     1     182.742 182.593 190.059  1.00  0.00    -0.000 C 
BRANCH  14  15
ATOM     15  C   UNL     1     184.139 182.169 190.557  1.00  0.00    -0.000 C 
BRANCH  15  16
ATOM     16  C   UNL     1     184.391 180.651 190.576  1.00  0.00    -0.000 C 
BRANCH  16  17
ATOM     17  C   UNL     1     183.094 179.831 190.567  1.00  0.00    -0.003 C 
ATOM     18  C   UNL     1     183.216 178.618 189.648  1.00  0.00     0.004 C 
ENDBRANCH  16  17
ENDBRANCH  15  16
ENDBRANCH  14  15
ENDBRANCH  13  14
ENDBRANCH  12  13
ENDBRANCH  11  12
ENDBRANCH   1  11
TORSDOF 14
ENDMDL
MODEL 4
REMARK VINA RESULT:     0.014      3.150      4.554
REMARK INTER + INTRA:          -3.081
REMARK INTER:                   0.000
REMARK INTRA:                  -3.081
REMARK UNBOUND:                -3.107
REMARK SMILES CCCCCCCCCCCCCCCC(=O)[O-]
REMARK SMILES IDX 9 1 10 2 11 3 12 4 13 5 14 6 15 7 16 8 17 9 18 10 8 11 7 12
REMARK SMILES IDX 6 13 5 14 4 15 3 16 2 17 1 18
REMARK H PARENT
REMARK Flexibility Score: inf
ROOT
ATOM      1  C   UNL     1     181.054 191.563 192.114  1.00  0.00     0.000 C 
ENDROOT
BRANCH   1   2
ATOM      2  C   UNL     1     181.384 190.139 192.590  1.00  0.00     0.000 C 
BRANCH   2   3
ATOM      3  C   UNL     1     182.727 190.063 193.335  1.00  0.00     0.000 C 
BRANCH   3   4
ATOM      4  C   UNL     1     183.509 191.388 193.285  1.00  0.00     0.000 C 
BRANCH   4   5
ATOM      5  C   UNL     1     184.157 191.742 194.633  1.00  0.00     0.000 C 
BRANCH   5   6
ATOM      6  C   UNL     1     184.549 193.225 194.729  1.00  0.00     0.006 C 
BRANCH   6   7
ATOM      7  C   UNL     1     184.336 193.934 193.388  1.00  0.00     0.053 C 
BRANCH   7   8
ATOM      8  C   UNL     1     183.958 195.365 193.607  1.00  0.00     0.041 C 
ATOM      9  O   UNL     1     183.847 196.148 192.627  1.00  0.00    -0.550 OA
ATOM     10  O   UNL     1     183.681 195.823 194.888  1.00  0.00    -0.550 OA
ENDBRANCH   7   8
ENDBRANCH   6   7
ENDBRANCH   5   6
ENDBRANCH   4   5
ENDBRANCH   3   4
ENDBRANCH   2   3
ENDBRANCH   1   2
BRANCH   1  11
ATOM     11  C   UNL     1     179.560 191.902 192.254  1.00  0.00     0.000 C 
BRANCH  11  12
ATOM     12  C   UNL     1     179.299 193.029 193.265  1.00  0.00    -0.000 C 
BRANCH  12  13
ATOM     13  C   UNL     1     180.613 193.703 193.685  1.00  0.00    -0.000 C 
BRANCH  13  14
ATOM     14  C   UNL     1     180.874 193.615 195.199  1.00  0.00    -0.000 C 
BRANCH  14  15
ATOM     15  C   UNL     1     180.123 192.482 195.928  1.00  0.00    -0.000 C 
BRANCH  15  16
ATOM     16  C   UNL     1     181.010 191.327 196.426  1.00  0.00    -0.000 C 
BRANCH  16  17
ATOM     17  C   UNL     1     180.375 189.948 196.200  1.00  0.00    -0.003 C 
ATOM     18  C   UNL     1     179.018 190.073 195.514  1.00  0.00     0.004 C 
ENDBRANCH  16  17
ENDBRANCH  15  16
ENDBRANCH  14  15
ENDBRANCH  13  14
ENDBRANCH  12  13
ENDBRANCH  11  12
ENDBRANCH   1  11
TORSDOF 14
ENDMDL
MODEL 5
REMARK VINA RESULT:     0.016      6.838      9.260
REMARK INTER + INTRA:          -3.077
REMARK INTER:                   0.000
REMARK INTRA:                  -3.077
REMARK UNBOUND:                -3.107
REMARK SMILES CCCCCCCCCCCCCCCC(=O)[O-]
REMARK SMILES IDX 9 1 10 2 11 3 12 4 13 5 14 6 15 7 16 8 17 9 18 10 8 11 7 12
REMARK SMILES IDX 6 13 5 14 4 15 3 16 2 17 1 18
REMARK H PARENT
REMARK Flexibility Score: inf
ROOT
ATOM      1  C   UNL     1     183.754 190.335 187.806  1.00  0.00     0.000 C 
ENDROOT
BRANCH   1   2
ATOM      2  C   UNL     1     185.018 190.677 186.999  1.00  0.00     0.000 C 
BRANCH   2   3
ATOM      3  C   UNL     1     186.193 191.098 187.896  1.00  0.00     0.000 C 
BRANCH   3   4
ATOM      4  C   UNL     1     187.361 190.095 187.854  1.00  0.00     0.000 C 
BRANCH   4   5
ATOM      5  C   UNL     1     187.889 189.745 189.254  1.00  0.00     0.000 C 
BRANCH   5   6
ATOM      6  C   UNL     1     187.421 190.740 190.327  1.00  0.00     0.006 C 
BRANCH   6   7
ATOM      7  C   UNL     1     187.090 190.017 191.637  1.00  0.00     0.053 C 
BRANCH   7   8
ATOM      8  C   UNL     1     186.319 190.916 192.551  1.00  0.00     0.041 C 
ATOM      9  O   UNL     1     185.743 191.939 192.096  1.00  0.00    -0.550 OA
ATOM     10  O   UNL     1     186.197 190.598 193.897  1.00  0.00    -0.550 OA
ENDBRANCH   7   8
ENDBRANCH   6   7
ENDBRANCH   5   6
ENDBRANCH   4   5
ENDBRANCH   3   4
ENDBRANCH   2   3
ENDBRANCH   1   2
BRANCH   1  11
ATOM     11  C   UNL     1     183.860 190.758 189.281  1.00  0.00     0.000 C 
BRANCH  11  12
ATOM     12  C   UNL     1     183.655 189.585 190.251  1.00  0.00    -0.000 C 
BRANCH  12  13
ATOM     13  C   UNL     1     183.745 188.242 189.513  1.00  0.00    -0.000 C 
BRANCH  13  14
ATOM     14  C   UNL     1     185.024 187.456 189.853  1.00  0.00    -0.000 C 
BRANCH  14  15
ATOM     15  C   UNL     1     185.720 186.788 188.649  1.00  0.00    -0.000 C 
BRANCH  15  16
ATOM     16  C   UNL     1     184.938 186.855 187.325  1.00  0.00    -0.000 C 
BRANCH  16  17
ATOM     17  C   UNL     1     185.838 187.146 186.116  1.00  0.00    -0.003 C 
ATOM     18  C   UNL     1     187.273 186.695 186.377  1.00  0.00     0.004 C 
ENDBRANCH  16  17
ENDBRANCH  15  16
ENDBRANCH  14  15
ENDBRANCH  13  14
ENDBRANCH  12  13
ENDBRANCH  11  12
ENDBRANCH   1  11
TORSDOF 14
ENDMDL
MODEL 6
REMARK VINA RESULT:     0.017      7.417      9.327
REMARK INTER + INTRA:          -3.077
REMARK INTER:                   0.000
REMARK INTRA:                  -3.077
REMARK UNBOUND:                -3.107
REMARK SMILES CCCCCCCCCCCCCCCC(=O)[O-]
REMARK SMILES IDX 9 1 10 2 11 3 12 4 13 5 14 6 15 7 16 8 17 9 18 10 8 11 7 12
REMARK SMILES IDX 6 13 5 14 4 15 3 16 2 17 1 18
REMARK H PARENT
REMARK Flexibility Score: inf
ROOT
ATOM      1  C   UNL     1     183.857 185.823 194.113  1.00  0.00     0.000 C 
ENDROOT
BRANCH   1   2
ATOM      2  C   UNL     1     184.306 186.213 195.532  1.00  0.00     0.000 C 
BRANCH   2   3
ATOM      3  C   UNL     1     184.873 185.021 196.319  1.00  0.00     0.000 C 
BRANCH   3   4
ATOM      4  C   UNL     1     184.315 183.670 195.835  1.00  0.00     0.000 C 
BRANCH   4   5
ATOM      5  C   UNL     1     183.197 183.134 196.743  1.00  0.00     0.000 C 
BRANCH   5   6
ATOM      6  C   UNL     1     182.058 182.475 195.949  1.00  0.00     0.006 C 
BRANCH   6   7
ATOM      7  C   UNL     1     182.371 182.465 194.450  1.00  0.00     0.053 C 
BRANCH   7   8
ATOM      8  C   UNL     1     181.122 182.674 193.653  1.00  0.00     0.041 C 
ATOM      9  O   UNL     1     181.191 183.059 192.456  1.00  0.00    -0.550 OA
ATOM     10  O   UNL     1     179.884 182.397 194.217  1.00  0.00    -0.550 OA
ENDBRANCH   7   8
ENDBRANCH   6   7
ENDBRANCH   5   6
ENDBRANCH   4   5
ENDBRANCH   3   4
ENDBRANCH   2   3
ENDBRANCH   1   2
BRANCH   1  11
ATOM     11  C   UNL     1     182.391 186.196 193.834  1.00  0.00     0.000 C 
BRANCH  11  12
ATOM     12  C   UNL     1     181.661 186.714 195.083  1.00  0.00    -0.000 C 
BRANCH  12  13
ATOM     13  C   UNL     1     180.447 185.833 195.412  1.00  0.00    -0.000 C 
BRANCH  13  14
ATOM     14  C   UNL     1     180.280 185.584 196.921  1.00  0.00    -0.000 C 
BRANCH  14  15
ATOM     15  C   UNL     1     181.339 186.259 197.817  1.00  0.00    -0.000 C 
BRANCH  15  16
ATOM     16  C   UNL     1     181.688 185.492 199.105  1.00  0.00    -0.000 C 
BRANCH  16  17
ATOM     17  C   UNL     1     183.138 185.712 199.555  1.00  0.00    -0.003 C 
ATOM     18  C   UNL     1     183.636 187.097 199.151  1.00  0.00     0.004 C 
ENDBRANCH  16  17
ENDBRANCH  15  16
ENDBRANCH  14  15
ENDBRANCH  13  14
ENDBRANCH  12  13
ENDBRANCH  11  12
ENDBRANCH   1  11
TORSDOF 14
ENDMDL
MODEL 7
REMARK VINA RESULT:     0.020      7.267      9.643
REMARK INTER + INTRA:          -3.071
REMARK INTER:                   0.000
REMARK INTRA:                  -3.071
REMARK UNBOUND:                -3.107
REMARK SMILES CCCCCCCCCCCCCCCC(=O)[O-]
REMARK SMILES IDX 9 1 10 2 11 3 12 4 13 5 14 6 15 7 16 8 17 9 18 10 8 11 7 12
REMARK SMILES IDX 6 13 5 14 4 15 3 16 2 17 1 18
REMARK H PARENT
REMARK Flexibility Score: inf
ROOT
ATOM      1  C   UNL     1     181.213 187.797 189.939  1.00  0.00     0.000 C 
ENDROOT
BRANCH   1   2
ATOM      2  C   UNL     1     180.673 186.663 190.828  1.00  0.00     0.000 C 
BRANCH   2   3
ATOM      3  C   UNL     1     179.313 186.134 190.347  1.00  0.00     0.000 C 
BRANCH   3   4
ATOM      4  C   UNL     1     179.369 184.658 189.914  1.00  0.00     0.000 C 
BRANCH   4   5
ATOM      5  C   UNL     1     179.230 184.482 188.394  1.00  0.00     0.000 C 
BRANCH   5   6
ATOM      6  C   UNL     1     178.104 185.344 187.801  1.00  0.00     0.006 C 
BRANCH   6   7
ATOM      7  C   UNL     1     178.337 185.597 186.309  1.00  0.00     0.053 C 
BRANCH   7   8
ATOM      8  C   UNL     1     178.424 184.301 185.565  1.00  0.00     0.041 C 
ATOM      9  O   UNL     1     177.422 183.542 185.494  1.00  0.00    -0.550 OA
ATOM     10  O   UNL     1     179.598 183.954 184.910  1.00  0.00    -0.550 OA
ENDBRANCH   7   8
ENDBRANCH   6   7
ENDBRANCH   5   6
ENDBRANCH   4   5
ENDBRANCH   3   4
ENDBRANCH   2   3
ENDBRANCH   1   2
BRANCH   1  11
ATOM     11  C   UNL     1     180.181 188.280 188.906  1.00  0.00     0.000 C 
BRANCH  11  12
ATOM     12  C   UNL     1     180.706 188.207 187.464  1.00  0.00    -0.000 C 
BRANCH  12  13
ATOM     13  C   UNL     1     182.015 187.408 187.398  1.00  0.00    -0.000 C 
BRANCH  13  14
ATOM     14  C   UNL     1     181.949 186.232 186.407  1.00  0.00    -0.000 C 
BRANCH  14  15
ATOM     15  C   UNL     1     182.529 184.903 186.931  1.00  0.00    -0.000 C 
BRANCH  15  16
ATOM     16  C   UNL     1     182.994 184.927 188.399  1.00  0.00    -0.000 C 
BRANCH  16  17
ATOM     17  C   UNL     1     182.841 183.569 189.095  1.00  0.00    -0.003 C 
ATOM     18  C   UNL     1     182.944 183.713 190.611  1.00  0.00     0.004 C 
ENDBRANCH  16  17
ENDBRANCH  15  16
ENDBRANCH  14  15
ENDBRANCH  13  14
ENDBRANCH  12  13
ENDBRANCH  11  12
ENDBRANCH   1  11
TORSDOF 14
ENDMDL
MODEL 8
REMARK VINA RESULT:     0.021     10.983     13.022
REMARK INTER + INTRA:          -3.068
REMARK INTER:                   0.000
REMARK INTRA:                  -3.068
REMARK UNBOUND:                -3.107
REMARK SMILES CCCCCCCCCCCCCCCC(=O)[O-]
REMARK SMILES IDX 9 1 10 2 11 3 12 4 13 5 14 6 15 7 16 8 17 9 18 10 8 11 7 12
REMARK SMILES IDX 6 13 5 14 4 15 3 16 2 17 1 18
REMARK H PARENT
REMARK Flexibility Score: inf
ROOT
ATOM      1  C   UNL     1     180.840 181.116 184.664  1.00  0.00     0.000 C 
ENDROOT
BRANCH   1   2
ATOM      2  C   UNL     1     181.057 180.347 185.978  1.00  0.00     0.000 C 
BRANCH   2   3
ATOM      3  C   UNL     1     179.734 179.962 186.661  1.00  0.00     0.000 C 
BRANCH   3   4
ATOM      4  C   UNL     1     178.535 180.765 186.126  1.00  0.00     0.000 C 
BRANCH   4   5
ATOM      5  C   UNL     1     177.969 181.745 187.165  1.00  0.00     0.000 C 
BRANCH   5   6
ATOM      6  C   UNL     1     177.640 183.119 186.562  1.00  0.00     0.006 C 
BRANCH   6   7
ATOM      7  C   UNL     1     177.729 183.081 185.033  1.00  0.00     0.053 C 
BRANCH   7   8
ATOM      8  C   UNL     1     178.276 184.371 184.508  1.00  0.00     0.041 C 
ATOM      9  O   UNL     1     178.297 185.395 185.240  1.00  0.00    -0.550 OA
ATOM     10  O   UNL     1     178.806 184.430 183.226  1.00  0.00    -0.550 OA
ENDBRANCH   7   8
ENDBRANCH   6   7
ENDBRANCH   5   6
ENDBRANCH   4   5
ENDBRANCH   3   4
ENDBRANCH   2   3
ENDBRANCH   1   2
BRANCH   1  11
ATOM     11  C   UNL     1     181.481 182.514 184.684  1.00  0.00     0.000 C 
BRANCH  11  12
ATOM     12  C   UNL     1     182.097 182.866 186.048  1.00  0.00    -0.000 C 
BRANCH  12  13
ATOM     13  C   UNL     1     181.240 183.906 186.783  1.00  0.00    -0.000 C 
BRANCH  13  14
ATOM     14  C   UNL     1     181.013 183.555 188.265  1.00  0.00    -0.000 C 
BRANCH  14  15
ATOM     15  C   UNL     1     182.047 182.586 188.873  1.00  0.00    -0.000 C 
BRANCH  15  16
ATOM     16  C   UNL     1     181.450 181.374 189.611  1.00  0.00    -0.000 C 
BRANCH  16  17
ATOM     17  C   UNL     1     180.056 181.656 190.189  1.00  0.00    -0.003 C 
ATOM     18  C   UNL     1     179.271 180.362 190.385  1.00  0.00     0.004 C 
ENDBRANCH  16  17
ENDBRANCH  15  16
ENDBRANCH  14  15
ENDBRANCH  13  14
ENDBRANCH  12  13
ENDBRANCH  11  12
ENDBRANCH   1  11
TORSDOF 14
ENDMDL
MODEL 9
REMARK VINA RESULT:     0.022     10.174     12.528
REMARK INTER + INTRA:          -3.068
REMARK INTER:                   0.000
REMARK INTRA:                  -3.068
REMARK UNBOUND:                -3.107
REMARK SMILES CCCCCCCCCCCCCCCC(=O)[O-]
REMARK SMILES IDX 9 1 10 2 11 3 12 4 13 5 14 6 15 7 16 8 17 9 18 10 8 11 7 12
REMARK SMILES IDX 6 13 5 14 4 15 3 16 2 17 1 18
REMARK H PARENT
REMARK Flexibility Score: inf
ROOT
ATOM      1  C   UNL     1     184.762 180.825 194.028  1.00  0.00     0.000 C 
ENDROOT
BRANCH   1   2
ATOM      2  C   UNL     1     183.250 180.852 194.308  1.00  0.00     0.000 C 
BRANCH   2   3
ATOM      3  C   UNL     1     182.734 182.266 194.622  1.00  0.00     0.000 C 
BRANCH   3   4
ATOM      4  C   UNL     1     182.029 182.351 195.988  1.00  0.00     0.000 C 
BRANCH   4   5
ATOM      5  C   UNL     1     182.645 183.419 196.905  1.00  0.00     0.000 C 
BRANCH   5   6
ATOM      6  C   UNL     1     183.533 184.412 196.140  1.00  0.00     0.006 C 
BRANCH   6   7
ATOM      7  C   UNL     1     184.401 185.226 197.106  1.00  0.00     0.053 C 
BRANCH   7   8
ATOM      8  C   UNL     1     185.621 185.740 196.407  1.00  0.00     0.041 C 
ATOM      9  O   UNL     1     186.716 185.820 197.023  1.00  0.00    -0.550 OA
ATOM     10  O   UNL     1     185.558 186.085 195.064  1.00  0.00    -0.550 OA
ENDBRANCH   7   8
ENDBRANCH   6   7
ENDBRANCH   5   6
ENDBRANCH   4   5
ENDBRANCH   3   4
ENDBRANCH   2   3
ENDBRANCH   1   2
BRANCH   1  11
ATOM     11  C   UNL     1     185.342 182.226 193.774  1.00  0.00     0.000 C 
BRANCH  11  12
ATOM     12  C   UNL     1     186.503 182.570 194.719  1.00  0.00    -0.000 C 
BRANCH  12  13
ATOM     13  C   UNL     1     186.602 181.544 195.858  1.00  0.00    -0.000 C 
BRANCH  13  14
ATOM     14  C   UNL     1     186.502 182.187 197.253  1.00  0.00    -0.000 C 
BRANCH  14  15
ATOM     15  C   UNL     1     185.481 181.530 198.204  1.00  0.00    -0.000 C 
BRANCH  15  16
ATOM     16  C   UNL     1     184.851 180.226 197.684  1.00  0.00    -0.000 C 
BRANCH  16  17
ATOM     17  C   UNL     1     183.501 179.912 198.342  1.00  0.00    -0.003 C 
ATOM     18  C   UNL     1     182.676 178.962 197.478  1.00  0.00     0.004 C 
ENDBRANCH  16  17
ENDBRANCH  15  16
ENDBRANCH  14  15
ENDBRANCH  13  14
ENDBRANCH  12  13
ENDBRANCH  11  12
ENDBRANCH   1  11
TORSDOF 14
ENDMDL
