MODEL 1
REMARK VINA RESULT:     6.787      0.000      0.000
REMARK INTER + INTRA:          15.740
REMARK INTER:                  17.102
REMARK INTRA:                  -1.362
REMARK UNBOUND:                -1.362
REMARK SMILES CCCCCCCCCCCCCCCCCCCCCCCCCCCC(=O)[O-]
REMARK SMILES IDX 15 1 16 2 17 3 18 4 19 5 20 6 21 7 22 8 23 9 24 10 25 11
REMARK SMILES IDX 26 12 27 13 28 14 29 15 30 16 14 17 13 18 12 19 11 20 10 21
REMARK SMILES IDX 9 22 8 23 7 24 6 25 5 26 4 27 3 28 2 29 1 30
REMARK H PARENT
REMARK Flexibility Score: inf
ROOT
ATOM      1  C   UNL     1      13.230  11.973 -13.702  1.00  0.00     0.000 C 
ENDROOT
BRANCH   1   2
ATOM      2  C   UNL     1      11.863  11.367 -14.076  1.00  0.00     0.000 C 
BRANCH   2   3
ATOM      3  C   UNL     1      10.641  12.126 -13.516  1.00  0.00     0.000 C 
BRANCH   3   4
ATOM      4  C   UNL     1       9.273  11.597 -13.992  1.00  0.00     0.000 C 
BRANCH   4   5
ATOM      5  C   UNL     1       8.186  11.539 -12.901  1.00  0.00     0.000 C 
BRANCH   5   6
ATOM      6  C   UNL     1       6.951  10.680 -13.247  1.00  0.00     0.000 C 
BRANCH   6   7
ATOM      7  C   UNL     1       7.137   9.157 -13.096  1.00  0.00     0.000 C 
BRANCH   7   8
ATOM      8  C   UNL     1       6.021   8.444 -12.301  1.00  0.00     0.000 C 
BRANCH   8   9
ATOM      9  C   UNL     1       4.884   9.374 -11.836  1.00  0.00     0.000 C 
BRANCH   9  10
ATOM     10  C   UNL     1       3.624   8.630 -11.349  1.00  0.00     0.000 C 
BRANCH  10  11
ATOM     11  C   UNL     1       2.354   9.102 -12.080  1.00  0.00     0.000 C 
BRANCH  11  12
ATOM     12  C   UNL     1       2.647  10.206 -13.110  1.00  0.00     0.006 C 
BRANCH  12  13
ATOM     13  C   UNL     1       2.346   9.759 -14.548  1.00  0.00     0.053 C 
BRANCH  13  14
ATOM     14  C   UNL     1       3.431  10.193 -15.482  1.00  0.00     0.041 C 
ATOM     15  O   UNL     1       4.249   9.351 -15.942  1.00  0.00    -0.550 OA
ATOM     16  O   UNL     1       3.543  11.530 -15.847  1.00  0.00    -0.550 OA
ENDBRANCH  13  14
ENDBRANCH  12  13
ENDBRANCH  11  12
ENDBRANCH  10  11
ENDBRANCH   9  10
ENDBRANCH   8   9
ENDBRANCH   7   8
ENDBRANCH   6   7
ENDBRANCH   5   6
ENDBRANCH   4   5
ENDBRANCH   3   4
ENDBRANCH   2   3
ENDBRANCH   1   2
BRANCH   1  17
ATOM     17  C   UNL     1      14.233  10.978 -13.089  1.00  0.00     0.000 C 
BRANCH  17  18
ATOM     18  C   UNL     1      14.277   9.592 -13.765  1.00  0.00     0.000 C 
BRANCH  18  19
ATOM     19  C   UNL     1      15.672   8.944 -13.848  1.00  0.00     0.000 C 
BRANCH  19  20
ATOM     20  C   UNL     1      15.796   7.931 -14.998  1.00  0.00     0.000 C 
BRANCH  20  21
ATOM     21  C   UNL     1      17.198   7.917 -15.633  1.00  0.00     0.000 C 
BRANCH  21  22
ATOM     22  C   UNL     1      17.907   9.282 -15.680  1.00  0.00    -0.000 C 
BRANCH  22  23
ATOM     23  C   UNL     1      19.426   9.161 -15.892  1.00  0.00    -0.000 C 
BRANCH  23  24
ATOM     24  C   UNL     1      20.229   9.635 -14.671  1.00  0.00    -0.000 C 
BRANCH  24  25
ATOM     25  C   UNL     1      21.318  10.656 -15.043  1.00  0.00    -0.000 C 
BRANCH  25  26
ATOM     26  C   UNL     1      20.774  11.813 -15.895  1.00  0.00    -0.000 C 
BRANCH  26  27
ATOM     27  C   UNL     1      19.793  12.712 -15.120  1.00  0.00    -0.000 C 
BRANCH  27  28
ATOM     28  C   UNL     1      20.447  13.357 -13.881  1.00  0.00    -0.000 C 
BRANCH  28  29
ATOM     29  C   UNL     1      21.918  13.749 -14.096  1.00  0.00    -0.003 C 
ATOM     30  C   UNL     1      22.103  14.795 -15.194  1.00  0.00     0.004 C 
ENDBRANCH  28  29
ENDBRANCH  27  28
ENDBRANCH  26  27
ENDBRANCH  25  26
ENDBRANCH  24  25
ENDBRANCH  23  24
ENDBRANCH  22  23
ENDBRANCH  21  22
ENDBRANCH  20  21
ENDBRANCH  19  20
ENDBRANCH  18  19
ENDBRANCH  17  18
ENDBRANCH   1  17
TORSDOF 26
ENDMDL
MODEL 2
REMARK VINA RESULT:     8.169      4.503     14.288
REMARK INTER + INTRA:          19.223
REMARK INTER:                  19.582
REMARK INTRA:                  -0.359
REMARK UNBOUND:                -1.362
REMARK SMILES CCCCCCCCCCCCCCCCCCCCCCCCCCCC(=O)[O-]
REMARK SMILES IDX 15 1 16 2 17 3 18 4 19 5 20 6 21 7 22 8 23 9 24 10 25 11
REMARK SMILES IDX 26 12 27 13 28 14 29 15 30 16 14 17 13 18 12 19 11 20 10 21
REMARK SMILES IDX 9 22 8 23 7 24 6 25 5 26 4 27 3 28 2 29 1 30
REMARK H PARENT
REMARK Flexibility Score: inf
ROOT
ATOM      1  C   UNL     1      11.000  12.022 -13.641  1.00  0.00     0.000 C 
ENDROOT
BRANCH   1   2
ATOM      2  C   UNL     1      12.301  11.872 -12.828  1.00  0.00     0.000 C 
BRANCH   2   3
ATOM      3  C   UNL     1      13.505  11.327 -13.625  1.00  0.00     0.000 C 
BRANCH   3   4
ATOM      4  C   UNL     1      13.632   9.791 -13.641  1.00  0.00     0.000 C 
BRANCH   4   5
ATOM      5  C   UNL     1      15.078   9.260 -13.579  1.00  0.00     0.000 C 
BRANCH   5   6
ATOM      6  C   UNL     1      15.381   8.065 -14.508  1.00  0.00     0.000 C 
BRANCH   6   7
ATOM      7  C   UNL     1      16.836   7.963 -15.006  1.00  0.00     0.000 C 
BRANCH   7   8
ATOM      8  C   UNL     1      17.475   9.307 -15.421  1.00  0.00     0.000 C 
BRANCH   8   9
ATOM      9  C   UNL     1      18.839   9.169 -16.125  1.00  0.00     0.000 C 
BRANCH   9  10
ATOM     10  C   UNL     1      20.022   9.741 -15.318  1.00  0.00     0.000 C 
BRANCH  10  11
ATOM     11  C   UNL     1      20.388  11.169 -15.763  1.00  0.00     0.000 C 
BRANCH  11  12
ATOM     12  C   UNL     1      21.173  11.935 -14.685  1.00  0.00     0.006 C 
BRANCH  12  13
ATOM     13  C   UNL     1      21.784  13.238 -15.221  1.00  0.00     0.053 C 
BRANCH  13  14
ATOM     14  C   UNL     1      20.724  14.265 -15.468  1.00  0.00     0.041 C 
ATOM     15  O   UNL     1      21.041  15.455 -15.736  1.00  0.00    -0.550 OA
ATOM     16  O   UNL     1      19.381  13.910 -15.400  1.00  0.00    -0.550 OA
ENDBRANCH  13  14
ENDBRANCH  12  13
ENDBRANCH  11  12
ENDBRANCH  10  11
ENDBRANCH   9  10
ENDBRANCH   8   9
ENDBRANCH   7   8
ENDBRANCH   6   7
ENDBRANCH   5   6
ENDBRANCH   4   5
ENDBRANCH   3   4
ENDBRANCH   2   3
ENDBRANCH   1   2
BRANCH   1  17
ATOM     17  C   UNL     1       9.707  11.992 -12.803  1.00  0.00     0.000 C 
BRANCH  17  18
ATOM     18  C   UNL     1       8.442  11.545 -13.565  1.00  0.00     0.000 C 
BRANCH  18  19
ATOM     19  C   UNL     1       7.372  10.842 -12.709  1.00  0.00     0.000 C 
BRANCH  19  20
ATOM     20  C   UNL     1       6.384  10.012 -13.546  1.00  0.00     0.000 C 
BRANCH  20  21
ATOM     21  C   UNL     1       6.191  10.568 -14.968  1.00  0.00     0.000 C 
BRANCH  21  22
ATOM     22  C   UNL     1       5.008  11.539 -15.134  1.00  0.00    -0.000 C 
BRANCH  22  23
ATOM     23  C   UNL     1       3.993  11.448 -13.982  1.00  0.00    -0.000 C 
BRANCH  23  24
ATOM     24  C   UNL     1       2.822  10.507 -14.303  1.00  0.00    -0.000 C 
BRANCH  24  25
ATOM     25  C   UNL     1       2.310   9.760 -13.059  1.00  0.00    -0.000 C 
BRANCH  25  26
ATOM     26  C   UNL     1       2.600   8.253 -13.115  1.00  0.00    -0.000 C 
BRANCH  26  27
ATOM     27  C   UNL     1       3.921   7.875 -12.421  1.00  0.00    -0.000 C 
BRANCH  27  28
ATOM     28  C   UNL     1       4.158   8.692 -11.134  1.00  0.00    -0.000 C 
BRANCH  28  29
ATOM     29  C   UNL     1       2.865   9.238 -10.505  1.00  0.00    -0.003 C 
ATOM     30  C   UNL     1       2.228   8.267  -9.513  1.00  0.00     0.004 C 
ENDBRANCH  28  29
ENDBRANCH  27  28
ENDBRANCH  26  27
ENDBRANCH  25  26
ENDBRANCH  24  25
ENDBRANCH  23  24
ENDBRANCH  22  23
ENDBRANCH  21  22
ENDBRANCH  20  21
ENDBRANCH  19  20
ENDBRANCH  18  19
ENDBRANCH  17  18
ENDBRANCH   1  17
TORSDOF 26
ENDMDL
MODEL 3
REMARK VINA RESULT:     8.827      1.111      2.122
REMARK INTER + INTRA:          20.883
REMARK INTER:                  22.418
REMARK INTRA:                  -1.536
REMARK UNBOUND:                -1.362
REMARK SMILES CCCCCCCCCCCCCCCCCCCCCCCCCCCC(=O)[O-]
REMARK SMILES IDX 15 1 16 2 17 3 18 4 19 5 20 6 21 7 22 8 23 9 24 10 25 11
REMARK SMILES IDX 26 12 27 13 28 14 29 15 30 16 14 17 13 18 12 19 11 20 10 21
REMARK SMILES IDX 9 22 8 23 7 24 6 25 5 26 4 27 3 28 2 29 1 30
REMARK H PARENT
REMARK Flexibility Score: inf
ROOT
ATOM      1  C   UNL     1      14.319  10.420 -13.512  1.00  0.00     0.000 C 
ENDROOT
BRANCH   1   2
ATOM      2  C   UNL     1      13.171  10.889 -14.427  1.00  0.00     0.000 C 
BRANCH   2   3
ATOM      3  C   UNL     1      12.115  11.779 -13.739  1.00  0.00     0.000 C 
BRANCH   3   4
ATOM      4  C   UNL     1      10.698  11.690 -14.340  1.00  0.00     0.000 C 
BRANCH   4   5
ATOM      5  C   UNL     1       9.567  12.168 -13.409  1.00  0.00     0.000 C 
BRANCH   5   6
ATOM      6  C   UNL     1       8.603  11.065 -12.923  1.00  0.00     0.000 C 
BRANCH   6   7
ATOM      7  C   UNL     1       7.201  11.076 -13.566  1.00  0.00     0.000 C 
BRANCH   7   8
ATOM      8  C   UNL     1       6.043  10.742 -12.600  1.00  0.00     0.000 C 
BRANCH   8   9
ATOM      9  C   UNL     1       5.745   9.236 -12.467  1.00  0.00     0.000 C 
BRANCH   9  10
ATOM     10  C   UNL     1       4.527   8.913 -11.578  1.00  0.00     0.000 C 
BRANCH  10  11
ATOM     11  C   UNL     1       3.264   9.668 -12.031  1.00  0.00     0.000 C 
BRANCH  11  12
ATOM     12  C   UNL     1       3.088   9.652 -13.558  1.00  0.00     0.006 C 
BRANCH  12  13
ATOM     13  C   UNL     1       2.324  10.881 -14.073  1.00  0.00     0.053 C 
BRANCH  13  14
ATOM     14  C   UNL     1       3.104  11.593 -15.133  1.00  0.00     0.041 C 
ATOM     15  O   UNL     1       2.671  12.669 -15.627  1.00  0.00    -0.550 OA
ATOM     16  O   UNL     1       4.312  11.067 -15.580  1.00  0.00    -0.550 OA
ENDBRANCH  13  14
ENDBRANCH  12  13
ENDBRANCH  11  12
ENDBRANCH  10  11
ENDBRANCH   9  10
ENDBRANCH   8   9
ENDBRANCH   7   8
ENDBRANCH   6   7
ENDBRANCH   5   6
ENDBRANCH   4   5
ENDBRANCH   3   4
ENDBRANCH   2   3
ENDBRANCH   1   2
BRANCH   1  17
ATOM     17  C   UNL     1      14.733   8.948 -13.696  1.00  0.00     0.000 C 
BRANCH  17  18
ATOM     18  C   UNL     1      16.249   8.708 -13.856  1.00  0.00     0.000 C 
BRANCH  18  19
ATOM     19  C   UNL     1      16.757   8.650 -15.308  1.00  0.00     0.000 C 
BRANCH  19  20
ATOM     20  C   UNL     1      18.214   8.172 -15.416  1.00  0.00     0.000 C 
BRANCH  20  21
ATOM     21  C   UNL     1      19.197   9.314 -15.734  1.00  0.00     0.000 C 
BRANCH  21  22
ATOM     22  C   UNL     1      20.618   8.864 -16.120  1.00  0.00    -0.000 C 
BRANCH  22  23
ATOM     23  C   UNL     1      21.677   9.274 -15.083  1.00  0.00    -0.000 C 
BRANCH  23  24
ATOM     24  C   UNL     1      21.695  10.789 -14.828  1.00  0.00    -0.000 C 
BRANCH  24  25
ATOM     25  C   UNL     1      21.860  11.601 -16.125  1.00  0.00    -0.000 C 
BRANCH  25  26
ATOM     26  C   UNL     1      21.912  13.114 -15.869  1.00  0.00    -0.000 C 
BRANCH  26  27
ATOM     27  C   UNL     1      20.561  13.686 -15.402  1.00  0.00    -0.000 C 
BRANCH  27  28
ATOM     28  C   UNL     1      19.373  12.800 -15.831  1.00  0.00    -0.000 C 
BRANCH  28  29
ATOM     29  C   UNL     1      18.323  12.601 -14.725  1.00  0.00    -0.003 C 
ATOM     30  C   UNL     1      18.942  12.377 -13.347  1.00  0.00     0.004 C 
ENDBRANCH  28  29
ENDBRANCH  27  28
ENDBRANCH  26  27
ENDBRANCH  25  26
ENDBRANCH  24  25
ENDBRANCH  23  24
ENDBRANCH  22  23
ENDBRANCH  21  22
ENDBRANCH  20  21
ENDBRANCH  19  20
ENDBRANCH  18  19
ENDBRANCH  17  18
ENDBRANCH   1  17
TORSDOF 26
ENDMDL
MODEL 4
REMARK VINA RESULT:     9.006      3.692     13.477
REMARK INTER + INTRA:          21.333
REMARK INTER:                  21.160
REMARK INTRA:                   0.173
REMARK UNBOUND:                -1.362
REMARK SMILES CCCCCCCCCCCCCCCCCCCCCCCCCCCC(=O)[O-]
REMARK SMILES IDX 15 1 16 2 17 3 18 4 19 5 20 6 21 7 22 8 23 9 24 10 25 11
REMARK SMILES IDX 26 12 27 13 28 14 29 15 30 16 14 17 13 18 12 19 11 20 10 21
REMARK SMILES IDX 9 22 8 23 7 24 6 25 5 26 4 27 3 28 2 29 1 30
REMARK H PARENT
REMARK Flexibility Score: inf
ROOT
ATOM      1  C   UNL     1      13.106  12.361 -13.614  1.00  0.00     0.000 C 
ENDROOT
BRANCH   1   2
ATOM      2  C   UNL     1      13.971  11.166 -13.167  1.00  0.00     0.000 C 
BRANCH   2   3
ATOM      3  C   UNL     1      13.793   9.885 -14.008  1.00  0.00     0.000 C 
BRANCH   3   4
ATOM      4  C   UNL     1      14.717   8.715 -13.615  1.00  0.00     0.000 C 
BRANCH   4   5
ATOM      5  C   UNL     1      15.452   8.045 -14.792  1.00  0.00     0.000 C 
BRANCH   5   6
ATOM      6  C   UNL     1      16.992   8.137 -14.747  1.00  0.00     0.000 C 
BRANCH   6   7
ATOM      7  C   UNL     1      17.687   8.332 -16.109  1.00  0.00     0.000 C 
BRANCH   7   8
ATOM      8  C   UNL     1      18.887   9.304 -16.091  1.00  0.00     0.000 C 
BRANCH   8   9
ATOM      9  C   UNL     1      20.065   8.839 -15.212  1.00  0.00     0.000 C 
BRANCH   9  10
ATOM     10  C   UNL     1      21.300   9.760 -15.278  1.00  0.00     0.000 C 
BRANCH  10  11
ATOM     11  C   UNL     1      20.910  11.239 -15.453  1.00  0.00     0.000 C 
BRANCH  11  12
ATOM     12  C   UNL     1      19.449  11.511 -15.056  1.00  0.00     0.006 C 
BRANCH  12  13
ATOM     13  C   UNL     1      19.271  11.647 -13.537  1.00  0.00     0.053 C 
BRANCH  13  14
ATOM     14  C   UNL     1      17.821  11.684 -13.168  1.00  0.00     0.041 C 
ATOM     15  O   UNL     1      17.024  10.827 -13.637  1.00  0.00    -0.550 OA
ATOM     16  O   UNL     1      17.346  12.667 -12.307  1.00  0.00    -0.550 OA
ENDBRANCH  13  14
ENDBRANCH  12  13
ENDBRANCH  11  12
ENDBRANCH  10  11
ENDBRANCH   9  10
ENDBRANCH   8   9
ENDBRANCH   7   8
ENDBRANCH   6   7
ENDBRANCH   5   6
ENDBRANCH   4   5
ENDBRANCH   3   4
ENDBRANCH   2   3
ENDBRANCH   1   2
BRANCH   1  17
ATOM     17  C   UNL     1      11.730  11.982 -14.194  1.00  0.00     0.000 C 
BRANCH  17  18
ATOM     18  C   UNL     1      10.547  12.113 -13.213  1.00  0.00     0.000 C 
BRANCH  18  19
ATOM     19  C   UNL     1       9.346  11.193 -13.503  1.00  0.00     0.000 C 
BRANCH  19  20
ATOM     20  C   UNL     1       8.026  11.729 -12.926  1.00  0.00     0.000 C 
BRANCH  20  21
ATOM     21  C   UNL     1       6.802  10.909 -13.373  1.00  0.00     0.000 C 
BRANCH  21  22
ATOM     22  C   UNL     1       6.820   9.428 -12.953  1.00  0.00    -0.000 C 
BRANCH  22  23
ATOM     23  C   UNL     1       6.098   8.513 -13.957  1.00  0.00    -0.000 C 
BRANCH  23  24
ATOM     24  C   UNL     1       5.202   9.297 -14.928  1.00  0.00    -0.000 C 
BRANCH  24  25
ATOM     25  C   UNL     1       3.724   8.880 -14.829  1.00  0.00    -0.000 C 
BRANCH  25  26
ATOM     26  C   UNL     1       3.339   8.399 -13.422  1.00  0.00    -0.000 C 
BRANCH  26  27
ATOM     27  C   UNL     1       2.922   9.553 -12.492  1.00  0.00    -0.000 C 
BRANCH  27  28
ATOM     28  C   UNL     1       2.993   9.156 -11.003  1.00  0.00    -0.000 C 
BRANCH  28  29
ATOM     29  C   UNL     1       4.429   8.957 -10.487  1.00  0.00    -0.003 C 
ATOM     30  C   UNL     1       4.481   8.460  -9.044  1.00  0.00     0.004 C 
ENDBRANCH  28  29
ENDBRANCH  27  28
ENDBRANCH  26  27
ENDBRANCH  25  26
ENDBRANCH  24  25
ENDBRANCH  23  24
ENDBRANCH  22  23
ENDBRANCH  21  22
ENDBRANCH  20  21
ENDBRANCH  19  20
ENDBRANCH  18  19
ENDBRANCH  17  18
ENDBRANCH   1  17
TORSDOF 26
ENDMDL
MODEL 5
REMARK VINA RESULT:     9.026      2.187      2.832
REMARK INTER + INTRA:          21.384
REMARK INTER:                  20.116
REMARK INTRA:                   1.267
REMARK UNBOUND:                -1.362
REMARK SMILES CCCCCCCCCCCCCCCCCCCCCCCCCCCC(=O)[O-]
REMARK SMILES IDX 15 1 16 2 17 3 18 4 19 5 20 6 21 7 22 8 23 9 24 10 25 11
REMARK SMILES IDX 26 12 27 13 28 14 29 15 30 16 14 17 13 18 12 19 11 20 10 21
REMARK SMILES IDX 9 22 8 23 7 24 6 25 5 26 4 27 3 28 2 29 1 30
REMARK H PARENT
REMARK Flexibility Score: inf
ROOT
ATOM      1  C   UNL     1      12.582  12.026 -13.790  1.00  0.00     0.000 C 
ENDROOT
BRANCH   1   2
ATOM      2  C   UNL     1      11.103  11.942 -14.217  1.00  0.00     0.000 C 
BRANCH   2   3
ATOM      3  C   UNL     1      10.095  12.464 -13.171  1.00  0.00     0.000 C 
BRANCH   3   4
ATOM      4  C   UNL     1       8.976  11.472 -12.796  1.00  0.00     0.000 C 
BRANCH   4   5
ATOM      5  C   UNL     1       7.776  11.453 -13.763  1.00  0.00     0.000 C 
BRANCH   5   6
ATOM      6  C   UNL     1       6.684  10.411 -13.436  1.00  0.00     0.000 C 
BRANCH   6   7
ATOM      7  C   UNL     1       5.597  10.228 -14.514  1.00  0.00     0.000 C 
BRANCH   7   8
ATOM      8  C   UNL     1       4.146  10.336 -13.995  1.00  0.00     0.000 C 
BRANCH   8   9
ATOM      9  C   UNL     1       3.110   9.585 -14.854  1.00  0.00     0.000 C 
BRANCH   9  10
ATOM     10  C   UNL     1       2.968   8.090 -14.504  1.00  0.00     0.000 C 
BRANCH  10  11
ATOM     11  C   UNL     1       2.240   7.876 -13.165  1.00  0.00     0.000 C 
BRANCH  11  12
ATOM     12  C   UNL     1       2.956   8.565 -11.991  1.00  0.00     0.006 C 
BRANCH  12  13
ATOM     13  C   UNL     1       2.274   8.286 -10.644  1.00  0.00     0.053 C 
BRANCH  13  14
ATOM     14  C   UNL     1       3.275   8.249  -9.533  1.00  0.00     0.041 C 
ATOM     15  O   UNL     1       4.481   7.972  -9.773  1.00  0.00    -0.550 OA
ATOM     16  O   UNL     1       2.878   8.518  -8.228  1.00  0.00    -0.550 OA
ENDBRANCH  13  14
ENDBRANCH  12  13
ENDBRANCH  11  12
ENDBRANCH  10  11
ENDBRANCH   9  10
ENDBRANCH   8   9
ENDBRANCH   7   8
ENDBRANCH   6   7
ENDBRANCH   5   6
ENDBRANCH   4   5
ENDBRANCH   3   4
ENDBRANCH   2   3
ENDBRANCH   1   2
BRANCH   1  17
ATOM     17  C   UNL     1      13.141  10.746 -13.140  1.00  0.00     0.000 C 
BRANCH  17  18
ATOM     18  C   UNL     1      14.568  10.358 -13.578  1.00  0.00     0.000 C 
BRANCH  18  19
ATOM     19  C   UNL     1      14.849   8.845 -13.645  1.00  0.00     0.000 C 
BRANCH  19  20
ATOM     20  C   UNL     1      15.844   8.467 -14.754  1.00  0.00     0.000 C 
BRANCH  20  21
ATOM     21  C   UNL     1      17.310   8.704 -14.348  1.00  0.00     0.000 C 
BRANCH  21  22
ATOM     22  C   UNL     1      18.257   9.064 -15.506  1.00  0.00    -0.000 C 
BRANCH  22  23
ATOM     23  C   UNL     1      19.724   9.191 -15.062  1.00  0.00    -0.000 C 
BRANCH  23  24
ATOM     24  C   UNL     1      20.707   8.672 -16.123  1.00  0.00    -0.000 C 
BRANCH  24  25
ATOM     25  C   UNL     1      22.122   9.249 -15.946  1.00  0.00    -0.000 C 
BRANCH  25  26
ATOM     26  C   UNL     1      22.118  10.616 -15.245  1.00  0.00    -0.000 C 
BRANCH  26  27
ATOM     27  C   UNL     1      20.729  11.281 -15.248  1.00  0.00    -0.000 C 
BRANCH  27  28
ATOM     28  C   UNL     1      20.787  12.754 -14.793  1.00  0.00    -0.000 C 
BRANCH  28  29
ATOM     29  C   UNL     1      20.944  13.751 -15.955  1.00  0.00    -0.003 C 
ATOM     30  C   UNL     1      21.054  15.201 -15.487  1.00  0.00     0.004 C 
ENDBRANCH  28  29
ENDBRANCH  27  28
ENDBRANCH  26  27
ENDBRANCH  25  26
ENDBRANCH  24  25
ENDBRANCH  23  24
ENDBRANCH  22  23
ENDBRANCH  21  22
ENDBRANCH  20  21
ENDBRANCH  19  20
ENDBRANCH  18  19
ENDBRANCH  17  18
ENDBRANCH   1  17
TORSDOF 26
ENDMDL
MODEL 6
REMARK VINA RESULT:     9.037      4.858     14.251
REMARK INTER + INTRA:          21.411
REMARK INTER:                  22.480
REMARK INTRA:                  -1.069
REMARK UNBOUND:                -1.362
REMARK SMILES CCCCCCCCCCCCCCCCCCCCCCCCCCCC(=O)[O-]
REMARK SMILES IDX 15 1 16 2 17 3 18 4 19 5 20 6 21 7 22 8 23 9 24 10 25 11
REMARK SMILES IDX 26 12 27 13 28 14 29 15 30 16 14 17 13 18 12 19 11 20 10 21
REMARK SMILES IDX 9 22 8 23 7 24 6 25 5 26 4 27 3 28 2 29 1 30
REMARK H PARENT
REMARK Flexibility Score: inf
ROOT
ATOM      1  C   UNL     1      13.236  12.016 -13.653  1.00  0.00     0.000 C 
ENDROOT
BRANCH   1   2
ATOM      2  C   UNL     1      14.106  10.823 -13.210  1.00  0.00     0.000 C 
BRANCH   2   3
ATOM      3  C   UNL     1      14.350   9.758 -14.299  1.00  0.00     0.000 C 
BRANCH   3   4
ATOM      4  C   UNL     1      15.316   8.626 -13.896  1.00  0.00     0.000 C 
BRANCH   4   5
ATOM      5  C   UNL     1      16.211   8.101 -15.036  1.00  0.00     0.000 C 
BRANCH   5   6
ATOM      6  C   UNL     1      17.728   8.300 -14.827  1.00  0.00     0.000 C 
BRANCH   6   7
ATOM      7  C   UNL     1      18.561   8.462 -16.115  1.00  0.00     0.000 C 
BRANCH   7   8
ATOM      8  C   UNL     1      19.702   9.499 -16.021  1.00  0.00     0.000 C 
BRANCH   8   9
ATOM      9  C   UNL     1      20.698   9.242 -14.874  1.00  0.00     0.000 C 
BRANCH   9  10
ATOM     10  C   UNL     1      21.408  10.512 -14.362  1.00  0.00     0.000 C 
BRANCH  10  11
ATOM     11  C   UNL     1      20.408  11.616 -13.972  1.00  0.00     0.000 C 
BRANCH  11  12
ATOM     12  C   UNL     1      21.067  13.003 -13.897  1.00  0.00     0.006 C 
BRANCH  12  13
ATOM     13  C   UNL     1      21.398  13.570 -15.285  1.00  0.00     0.053 C 
BRANCH  13  14
ATOM     14  C   UNL     1      21.444  15.065 -15.257  1.00  0.00     0.041 C 
ATOM     15  O   UNL     1      22.111  15.697 -16.120  1.00  0.00    -0.550 OA
ATOM     16  O   UNL     1      20.750  15.765 -14.276  1.00  0.00    -0.550 OA
ENDBRANCH  13  14
ENDBRANCH  12  13
ENDBRANCH  11  12
ENDBRANCH  10  11
ENDBRANCH   9  10
ENDBRANCH   8   9
ENDBRANCH   7   8
ENDBRANCH   6   7
ENDBRANCH   5   6
ENDBRANCH   4   5
ENDBRANCH   3   4
ENDBRANCH   2   3
ENDBRANCH   1   2
BRANCH   1  17
ATOM     17  C   UNL     1      11.879  11.632 -14.274  1.00  0.00     0.000 C 
BRANCH  17  18
ATOM     18  C   UNL     1      10.641  12.047 -13.452  1.00  0.00     0.000 C 
BRANCH  18  19
ATOM     19  C   UNL     1       9.317  11.384 -13.876  1.00  0.00     0.000 C 
BRANCH  19  20
ATOM     20  C   UNL     1       8.196  11.565 -12.840  1.00  0.00     0.000 C 
BRANCH  20  21
ATOM     21  C   UNL     1       6.906  10.813 -13.217  1.00  0.00     0.000 C 
BRANCH  21  22
ATOM     22  C   UNL     1       6.717   9.453 -12.521  1.00  0.00    -0.000 C 
BRANCH  22  23
ATOM     23  C   UNL     1       6.478   8.302 -13.513  1.00  0.00    -0.000 C 
BRANCH  23  24
ATOM     24  C   UNL     1       5.476   8.675 -14.616  1.00  0.00    -0.000 C 
BRANCH  24  25
ATOM     25  C   UNL     1       4.030   8.751 -14.096  1.00  0.00    -0.000 C 
BRANCH  25  26
ATOM     26  C   UNL     1       3.828   7.953 -12.799  1.00  0.00    -0.000 C 
BRANCH  26  27
ATOM     27  C   UNL     1       2.509   8.302 -12.085  1.00  0.00    -0.000 C 
BRANCH  27  28
ATOM     28  C   UNL     1       2.728   8.673 -10.604  1.00  0.00    -0.000 C 
BRANCH  28  29
ATOM     29  C   UNL     1       4.151   9.172 -10.298  1.00  0.00    -0.003 C 
ATOM     30  C   UNL     1       5.088   8.057  -9.836  1.00  0.00     0.004 C 
ENDBRANCH  28  29
ENDBRANCH  27  28
ENDBRANCH  26  27
ENDBRANCH  25  26
ENDBRANCH  24  25
ENDBRANCH  23  24
ENDBRANCH  22  23
ENDBRANCH  21  22
ENDBRANCH  20  21
ENDBRANCH  19  20
ENDBRANCH  18  19
ENDBRANCH  17  18
ENDBRANCH   1  17
TORSDOF 26
ENDMDL
