MODEL 1
REMARK VINA RESULT:    -3.656      0.000      0.000
REMARK INTER + INTRA:         -11.669
REMARK INTER:                  -7.930
REMARK INTRA:                  -3.739
REMARK UNBOUND:                -3.739
REMARK SMILES CCCCCCCCCCCCCCCCCCCCCC(=O)[O-]
REMARK SMILES IDX 12 1 11 2 10 3 9 4 8 5 7 6 6 7 5 8 4 9 3 10 2 11 1 12 13 13
REMARK SMILES IDX 14 14 15 15 16 16 17 17 18 18 19 19 20 20 21 21 22 22 23 23
REMARK SMILES IDX 24 24
REMARK H PARENT
REMARK Flexibility Score: inf
ROOT
ATOM      1  C   UNL     1       0.254   1.507  -8.803  1.00  0.00     0.000 C 
ENDROOT
BRANCH   1   2
ATOM      2  C   UNL     1       1.008   2.096 -10.010  1.00  0.00     0.000 C 
BRANCH   2   3
ATOM      3  C   UNL     1       0.653   1.398 -11.333  1.00  0.00     0.000 C 
BRANCH   3   4
ATOM      4  C   UNL     1      -0.835   1.016 -11.433  1.00  0.00    -0.000 C 
BRANCH   4   5
ATOM      5  C   UNL     1      -1.783   2.159 -11.840  1.00  0.00    -0.000 C 
BRANCH   5   6
ATOM      6  C   UNL     1      -1.198   3.065 -12.936  1.00  0.00    -0.000 C 
BRANCH   6   7
ATOM      7  C   UNL     1      -1.716   4.510 -12.847  1.00  0.00    -0.000 C 
BRANCH   7   8
ATOM      8  C   UNL     1      -0.580   5.547 -12.782  1.00  0.00    -0.000 C 
BRANCH   8   9
ATOM      9  C   UNL     1       0.542   5.120 -11.810  1.00  0.00    -0.000 C 
BRANCH   9  10
ATOM     10  C   UNL     1       1.667   6.160 -11.672  1.00  0.00    -0.000 C 
BRANCH  10  11
ATOM     11  C   UNL     1       2.992   5.697 -12.293  1.00  0.00    -0.003 C 
ATOM     12  C   UNL     1       2.983   4.193 -12.549  1.00  0.00     0.004 C 
ENDBRANCH  10  11
ENDBRANCH   9  10
ENDBRANCH   8   9
ENDBRANCH   7   8
ENDBRANCH   6   7
ENDBRANCH   5   6
ENDBRANCH   4   5
ENDBRANCH   3   4
ENDBRANCH   2   3
ENDBRANCH   1   2
BRANCH   1  13
ATOM     13  C   UNL     1      -0.389   2.545  -7.861  1.00  0.00     0.000 C 
BRANCH  13  14
ATOM     14  C   UNL     1      -1.236   3.631  -8.555  1.00  0.00     0.000 C 
BRANCH  14  15
ATOM     15  C   UNL     1      -0.663   5.059  -8.477  1.00  0.00     0.000 C 
BRANCH  15  16
ATOM     16  C   UNL     1      -1.756   6.136  -8.383  1.00  0.00     0.000 C 
BRANCH  16  17
ATOM     17  C   UNL     1      -2.211   6.649  -9.762  1.00  0.00     0.000 C 
BRANCH  17  18
ATOM     18  C   UNL     1      -3.722   6.528 -10.046  1.00  0.00     0.000 C 
BRANCH  18  19
ATOM     19  C   UNL     1      -4.409   5.305  -9.412  1.00  0.00     0.000 C 
BRANCH  19  20
ATOM     20  C   UNL     1      -4.491   4.104 -10.370  1.00  0.00     0.006 C 
BRANCH  20  21
ATOM     21  C   UNL     1      -4.517   2.767  -9.618  1.00  0.00     0.053 C 
BRANCH  21  22
ATOM     22  C   UNL     1      -5.918   2.343  -9.298  1.00  0.00     0.041 C 
ATOM     23  O   UNL     1      -6.473   1.432  -9.966  1.00  0.00    -0.550 OA
ATOM     24  O   UNL     1      -6.596   2.928  -8.236  1.00  0.00    -0.550 OA
ENDBRANCH  21  22
ENDBRANCH  20  21
ENDBRANCH  19  20
ENDBRANCH  18  19
ENDBRANCH  17  18
ENDBRANCH  16  17
ENDBRANCH  15  16
ENDBRANCH  14  15
ENDBRANCH  13  14
ENDBRANCH   1  13
TORSDOF 20
ENDMDL
MODEL 2
REMARK VINA RESULT:    -3.586      1.177      2.830
REMARK INTER + INTRA:         -11.518
REMARK INTER:                  -7.446
REMARK INTRA:                  -4.072
REMARK UNBOUND:                -3.739
REMARK SMILES CCCCCCCCCCCCCCCCCCCCCC(=O)[O-]
REMARK SMILES IDX 12 1 11 2 10 3 9 4 8 5 7 6 6 7 5 8 4 9 3 10 2 11 1 12 13 13
REMARK SMILES IDX 14 14 15 15 16 16 17 17 18 18 19 19 20 20 21 21 22 22 23 23
REMARK SMILES IDX 24 24
REMARK H PARENT
REMARK Flexibility Score: inf
ROOT
ATOM      1  C   UNL     1      -0.128   2.070  -8.523  1.00  0.00     0.000 C 
ENDROOT
BRANCH   1   2
ATOM      2  C   UNL     1       0.147   1.407  -9.886  1.00  0.00     0.000 C 
BRANCH   2   3
ATOM      3  C   UNL     1       1.421   1.938 -10.562  1.00  0.00     0.000 C 
BRANCH   3   4
ATOM      4  C   UNL     1       1.332   1.938 -12.098  1.00  0.00    -0.000 C 
BRANCH   4   5
ATOM      5  C   UNL     1       1.564   3.302 -12.774  1.00  0.00    -0.000 C 
BRANCH   5   6
ATOM      6  C   UNL     1       0.626   4.401 -12.247  1.00  0.00    -0.000 C 
BRANCH   6   7
ATOM      7  C   UNL     1      -0.307   4.954 -13.336  1.00  0.00    -0.000 C 
BRANCH   7   8
ATOM      8  C   UNL     1      -1.587   4.115 -13.508  1.00  0.00    -0.000 C 
BRANCH   8   9
ATOM      9  C   UNL     1      -2.032   3.459 -12.182  1.00  0.00    -0.000 C 
BRANCH   9  10
ATOM     10  C   UNL     1      -2.826   2.155 -12.376  1.00  0.00    -0.000 C 
BRANCH  10  11
ATOM     11  C   UNL     1      -2.090   1.128 -13.247  1.00  0.00    -0.003 C 
ATOM     12  C   UNL     1      -1.950  -0.207 -12.522  1.00  0.00     0.004 C 
ENDBRANCH  10  11
ENDBRANCH   9  10
ENDBRANCH   8   9
ENDBRANCH   7   8
ENDBRANCH   6   7
ENDBRANCH   5   6
ENDBRANCH   4   5
ENDBRANCH   3   4
ENDBRANCH   2   3
ENDBRANCH   1   2
BRANCH   1  13
ATOM     13  C   UNL     1      -1.176   3.201  -8.545  1.00  0.00     0.000 C 
BRANCH  13  14
ATOM     14  C   UNL     1      -0.651   4.580  -8.994  1.00  0.00     0.000 C 
BRANCH  14  15
ATOM     15  C   UNL     1      -1.080   5.764  -8.106  1.00  0.00     0.000 C 
BRANCH  15  16
ATOM     16  C   UNL     1      -2.129   6.665  -8.778  1.00  0.00     0.000 C 
BRANCH  16  17
ATOM     17  C   UNL     1      -2.040   6.643 -10.315  1.00  0.00     0.000 C 
BRANCH  17  18
ATOM     18  C   UNL     1      -3.390   6.538 -11.054  1.00  0.00     0.000 C 
BRANCH  18  19
ATOM     19  C   UNL     1      -4.589   6.154 -10.169  1.00  0.00     0.000 C 
BRANCH  19  20
ATOM     20  C   UNL     1      -5.008   4.684 -10.338  1.00  0.00     0.006 C 
BRANCH  20  21
ATOM     21  C   UNL     1      -4.719   3.853  -9.080  1.00  0.00     0.053 C 
BRANCH  21  22
ATOM     22  C   UNL     1      -5.802   2.851  -8.820  1.00  0.00     0.041 C 
ATOM     23  O   UNL     1      -6.659   3.063  -7.923  1.00  0.00    -0.550 OA
ATOM     24  O   UNL     1      -5.887   1.702  -9.596  1.00  0.00    -0.550 OA
ENDBRANCH  21  22
ENDBRANCH  20  21
ENDBRANCH  19  20
ENDBRANCH  18  19
ENDBRANCH  17  18
ENDBRANCH  16  17
ENDBRANCH  15  16
ENDBRANCH  14  15
ENDBRANCH  13  14
ENDBRANCH   1  13
TORSDOF 20
ENDMDL
MODEL 3
REMARK VINA RESULT:    -3.585      2.896      5.079
REMARK INTER + INTRA:         -11.516
REMARK INTER:                  -7.507
REMARK INTRA:                  -4.009
REMARK UNBOUND:                -3.739
REMARK SMILES CCCCCCCCCCCCCCCCCCCCCC(=O)[O-]
REMARK SMILES IDX 12 1 11 2 10 3 9 4 8 5 7 6 6 7 5 8 4 9 3 10 2 11 1 12 13 13
REMARK SMILES IDX 14 14 15 15 16 16 17 17 18 18 19 19 20 20 21 21 22 22 23 23
REMARK SMILES IDX 24 24
REMARK H PARENT
REMARK Flexibility Score: inf
ROOT
ATOM      1  C   UNL     1      -4.524   2.993  -9.229  1.00  0.00     0.000 C 
ENDROOT
BRANCH   1   2
ATOM      2  C   UNL     1      -5.997   2.639  -8.948  1.00  0.00     0.000 C 
BRANCH   2   3
ATOM      3  C   UNL     1      -6.726   2.095 -10.187  1.00  0.00     0.000 C 
BRANCH   3   4
ATOM      4  C   UNL     1      -5.768   1.522 -11.246  1.00  0.00    -0.000 C 
BRANCH   4   5
ATOM      5  C   UNL     1      -6.349   1.402 -12.667  1.00  0.00    -0.000 C 
BRANCH   5   6
ATOM      6  C   UNL     1      -5.638   2.307 -13.686  1.00  0.00    -0.000 C 
BRANCH   6   7
ATOM      7  C   UNL     1      -5.428   3.737 -13.161  1.00  0.00    -0.000 C 
BRANCH   7   8
ATOM      8  C   UNL     1      -3.970   4.213 -13.293  1.00  0.00    -0.000 C 
BRANCH   8   9
ATOM      9  C   UNL     1      -2.968   3.040 -13.211  1.00  0.00    -0.000 C 
BRANCH   9  10
ATOM     10  C   UNL     1      -2.168   3.003 -11.896  1.00  0.00    -0.000 C 
BRANCH  10  11
ATOM     11  C   UNL     1      -1.601   1.613 -11.578  1.00  0.00    -0.003 C 
ATOM     12  C   UNL     1      -2.423   0.517 -12.249  1.00  0.00     0.004 C 
ENDBRANCH  10  11
ENDBRANCH   9  10
ENDBRANCH   8   9
ENDBRANCH   7   8
ENDBRANCH   6   7
ENDBRANCH   5   6
ENDBRANCH   4   5
ENDBRANCH   3   4
ENDBRANCH   2   3
ENDBRANCH   1   2
BRANCH   1  13
ATOM     13  C   UNL     1      -4.143   4.465  -8.972  1.00  0.00     0.000 C 
BRANCH  13  14
ATOM     14  C   UNL     1      -4.717   5.481  -9.980  1.00  0.00     0.000 C 
BRANCH  14  15
ATOM     15  C   UNL     1      -3.896   6.774 -10.146  1.00  0.00     0.000 C 
BRANCH  15  16
ATOM     16  C   UNL     1      -2.507   6.524 -10.758  1.00  0.00     0.000 C 
BRANCH  16  17
ATOM     17  C   UNL     1      -1.383   7.271 -10.016  1.00  0.00     0.000 C 
BRANCH  17  18
ATOM     18  C   UNL     1      -0.248   6.381  -9.471  1.00  0.00     0.000 C 
BRANCH  18  19
ATOM     19  C   UNL     1      -0.679   5.349  -8.413  1.00  0.00     0.000 C 
BRANCH  19  20
ATOM     20  C   UNL     1      -0.442   3.898  -8.864  1.00  0.00     0.006 C 
BRANCH  20  21
ATOM     21  C   UNL     1      -0.890   2.883  -7.803  1.00  0.00     0.053 C 
BRANCH  21  22
ATOM     22  C   UNL     1       0.050   1.720  -7.722  1.00  0.00     0.041 C 
ATOM     23  O   UNL     1       0.629   1.299  -8.758  1.00  0.00    -0.550 OA
ATOM     24  O   UNL     1       0.315   1.125  -6.496  1.00  0.00    -0.550 OA
ENDBRANCH  21  22
ENDBRANCH  20  21
ENDBRANCH  19  20
ENDBRANCH  18  19
ENDBRANCH  17  18
ENDBRANCH  16  17
ENDBRANCH  15  16
ENDBRANCH  14  15
ENDBRANCH  13  14
ENDBRANCH   1  13
TORSDOF 20
ENDMDL
MODEL 4
REMARK VINA RESULT:    -3.578      1.289      3.923
REMARK INTER + INTRA:         -11.500
REMARK INTER:                  -7.388
REMARK INTRA:                  -4.112
REMARK UNBOUND:                -3.739
REMARK SMILES CCCCCCCCCCCCCCCCCCCCCC(=O)[O-]
REMARK SMILES IDX 12 1 11 2 10 3 9 4 8 5 7 6 6 7 5 8 4 9 3 10 2 11 1 12 13 13
REMARK SMILES IDX 14 14 15 15 16 16 17 17 18 18 19 19 20 20 21 21 22 22 23 23
REMARK SMILES IDX 24 24
REMARK H PARENT
REMARK Flexibility Score: inf
ROOT
ATOM      1  C   UNL     1      -1.487   3.691  -8.529  1.00  0.00     0.000 C 
ENDROOT
BRANCH   1   2
ATOM      2  C   UNL     1      -1.169   5.174  -8.258  1.00  0.00     0.000 C 
BRANCH   2   3
ATOM      3  C   UNL     1      -2.231   6.126  -8.832  1.00  0.00     0.000 C 
BRANCH   3   4
ATOM      4  C   UNL     1      -3.568   5.425  -9.134  1.00  0.00    -0.000 C 
BRANCH   4   5
ATOM      5  C   UNL     1      -4.451   6.115 -10.189  1.00  0.00    -0.000 C 
BRANCH   5   6
ATOM      6  C   UNL     1      -3.745   7.286 -10.893  1.00  0.00    -0.000 C 
BRANCH   6   7
ATOM      7  C   UNL     1      -3.880   7.224 -12.423  1.00  0.00    -0.000 C 
BRANCH   7   8
ATOM      8  C   UNL     1      -3.216   5.976 -13.031  1.00  0.00    -0.000 C 
BRANCH   8   9
ATOM      9  C   UNL     1      -1.675   6.074 -13.018  1.00  0.00    -0.000 C 
BRANCH   9  10
ATOM     10  C   UNL     1      -0.997   5.030 -12.112  1.00  0.00    -0.000 C 
BRANCH  10  11
ATOM     11  C   UNL     1       0.400   5.457 -11.645  1.00  0.00    -0.003 C 
ATOM     12  C   UNL     1       0.428   6.938 -11.276  1.00  0.00     0.004 C 
ENDBRANCH  10  11
ENDBRANCH   9  10
ENDBRANCH   8   9
ENDBRANCH   7   8
ENDBRANCH   6   7
ENDBRANCH   5   6
ENDBRANCH   4   5
ENDBRANCH   3   4
ENDBRANCH   2   3
ENDBRANCH   1   2
BRANCH   1  13
ATOM     13  C   UNL     1      -0.548   2.682  -7.838  1.00  0.00     0.000 C 
BRANCH  13  14
ATOM     14  C   UNL     1       0.160   1.687  -8.780  1.00  0.00     0.000 C 
BRANCH  14  15
ATOM     15  C   UNL     1       0.210   2.110 -10.261  1.00  0.00     0.000 C 
BRANCH  15  16
ATOM     16  C   UNL     1       0.080   0.920 -11.226  1.00  0.00     0.000 C 
BRANCH  16  17
ATOM     17  C   UNL     1      -0.835   1.221 -12.427  1.00  0.00     0.000 C 
BRANCH  17  18
ATOM     18  C   UNL     1      -2.342   1.010 -12.179  1.00  0.00     0.000 C 
BRANCH  18  19
ATOM     19  C   UNL     1      -3.257   2.113 -12.741  1.00  0.00     0.000 C 
BRANCH  19  20
ATOM     20  C   UNL     1      -4.092   2.808 -11.651  1.00  0.00     0.006 C 
BRANCH  20  21
ATOM     21  C   UNL     1      -4.123   2.001 -10.346  1.00  0.00     0.053 C 
BRANCH  21  22
ATOM     22  C   UNL     1      -5.527   1.735  -9.896  1.00  0.00     0.041 C 
ATOM     23  O   UNL     1      -6.386   1.312 -10.713  1.00  0.00    -0.550 OA
ATOM     24  O   UNL     1      -5.877   1.920  -8.565  1.00  0.00    -0.550 OA
ENDBRANCH  21  22
ENDBRANCH  20  21
ENDBRANCH  19  20
ENDBRANCH  18  19
ENDBRANCH  17  18
ENDBRANCH  16  17
ENDBRANCH  15  16
ENDBRANCH  14  15
ENDBRANCH  13  14
ENDBRANCH   1  13
TORSDOF 20
ENDMDL
MODEL 5
REMARK VINA RESULT:    -3.548      1.157      2.252
REMARK INTER + INTRA:         -11.435
REMARK INTER:                  -7.628
REMARK INTRA:                  -3.807
REMARK UNBOUND:                -3.739
REMARK SMILES CCCCCCCCCCCCCCCCCCCCCC(=O)[O-]
REMARK SMILES IDX 12 1 11 2 10 3 9 4 8 5 7 6 6 7 5 8 4 9 3 10 2 11 1 12 13 13
REMARK SMILES IDX 14 14 15 15 16 16 17 17 18 18 19 19 20 20 21 21 22 22 23 23
REMARK SMILES IDX 24 24
REMARK H PARENT
REMARK Flexibility Score: inf
ROOT
ATOM      1  C   UNL     1      -1.289   3.413  -8.458  1.00  0.00     0.000 C 
ENDROOT
BRANCH   1   2
ATOM      2  C   UNL     1      -0.278   2.465  -7.786  1.00  0.00     0.000 C 
BRANCH   2   3
ATOM      3  C   UNL     1       0.248   1.381  -8.740  1.00  0.00     0.000 C 
BRANCH   3   4
ATOM      4  C   UNL     1       0.930   1.961  -9.993  1.00  0.00    -0.000 C 
BRANCH   4   5
ATOM      5  C   UNL     1       0.468   1.362 -11.333  1.00  0.00    -0.000 C 
BRANCH   5   6
ATOM      6  C   UNL     1      -0.916   1.868 -11.773  1.00  0.00    -0.000 C 
BRANCH   6   7
ATOM      7  C   UNL     1      -0.829   3.042 -12.762  1.00  0.00    -0.000 C 
BRANCH   7   8
ATOM      8  C   UNL     1      -1.005   4.411 -12.081  1.00  0.00    -0.000 C 
BRANCH   8   9
ATOM      9  C   UNL     1       0.334   5.166 -11.940  1.00  0.00    -0.000 C 
BRANCH   9  10
ATOM     10  C   UNL     1       0.320   6.570 -12.570  1.00  0.00    -0.000 C 
BRANCH  10  11
ATOM     11  C   UNL     1       0.900   7.649 -11.646  1.00  0.00    -0.003 C 
ATOM     12  C   UNL     1       1.615   7.023 -10.452  1.00  0.00     0.004 C 
ENDBRANCH  10  11
ENDBRANCH   9  10
ENDBRANCH   8   9
ENDBRANCH   7   8
ENDBRANCH   6   7
ENDBRANCH   5   6
ENDBRANCH   4   5
ENDBRANCH   3   4
ENDBRANCH   2   3
ENDBRANCH   1   2
BRANCH   1  13
ATOM     13  C   UNL     1      -0.893   4.903  -8.453  1.00  0.00     0.000 C 
BRANCH  13  14
ATOM     14  C   UNL     1      -2.070   5.899  -8.415  1.00  0.00     0.000 C 
BRANCH  14  15
ATOM     15  C   UNL     1      -1.908   7.139  -9.315  1.00  0.00     0.000 C 
BRANCH  15  16
ATOM     16  C   UNL     1      -2.921   7.173 -10.472  1.00  0.00     0.000 C 
BRANCH  16  17
ATOM     17  C   UNL     1      -4.225   6.422 -10.147  1.00  0.00     0.000 C 
BRANCH  17  18
ATOM     18  C   UNL     1      -4.593   5.285 -11.122  1.00  0.00     0.000 C 
BRANCH  18  19
ATOM     19  C   UNL     1      -4.207   3.872 -10.650  1.00  0.00     0.000 C 
BRANCH  19  20
ATOM     20  C   UNL     1      -4.856   3.493  -9.308  1.00  0.00     0.006 C 
BRANCH  20  21
ATOM     21  C   UNL     1      -5.494   2.098  -9.349  1.00  0.00     0.053 C 
BRANCH  21  22
ATOM     22  C   UNL     1      -6.790   2.106 -10.101  1.00  0.00     0.041 C 
ATOM     23  O   UNL     1      -7.578   3.082  -9.996  1.00  0.00    -0.550 OA
ATOM     24  O   UNL     1      -7.109   1.054 -10.949  1.00  0.00    -0.550 OA
ENDBRANCH  21  22
ENDBRANCH  20  21
ENDBRANCH  19  20
ENDBRANCH  18  19
ENDBRANCH  17  18
ENDBRANCH  16  17
ENDBRANCH  15  16
ENDBRANCH  14  15
ENDBRANCH  13  14
ENDBRANCH   1  13
TORSDOF 20
ENDMDL
MODEL 6
REMARK VINA RESULT:    -3.541      1.318      3.488
REMARK INTER + INTRA:         -11.420
REMARK INTER:                  -7.633
REMARK INTRA:                  -3.787
REMARK UNBOUND:                -3.739
REMARK SMILES CCCCCCCCCCCCCCCCCCCCCC(=O)[O-]
REMARK SMILES IDX 12 1 11 2 10 3 9 4 8 5 7 6 6 7 5 8 4 9 3 10 2 11 1 12 13 13
REMARK SMILES IDX 14 14 15 15 16 16 17 17 18 18 19 19 20 20 21 21 22 22 23 23
REMARK SMILES IDX 24 24
REMARK H PARENT
REMARK Flexibility Score: inf
ROOT
ATOM      1  C   UNL     1      -2.384   5.549  -8.562  1.00  0.00     0.000 C 
ENDROOT
BRANCH   1   2
ATOM      2  C   UNL     1      -1.118   4.681  -8.442  1.00  0.00     0.000 C 
BRANCH   2   3
ATOM      3  C   UNL     1      -1.433   3.193  -8.222  1.00  0.00     0.000 C 
BRANCH   3   4
ATOM      4  C   UNL     1      -0.177   2.345  -7.951  1.00  0.00    -0.000 C 
BRANCH   4   5
ATOM      5  C   UNL     1       0.280   1.450  -9.116  1.00  0.00    -0.000 C 
BRANCH   5   6
ATOM      6  C   UNL     1      -0.580   1.622 -10.380  1.00  0.00    -0.000 C 
BRANCH   6   7
ATOM      7  C   UNL     1       0.176   2.327 -11.518  1.00  0.00    -0.000 C 
BRANCH   7   8
ATOM      8  C   UNL     1      -0.734   3.232 -12.367  1.00  0.00    -0.000 C 
BRANCH   8   9
ATOM      9  C   UNL     1      -0.478   4.731 -12.097  1.00  0.00    -0.000 C 
BRANCH   9  10
ATOM     10  C   UNL     1       0.982   5.051 -11.733  1.00  0.00    -0.000 C 
BRANCH  10  11
ATOM     11  C   UNL     1       1.120   6.289 -10.838  1.00  0.00    -0.003 C 
ATOM     12  C   UNL     1       0.719   7.556 -11.588  1.00  0.00     0.004 C 
ENDBRANCH  10  11
ENDBRANCH   9  10
ENDBRANCH   8   9
ENDBRANCH   7   8
ENDBRANCH   6   7
ENDBRANCH   5   6
ENDBRANCH   4   5
ENDBRANCH   3   4
ENDBRANCH   2   3
ENDBRANCH   1   2
BRANCH   1  13
ATOM     13  C   UNL     1      -2.277   6.734  -9.543  1.00  0.00     0.000 C 
BRANCH  13  14
ATOM     14  C   UNL     1      -3.537   7.007 -10.390  1.00  0.00     0.000 C 
BRANCH  14  15
ATOM     15  C   UNL     1      -4.571   5.865 -10.410  1.00  0.00     0.000 C 
BRANCH  15  16
ATOM     16  C   UNL     1      -4.861   5.348 -11.829  1.00  0.00     0.000 C 
BRANCH  16  17
ATOM     17  C   UNL     1      -4.421   3.887 -12.035  1.00  0.00     0.000 C 
BRANCH  17  18
ATOM     18  C   UNL     1      -3.960   3.150 -10.761  1.00  0.00     0.000 C 
BRANCH  18  19
ATOM     19  C   UNL     1      -4.768   1.887 -10.410  1.00  0.00     0.000 C 
BRANCH  19  20
ATOM     20  C   UNL     1      -5.586   2.043  -9.116  1.00  0.00     0.006 C 
BRANCH  20  21
ATOM     21  C   UNL     1      -6.794   2.970  -9.305  1.00  0.00     0.053 C 
BRANCH  21  22
ATOM     22  C   UNL     1      -7.574   2.615 -10.534  1.00  0.00     0.041 C 
ATOM     23  O   UNL     1      -7.961   1.431 -10.720  1.00  0.00    -0.550 OA
ATOM     24  O   UNL     1      -7.906   3.600 -11.456  1.00  0.00    -0.550 OA
ENDBRANCH  21  22
ENDBRANCH  20  21
ENDBRANCH  19  20
ENDBRANCH  18  19
ENDBRANCH  17  18
ENDBRANCH  16  17
ENDBRANCH  15  16
ENDBRANCH  14  15
ENDBRANCH  13  14
ENDBRANCH   1  13
TORSDOF 20
ENDMDL
MODEL 7
REMARK VINA RESULT:    -3.541      1.735      4.221
REMARK INTER + INTRA:         -11.419
REMARK INTER:                  -7.212
REMARK INTRA:                  -4.207
REMARK UNBOUND:                -3.739
REMARK SMILES CCCCCCCCCCCCCCCCCCCCCC(=O)[O-]
REMARK SMILES IDX 12 1 11 2 10 3 9 4 8 5 7 6 6 7 5 8 4 9 3 10 2 11 1 12 13 13
REMARK SMILES IDX 14 14 15 15 16 16 17 17 18 18 19 19 20 20 21 21 22 22 23 23
REMARK SMILES IDX 24 24
REMARK H PARENT
REMARK Flexibility Score: inf
ROOT
ATOM      1  C   UNL     1      -2.915   4.663  -8.763  1.00  0.00     0.000 C 
ENDROOT
BRANCH   1   2
ATOM      2  C   UNL     1      -1.948   5.825  -8.466  1.00  0.00     0.000 C 
BRANCH   2   3
ATOM      3  C   UNL     1      -0.471   5.412  -8.568  1.00  0.00     0.000 C 
BRANCH   3   4
ATOM      4  C   UNL     1       0.317   6.246  -9.595  1.00  0.00    -0.000 C 
BRANCH   4   5
ATOM      5  C   UNL     1       0.422   5.631 -11.003  1.00  0.00    -0.000 C 
BRANCH   5   6
ATOM      6  C   UNL     1      -0.619   6.196 -11.984  1.00  0.00    -0.000 C 
BRANCH   6   7
ATOM      7  C   UNL     1      -1.405   5.092 -12.712  1.00  0.00    -0.000 C 
BRANCH   7   8
ATOM      8  C   UNL     1      -1.651   3.855 -11.829  1.00  0.00    -0.000 C 
BRANCH   8   9
ATOM      9  C   UNL     1      -1.213   2.548 -12.526  1.00  0.00    -0.000 C 
BRANCH   9  10
ATOM     10  C   UNL     1      -0.842   1.421 -11.546  1.00  0.00    -0.000 C 
BRANCH  10  11
ATOM     11  C   UNL     1      -0.860   1.871 -10.079  1.00  0.00    -0.003 C 
ATOM     12  C   UNL     1       0.529   1.767  -9.455  1.00  0.00     0.004 C 
ENDBRANCH  10  11
ENDBRANCH   9  10
ENDBRANCH   8   9
ENDBRANCH   7   8
ENDBRANCH   6   7
ENDBRANCH   5   6
ENDBRANCH   4   5
ENDBRANCH   3   4
ENDBRANCH   2   3
ENDBRANCH   1   2
BRANCH   1  13
ATOM     13  C   UNL     1      -4.271   5.077  -9.368  1.00  0.00     0.000 C 
BRANCH  13  14
ATOM     14  C   UNL     1      -4.228   6.294 -10.315  1.00  0.00     0.000 C 
BRANCH  14  15
ATOM     15  C   UNL     1      -5.458   6.456 -11.229  1.00  0.00     0.000 C 
BRANCH  15  16
ATOM     16  C   UNL     1      -6.380   5.226 -11.211  1.00  0.00     0.000 C 
BRANCH  16  17
ATOM     17  C   UNL     1      -7.016   4.934 -12.583  1.00  0.00     0.000 C 
BRANCH  17  18
ATOM     18  C   UNL     1      -6.280   3.884 -13.442  1.00  0.00     0.000 C 
BRANCH  18  19
ATOM     19  C   UNL     1      -4.946   3.385 -12.860  1.00  0.00     0.000 C 
BRANCH  19  20
ATOM     20  C   UNL     1      -5.002   1.913 -12.417  1.00  0.00     0.006 C 
BRANCH  20  21
ATOM     21  C   UNL     1      -4.634   1.740 -10.937  1.00  0.00     0.053 C 
BRANCH  21  22
ATOM     22  C   UNL     1      -5.853   1.706 -10.067  1.00  0.00     0.041 C 
ATOM     23  O   UNL     1      -6.997   1.599 -10.581  1.00  0.00    -0.550 OA
ATOM     24  O   UNL     1      -5.721   1.753  -8.685  1.00  0.00    -0.550 OA
ENDBRANCH  21  22
ENDBRANCH  20  21
ENDBRANCH  19  20
ENDBRANCH  18  19
ENDBRANCH  17  18
ENDBRANCH  16  17
ENDBRANCH  15  16
ENDBRANCH  14  15
ENDBRANCH  13  14
ENDBRANCH   1  13
TORSDOF 20
ENDMDL
MODEL 8
REMARK VINA RESULT:    -3.509      1.467      3.808
REMARK INTER + INTRA:         -11.352
REMARK INTER:                  -7.323
REMARK INTRA:                  -4.029
REMARK UNBOUND:                -3.739
REMARK SMILES CCCCCCCCCCCCCCCCCCCCCC(=O)[O-]
REMARK SMILES IDX 12 1 11 2 10 3 9 4 8 5 7 6 6 7 5 8 4 9 3 10 2 11 1 12 13 13
REMARK SMILES IDX 14 14 15 15 16 16 17 17 18 18 19 19 20 20 21 21 22 22 23 23
REMARK SMILES IDX 24 24
REMARK H PARENT
REMARK Flexibility Score: inf
ROOT
ATOM      1  C   UNL     1       0.191   1.743  -8.545  1.00  0.00     0.000 C 
ENDROOT
BRANCH   1   2
ATOM      2  C   UNL     1      -0.824   2.741  -7.959  1.00  0.00     0.000 C 
BRANCH   2   3
ATOM      3  C   UNL     1      -0.774   4.116  -8.645  1.00  0.00     0.000 C 
BRANCH   3   4
ATOM      4  C   UNL     1      -2.105   4.884  -8.551  1.00  0.00    -0.000 C 
BRANCH   4   5
ATOM      5  C   UNL     1      -1.998   6.412  -8.712  1.00  0.00    -0.000 C 
BRANCH   5   6
ATOM      6  C   UNL     1      -2.922   6.967  -9.809  1.00  0.00    -0.000 C 
BRANCH   6   7
ATOM      7  C   UNL     1      -3.715   5.864 -10.528  1.00  0.00    -0.000 C 
BRANCH   7   8
ATOM      8  C   UNL     1      -3.872   6.128 -12.036  1.00  0.00    -0.000 C 
BRANCH   8   9
ATOM      9  C   UNL     1      -2.945   5.229 -12.882  1.00  0.00    -0.000 C 
BRANCH   9  10
ATOM     10  C   UNL     1      -1.530   5.806 -13.072  1.00  0.00    -0.000 C 
BRANCH  10  11
ATOM     11  C   UNL     1      -0.470   5.083 -12.232  1.00  0.00    -0.003 C 
ATOM     12  C   UNL     1       0.449   6.079 -11.531  1.00  0.00     0.004 C 
ENDBRANCH  10  11
ENDBRANCH   9  10
ENDBRANCH   8   9
ENDBRANCH   7   8
ENDBRANCH   6   7
ENDBRANCH   5   6
ENDBRANCH   4   5
ENDBRANCH   3   4
ENDBRANCH   2   3
ENDBRANCH   1   2
BRANCH   1  13
ATOM     13  C   UNL     1       0.649   2.044  -9.987  1.00  0.00     0.000 C 
BRANCH  13  14
ATOM     14  C   UNL     1       0.319   0.953 -11.026  1.00  0.00     0.000 C 
BRANCH  14  15
ATOM     15  C   UNL     1      -0.635   1.391 -12.154  1.00  0.00     0.000 C 
BRANCH  15  16
ATOM     16  C   UNL     1      -2.114   1.139 -11.815  1.00  0.00     0.000 C 
BRANCH  16  17
ATOM     17  C   UNL     1      -2.777   2.331 -11.101  1.00  0.00     0.000 C 
BRANCH  17  18
ATOM     18  C   UNL     1      -4.287   2.179 -10.825  1.00  0.00     0.000 C 
BRANCH  18  19
ATOM     19  C   UNL     1      -4.686   2.231  -9.339  1.00  0.00     0.000 C 
BRANCH  19  20
ATOM     20  C   UNL     1      -5.845   3.205  -9.067  1.00  0.00     0.006 C 
BRANCH  20  21
ATOM     21  C   UNL     1      -6.622   3.550 -10.345  1.00  0.00     0.053 C 
BRANCH  21  22
ATOM     22  C   UNL     1      -7.843   2.695 -10.495  1.00  0.00     0.041 C 
ATOM     23  O   UNL     1      -8.990   3.208 -10.418  1.00  0.00    -0.550 OA
ATOM     24  O   UNL     1      -7.712   1.337 -10.759  1.00  0.00    -0.550 OA
ENDBRANCH  21  22
ENDBRANCH  20  21
ENDBRANCH  19  20
ENDBRANCH  18  19
ENDBRANCH  17  18
ENDBRANCH  16  17
ENDBRANCH  15  16
ENDBRANCH  14  15
ENDBRANCH  13  14
ENDBRANCH   1  13
TORSDOF 20
ENDMDL
MODEL 9
REMARK VINA RESULT:    -3.495      1.433      2.851
REMARK INTER + INTRA:         -11.320
REMARK INTER:                  -7.407
REMARK INTRA:                  -3.913
REMARK UNBOUND:                -3.739
REMARK SMILES CCCCCCCCCCCCCCCCCCCCCC(=O)[O-]
REMARK SMILES IDX 12 1 11 2 10 3 9 4 8 5 7 6 6 7 5 8 4 9 3 10 2 11 1 12 13 13
REMARK SMILES IDX 14 14 15 15 16 16 17 17 18 18 19 19 20 20 21 21 22 22 23 23
REMARK SMILES IDX 24 24
REMARK H PARENT
REMARK Flexibility Score: inf
ROOT
ATOM      1  C   UNL     1      -0.716   4.545  -8.898  1.00  0.00     0.000 C 
ENDROOT
BRANCH   1   2
ATOM      2  C   UNL     1      -1.529   3.302  -8.491  1.00  0.00     0.000 C 
BRANCH   2   3
ATOM      3  C   UNL     1      -2.877   3.204  -9.223  1.00  0.00     0.000 C 
BRANCH   3   4
ATOM      4  C   UNL     1      -2.760   2.558 -10.616  1.00  0.00    -0.000 C 
BRANCH   4   5
ATOM      5  C   UNL     1      -2.704   3.542 -11.798  1.00  0.00    -0.000 C 
BRANCH   5   6
ATOM      6  C   UNL     1      -1.831   3.038 -12.959  1.00  0.00    -0.000 C 
BRANCH   6   7
ATOM      7  C   UNL     1      -0.733   4.041 -13.351  1.00  0.00    -0.000 C 
BRANCH   7   8
ATOM      8  C   UNL     1       0.346   4.197 -12.264  1.00  0.00    -0.000 C 
BRANCH   8   9
ATOM      9  C   UNL     1       1.316   2.996 -12.232  1.00  0.00    -0.000 C 
BRANCH   9  10
ATOM     10  C   UNL     1       1.405   2.311 -10.857  1.00  0.00    -0.000 C 
BRANCH  10  11
ATOM     11  C   UNL     1       0.503   1.074 -10.743  1.00  0.00    -0.003 C 
ATOM     12  C   UNL     1       0.401   0.344 -12.079  1.00  0.00     0.004 C 
ENDBRANCH  10  11
ENDBRANCH   9  10
ENDBRANCH   8   9
ENDBRANCH   7   8
ENDBRANCH   6   7
ENDBRANCH   5   6
ENDBRANCH   4   5
ENDBRANCH   3   4
ENDBRANCH   2   3
ENDBRANCH   1   2
BRANCH   1  13
ATOM     13  C   UNL     1      -1.022   5.822  -8.089  1.00  0.00     0.000 C 
BRANCH  13  14
ATOM     14  C   UNL     1      -1.831   6.901  -8.837  1.00  0.00     0.000 C 
BRANCH  14  15
ATOM     15  C   UNL     1      -1.550   6.998 -10.349  1.00  0.00     0.000 C 
BRANCH  15  16
ATOM     16  C   UNL     1      -2.834   6.987 -11.196  1.00  0.00     0.000 C 
BRANCH  16  17
ATOM     17  C   UNL     1      -4.095   6.681 -10.368  1.00  0.00     0.000 C 
BRANCH  17  18
ATOM     18  C   UNL     1      -5.426   7.147 -10.993  1.00  0.00     0.000 C 
BRANCH  18  19
ATOM     19  C   UNL     1      -6.445   6.026 -11.267  1.00  0.00     0.000 C 
BRANCH  19  20
ATOM     20  C   UNL     1      -5.879   4.623 -10.986  1.00  0.00     0.006 C 
BRANCH  20  21
ATOM     21  C   UNL     1      -6.968   3.640 -10.536  1.00  0.00     0.053 C 
BRANCH  21  22
ATOM     22  C   UNL     1      -6.518   2.816  -9.369  1.00  0.00     0.041 C 
ATOM     23  O   UNL     1      -6.079   1.650  -9.549  1.00  0.00    -0.550 OA
ATOM     24  O   UNL     1      -6.547   3.351  -8.088  1.00  0.00    -0.550 OA
ENDBRANCH  21  22
ENDBRANCH  20  21
ENDBRANCH  19  20
ENDBRANCH  18  19
ENDBRANCH  17  18
ENDBRANCH  16  17
ENDBRANCH  15  16
ENDBRANCH  14  15
ENDBRANCH  13  14
ENDBRANCH   1  13
TORSDOF 20
ENDMDL
