MODEL 1
REMARK VINA RESULT:    -6.646      0.000      0.000
REMARK INTER + INTRA:          -8.128
REMARK INTER:                  -7.811
REMARK INTRA:                  -0.317
REMARK UNBOUND:                -0.317
REMARK SMILES O=c1cc(-c2ccc(O)c(O)c2)oc2cc(O)cc(O)c12
REMARK SMILES IDX 4 1 3 2 2 3 1 4 21 5 19 6 18 7 16 8 15 9 14 10 13 11 5 12
REMARK SMILES IDX 6 13 7 14 8 15 12 16 10 17 9 18 11 20 20 22 17 24
REMARK H PARENT 9 19 11 21 20 23 17 25
REMARK Flexibility Score: inf
ROOT
ATOM      1  C   UNL     1       8.859  13.281 -18.642  1.00  0.00     0.138 A 
ATOM      2  C   UNL     1       9.329  12.006 -18.980  1.00  0.00     0.100 A 
ATOM      3  C   UNL     1       9.479  11.039 -17.985  1.00  0.00     0.197 A 
ATOM      4  O   UNL     1       9.963   9.923 -18.309  1.00  0.00    -0.289 OA
ATOM      5  C   UNL     1       9.127  11.345 -16.649  1.00  0.00     0.107 A 
ATOM      6  C   UNL     1       9.201  10.427 -15.559  1.00  0.00     0.134 A 
ATOM      7  C   UNL     1       8.937  10.876 -14.259  1.00  0.00     0.093 A 
ATOM      8  C   UNL     1       8.542  12.195 -14.018  1.00  0.00     0.123 A 
ATOM      9  C   UNL     1       8.416  13.084 -15.082  1.00  0.00     0.094 A 
ATOM     10  C   UNL     1       8.706  12.675 -16.386  1.00  0.00     0.146 A 
ATOM     11  O   UNL     1       8.587  13.559 -17.372  1.00  0.00    -0.456 OA
ENDROOT
BRANCH   1  12
ATOM     12  C   UNL     1       8.679  14.346 -19.661  1.00  0.00     0.021 A 
ATOM     13  C   UNL     1       8.749  14.070 -21.040  1.00  0.00     0.016 A 
ATOM     14  C   UNL     1       8.565  15.089 -21.978  1.00  0.00     0.051 A 
ATOM     15  C   UNL     1       8.300  16.398 -21.557  1.00  0.00     0.157 A 
ATOM     16  C   UNL     1       8.397  15.661 -19.247  1.00  0.00     0.062 A 
ATOM     17  C   UNL     1       8.214  16.684 -20.188  1.00  0.00     0.158 A 
BRANCH  15  18
ATOM     18  O   UNL     1       8.118  17.417 -22.489  1.00  0.00    -0.504 OA
ATOM     19  H   UNL     1       7.441  18.157 -22.340  1.00  0.00     0.293 HD
ENDBRANCH  15  18
BRANCH  17  20
ATOM     20  O   UNL     1       7.945  17.987 -19.772  1.00  0.00    -0.504 OA
ATOM     21  H   UNL     1       8.549  18.760 -20.027  1.00  0.00     0.293 HD
ENDBRANCH  17  20
ENDBRANCH   1  12
BRANCH   6  22
ATOM     22  O   UNL     1       9.502   9.068 -15.700  1.00  0.00    -0.507 OA
ATOM     23  H   UNL     1       9.006   8.318 -15.244  1.00  0.00     0.293 HD
ENDBRANCH   6  22
BRANCH   8  24
ATOM     24  O   UNL     1       8.267  12.629 -12.724  1.00  0.00    -0.508 OA
ATOM     25  H   UNL     1       7.584  13.355 -12.541  1.00  0.00     0.293 HD
ENDBRANCH   8  24
TORSDOF 5
ENDMDL
MODEL 2
REMARK VINA RESULT:    -6.644      1.999      7.248
REMARK INTER + INTRA:          -8.126
REMARK INTER:                  -7.862
REMARK INTRA:                  -0.264
REMARK UNBOUND:                -0.317
REMARK SMILES O=c1cc(-c2ccc(O)c(O)c2)oc2cc(O)cc(O)c12
REMARK SMILES IDX 4 1 3 2 2 3 1 4 21 5 19 6 18 7 16 8 15 9 14 10 13 11 5 12
REMARK SMILES IDX 6 13 7 14 8 15 12 16 10 17 9 18 11 20 20 22 17 24
REMARK H PARENT 9 19 11 21 20 23 17 25
REMARK Flexibility Score: inf
ROOT
ATOM      1  C   UNL     1       9.920  12.249 -16.840  1.00  0.00     0.138 A 
ATOM      2  C   UNL     1      10.740  13.292 -16.392  1.00  0.00     0.100 A 
ATOM      3  C   UNL     1      10.789  14.489 -17.108  1.00  0.00     0.197 A 
ATOM      4  O   UNL     1      11.582  15.384 -16.716  1.00  0.00    -0.289 OA
ATOM      5  C   UNL     1       9.988  14.650 -18.264  1.00  0.00     0.107 A 
ATOM      6  C   UNL     1       9.927  15.839 -19.051  1.00  0.00     0.134 A 
ATOM      7  C   UNL     1       9.187  15.842 -20.240  1.00  0.00     0.093 A 
ATOM      8  C   UNL     1       8.457  14.718 -20.638  1.00  0.00     0.123 A 
ATOM      9  C   UNL     1       8.469  13.571 -19.849  1.00  0.00     0.094 A 
ATOM     10  C   UNL     1       9.225  13.525 -18.675  1.00  0.00     0.146 A 
ATOM     11  O   UNL     1       9.220  12.406 -17.958  1.00  0.00    -0.456 OA
ENDROOT
BRANCH   1  12
ATOM     12  C   UNL     1       9.829  10.956 -16.115  1.00  0.00     0.021 A 
ATOM     13  C   UNL     1      10.746   9.912 -16.345  1.00  0.00     0.016 A 
ATOM     14  C   UNL     1      10.644   8.710 -15.641  1.00  0.00     0.051 A 
ATOM     15  C   UNL     1       9.631   8.532 -14.691  1.00  0.00     0.157 A 
ATOM     16  C   UNL     1       8.824  10.773 -15.149  1.00  0.00     0.062 A 
ATOM     17  C   UNL     1       8.719   9.566 -14.443  1.00  0.00     0.158 A 
BRANCH  15  18
ATOM     18  O   UNL     1       9.524   7.333 -13.988  1.00  0.00    -0.504 OA
ATOM     19  H   UNL     1      10.014   7.186 -13.114  1.00  0.00     0.293 HD
ENDBRANCH  15  18
BRANCH  17  20
ATOM     20  O   UNL     1       7.715   9.387 -13.494  1.00  0.00    -0.504 OA
ATOM     21  H   UNL     1       6.955  10.050 -13.395  1.00  0.00     0.293 HD
ENDBRANCH  17  20
ENDBRANCH   1  12
BRANCH   6  22
ATOM     22  O   UNL     1      10.548  17.041 -18.699  1.00  0.00    -0.507 OA
ATOM     23  H   UNL     1      10.519  17.886 -19.248  1.00  0.00     0.293 HD
ENDBRANCH   6  22
BRANCH   8  24
ATOM     24  O   UNL     1       7.712  14.736 -21.814  1.00  0.00    -0.508 OA
ATOM     25  H   UNL     1       8.150  14.629 -22.722  1.00  0.00     0.293 HD
ENDBRANCH   8  24
TORSDOF 5
ENDMDL
MODEL 3
REMARK VINA RESULT:    -6.621      2.128      3.155
REMARK INTER + INTRA:          -8.099
REMARK INTER:                  -7.836
REMARK INTRA:                  -0.262
REMARK UNBOUND:                -0.317
REMARK SMILES O=c1cc(-c2ccc(O)c(O)c2)oc2cc(O)cc(O)c12
REMARK SMILES IDX 4 1 3 2 2 3 1 4 21 5 19 6 18 7 16 8 15 9 14 10 13 11 5 12
REMARK SMILES IDX 6 13 7 14 8 15 12 16 10 17 9 18 11 20 20 22 17 24
REMARK H PARENT 9 19 11 21 20 23 17 25
REMARK Flexibility Score: inf
ROOT
ATOM      1  C   UNL     1       9.585  11.809 -16.484  1.00  0.00     0.138 A 
ATOM      2  C   UNL     1      10.443  10.714 -16.653  1.00  0.00     0.100 A 
ATOM      3  C   UNL     1      10.260   9.567 -15.879  1.00  0.00     0.197 A 
ATOM      4  O   UNL     1      11.085   8.625 -16.009  1.00  0.00    -0.289 OA
ATOM      5  C   UNL     1       9.192   9.507 -14.953  1.00  0.00     0.107 A 
ATOM      6  C   UNL     1       8.885   8.376 -14.139  1.00  0.00     0.134 A 
ATOM      7  C   UNL     1       7.874   8.474 -13.174  1.00  0.00     0.093 A 
ATOM      8  C   UNL     1       7.120   9.643 -13.037  1.00  0.00     0.123 A 
ATOM      9  C   UNL     1       7.377  10.734 -13.862  1.00  0.00     0.094 A 
ATOM     10  C   UNL     1       8.402  10.679 -14.811  1.00  0.00     0.146 A 
ATOM     11  O   UNL     1       8.624  11.747 -15.569  1.00  0.00    -0.456 OA
ENDROOT
BRANCH   1  12
ATOM     12  C   UNL     1       9.734  13.052 -17.283  1.00  0.00     0.021 A 
ATOM     13  C   UNL     1      10.450  14.163 -16.796  1.00  0.00     0.016 A 
ATOM     14  C   UNL     1      10.584  15.317 -17.572  1.00  0.00     0.051 A 
ATOM     15  C   UNL     1      10.013  15.379 -18.849  1.00  0.00     0.157 A 
ATOM     16  C   UNL     1       9.177  13.119 -18.572  1.00  0.00     0.062 A 
ATOM     17  C   UNL     1       9.309  14.276 -19.351  1.00  0.00     0.158 A 
BRANCH  15  18
ATOM     18  O   UNL     1      10.142  16.528 -19.625  1.00  0.00    -0.504 OA
ATOM     19  H   UNL     1      10.993  17.080 -19.618  1.00  0.00     0.293 HD
ENDBRANCH  15  18
BRANCH  17  20
ATOM     20  O   UNL     1       8.746  14.340 -20.624  1.00  0.00    -0.504 OA
ATOM     21  H   UNL     1       9.134  13.819 -21.402  1.00  0.00     0.293 HD
ENDBRANCH  17  20
ENDBRANCH   1  12
BRANCH   6  22
ATOM     22  O   UNL     1       9.519   7.135 -14.254  1.00  0.00    -0.507 OA
ATOM     23  H   UNL     1      10.405   6.900 -13.835  1.00  0.00     0.293 HD
ENDBRANCH   6  22
BRANCH   8  24
ATOM     24  O   UNL     1       6.107   9.725 -12.084  1.00  0.00    -0.508 OA
ATOM     25  H   UNL     1       6.313   9.818 -11.096  1.00  0.00     0.293 HD
ENDBRANCH   8  24
TORSDOF 5
ENDMDL
MODEL 4
REMARK VINA RESULT:    -6.600      4.069      8.363
REMARK INTER + INTRA:          -8.075
REMARK INTER:                  -7.809
REMARK INTRA:                  -0.265
REMARK UNBOUND:                -0.317
REMARK SMILES O=c1cc(-c2ccc(O)c(O)c2)oc2cc(O)cc(O)c12
REMARK SMILES IDX 4 1 3 2 2 3 1 4 21 5 19 6 18 7 16 8 15 9 14 10 13 11 5 12
REMARK SMILES IDX 6 13 7 14 8 15 12 16 10 17 9 18 11 20 20 22 17 24
REMARK H PARENT 9 19 11 21 20 23 17 25
REMARK Flexibility Score: inf
ROOT
ATOM      1  C   UNL     1       7.406   8.281 -14.934  1.00  0.00     0.138 A 
ATOM      2  C   UNL     1       7.124   8.598 -13.599  1.00  0.00     0.100 A 
ATOM      3  C   UNL     1       7.492   9.846 -13.093  1.00  0.00     0.197 A 
ATOM      4  O   UNL     1       7.282  10.078 -11.874  1.00  0.00    -0.289 OA
ATOM      5  C   UNL     1       8.118  10.791 -13.940  1.00  0.00     0.107 A 
ATOM      6  C   UNL     1       8.501  12.108 -13.544  1.00  0.00     0.134 A 
ATOM      7  C   UNL     1       9.219  12.915 -14.436  1.00  0.00     0.093 A 
ATOM      8  C   UNL     1       9.514  12.474 -15.729  1.00  0.00     0.123 A 
ATOM      9  C   UNL     1       9.098  11.211 -16.142  1.00  0.00     0.094 A 
ATOM     10  C   UNL     1       8.410  10.369 -15.264  1.00  0.00     0.146 A 
ATOM     11  O   UNL     1       8.043   9.166 -15.693  1.00  0.00    -0.456 OA
ENDROOT
BRANCH   1  12
ATOM     12  C   UNL     1       7.035   6.969 -15.523  1.00  0.00     0.021 A 
ATOM     13  C   UNL     1       6.201   6.875 -16.653  1.00  0.00     0.016 A 
ATOM     14  C   UNL     1       5.876   5.629 -17.194  1.00  0.00     0.051 A 
ATOM     15  C   UNL     1       6.385   4.456 -16.622  1.00  0.00     0.157 A 
ATOM     16  C   UNL     1       7.554   5.787 -14.964  1.00  0.00     0.062 A 
ATOM     17  C   UNL     1       7.227   4.536 -15.505  1.00  0.00     0.158 A 
BRANCH  15  18
ATOM     18  O   UNL     1       6.063   3.211 -17.156  1.00  0.00    -0.504 OA
ATOM     19  H   UNL     1       6.503   2.867 -18.002  1.00  0.00     0.293 HD
ENDBRANCH  15  18
BRANCH  17  20
ATOM     20  O   UNL     1       7.736   3.368 -14.940  1.00  0.00    -0.504 OA
ATOM     21  H   UNL     1       8.446   2.817 -15.410  1.00  0.00     0.293 HD
ENDBRANCH  17  20
ENDBRANCH   1  12
BRANCH   6  22
ATOM     22  O   UNL     1       8.182  12.677 -12.308  1.00  0.00    -0.507 OA
ATOM     23  H   UNL     1       7.957  13.648 -12.161  1.00  0.00     0.293 HD
ENDBRANCH   6  22
BRANCH   8  24
ATOM     24  O   UNL     1      10.216  13.290 -16.614  1.00  0.00    -0.508 OA
ATOM     25  H   UNL     1      10.990  12.935 -17.163  1.00  0.00     0.293 HD
ENDBRANCH   8  24
TORSDOF 5
ENDMDL
MODEL 5
REMARK VINA RESULT:    -6.529      2.635      7.925
REMARK INTER + INTRA:          -7.991
REMARK INTER:                  -7.675
REMARK INTRA:                  -0.315
REMARK UNBOUND:                -0.317
REMARK SMILES O=c1cc(-c2ccc(O)c(O)c2)oc2cc(O)cc(O)c12
REMARK SMILES IDX 4 1 3 2 2 3 1 4 21 5 19 6 18 7 16 8 15 9 14 10 13 11 5 12
REMARK SMILES IDX 6 13 7 14 8 15 12 16 10 17 9 18 11 20 20 22 17 24
REMARK H PARENT 9 19 11 21 20 23 17 25
REMARK Flexibility Score: inf
ROOT
ATOM      1  C   UNL     1       8.225  11.167 -14.853  1.00  0.00     0.138 A 
ATOM      2  C   UNL     1       8.775  12.357 -14.361  1.00  0.00     0.100 A 
ATOM      3  C   UNL     1       9.284  13.304 -15.253  1.00  0.00     0.197 A 
ATOM      4  O   UNL     1       9.829  14.334 -14.778  1.00  0.00    -0.289 OA
ATOM      5  C   UNL     1       9.213  13.066 -16.646  1.00  0.00     0.107 A 
ATOM      6  C   UNL     1       9.663  13.976 -17.649  1.00  0.00     0.134 A 
ATOM      7  C   UNL     1       9.648  13.584 -18.993  1.00  0.00     0.093 A 
ATOM      8  C   UNL     1       9.142  12.337 -19.375  1.00  0.00     0.123 A 
ATOM      9  C   UNL     1       8.651  11.464 -18.408  1.00  0.00     0.094 A 
ATOM     10  C   UNL     1       8.685  11.813 -17.056  1.00  0.00     0.146 A 
ATOM     11  O   UNL     1       8.220  10.945 -16.163  1.00  0.00    -0.456 OA
ENDROOT
BRANCH   1  12
ATOM     12  C   UNL     1       7.669  10.128 -13.950  1.00  0.00     0.021 A 
ATOM     13  C   UNL     1       7.358  10.406 -12.605  1.00  0.00     0.016 A 
ATOM     14  C   UNL     1       6.826   9.413 -11.779  1.00  0.00     0.051 A 
ATOM     15  C   UNL     1       6.587   8.129 -12.283  1.00  0.00     0.157 A 
ATOM     16  C   UNL     1       7.412   8.839 -14.451  1.00  0.00     0.062 A 
ATOM     17  C   UNL     1       6.879   7.841 -13.623  1.00  0.00     0.158 A 
BRANCH  15  18
ATOM     18  O   UNL     1       6.057   7.135 -11.463  1.00  0.00    -0.504 OA
ATOM     19  H   UNL     1       5.340   7.340 -10.777  1.00  0.00     0.293 HD
ENDBRANCH  15  18
BRANCH  17  20
ATOM     20  O   UNL     1       6.636   6.563 -14.123  1.00  0.00    -0.504 OA
ATOM     21  H   UNL     1       6.611   6.379 -15.119  1.00  0.00     0.293 HD
ENDBRANCH  17  20
ENDBRANCH   1  12
BRANCH   6  22
ATOM     22  O   UNL     1      10.107  15.275 -17.383  1.00  0.00    -0.507 OA
ATOM     23  H   UNL     1      10.479  15.587 -16.500  1.00  0.00     0.293 HD
ENDBRANCH   6  22
BRANCH   8  24
ATOM     24  O   UNL     1       9.117  11.963 -20.716  1.00  0.00    -0.508 OA
ATOM     25  H   UNL     1       9.232  12.642 -21.460  1.00  0.00     0.293 HD
ENDBRANCH   8  24
TORSDOF 5
ENDMDL
MODEL 6
REMARK VINA RESULT:    -6.348      1.808      6.901
REMARK INTER + INTRA:          -7.778
REMARK INTER:                  -7.514
REMARK INTRA:                  -0.264
REMARK UNBOUND:                -0.317
REMARK SMILES O=c1cc(-c2ccc(O)c(O)c2)oc2cc(O)cc(O)c12
REMARK SMILES IDX 4 1 3 2 2 3 1 4 21 5 19 6 18 7 16 8 15 9 14 10 13 11 5 12
REMARK SMILES IDX 6 13 7 14 8 15 12 16 10 17 9 18 11 20 20 22 17 24
REMARK H PARENT 9 19 11 21 20 23 17 25
REMARK Flexibility Score: inf
ROOT
ATOM      1  C   UNL     1       9.090  11.887 -17.870  1.00  0.00     0.138 A 
ATOM      2  C   UNL     1       8.303  11.629 -19.000  1.00  0.00     0.100 A 
ATOM      3  C   UNL     1       8.065  12.648 -19.924  1.00  0.00     0.197 A 
ATOM      4  O   UNL     1       7.303  12.403 -20.895  1.00  0.00    -0.289 OA
ATOM      5  C   UNL     1       8.644  13.924 -19.727  1.00  0.00     0.107 A 
ATOM      6  C   UNL     1       8.503  15.027 -20.622  1.00  0.00     0.134 A 
ATOM      7  C   UNL     1       9.026  16.276 -20.266  1.00  0.00     0.093 A 
ATOM      8  C   UNL     1       9.738  16.447 -19.074  1.00  0.00     0.123 A 
ATOM      9  C   UNL     1       9.926  15.364 -18.220  1.00  0.00     0.094 A 
ATOM     10  C   UNL     1       9.387  14.113 -18.531  1.00  0.00     0.146 A 
ATOM     11  O   UNL     1       9.577  13.109 -17.682  1.00  0.00    -0.456 OA
ENDROOT
BRANCH   1  12
ATOM     12  C   UNL     1       9.376  10.839 -16.858  1.00  0.00     0.021 A 
ATOM     13  C   UNL     1      10.467   9.958 -16.992  1.00  0.00     0.016 A 
ATOM     14  C   UNL     1      10.719   8.988 -16.019  1.00  0.00     0.051 A 
ATOM     15  C   UNL     1       9.893   8.886 -14.893  1.00  0.00     0.157 A 
ATOM     16  C   UNL     1       8.560  10.738 -15.716  1.00  0.00     0.062 A 
ATOM     17  C   UNL     1       8.812   9.764 -14.740  1.00  0.00     0.158 A 
BRANCH  15  18
ATOM     18  O   UNL     1      10.141   7.918 -13.921  1.00  0.00    -0.504 OA
ATOM     19  H   UNL     1       9.420   7.273 -13.620  1.00  0.00     0.293 HD
ENDBRANCH  15  18
BRANCH  17  20
ATOM     20  O   UNL     1       7.995   9.661 -13.616  1.00  0.00    -0.504 OA
ATOM     21  H   UNL     1       6.996   9.822 -13.670  1.00  0.00     0.293 HD
ENDBRANCH  17  20
ENDBRANCH   1  12
BRANCH   6  22
ATOM     22  O   UNL     1       7.886  14.943 -21.874  1.00  0.00    -0.507 OA
ATOM     23  H   UNL     1       7.288  15.652 -22.270  1.00  0.00     0.293 HD
ENDBRANCH   6  22
BRANCH   8  24
ATOM     24  O   UNL     1      10.267  17.690 -18.736  1.00  0.00    -0.508 OA
ATOM     25  H   UNL     1      11.222  17.790 -18.412  1.00  0.00     0.293 HD
ENDBRANCH   8  24
TORSDOF 5
ENDMDL
MODEL 7
REMARK VINA RESULT:    -6.306      2.506      4.554
REMARK INTER + INTRA:          -7.729
REMARK INTER:                  -7.465
REMARK INTRA:                  -0.264
REMARK UNBOUND:                -0.317
REMARK SMILES O=c1cc(-c2ccc(O)c(O)c2)oc2cc(O)cc(O)c12
REMARK SMILES IDX 4 1 3 2 2 3 1 4 21 5 19 6 18 7 16 8 15 9 14 10 13 11 5 12
REMARK SMILES IDX 6 13 7 14 8 15 12 16 10 17 9 18 11 20 20 22 17 24
REMARK H PARENT 9 19 11 21 20 23 17 25
REMARK Flexibility Score: inf
ROOT
ATOM      1  C   UNL     1       8.813  12.314 -15.262  1.00  0.00     0.138 A 
ATOM      2  C   UNL     1       7.821  12.684 -14.345  1.00  0.00     0.100 A 
ATOM      3  C   UNL     1       7.229  11.712 -13.538  1.00  0.00     0.197 A 
ATOM      4  O   UNL     1       6.297  12.066 -12.769  1.00  0.00    -0.289 OA
ATOM      5  C   UNL     1       7.656  10.366 -13.630  1.00  0.00     0.107 A 
ATOM      6  C   UNL     1       7.152   9.297 -12.830  1.00  0.00     0.134 A 
ATOM      7  C   UNL     1       7.566   7.985 -13.091  1.00  0.00     0.093 A 
ATOM      8  C   UNL     1       8.512   7.712 -14.083  1.00  0.00     0.123 A 
ATOM      9  C   UNL     1       9.049   8.754 -14.834  1.00  0.00     0.094 A 
ATOM     10  C   UNL     1       8.630  10.070 -14.620  1.00  0.00     0.146 A 
ATOM     11  O   UNL     1       9.157  11.035 -15.368  1.00  0.00    -0.456 OA
ENDROOT
BRANCH   1  12
ATOM     12  C   UNL     1       9.477  13.308 -16.144  1.00  0.00     0.021 A 
ATOM     13  C   UNL     1      10.615  14.023 -15.726  1.00  0.00     0.016 A 
ATOM     14  C   UNL     1      11.226  14.945 -16.580  1.00  0.00     0.051 A 
ATOM     15  C   UNL     1      10.718  15.162 -17.866  1.00  0.00     0.157 A 
ATOM     16  C   UNL     1       8.982  13.521 -17.443  1.00  0.00     0.062 A 
ATOM     17  C   UNL     1       9.594  14.447 -18.299  1.00  0.00     0.158 A 
BRANCH  15  18
ATOM     18  O   UNL     1      11.324  16.081 -18.719  1.00  0.00    -0.504 OA
ATOM     19  H   UNL     1      10.791  16.816 -19.171  1.00  0.00     0.293 HD
ENDBRANCH  15  18
BRANCH  17  20
ATOM     20  O   UNL     1       9.093  14.662 -19.582  1.00  0.00    -0.504 OA
ATOM     21  H   UNL     1       9.014  15.595 -19.971  1.00  0.00     0.293 HD
ENDBRANCH  17  20
ENDBRANCH   1  12
BRANCH   6  22
ATOM     22  O   UNL     1       6.269   9.471 -11.759  1.00  0.00    -0.507 OA
ATOM     23  H   UNL     1       5.880   8.724 -11.207  1.00  0.00     0.293 HD
ENDBRANCH   6  22
BRANCH   8  24
ATOM     24  O   UNL     1       8.929   6.405 -14.325  1.00  0.00    -0.508 OA
ATOM     25  H   UNL     1       9.573   5.929 -13.703  1.00  0.00     0.293 HD
ENDBRANCH   8  24
TORSDOF 5
ENDMDL
MODEL 8
REMARK VINA RESULT:    -6.216      2.104      7.425
REMARK INTER + INTRA:          -7.623
REMARK INTER:                  -7.361
REMARK INTRA:                  -0.262
REMARK UNBOUND:                -0.317
REMARK SMILES O=c1cc(-c2ccc(O)c(O)c2)oc2cc(O)cc(O)c12
REMARK SMILES IDX 4 1 3 2 2 3 1 4 21 5 19 6 18 7 16 8 15 9 14 10 13 11 5 12
REMARK SMILES IDX 6 13 7 14 8 15 12 16 10 17 9 18 11 20 20 22 17 24
REMARK H PARENT 9 19 11 21 20 23 17 25
REMARK Flexibility Score: inf
ROOT
ATOM      1  C   UNL     1       8.990  12.079 -15.952  1.00  0.00     0.138 A 
ATOM      2  C   UNL     1      10.097  12.899 -15.701  1.00  0.00     0.100 A 
ATOM      3  C   UNL     1      10.435  13.900 -16.613  1.00  0.00     0.197 A 
ATOM      4  O   UNL     1      11.472  14.579 -16.392  1.00  0.00    -0.289 OA
ATOM      5  C   UNL     1       9.640  14.098 -17.767  1.00  0.00     0.107 A 
ATOM      6  C   UNL     1       9.866  15.112 -18.745  1.00  0.00     0.134 A 
ATOM      7  C   UNL     1       9.083  15.139 -19.906  1.00  0.00     0.093 A 
ATOM      8  C   UNL     1       8.042  14.224 -20.094  1.00  0.00     0.123 A 
ATOM      9  C   UNL     1       7.780  13.264 -19.120  1.00  0.00     0.094 A 
ATOM     10  C   UNL     1       8.567  13.190 -17.968  1.00  0.00     0.146 A 
ATOM     11  O   UNL     1       8.292  12.250 -17.069  1.00  0.00    -0.456 OA
ENDROOT
BRANCH   1  12
ATOM     12  C   UNL     1       8.585  11.000 -15.014  1.00  0.00     0.021 A 
ATOM     13  C   UNL     1       7.552  11.186 -14.074  1.00  0.00     0.016 A 
ATOM     14  C   UNL     1       7.185  10.151 -13.212  1.00  0.00     0.051 A 
ATOM     15  C   UNL     1       7.834   8.912 -13.277  1.00  0.00     0.157 A 
ATOM     16  C   UNL     1       9.221   9.748 -15.083  1.00  0.00     0.062 A 
ATOM     17  C   UNL     1       8.854   8.709 -14.216  1.00  0.00     0.158 A 
BRANCH  15  18
ATOM     18  O   UNL     1       7.471   7.878 -12.417  1.00  0.00    -0.504 OA
ATOM     19  H   UNL     1       7.455   6.912 -12.725  1.00  0.00     0.293 HD
ENDBRANCH  15  18
BRANCH  17  20
ATOM     20  O   UNL     1       9.495   7.474 -14.281  1.00  0.00    -0.504 OA
ATOM     21  H   UNL     1      10.140   7.250 -15.030  1.00  0.00     0.293 HD
ENDBRANCH  17  20
ENDBRANCH   1  12
BRANCH   6  22
ATOM     22  O   UNL     1      10.822  16.125 -18.615  1.00  0.00    -0.507 OA
ATOM     23  H   UNL     1      10.742  17.047 -19.014  1.00  0.00     0.293 HD
ENDBRANCH   6  22
BRANCH   8  24
ATOM     24  O   UNL     1       7.259  14.268 -21.245  1.00  0.00    -0.508 OA
ATOM     25  H   UNL     1       6.552  13.566 -21.433  1.00  0.00     0.293 HD
ENDBRANCH   8  24
TORSDOF 5
ENDMDL
MODEL 9
REMARK VINA RESULT:    -6.147      2.585      4.732
REMARK INTER + INTRA:          -7.542
REMARK INTER:                  -7.235
REMARK INTRA:                  -0.308
REMARK UNBOUND:                -0.317
REMARK SMILES O=c1cc(-c2ccc(O)c(O)c2)oc2cc(O)cc(O)c12
REMARK SMILES IDX 4 1 3 2 2 3 1 4 21 5 19 6 18 7 16 8 15 9 14 10 13 11 5 12
REMARK SMILES IDX 6 13 7 14 8 15 12 16 10 17 9 18 11 20 20 22 17 24
REMARK H PARENT 9 19 11 21 20 23 17 25
REMARK Flexibility Score: inf
ROOT
ATOM      1  C   UNL     1       8.010  11.352 -15.817  1.00  0.00     0.138 A 
ATOM      2  C   UNL     1       8.070  11.897 -14.528  1.00  0.00     0.100 A 
ATOM      3  C   UNL     1       7.786  11.091 -13.424  1.00  0.00     0.197 A 
ATOM      4  O   UNL     1       7.787  11.624 -12.284  1.00  0.00    -0.289 OA
ATOM      5  C   UNL     1       7.469   9.725 -13.613  1.00  0.00     0.107 A 
ATOM      6  C   UNL     1       7.201   8.800 -12.561  1.00  0.00     0.134 A 
ATOM      7  C   UNL     1       6.784   7.500 -12.874  1.00  0.00     0.093 A 
ATOM      8  C   UNL     1       6.686   7.075 -14.202  1.00  0.00     0.123 A 
ATOM      9  C   UNL     1       6.997   7.954 -15.235  1.00  0.00     0.094 A 
ATOM     10  C   UNL     1       7.382   9.268 -14.955  1.00  0.00     0.146 A 
ATOM     11  O   UNL     1       7.657  10.080 -15.971  1.00  0.00    -0.456 OA
ENDROOT
BRANCH   1  12
ATOM     12  C   UNL     1       8.304  12.163 -17.026  1.00  0.00     0.021 A 
ATOM     13  C   UNL     1       8.133  13.561 -17.039  1.00  0.00     0.016 A 
ATOM     14  C   UNL     1       8.427  14.301 -18.186  1.00  0.00     0.051 A 
ATOM     15  C   UNL     1       8.905  13.661 -19.337  1.00  0.00     0.157 A 
ATOM     16  C   UNL     1       8.798  11.531 -18.181  1.00  0.00     0.062 A 
ATOM     17  C   UNL     1       9.092  12.273 -19.334  1.00  0.00     0.158 A 
BRANCH  15  18
ATOM     18  O   UNL     1       9.198  14.396 -20.483  1.00  0.00    -0.504 OA
ATOM     19  H   UNL     1       8.469  14.843 -21.027  1.00  0.00     0.293 HD
ENDBRANCH  15  18
BRANCH  17  20
ATOM     20  O   UNL     1       9.572  11.640 -20.479  1.00  0.00    -0.504 OA
ATOM     21  H   UNL     1       8.972  11.461 -21.276  1.00  0.00     0.293 HD
ENDBRANCH  17  20
ENDBRANCH   1  12
BRANCH   6  22
ATOM     22  O   UNL     1       7.351   9.097 -11.202  1.00  0.00    -0.507 OA
ATOM     23  H   UNL     1       6.887   9.852 -10.723  1.00  0.00     0.293 HD
ENDBRANCH   6  22
BRANCH   8  24
ATOM     24  O   UNL     1       6.286   5.775 -14.503  1.00  0.00    -0.508 OA
ATOM     25  H   UNL     1       5.472   5.356 -14.067  1.00  0.00     0.293 HD
ENDBRANCH   8  24
TORSDOF 5
ENDMDL
