MODEL 1
REMARK VINA RESULT:    -5.713      0.000      0.000
REMARK INTER + INTRA:         -12.421
REMARK INTER:                 -11.058
REMARK INTRA:                  -1.364
REMARK UNBOUND:                -1.364
REMARK SMILES CCCCCCCCCCCCCCCCCC(=O)[O-]
REMARK SMILES IDX 10 1 11 2 12 3 13 4 14 5 15 6 16 7 17 8 18 9 19 10 20 11
REMARK SMILES IDX 9 12 8 13 7 14 6 15 5 16 4 17 3 18 2 19 1 20
REMARK H PARENT
REMARK Flexibility Score: inf
ROOT
ATOM      1  C   UNL     1     -18.592  29.891  -1.597  1.00  0.00     0.000 C 
ENDROOT
BRANCH   1   2
ATOM      2  C   UNL     1     -17.599  29.132  -0.695  1.00  0.00     0.000 C 
BRANCH   2   3
ATOM      3  C   UNL     1     -17.751  27.599  -0.687  1.00  0.00     0.000 C 
BRANCH   3   4
ATOM      4  C   UNL     1     -16.789  26.871   0.279  1.00  0.00     0.000 C 
BRANCH   4   5
ATOM      5  C   UNL     1     -17.167  25.393   0.488  1.00  0.00     0.000 C 
BRANCH   5   6
ATOM      6  C   UNL     1     -18.684  25.179   0.643  1.00  0.00     0.000 C 
BRANCH   6   7
ATOM      7  C   UNL     1     -19.208  23.821   0.135  1.00  0.00     0.006 C 
BRANCH   7   8
ATOM      8  C   UNL     1     -18.866  23.529  -1.337  1.00  0.00     0.053 C 
BRANCH   8   9
ATOM      9  C   UNL     1     -19.640  22.375  -1.894  1.00  0.00     0.041 C 
ATOM     10  O   UNL     1     -20.898  22.418  -1.943  1.00  0.00    -0.550 OA
ATOM     11  O   UNL     1     -18.970  21.266  -2.398  1.00  0.00    -0.550 OA
ENDBRANCH   8   9
ENDBRANCH   7   8
ENDBRANCH   6   7
ENDBRANCH   5   6
ENDBRANCH   4   5
ENDBRANCH   3   4
ENDBRANCH   2   3
ENDBRANCH   1   2
BRANCH   1  12
ATOM     12  C   UNL     1     -18.174  31.334  -1.942  1.00  0.00     0.000 C 
BRANCH  12  13
ATOM     13  C   UNL     1     -18.193  32.286  -0.725  1.00  0.00    -0.000 C 
BRANCH  13  14
ATOM     14  C   UNL     1     -17.058  33.323  -0.738  1.00  0.00    -0.000 C 
BRANCH  14  15
ATOM     15  C   UNL     1     -16.189  33.264   0.528  1.00  0.00    -0.000 C 
BRANCH  15  16
ATOM     16  C   UNL     1     -16.546  32.075   1.435  1.00  0.00    -0.000 C 
BRANCH  16  17
ATOM     17  C   UNL     1     -15.488  30.960   1.385  1.00  0.00    -0.000 C 
BRANCH  17  18
ATOM     18  C   UNL     1     -15.807  29.798   2.341  1.00  0.00    -0.000 C 
BRANCH  18  19
ATOM     19  C   UNL     1     -15.526  30.146   3.811  1.00  0.00    -0.003 C 
ATOM     20  C   UNL     1     -16.780  29.977   4.665  1.00  0.00     0.004 C 
ENDBRANCH  18  19
ENDBRANCH  17  18
ENDBRANCH  16  17
ENDBRANCH  15  16
ENDBRANCH  14  15
ENDBRANCH  13  14
ENDBRANCH  12  13
ENDBRANCH   1  12
TORSDOF 16
ENDMDL
MODEL 2
REMARK VINA RESULT:    -5.658      2.737      7.790
REMARK INTER + INTRA:         -12.315
REMARK INTER:                 -11.332
REMARK INTRA:                  -0.982
REMARK UNBOUND:                -1.364
REMARK SMILES CCCCCCCCCCCCCCCCCC(=O)[O-]
REMARK SMILES IDX 10 1 11 2 12 3 13 4 14 5 15 6 16 7 17 8 18 9 19 10 20 11
REMARK SMILES IDX 9 12 8 13 7 14 6 15 5 16 4 17 3 18 2 19 1 20
REMARK H PARENT
REMARK Flexibility Score: inf
ROOT
ATOM      1  C   UNL     1     -16.259  28.426   2.256  1.00  0.00     0.000 C 
ENDROOT
BRANCH   1   2
ATOM      2  C   UNL     1     -15.899  29.407   1.124  1.00  0.00     0.000 C 
BRANCH   2   3
ATOM      3  C   UNL     1     -15.500  30.825   1.579  1.00  0.00     0.000 C 
BRANCH   3   4
ATOM      4  C   UNL     1     -16.639  31.863   1.490  1.00  0.00     0.000 C 
BRANCH   4   5
ATOM      5  C   UNL     1     -16.232  33.123   0.702  1.00  0.00     0.000 C 
BRANCH   5   6
ATOM      6  C   UNL     1     -16.938  33.230  -0.661  1.00  0.00     0.000 C 
BRANCH   6   7
ATOM      7  C   UNL     1     -18.158  32.305  -0.841  1.00  0.00     0.006 C 
BRANCH   7   8
ATOM      8  C   UNL     1     -18.148  31.506  -2.156  1.00  0.00     0.053 C 
BRANCH   8   9
ATOM      9  C   UNL     1     -18.730  30.134  -2.005  1.00  0.00     0.041 C 
ATOM     10  O   UNL     1     -19.579  29.709  -2.833  1.00  0.00    -0.550 OA
ATOM     11  O   UNL     1     -18.303  29.308  -0.972  1.00  0.00    -0.550 OA
ENDBRANCH   8   9
ENDBRANCH   7   8
ENDBRANCH   6   7
ENDBRANCH   5   6
ENDBRANCH   4   5
ENDBRANCH   3   4
ENDBRANCH   2   3
ENDBRANCH   1   2
BRANCH   1  12
ATOM     12  C   UNL     1     -16.272  26.942   1.840  1.00  0.00     0.000 C 
BRANCH  12  13
ATOM     13  C   UNL     1     -16.740  26.716   0.385  1.00  0.00    -0.000 C 
BRANCH  13  14
ATOM     14  C   UNL     1     -17.407  25.349   0.159  1.00  0.00    -0.000 C 
BRANCH  14  15
ATOM     15  C   UNL     1     -18.911  25.365   0.477  1.00  0.00    -0.000 C 
BRANCH  15  16
ATOM     16  C   UNL     1     -19.458  23.969   0.817  1.00  0.00    -0.000 C 
BRANCH  16  17
ATOM     17  C   UNL     1     -20.769  23.655   0.076  1.00  0.00    -0.000 C 
BRANCH  17  18
ATOM     18  C   UNL     1     -20.592  22.581  -1.009  1.00  0.00    -0.000 C 
BRANCH  18  19
ATOM     19  C   UNL     1     -19.169  22.003  -1.045  1.00  0.00    -0.003 C 
ATOM     20  C   UNL     1     -19.000  21.031  -2.210  1.00  0.00     0.004 C 
ENDBRANCH  18  19
ENDBRANCH  17  18
ENDBRANCH  16  17
ENDBRANCH  15  16
ENDBRANCH  14  15
ENDBRANCH  13  14
ENDBRANCH  12  13
ENDBRANCH   1  12
TORSDOF 16
ENDMDL
MODEL 3
REMARK VINA RESULT:    -5.585      1.498      3.817
REMARK INTER + INTRA:         -12.172
REMARK INTER:                 -10.984
REMARK INTRA:                  -1.189
REMARK UNBOUND:                -1.364
REMARK SMILES CCCCCCCCCCCCCCCCCC(=O)[O-]
REMARK SMILES IDX 10 1 11 2 12 3 13 4 14 5 15 6 16 7 17 8 18 9 19 10 20 11
REMARK SMILES IDX 9 12 8 13 7 14 6 15 5 16 4 17 3 18 2 19 1 20
REMARK H PARENT
REMARK Flexibility Score: inf
ROOT
ATOM      1  C   UNL     1     -16.438  27.161  -0.301  1.00  0.00     0.000 C 
ENDROOT
BRANCH   1   2
ATOM      2  C   UNL     1     -16.718  25.925   0.577  1.00  0.00     0.000 C 
BRANCH   2   3
ATOM      3  C   UNL     1     -18.193  25.712   0.969  1.00  0.00     0.000 C 
BRANCH   3   4
ATOM      4  C   UNL     1     -18.799  24.386   0.458  1.00  0.00     0.000 C 
BRANCH   4   5
ATOM      5  C   UNL     1     -18.316  24.021  -0.959  1.00  0.00     0.000 C 
BRANCH   5   6
ATOM      6  C   UNL     1     -18.664  22.575  -1.356  1.00  0.00     0.000 C 
BRANCH   6   7
ATOM      7  C   UNL     1     -20.096  22.371  -1.890  1.00  0.00     0.006 C 
BRANCH   7   8
ATOM      8  C   UNL     1     -21.020  21.605  -0.927  1.00  0.00     0.053 C 
BRANCH   8   9
ATOM      9  C   UNL     1     -21.986  22.501  -0.215  1.00  0.00     0.041 C 
ATOM     10  O   UNL     1     -22.949  23.020  -0.839  1.00  0.00    -0.550 OA
ATOM     11  O   UNL     1     -21.846  22.730   1.149  1.00  0.00    -0.550 OA
ENDBRANCH   8   9
ENDBRANCH   7   8
ENDBRANCH   6   7
ENDBRANCH   5   6
ENDBRANCH   4   5
ENDBRANCH   3   4
ENDBRANCH   2   3
ENDBRANCH   1   2
BRANCH   1  12
ATOM     12  C   UNL     1     -16.613  28.513   0.418  1.00  0.00     0.000 C 
BRANCH  12  13
ATOM     13  C   UNL     1     -16.184  28.479   1.902  1.00  0.00    -0.000 C 
BRANCH  13  14
ATOM     14  C   UNL     1     -15.822  29.862   2.470  1.00  0.00    -0.000 C 
BRANCH  14  15
ATOM     15  C   UNL     1     -15.625  30.918   1.371  1.00  0.00    -0.000 C 
BRANCH  15  16
ATOM     16  C   UNL     1     -16.635  32.073   1.473  1.00  0.00    -0.000 C 
BRANCH  16  17
ATOM     17  C   UNL     1     -16.250  33.270   0.586  1.00  0.00    -0.000 C 
BRANCH  17  18
ATOM     18  C   UNL     1     -16.998  33.274  -0.758  1.00  0.00    -0.000 C 
BRANCH  18  19
ATOM     19  C   UNL     1     -18.266  32.407  -0.733  1.00  0.00    -0.003 C 
ATOM     20  C   UNL     1     -18.180  31.280  -1.759  1.00  0.00     0.004 C 
ENDBRANCH  18  19
ENDBRANCH  17  18
ENDBRANCH  16  17
ENDBRANCH  15  16
ENDBRANCH  14  15
ENDBRANCH  13  14
ENDBRANCH  12  13
ENDBRANCH   1  12
TORSDOF 16
ENDMDL
MODEL 4
REMARK VINA RESULT:    -5.574      3.003      8.145
REMARK INTER + INTRA:         -12.150
REMARK INTER:                 -11.233
REMARK INTRA:                  -0.917
REMARK UNBOUND:                -1.364
REMARK SMILES CCCCCCCCCCCCCCCCCC(=O)[O-]
REMARK SMILES IDX 10 1 11 2 12 3 13 4 14 5 15 6 16 7 17 8 18 9 19 10 20 11
REMARK SMILES IDX 9 12 8 13 7 14 6 15 5 16 4 17 3 18 2 19 1 20
REMARK H PARENT
REMARK Flexibility Score: inf
ROOT
ATOM      1  C   UNL     1     -16.312  27.983   1.099  1.00  0.00     0.000 C 
ENDROOT
BRANCH   1   2
ATOM      2  C   UNL     1     -16.234  28.603   2.507  1.00  0.00     0.000 C 
BRANCH   2   3
ATOM      3  C   UNL     1     -15.707  30.049   2.566  1.00  0.00     0.000 C 
BRANCH   3   4
ATOM      4  C   UNL     1     -15.867  30.837   1.246  1.00  0.00     0.000 C 
BRANCH   4   5
ATOM      5  C   UNL     1     -16.622  32.166   1.438  1.00  0.00     0.000 C 
BRANCH   5   6
ATOM      6  C   UNL     1     -16.259  33.219   0.376  1.00  0.00     0.000 C 
BRANCH   6   7
ATOM      7  C   UNL     1     -17.136  33.199  -0.892  1.00  0.00     0.006 C 
BRANCH   7   8
ATOM      8  C   UNL     1     -18.338  32.241  -0.806  1.00  0.00     0.053 C 
BRANCH   8   9
ATOM      9  C   UNL     1     -18.213  31.071  -1.732  1.00  0.00     0.041 C 
ATOM     10  O   UNL     1     -18.172  29.899  -1.273  1.00  0.00    -0.550 OA
ATOM     11  O   UNL     1     -18.183  31.272  -3.107  1.00  0.00    -0.550 OA
ENDBRANCH   8   9
ENDBRANCH   7   8
ENDBRANCH   6   7
ENDBRANCH   5   6
ENDBRANCH   4   5
ENDBRANCH   3   4
ENDBRANCH   2   3
ENDBRANCH   1   2
BRANCH   1  12
ATOM     12  C   UNL     1     -16.227  26.444   1.069  1.00  0.00     0.000 C 
BRANCH  12  13
ATOM     13  C   UNL     1     -17.605  25.751   1.173  1.00  0.00    -0.000 C 
BRANCH  13  14
ATOM     14  C   UNL     1     -18.219  25.395  -0.192  1.00  0.00    -0.000 C 
BRANCH  14  15
ATOM     15  C   UNL     1     -18.515  23.894  -0.334  1.00  0.00    -0.000 C 
BRANCH  15  16
ATOM     16  C   UNL     1     -18.904  23.501  -1.769  1.00  0.00    -0.000 C 
BRANCH  16  17
ATOM     17  C   UNL     1     -20.064  22.491  -1.806  1.00  0.00    -0.000 C 
BRANCH  17  18
ATOM     18  C   UNL     1     -21.110  22.752  -0.710  1.00  0.00    -0.000 C 
BRANCH  18  19
ATOM     19  C   UNL     1     -21.227  21.588   0.286  1.00  0.00    -0.003 C 
ATOM     20  C   UNL     1     -21.228  22.095   1.726  1.00  0.00     0.004 C 
ENDBRANCH  18  19
ENDBRANCH  17  18
ENDBRANCH  16  17
ENDBRANCH  15  16
ENDBRANCH  14  15
ENDBRANCH  13  14
ENDBRANCH  12  13
ENDBRANCH   1  12
TORSDOF 16
ENDMDL
MODEL 5
REMARK VINA RESULT:    -5.565      1.616      2.915
REMARK INTER + INTRA:         -12.133
REMARK INTER:                 -10.445
REMARK INTRA:                  -1.688
REMARK UNBOUND:                -1.364
REMARK SMILES CCCCCCCCCCCCCCCCCC(=O)[O-]
REMARK SMILES IDX 10 1 11 2 12 3 13 4 14 5 15 6 16 7 17 8 18 9 19 10 20 11
REMARK SMILES IDX 9 12 8 13 7 14 6 15 5 16 4 17 3 18 2 19 1 20
REMARK H PARENT
REMARK Flexibility Score: inf
ROOT
ATOM      1  C   UNL     1     -18.177  32.373  -0.631  1.00  0.00     0.000 C 
ENDROOT
BRANCH   1   2
ATOM      2  C   UNL     1     -18.328  31.560  -1.931  1.00  0.00     0.000 C 
BRANCH   2   3
ATOM      3  C   UNL     1     -18.536  30.045  -1.745  1.00  0.00     0.000 C 
BRANCH   3   4
ATOM      4  C   UNL     1     -17.554  29.387  -0.751  1.00  0.00     0.000 C 
BRANCH   4   5
ATOM      5  C   UNL     1     -17.830  27.885  -0.551  1.00  0.00     0.000 C 
BRANCH   5   6
ATOM      6  C   UNL     1     -16.826  27.213   0.402  1.00  0.00     0.000 C 
BRANCH   6   7
ATOM      7  C   UNL     1     -17.334  25.931   1.091  1.00  0.00     0.006 C 
BRANCH   7   8
ATOM      8  C   UNL     1     -18.093  24.976   0.153  1.00  0.00     0.053 C 
BRANCH   8   9
ATOM      9  C   UNL     1     -19.356  24.449   0.761  1.00  0.00     0.041 C 
ATOM     10  O   UNL     1     -20.455  25.025   0.542  1.00  0.00    -0.550 OA
ATOM     11  O   UNL     1     -19.327  23.296   1.537  1.00  0.00    -0.550 OA
ENDBRANCH   8   9
ENDBRANCH   7   8
ENDBRANCH   6   7
ENDBRANCH   5   6
ENDBRANCH   4   5
ENDBRANCH   3   4
ENDBRANCH   2   3
ENDBRANCH   1   2
BRANCH   1  12
ATOM     12  C   UNL     1     -16.955  33.312  -0.597  1.00  0.00     0.000 C 
BRANCH  12  13
ATOM     13  C   UNL     1     -16.179  33.260   0.738  1.00  0.00    -0.000 C 
BRANCH  13  14
ATOM     14  C   UNL     1     -16.563  32.066   1.628  1.00  0.00    -0.000 C 
BRANCH  14  15
ATOM     15  C   UNL     1     -15.449  31.010   1.713  1.00  0.00    -0.000 C 
BRANCH  15  16
ATOM     16  C   UNL     1     -15.860  29.784   2.545  1.00  0.00    -0.000 C 
BRANCH  16  17
ATOM     17  C   UNL     1     -15.650  30.001   4.053  1.00  0.00    -0.000 C 
BRANCH  17  18
ATOM     18  C   UNL     1     -16.974  30.041   4.835  1.00  0.00    -0.000 C 
BRANCH  18  19
ATOM     19  C   UNL     1     -17.084  31.269   5.751  1.00  0.00    -0.003 C 
ATOM     20  C   UNL     1     -16.053  32.330   5.374  1.00  0.00     0.004 C 
ENDBRANCH  18  19
ENDBRANCH  17  18
ENDBRANCH  16  17
ENDBRANCH  15  16
ENDBRANCH  14  15
ENDBRANCH  13  14
ENDBRANCH  12  13
ENDBRANCH   1  12
TORSDOF 16
ENDMDL
MODEL 6
REMARK VINA RESULT:    -5.493      3.734      7.521
REMARK INTER + INTRA:         -11.994
REMARK INTER:                 -10.614
REMARK INTRA:                  -1.380
REMARK UNBOUND:                -1.364
REMARK SMILES CCCCCCCCCCCCCCCCCC(=O)[O-]
REMARK SMILES IDX 10 1 11 2 12 3 13 4 14 5 15 6 16 7 17 8 18 9 19 10 20 11
REMARK SMILES IDX 9 12 8 13 7 14 6 15 5 16 4 17 3 18 2 19 1 20
REMARK H PARENT
REMARK Flexibility Score: inf
ROOT
ATOM      1  C   UNL     1     -18.322  31.482  -2.042  1.00  0.00     0.000 C 
ENDROOT
BRANCH   1   2
ATOM      2  C   UNL     1     -18.197  32.372  -0.790  1.00  0.00     0.000 C 
BRANCH   2   3
ATOM      3  C   UNL     1     -16.954  33.282  -0.747  1.00  0.00     0.000 C 
BRANCH   3   4
ATOM      4  C   UNL     1     -16.251  33.329   0.627  1.00  0.00     0.000 C 
BRANCH   4   5
ATOM      5  C   UNL     1     -16.610  32.124   1.518  1.00  0.00     0.000 C 
BRANCH   5   6
ATOM      6  C   UNL     1     -15.520  31.037   1.521  1.00  0.00     0.000 C 
BRANCH   6   7
ATOM      7  C   UNL     1     -15.765  29.868   2.496  1.00  0.00     0.006 C 
BRANCH   7   8
ATOM      8  C   UNL     1     -15.334  30.161   3.944  1.00  0.00     0.053 C 
BRANCH   8   9
ATOM      9  C   UNL     1     -16.465  30.647   4.797  1.00  0.00     0.041 C 
ATOM     10  O   UNL     1     -16.430  31.800   5.303  1.00  0.00    -0.550 OA
ATOM     11  O   UNL     1     -17.579  29.841   5.001  1.00  0.00    -0.550 OA
ENDBRANCH   8   9
ENDBRANCH   7   8
ENDBRANCH   6   7
ENDBRANCH   5   6
ENDBRANCH   4   5
ENDBRANCH   3   4
ENDBRANCH   2   3
ENDBRANCH   1   2
BRANCH   1  12
ATOM     12  C   UNL     1     -18.597  29.994  -1.747  1.00  0.00     0.000 C 
BRANCH  12  13
ATOM     13  C   UNL     1     -17.655  29.395  -0.680  1.00  0.00    -0.000 C 
BRANCH  13  14
ATOM     14  C   UNL     1     -17.753  27.864  -0.562  1.00  0.00    -0.000 C 
BRANCH  14  15
ATOM     15  C   UNL     1     -16.541  27.247   0.154  1.00  0.00    -0.000 C 
BRANCH  15  16
ATOM     16  C   UNL     1     -16.774  25.781   0.553  1.00  0.00    -0.000 C 
BRANCH  16  17
ATOM     17  C   UNL     1     -18.195  25.299   0.213  1.00  0.00    -0.000 C 
BRANCH  17  18
ATOM     18  C   UNL     1     -18.198  24.008  -0.623  1.00  0.00    -0.000 C 
BRANCH  18  19
ATOM     19  C   UNL     1     -19.616  23.527  -0.966  1.00  0.00    -0.003 C 
ATOM     20  C   UNL     1     -19.588  22.131  -1.582  1.00  0.00     0.004 C 
ENDBRANCH  18  19
ENDBRANCH  17  18
ENDBRANCH  16  17
ENDBRANCH  15  16
ENDBRANCH  14  15
ENDBRANCH  13  14
ENDBRANCH  12  13
ENDBRANCH   1  12
TORSDOF 16
ENDMDL
MODEL 7
REMARK VINA RESULT:    -5.347      1.310      3.488
REMARK INTER + INTRA:         -11.712
REMARK INTER:                 -10.319
REMARK INTRA:                  -1.393
REMARK UNBOUND:                -1.364
REMARK SMILES CCCCCCCCCCCCCCCCCC(=O)[O-]
REMARK SMILES IDX 10 1 11 2 12 3 13 4 14 5 15 6 16 7 17 8 18 9 19 10 20 11
REMARK SMILES IDX 9 12 8 13 7 14 6 15 5 16 4 17 3 18 2 19 1 20
REMARK H PARENT
REMARK Flexibility Score: inf
ROOT
ATOM      1  C   UNL     1     -16.759  27.661  -0.140  1.00  0.00     0.000 C 
ENDROOT
BRANCH   1   2
ATOM      2  C   UNL     1     -16.518  26.815   1.126  1.00  0.00     0.000 C 
BRANCH   2   3
ATOM      3  C   UNL     1     -16.964  25.343   1.034  1.00  0.00     0.000 C 
BRANCH   3   4
ATOM      4  C   UNL     1     -18.027  25.070  -0.052  1.00  0.00     0.000 C 
BRANCH   4   5
ATOM      5  C   UNL     1     -19.449  24.950   0.527  1.00  0.00     0.000 C 
BRANCH   5   6
ATOM      6  C   UNL     1     -20.180  23.678   0.061  1.00  0.00     0.000 C 
BRANCH   6   7
ATOM      7  C   UNL     1     -20.000  22.448   0.974  1.00  0.00     0.006 C 
BRANCH   7   8
ATOM      8  C   UNL     1     -19.570  21.173   0.227  1.00  0.00     0.053 C 
BRANCH   8   9
ATOM      9  C   UNL     1     -18.866  21.465  -1.061  1.00  0.00     0.041 C 
ATOM     10  O   UNL     1     -17.622  21.665  -1.075  1.00  0.00    -0.550 OA
ATOM     11  O   UNL     1     -19.577  21.478  -2.256  1.00  0.00    -0.550 OA
ENDBRANCH   8   9
ENDBRANCH   7   8
ENDBRANCH   6   7
ENDBRANCH   5   6
ENDBRANCH   4   5
ENDBRANCH   3   4
ENDBRANCH   2   3
ENDBRANCH   1   2
BRANCH   1  12
ATOM     12  C   UNL     1     -16.245  29.111  -0.052  1.00  0.00     0.000 C 
BRANCH  12  13
ATOM     13  C   UNL     1     -16.093  29.622   1.398  1.00  0.00    -0.000 C 
BRANCH  13  14
ATOM     14  C   UNL     1     -15.534  31.052   1.492  1.00  0.00    -0.000 C 
BRANCH  14  15
ATOM     15  C   UNL     1     -16.638  32.121   1.459  1.00  0.00    -0.000 C 
BRANCH  15  16
ATOM     16  C   UNL     1     -16.287  33.305   0.544  1.00  0.00    -0.000 C 
BRANCH  16  17
ATOM     17  C   UNL     1     -17.057  33.266  -0.787  1.00  0.00    -0.000 C 
BRANCH  17  18
ATOM     18  C   UNL     1     -18.185  32.221  -0.788  1.00  0.00    -0.000 C 
BRANCH  18  19
ATOM     19  C   UNL     1     -18.294  31.467  -2.122  1.00  0.00    -0.003 C 
ATOM     20  C   UNL     1     -19.070  30.163  -1.954  1.00  0.00     0.004 C 
ENDBRANCH  18  19
ENDBRANCH  17  18
ENDBRANCH  16  17
ENDBRANCH  15  16
ENDBRANCH  14  15
ENDBRANCH  13  14
ENDBRANCH  12  13
ENDBRANCH   1  12
TORSDOF 16
ENDMDL
MODEL 8
REMARK VINA RESULT:    -5.296      2.789      4.964
REMARK INTER + INTRA:         -11.613
REMARK INTER:                 -10.701
REMARK INTRA:                  -0.912
REMARK UNBOUND:                -1.364
REMARK SMILES CCCCCCCCCCCCCCCCCC(=O)[O-]
REMARK SMILES IDX 10 1 11 2 12 3 13 4 14 5 15 6 16 7 17 8 18 9 19 10 20 11
REMARK SMILES IDX 9 12 8 13 7 14 6 15 5 16 4 17 3 18 2 19 1 20
REMARK H PARENT
REMARK Flexibility Score: inf
ROOT
ATOM      1  C   UNL     1     -18.197  25.446   0.770  1.00  0.00     0.000 C 
ENDROOT
BRANCH   1   2
ATOM      2  C   UNL     1     -18.068  24.835  -0.639  1.00  0.00     0.000 C 
BRANCH   2   3
ATOM      3  C   UNL     1     -18.835  23.518  -0.863  1.00  0.00     0.000 C 
BRANCH   3   4
ATOM      4  C   UNL     1     -20.279  23.524  -0.315  1.00  0.00     0.000 C 
BRANCH   4   5
ATOM      5  C   UNL     1     -20.762  22.120   0.097  1.00  0.00     0.000 C 
BRANCH   5   6
ATOM      6  C   UNL     1     -22.297  22.009   0.154  1.00  0.00     0.000 C 
BRANCH   6   7
ATOM      7  C   UNL     1     -23.062  23.256  -0.333  1.00  0.00     0.006 C 
BRANCH   7   8
ATOM      8  C   UNL     1     -24.593  23.120  -0.256  1.00  0.00     0.053 C 
BRANCH   8   9
ATOM      9  C   UNL     1     -25.290  23.754  -1.419  1.00  0.00     0.041 C 
ATOM     10  O   UNL     1     -25.377  25.009  -1.501  1.00  0.00    -0.550 OA
ATOM     11  O   UNL     1     -25.809  22.962  -2.436  1.00  0.00    -0.550 OA
ENDBRANCH   8   9
ENDBRANCH   7   8
ENDBRANCH   6   7
ENDBRANCH   5   6
ENDBRANCH   4   5
ENDBRANCH   3   4
ENDBRANCH   2   3
ENDBRANCH   1   2
BRANCH   1  12
ATOM     12  C   UNL     1     -16.990  26.294   1.216  1.00  0.00     0.000 C 
BRANCH  12  13
ATOM     13  C   UNL     1     -16.348  27.101   0.066  1.00  0.00    -0.000 C 
BRANCH  13  14
ATOM     14  C   UNL     1     -16.638  28.610   0.136  1.00  0.00    -0.000 C 
BRANCH  14  15
ATOM     15  C   UNL     1     -16.198  29.235   1.468  1.00  0.00    -0.000 C 
BRANCH  15  16
ATOM     16  C   UNL     1     -15.516  30.601   1.283  1.00  0.00    -0.000 C 
BRANCH  16  17
ATOM     17  C   UNL     1     -16.514  31.770   1.362  1.00  0.00    -0.000 C 
BRANCH  17  18
ATOM     18  C   UNL     1     -16.371  32.750   0.185  1.00  0.00    -0.000 C 
BRANCH  18  19
ATOM     19  C   UNL     1     -17.698  32.988  -0.552  1.00  0.00    -0.003 C 
ATOM     20  C   UNL     1     -18.102  31.762  -1.366  1.00  0.00     0.004 C 
ENDBRANCH  18  19
ENDBRANCH  17  18
ENDBRANCH  16  17
ENDBRANCH  15  16
ENDBRANCH  14  15
ENDBRANCH  13  14
ENDBRANCH  12  13
ENDBRANCH   1  12
TORSDOF 16
ENDMDL
MODEL 9
REMARK VINA RESULT:    -5.186      3.093      8.297
REMARK INTER + INTRA:         -11.401
REMARK INTER:                  -9.961
REMARK INTRA:                  -1.440
REMARK UNBOUND:                -1.364
REMARK SMILES CCCCCCCCCCCCCCCCCC(=O)[O-]
REMARK SMILES IDX 10 1 11 2 12 3 13 4 14 5 15 6 16 7 17 8 18 9 19 10 20 11
REMARK SMILES IDX 9 12 8 13 7 14 6 15 5 16 4 17 3 18 2 19 1 20
REMARK H PARENT
REMARK Flexibility Score: inf
ROOT
ATOM      1  C   UNL     1     -16.786  25.896   0.555  1.00  0.00     0.000 C 
ENDROOT
BRANCH   1   2
ATOM      2  C   UNL     1     -16.902  27.268  -0.137  1.00  0.00     0.000 C 
BRANCH   2   3
ATOM      3  C   UNL     1     -15.856  28.316   0.291  1.00  0.00     0.000 C 
BRANCH   3   4
ATOM      4  C   UNL     1     -16.383  29.366   1.294  1.00  0.00     0.000 C 
BRANCH   4   5
ATOM      5  C   UNL     1     -15.710  30.741   1.120  1.00  0.00     0.000 C 
BRANCH   5   6
ATOM      6  C   UNL     1     -16.724  31.898   1.054  1.00  0.00     0.000 C 
BRANCH   6   7
ATOM      7  C   UNL     1     -16.881  32.552  -0.333  1.00  0.00     0.006 C 
BRANCH   7   8
ATOM      8  C   UNL     1     -18.260  32.328  -0.978  1.00  0.00     0.053 C 
BRANCH   8   9
ATOM      9  C   UNL     1     -18.293  31.131  -1.876  1.00  0.00     0.041 C 
ATOM     10  O   UNL     1     -18.429  29.976  -1.391  1.00  0.00    -0.550 OA
ATOM     11  O   UNL     1     -18.214  31.293  -3.255  1.00  0.00    -0.550 OA
ENDBRANCH   8   9
ENDBRANCH   7   8
ENDBRANCH   6   7
ENDBRANCH   5   6
ENDBRANCH   4   5
ENDBRANCH   3   4
ENDBRANCH   2   3
ENDBRANCH   1   2
BRANCH   1  12
ATOM     12  C   UNL     1     -18.088  25.396   1.212  1.00  0.00     0.000 C 
BRANCH  12  13
ATOM     13  C   UNL     1     -19.064  24.734   0.214  1.00  0.00    -0.000 C 
BRANCH  13  14
ATOM     14  C   UNL     1     -18.362  23.910  -0.878  1.00  0.00    -0.000 C 
BRANCH  14  15
ATOM     15  C   UNL     1     -19.337  23.025  -1.671  1.00  0.00    -0.000 C 
BRANCH  15  16
ATOM     16  C   UNL     1     -19.017  21.527  -1.538  1.00  0.00    -0.000 C 
BRANCH  16  17
ATOM     17  C   UNL     1     -19.538  20.931  -0.218  1.00  0.00    -0.000 C 
BRANCH  17  18
ATOM     18  C   UNL     1     -21.019  21.260   0.035  1.00  0.00    -0.000 C 
BRANCH  18  19
ATOM     19  C   UNL     1     -21.254  21.917   1.404  1.00  0.00    -0.003 C 
ATOM     20  C   UNL     1     -19.977  21.918   2.239  1.00  0.00     0.004 C 
ENDBRANCH  18  19
ENDBRANCH  17  18
ENDBRANCH  16  17
ENDBRANCH  15  16
ENDBRANCH  14  15
ENDBRANCH  13  14
ENDBRANCH  12  13
ENDBRANCH   1  12
TORSDOF 16
ENDMDL
