MODEL 1
REMARK VINA RESULT:    -5.244      0.000      0.000
REMARK INTER + INTRA:         -16.394
REMARK INTER:                 -13.828
REMARK INTRA:                  -2.565
REMARK UNBOUND:                -2.565
REMARK SMILES CCCCCCCCCCCCCCCCCCCCCCCCCCCCCC(=O)[O-]
REMARK SMILES IDX 16 1 17 2 18 3 19 4 20 5 21 6 22 7 23 8 24 9 25 10 26 11
REMARK SMILES IDX 27 12 28 13 29 14 30 15 31 16 32 17 15 18 14 19 13 20 12 21
REMARK SMILES IDX 11 22 10 23 9 24 8 25 7 26 6 27 5 28 4 29 3 30 2 31 1 32
REMARK H PARENT
REMARK Flexibility Score: inf
ROOT
ATOM      1  C   UNL     1       9.463  -0.863  22.766  1.00  0.00     0.000 C 
ENDROOT
BRANCH   1   2
ATOM      2  C   UNL     1      10.711  -0.109  23.252  1.00  0.00     0.000 C 
BRANCH   2   3
ATOM      3  C   UNL     1      11.844  -0.149  22.213  1.00  0.00     0.000 C 
BRANCH   3   4
ATOM      4  C   UNL     1      13.035  -1.018  22.664  1.00  0.00     0.000 C 
BRANCH   4   5
ATOM      5  C   UNL     1      13.502  -1.978  21.559  1.00  0.00     0.000 C 
BRANCH   5   6
ATOM      6  C   UNL     1      12.834  -3.360  21.690  1.00  0.00     0.000 C 
BRANCH   6   7
ATOM      7  C   UNL     1      13.702  -4.500  21.116  1.00  0.00     0.000 C 
BRANCH   7   8
ATOM      8  C   UNL     1      13.392  -4.839  19.646  1.00  0.00     0.000 C 
BRANCH   8   9
ATOM      9  C   UNL     1      14.630  -5.054  18.760  1.00  0.00     0.000 C 
BRANCH   9  10
ATOM     10  C   UNL     1      14.640  -6.433  18.084  1.00  0.00     0.000 C 
BRANCH  10  11
ATOM     11  C   UNL     1      13.217  -7.000  17.957  1.00  0.00     0.000 C 
BRANCH  11  12
ATOM     12  C   UNL     1      12.622  -6.812  16.551  1.00  0.00     0.000 C 
BRANCH  12  13
ATOM     13  C   UNL     1      13.699  -6.754  15.453  1.00  0.00     0.006 C 
BRANCH  13  14
ATOM     14  C   UNL     1      13.491  -7.828  14.377  1.00  0.00     0.053 C 
BRANCH  14  15
ATOM     15  C   UNL     1      14.520  -8.915  14.473  1.00  0.00     0.041 C 
ATOM     16  O   UNL     1      15.447  -8.988  13.623  1.00  0.00    -0.550 OA
ATOM     17  O   UNL     1      14.442  -9.855  15.492  1.00  0.00    -0.550 OA
ENDBRANCH  14  15
ENDBRANCH  13  14
ENDBRANCH  12  13
ENDBRANCH  11  12
ENDBRANCH  10  11
ENDBRANCH   9  10
ENDBRANCH   8   9
ENDBRANCH   7   8
ENDBRANCH   6   7
ENDBRANCH   5   6
ENDBRANCH   4   5
ENDBRANCH   3   4
ENDBRANCH   2   3
ENDBRANCH   1   2
BRANCH   1  18
ATOM     18  C   UNL     1       9.379  -2.270  23.373  1.00  0.00     0.000 C 
BRANCH  18  19
ATOM     19  C   UNL     1       8.628  -2.235  24.714  1.00  0.00     0.000 C 
BRANCH  19  20
ATOM     20  C   UNL     1       7.792  -3.507  24.959  1.00  0.00     0.000 C 
BRANCH  20  21
ATOM     21  C   UNL     1       7.471  -3.756  26.443  1.00  0.00     0.000 C 
BRANCH  21  22
ATOM     22  C   UNL     1       6.410  -4.840  26.695  1.00  0.00     0.000 C 
BRANCH  22  23
ATOM     23  C   UNL     1       6.306  -5.227  28.178  1.00  0.00     0.000 C 
BRANCH  23  24
ATOM     24  C   UNL     1       7.685  -5.229  28.847  1.00  0.00    -0.000 C 
BRANCH  24  25
ATOM     25  C   UNL     1       7.580  -5.651  30.317  1.00  0.00    -0.000 C 
BRANCH  25  26
ATOM     26  C   UNL     1       6.119  -5.663  30.783  1.00  0.00    -0.000 C 
BRANCH  26  27
ATOM     27  C   UNL     1       5.817  -6.820  31.758  1.00  0.00    -0.000 C 
BRANCH  27  28
ATOM     28  C   UNL     1       6.128  -8.217  31.183  1.00  0.00    -0.000 C 
BRANCH  28  29
ATOM     29  C   UNL     1       5.239  -8.653  30.004  1.00  0.00    -0.000 C 
BRANCH  29  30
ATOM     30  C   UNL     1       5.913  -9.603  28.996  1.00  0.00    -0.000 C 
BRANCH  30  31
ATOM     31  C   UNL     1       6.329  -8.896  27.698  1.00  0.00    -0.003 C 
ATOM     32  C   UNL     1       7.839  -8.700  27.638  1.00  0.00     0.004 C 
ENDBRANCH  30  31
ENDBRANCH  29  30
ENDBRANCH  28  29
ENDBRANCH  27  28
ENDBRANCH  26  27
ENDBRANCH  25  26
ENDBRANCH  24  25
ENDBRANCH  23  24
ENDBRANCH  22  23
ENDBRANCH  21  22
ENDBRANCH  20  21
ENDBRANCH  19  20
ENDBRANCH  18  19
ENDBRANCH   1  18
TORSDOF 28
ENDMDL
MODEL 2
REMARK VINA RESULT:    -5.131      1.184      2.496
REMARK INTER + INTRA:         -16.096
REMARK INTER:                 -13.688
REMARK INTRA:                  -2.408
REMARK UNBOUND:                -2.565
REMARK SMILES CCCCCCCCCCCCCCCCCCCCCCCCCCCCCC(=O)[O-]
REMARK SMILES IDX 16 1 17 2 18 3 19 4 20 5 21 6 22 7 23 8 24 9 25 10 26 11
REMARK SMILES IDX 27 12 28 13 29 14 30 15 31 16 32 17 15 18 14 19 13 20 12 21
REMARK SMILES IDX 11 22 10 23 9 24 8 25 7 26 6 27 5 28 4 29 3 30 2 31 1 32
REMARK H PARENT
REMARK Flexibility Score: inf
ROOT
ATOM      1  C   UNL     1       9.310  -1.853  22.764  1.00  0.00     0.000 C 
ENDROOT
BRANCH   1   2
ATOM      2  C   UNL     1       9.587  -0.508  23.454  1.00  0.00     0.000 C 
BRANCH   2   3
ATOM      3  C   UNL     1      10.505   0.391  22.610  1.00  0.00     0.000 C 
BRANCH   3   4
ATOM      4  C   UNL     1      11.994   0.233  22.978  1.00  0.00     0.000 C 
BRANCH   4   5
ATOM      5  C   UNL     1      12.748  -0.654  21.976  1.00  0.00     0.000 C 
BRANCH   5   6
ATOM      6  C   UNL     1      13.438  -1.840  22.676  1.00  0.00     0.000 C 
BRANCH   6   7
ATOM      7  C   UNL     1      12.890  -3.207  22.214  1.00  0.00     0.000 C 
BRANCH   7   8
ATOM      8  C   UNL     1      13.405  -3.649  20.831  1.00  0.00     0.000 C 
BRANCH   8   9
ATOM      9  C   UNL     1      13.815  -5.128  20.739  1.00  0.00     0.000 C 
BRANCH   9  10
ATOM     10  C   UNL     1      14.613  -5.440  19.464  1.00  0.00     0.000 C 
BRANCH  10  11
ATOM     11  C   UNL     1      14.201  -6.795  18.867  1.00  0.00     0.000 C 
BRANCH  11  12
ATOM     12  C   UNL     1      14.817  -7.051  17.482  1.00  0.00     0.000 C 
BRANCH  12  13
ATOM     13  C   UNL     1      13.799  -7.621  16.476  1.00  0.00     0.006 C 
BRANCH  13  14
ATOM     14  C   UNL     1      13.444  -6.614  15.375  1.00  0.00     0.053 C 
BRANCH  14  15
ATOM     15  C   UNL     1      14.071  -6.984  14.063  1.00  0.00     0.041 C 
ATOM     16  O   UNL     1      13.393  -6.944  13.002  1.00  0.00    -0.550 OA
ATOM     17  O   UNL     1      15.397  -7.392  14.019  1.00  0.00    -0.550 OA
ENDBRANCH  14  15
ENDBRANCH  13  14
ENDBRANCH  12  13
ENDBRANCH  11  12
ENDBRANCH  10  11
ENDBRANCH   9  10
ENDBRANCH   8   9
ENDBRANCH   7   8
ENDBRANCH   6   7
ENDBRANCH   5   6
ENDBRANCH   4   5
ENDBRANCH   3   4
ENDBRANCH   2   3
ENDBRANCH   1   2
BRANCH   1  18
ATOM     18  C   UNL     1       9.147  -2.989  23.783  1.00  0.00     0.000 C 
BRANCH  18  19
ATOM     19  C   UNL     1       8.254  -2.540  24.952  1.00  0.00     0.000 C 
BRANCH  19  20
ATOM     20  C   UNL     1       7.630  -3.729  25.712  1.00  0.00     0.000 C 
BRANCH  20  21
ATOM     21  C   UNL     1       7.162  -3.373  27.133  1.00  0.00     0.000 C 
BRANCH  21  22
ATOM     22  C   UNL     1       7.320  -4.505  28.161  1.00  0.00     0.000 C 
BRANCH  22  23
ATOM     23  C   UNL     1       8.750  -5.063  28.206  1.00  0.00     0.000 C 
BRANCH  23  24
ATOM     24  C   UNL     1       8.748  -6.565  28.511  1.00  0.00    -0.000 C 
BRANCH  24  25
ATOM     25  C   UNL     1       7.987  -7.341  27.431  1.00  0.00    -0.000 C 
BRANCH  25  26
ATOM     26  C   UNL     1       7.217  -8.520  28.039  1.00  0.00    -0.000 C 
BRANCH  26  27
ATOM     27  C   UNL     1       5.833  -8.109  28.583  1.00  0.00    -0.000 C 
BRANCH  27  28
ATOM     28  C   UNL     1       5.466  -8.780  29.921  1.00  0.00    -0.000 C 
BRANCH  28  29
ATOM     29  C   UNL     1       5.467  -7.845  31.145  1.00  0.00    -0.000 C 
BRANCH  29  30
ATOM     30  C   UNL     1       6.811  -7.147  31.429  1.00  0.00    -0.000 C 
BRANCH  30  31
ATOM     31  C   UNL     1       6.678  -5.622  31.536  1.00  0.00    -0.003 C 
ATOM     32  C   UNL     1       7.148  -5.123  32.898  1.00  0.00     0.004 C 
ENDBRANCH  30  31
ENDBRANCH  29  30
ENDBRANCH  28  29
ENDBRANCH  27  28
ENDBRANCH  26  27
ENDBRANCH  25  26
ENDBRANCH  24  25
ENDBRANCH  23  24
ENDBRANCH  22  23
ENDBRANCH  21  22
ENDBRANCH  20  21
ENDBRANCH  19  20
ENDBRANCH  18  19
ENDBRANCH   1  18
TORSDOF 28
ENDMDL
MODEL 3
REMARK VINA RESULT:    -5.042      1.589      3.898
REMARK INTER + INTRA:         -15.861
REMARK INTER:                 -12.864
REMARK INTRA:                  -2.997
REMARK UNBOUND:                -2.565
REMARK SMILES CCCCCCCCCCCCCCCCCCCCCCCCCCCCCC(=O)[O-]
REMARK SMILES IDX 16 1 17 2 18 3 19 4 20 5 21 6 22 7 23 8 24 9 25 10 26 11
REMARK SMILES IDX 27 12 28 13 29 14 30 15 31 16 32 17 15 18 14 19 13 20 12 21
REMARK SMILES IDX 11 22 10 23 9 24 8 25 7 26 6 27 5 28 4 29 3 30 2 31 1 32
REMARK H PARENT
REMARK Flexibility Score: inf
ROOT
ATOM      1  C   UNL     1       7.503  -3.825  24.682  1.00  0.00     0.000 C 
ENDROOT
BRANCH   1   2
ATOM      2  C   UNL     1       8.260  -2.522  24.986  1.00  0.00     0.000 C 
BRANCH   2   3
ATOM      3  C   UNL     1       9.004  -1.990  23.750  1.00  0.00     0.000 C 
BRANCH   3   4
ATOM      4  C   UNL     1       9.170  -0.458  23.768  1.00  0.00     0.000 C 
BRANCH   4   5
ATOM      5  C   UNL     1      10.087   0.039  22.639  1.00  0.00     0.000 C 
BRANCH   5   6
ATOM      6  C   UNL     1      11.553   0.132  23.101  1.00  0.00     0.000 C 
BRANCH   6   7
ATOM      7  C   UNL     1      12.539  -0.485  22.086  1.00  0.00     0.000 C 
BRANCH   7   8
ATOM      8  C   UNL     1      13.314  -1.700  22.631  1.00  0.00     0.000 C 
BRANCH   8   9
ATOM      9  C   UNL     1      12.724  -3.066  22.244  1.00  0.00     0.000 C 
BRANCH   9  10
ATOM     10  C   UNL     1      13.395  -3.666  20.999  1.00  0.00     0.000 C 
BRANCH  10  11
ATOM     11  C   UNL     1      13.840  -5.115  21.251  1.00  0.00     0.000 C 
BRANCH  11  12
ATOM     12  C   UNL     1      14.626  -5.713  20.072  1.00  0.00     0.000 C 
BRANCH  12  13
ATOM     13  C   UNL     1      14.554  -4.840  18.806  1.00  0.00     0.006 C 
BRANCH  13  14
ATOM     14  C   UNL     1      13.822  -5.543  17.656  1.00  0.00     0.053 C 
BRANCH  14  15
ATOM     15  C   UNL     1      14.376  -6.914  17.403  1.00  0.00     0.041 C 
ATOM     16  O   UNL     1      13.600  -7.886  17.201  1.00  0.00    -0.550 OA
ATOM     17  O   UNL     1      15.749  -7.119  17.410  1.00  0.00    -0.550 OA
ENDBRANCH  14  15
ENDBRANCH  13  14
ENDBRANCH  12  13
ENDBRANCH  11  12
ENDBRANCH  10  11
ENDBRANCH   9  10
ENDBRANCH   8   9
ENDBRANCH   7   8
ENDBRANCH   6   7
ENDBRANCH   5   6
ENDBRANCH   4   5
ENDBRANCH   3   4
ENDBRANCH   2   3
ENDBRANCH   1   2
BRANCH   1  18
ATOM     18  C   UNL     1       6.770  -4.355  25.921  1.00  0.00     0.000 C 
BRANCH  18  19
ATOM     19  C   UNL     1       7.113  -3.505  27.156  1.00  0.00     0.000 C 
BRANCH  19  20
ATOM     20  C   UNL     1       7.642  -4.353  28.331  1.00  0.00     0.000 C 
BRANCH  20  21
ATOM     21  C   UNL     1       8.808  -5.280  27.945  1.00  0.00     0.000 C 
BRANCH  21  22
ATOM     22  C   UNL     1       8.865  -6.598  28.733  1.00  0.00     0.000 C 
BRANCH  22  23
ATOM     23  C   UNL     1       8.660  -7.828  27.837  1.00  0.00     0.000 C 
BRANCH  23  24
ATOM     24  C   UNL     1       7.330  -7.745  27.080  1.00  0.00    -0.000 C 
BRANCH  24  25
ATOM     25  C   UNL     1       6.537  -9.049  27.222  1.00  0.00    -0.000 C 
BRANCH  25  26
ATOM     26  C   UNL     1       5.057  -8.767  27.504  1.00  0.00    -0.000 C 
BRANCH  26  27
ATOM     27  C   UNL     1       4.833  -8.080  28.868  1.00  0.00    -0.000 C 
BRANCH  27  28
ATOM     28  C   UNL     1       5.534  -8.789  30.045  1.00  0.00    -0.000 C 
BRANCH  28  29
ATOM     29  C   UNL     1       6.284  -7.860  31.017  1.00  0.00    -0.000 C 
BRANCH  29  30
ATOM     30  C   UNL     1       5.881  -6.375  30.940  1.00  0.00    -0.000 C 
BRANCH  30  31
ATOM     31  C   UNL     1       6.757  -5.474  31.820  1.00  0.00    -0.003 C 
ATOM     32  C   UNL     1       8.093  -6.140  32.130  1.00  0.00     0.004 C 
ENDBRANCH  30  31
ENDBRANCH  29  30
ENDBRANCH  28  29
ENDBRANCH  27  28
ENDBRANCH  26  27
ENDBRANCH  25  26
ENDBRANCH  24  25
ENDBRANCH  23  24
ENDBRANCH  22  23
ENDBRANCH  21  22
ENDBRANCH  20  21
ENDBRANCH  19  20
ENDBRANCH  18  19
ENDBRANCH   1  18
TORSDOF 28
ENDMDL
MODEL 4
REMARK VINA RESULT:    -4.940      5.304     12.925
REMARK INTER + INTRA:         -15.591
REMARK INTER:                 -13.325
REMARK INTRA:                  -2.266
REMARK UNBOUND:                -2.565
REMARK SMILES CCCCCCCCCCCCCCCCCCCCCCCCCCCCCC(=O)[O-]
REMARK SMILES IDX 16 1 17 2 18 3 19 4 20 5 21 6 22 7 23 8 24 9 25 10 26 11
REMARK SMILES IDX 27 12 28 13 29 14 30 15 31 16 32 17 15 18 14 19 13 20 12 21
REMARK SMILES IDX 11 22 10 23 9 24 8 25 7 26 6 27 5 28 4 29 3 30 2 31 1 32
REMARK H PARENT
REMARK Flexibility Score: inf
ROOT
ATOM      1  C   UNL     1      12.653  -2.237  22.308  1.00  0.00     0.000 C 
ENDROOT
BRANCH   1   2
ATOM      2  C   UNL     1      13.017  -0.760  22.531  1.00  0.00     0.000 C 
BRANCH   2   3
ATOM      3  C   UNL     1      11.829   0.172  22.242  1.00  0.00     0.000 C 
BRANCH   3   4
ATOM      4  C   UNL     1      10.785   0.176  23.376  1.00  0.00     0.000 C 
BRANCH   4   5
ATOM      5  C   UNL     1       9.445  -0.431  22.933  1.00  0.00     0.000 C 
BRANCH   5   6
ATOM      6  C   UNL     1       8.630  -0.944  24.135  1.00  0.00     0.000 C 
BRANCH   6   7
ATOM      7  C   UNL     1       8.705  -2.477  24.297  1.00  0.00     0.000 C 
BRANCH   7   8
ATOM      8  C   UNL     1       8.003  -3.004  25.564  1.00  0.00     0.000 C 
BRANCH   8   9
ATOM      9  C   UNL     1       7.010  -4.152  25.319  1.00  0.00     0.000 C 
BRANCH   9  10
ATOM     10  C   UNL     1       6.273  -4.577  26.598  1.00  0.00     0.000 C 
BRANCH  10  11
ATOM     11  C   UNL     1       7.181  -4.447  27.831  1.00  0.00     0.000 C 
BRANCH  11  12
ATOM     12  C   UNL     1       7.297  -5.756  28.629  1.00  0.00     0.000 C 
BRANCH  12  13
ATOM     13  C   UNL     1       7.819  -5.534  30.061  1.00  0.00     0.006 C 
BRANCH  13  14
ATOM     14  C   UNL     1       7.010  -6.318  31.102  1.00  0.00     0.053 C 
BRANCH  14  15
ATOM     15  C   UNL     1       6.605  -5.450  32.256  1.00  0.00     0.041 C 
ATOM     16  O   UNL     1       7.454  -4.715  32.827  1.00  0.00    -0.550 OA
ATOM     17  O   UNL     1       5.293  -5.468  32.711  1.00  0.00    -0.550 OA
ENDBRANCH  14  15
ENDBRANCH  13  14
ENDBRANCH  12  13
ENDBRANCH  11  12
ENDBRANCH  10  11
ENDBRANCH   9  10
ENDBRANCH   8   9
ENDBRANCH   7   8
ENDBRANCH   6   7
ENDBRANCH   5   6
ENDBRANCH   4   5
ENDBRANCH   3   4
ENDBRANCH   2   3
ENDBRANCH   1   2
BRANCH   1  18
ATOM     18  C   UNL     1      13.514  -2.871  21.207  1.00  0.00     0.000 C 
BRANCH  18  19
ATOM     19  C   UNL     1      13.245  -4.383  21.116  1.00  0.00     0.000 C 
BRANCH  19  20
ATOM     20  C   UNL     1      14.108  -5.074  20.040  1.00  0.00     0.000 C 
BRANCH  20  21
ATOM     21  C   UNL     1      14.793  -6.360  20.534  1.00  0.00     0.000 C 
BRANCH  21  22
ATOM     22  C   UNL     1      15.345  -7.260  19.417  1.00  0.00     0.000 C 
BRANCH  22  23
ATOM     23  C   UNL     1      15.058  -8.748  19.665  1.00  0.00     0.000 C 
BRANCH  23  24
ATOM     24  C   UNL     1      15.632  -9.617  18.540  1.00  0.00    -0.000 C 
BRANCH  24  25
ATOM     25  C   UNL     1      15.897  -8.780  17.284  1.00  0.00    -0.000 C 
BRANCH  25  26
ATOM     26  C   UNL     1      15.690  -9.614  16.013  1.00  0.00    -0.000 C 
BRANCH  26  27
ATOM     27  C   UNL     1      14.241  -9.542  15.485  1.00  0.00    -0.000 C 
BRANCH  27  28
ATOM     28  C   UNL     1      14.048  -8.538  14.331  1.00  0.00    -0.000 C 
BRANCH  28  29
ATOM     29  C   UNL     1      13.259  -7.266  14.694  1.00  0.00    -0.000 C 
BRANCH  29  30
ATOM     30  C   UNL     1      13.594  -6.662  16.070  1.00  0.00    -0.000 C 
BRANCH  30  31
ATOM     31  C   UNL     1      12.360  -6.505  16.968  1.00  0.00    -0.003 C 
ATOM     32  C   UNL     1      12.075  -7.789  17.740  1.00  0.00     0.004 C 
ENDBRANCH  30  31
ENDBRANCH  29  30
ENDBRANCH  28  29
ENDBRANCH  27  28
ENDBRANCH  26  27
ENDBRANCH  25  26
ENDBRANCH  24  25
ENDBRANCH  23  24
ENDBRANCH  22  23
ENDBRANCH  21  22
ENDBRANCH  20  21
ENDBRANCH  19  20
ENDBRANCH  18  19
ENDBRANCH   1  18
TORSDOF 28
ENDMDL
MODEL 5
REMARK VINA RESULT:    -4.926      4.204     12.477
REMARK INTER + INTRA:         -15.556
REMARK INTER:                 -12.723
REMARK INTRA:                  -2.833
REMARK UNBOUND:                -2.565
REMARK SMILES CCCCCCCCCCCCCCCCCCCCCCCCCCCCCC(=O)[O-]
REMARK SMILES IDX 16 1 17 2 18 3 19 4 20 5 21 6 22 7 23 8 24 9 25 10 26 11
REMARK SMILES IDX 27 12 28 13 29 14 30 15 31 16 32 17 15 18 14 19 13 20 12 21
REMARK SMILES IDX 11 22 10 23 9 24 8 25 7 26 6 27 5 28 4 29 3 30 2 31 1 32
REMARK H PARENT
REMARK Flexibility Score: inf
ROOT
ATOM      1  C   UNL     1      13.339  -3.312  21.271  1.00  0.00     0.000 C 
ENDROOT
BRANCH   1   2
ATOM      2  C   UNL     1      12.750  -2.630  22.516  1.00  0.00     0.000 C 
BRANCH   2   3
ATOM      3  C   UNL     1      13.060  -1.124  22.545  1.00  0.00     0.000 C 
BRANCH   3   4
ATOM      4  C   UNL     1      11.840  -0.257  22.175  1.00  0.00     0.000 C 
BRANCH   4   5
ATOM      5  C   UNL     1      11.223   0.428  23.405  1.00  0.00     0.000 C 
BRANCH   5   6
ATOM      6  C   UNL     1       9.812  -0.111  23.705  1.00  0.00     0.000 C 
BRANCH   6   7
ATOM      7  C   UNL     1       9.405  -1.273  22.772  1.00  0.00     0.000 C 
BRANCH   7   8
ATOM      8  C   UNL     1       9.006  -2.560  23.519  1.00  0.00     0.000 C 
BRANCH   8   9
ATOM      9  C   UNL     1       8.440  -2.336  24.930  1.00  0.00     0.000 C 
BRANCH   9  10
ATOM     10  C   UNL     1       7.769  -3.594  25.503  1.00  0.00     0.000 C 
BRANCH  10  11
ATOM     11  C   UNL     1       7.173  -3.323  26.893  1.00  0.00     0.000 C 
BRANCH  11  12
ATOM     12  C   UNL     1       7.911  -4.070  28.016  1.00  0.00     0.000 C 
BRANCH  12  13
ATOM     13  C   UNL     1       7.188  -5.361  28.444  1.00  0.00     0.006 C 
BRANCH  13  14
ATOM     14  C   UNL     1       5.728  -5.392  27.974  1.00  0.00     0.053 C 
BRANCH  14  15
ATOM     15  C   UNL     1       5.492  -6.486  26.975  1.00  0.00     0.041 C 
ATOM     16  O   UNL     1       5.216  -6.204  25.778  1.00  0.00    -0.550 OA
ATOM     17  O   UNL     1       5.558  -7.814  27.373  1.00  0.00    -0.550 OA
ENDBRANCH  14  15
ENDBRANCH  13  14
ENDBRANCH  12  13
ENDBRANCH  11  12
ENDBRANCH  10  11
ENDBRANCH   9  10
ENDBRANCH   8   9
ENDBRANCH   7   8
ENDBRANCH   6   7
ENDBRANCH   5   6
ENDBRANCH   4   5
ENDBRANCH   3   4
ENDBRANCH   2   3
ENDBRANCH   1   2
BRANCH   1  18
ATOM     18  C   UNL     1      13.496  -4.825  21.475  1.00  0.00     0.000 C 
BRANCH  18  19
ATOM     19  C   UNL     1      14.358  -5.434  20.357  1.00  0.00     0.000 C 
BRANCH  19  20
ATOM     20  C   UNL     1      14.192  -4.696  19.012  1.00  0.00     0.000 C 
BRANCH  20  21
ATOM     21  C   UNL     1      14.111  -5.640  17.800  1.00  0.00     0.000 C 
BRANCH  21  22
ATOM     22  C   UNL     1      12.701  -6.167  17.493  1.00  0.00     0.000 C 
BRANCH  22  23
ATOM     23  C   UNL     1      12.636  -6.935  16.164  1.00  0.00     0.000 C 
BRANCH  23  24
ATOM     24  C   UNL     1      13.818  -6.574  15.259  1.00  0.00    -0.000 C 
BRANCH  24  25
ATOM     25  C   UNL     1      13.722  -7.305  13.915  1.00  0.00    -0.000 C 
BRANCH  25  26
ATOM     26  C   UNL     1      15.100  -7.422  13.252  1.00  0.00    -0.000 C 
BRANCH  26  27
ATOM     27  C   UNL     1      15.663  -8.858  13.302  1.00  0.00    -0.000 C 
BRANCH  27  28
ATOM     28  C   UNL     1      14.961  -9.767  14.331  1.00  0.00    -0.000 C 
BRANCH  28  29
ATOM     29  C   UNL     1      15.664  -9.877  15.696  1.00  0.00    -0.000 C 
BRANCH  29  30
ATOM     30  C   UNL     1      14.722  -9.903  16.914  1.00  0.00    -0.000 C 
BRANCH  30  31
ATOM     31  C   UNL     1      15.305  -9.177  18.134  1.00  0.00    -0.003 C 
ATOM     32  C   UNL     1      14.300  -9.133  19.280  1.00  0.00     0.004 C 
ENDBRANCH  30  31
ENDBRANCH  29  30
ENDBRANCH  28  29
ENDBRANCH  27  28
ENDBRANCH  26  27
ENDBRANCH  25  26
ENDBRANCH  24  25
ENDBRANCH  23  24
ENDBRANCH  22  23
ENDBRANCH  21  22
ENDBRANCH  20  21
ENDBRANCH  19  20
ENDBRANCH  18  19
ENDBRANCH   1  18
TORSDOF 28
ENDMDL
MODEL 6
REMARK VINA RESULT:    -4.911      1.076      2.074
REMARK INTER + INTRA:         -15.516
REMARK INTER:                 -13.316
REMARK INTRA:                  -2.200
REMARK UNBOUND:                -2.565
REMARK SMILES CCCCCCCCCCCCCCCCCCCCCCCCCCCCCC(=O)[O-]
REMARK SMILES IDX 16 1 17 2 18 3 19 4 20 5 21 6 22 7 23 8 24 9 25 10 26 11
REMARK SMILES IDX 27 12 28 13 29 14 30 15 31 16 32 17 15 18 14 19 13 20 12 21
REMARK SMILES IDX 11 22 10 23 9 24 8 25 7 26 6 27 5 28 4 29 3 30 2 31 1 32
REMARK H PARENT
REMARK Flexibility Score: inf
ROOT
ATOM      1  C   UNL     1      10.809   0.372  23.442  1.00  0.00     0.000 C 
ENDROOT
BRANCH   1   2
ATOM      2  C   UNL     1      11.694   0.067  22.223  1.00  0.00     0.000 C 
BRANCH   2   3
ATOM      3  C   UNL     1      13.109  -0.368  22.637  1.00  0.00     0.000 C 
BRANCH   3   4
ATOM      4  C   UNL     1      13.546  -1.687  21.968  1.00  0.00     0.000 C 
BRANCH   4   5
ATOM      5  C   UNL     1      12.896  -2.914  22.626  1.00  0.00     0.000 C 
BRANCH   5   6
ATOM      6  C   UNL     1      12.955  -4.148  21.706  1.00  0.00     0.000 C 
BRANCH   6   7
ATOM      7  C   UNL     1      13.739  -3.885  20.403  1.00  0.00     0.000 C 
BRANCH   7   8
ATOM      8  C   UNL     1      14.329  -5.157  19.764  1.00  0.00     0.000 C 
BRANCH   8   9
ATOM      9  C   UNL     1      14.373  -5.144  18.228  1.00  0.00     0.000 C 
BRANCH   9  10
ATOM     10  C   UNL     1      14.612  -6.540  17.633  1.00  0.00     0.000 C 
BRANCH  10  11
ATOM     11  C   UNL     1      13.292  -7.312  17.479  1.00  0.00     0.000 C 
BRANCH  11  12
ATOM     12  C   UNL     1      12.533  -6.949  16.192  1.00  0.00     0.000 C 
BRANCH  12  13
ATOM     13  C   UNL     1      13.469  -6.760  14.984  1.00  0.00     0.006 C 
BRANCH  13  14
ATOM     14  C   UNL     1      13.733  -8.078  14.243  1.00  0.00     0.053 C 
BRANCH  14  15
ATOM     15  C   UNL     1      15.168  -8.198  13.822  1.00  0.00     0.041 C 
ATOM     16  O   UNL     1      15.728  -7.257  13.199  1.00  0.00    -0.550 OA
ATOM     17  O   UNL     1      15.878  -9.358  14.104  1.00  0.00    -0.550 OA
ENDBRANCH  14  15
ENDBRANCH  13  14
ENDBRANCH  12  13
ENDBRANCH  11  12
ENDBRANCH  10  11
ENDBRANCH   9  10
ENDBRANCH   8   9
ENDBRANCH   7   8
ENDBRANCH   6   7
ENDBRANCH   5   6
ENDBRANCH   4   5
ENDBRANCH   3   4
ENDBRANCH   2   3
ENDBRANCH   1   2
BRANCH   1  18
ATOM     18  C   UNL     1       9.471  -0.376  23.371  1.00  0.00     0.000 C 
BRANCH  18  19
ATOM     19  C   UNL     1       9.704  -1.875  23.123  1.00  0.00     0.000 C 
BRANCH  19  20
ATOM     20  C   UNL     1       8.554  -2.751  23.660  1.00  0.00     0.000 C 
BRANCH  20  21
ATOM     21  C   UNL     1       8.276  -2.549  25.159  1.00  0.00     0.000 C 
BRANCH  21  22
ATOM     22  C   UNL     1       7.492  -3.692  25.825  1.00  0.00     0.000 C 
BRANCH  22  23
ATOM     23  C   UNL     1       7.152  -3.396  27.293  1.00  0.00     0.000 C 
BRANCH  23  24
ATOM     24  C   UNL     1       7.703  -4.486  28.219  1.00  0.00    -0.000 C 
BRANCH  24  25
ATOM     25  C   UNL     1       7.243  -5.875  27.762  1.00  0.00    -0.000 C 
BRANCH  25  26
ATOM     26  C   UNL     1       5.751  -6.084  28.048  1.00  0.00    -0.000 C 
BRANCH  26  27
ATOM     27  C   UNL     1       5.339  -7.570  27.997  1.00  0.00    -0.000 C 
BRANCH  27  28
ATOM     28  C   UNL     1       5.723  -8.366  29.261  1.00  0.00    -0.000 C 
BRANCH  28  29
ATOM     29  C   UNL     1       4.793  -8.162  30.471  1.00  0.00    -0.000 C 
BRANCH  29  30
ATOM     30  C   UNL     1       5.450  -7.489  31.691  1.00  0.00    -0.000 C 
BRANCH  30  31
ATOM     31  C   UNL     1       6.903  -7.071  31.429  1.00  0.00    -0.003 C 
ATOM     32  C   UNL     1       7.115  -5.594  31.740  1.00  0.00     0.004 C 
ENDBRANCH  30  31
ENDBRANCH  29  30
ENDBRANCH  28  29
ENDBRANCH  27  28
ENDBRANCH  26  27
ENDBRANCH  25  26
ENDBRANCH  24  25
ENDBRANCH  23  24
ENDBRANCH  22  23
ENDBRANCH  21  22
ENDBRANCH  20  21
ENDBRANCH  19  20
ENDBRANCH  18  19
ENDBRANCH   1  18
TORSDOF 28
ENDMDL
MODEL 7
REMARK VINA RESULT:    -4.896      1.426      3.010
REMARK INTER + INTRA:         -15.476
REMARK INTER:                 -13.431
REMARK INTRA:                  -2.044
REMARK UNBOUND:                -2.565
REMARK SMILES CCCCCCCCCCCCCCCCCCCCCCCCCCCCCC(=O)[O-]
REMARK SMILES IDX 16 1 17 2 18 3 19 4 20 5 21 6 22 7 23 8 24 9 25 10 26 11
REMARK SMILES IDX 27 12 28 13 29 14 30 15 31 16 32 17 15 18 14 19 13 20 12 21
REMARK SMILES IDX 11 22 10 23 9 24 8 25 7 26 6 27 5 28 4 29 3 30 2 31 1 32
REMARK H PARENT
REMARK Flexibility Score: inf
ROOT
ATOM      1  C   UNL     1      11.675  -0.301  22.199  1.00  0.00     0.000 C 
ENDROOT
BRANCH   1   2
ATOM      2  C   UNL     1      13.055  -0.780  22.678  1.00  0.00     0.000 C 
BRANCH   2   3
ATOM      3  C   UNL     1      13.595  -1.929  21.810  1.00  0.00     0.000 C 
BRANCH   3   4
ATOM      4  C   UNL     1      12.731  -3.203  21.904  1.00  0.00     0.000 C 
BRANCH   4   5
ATOM      5  C   UNL     1      13.529  -4.469  21.557  1.00  0.00     0.000 C 
BRANCH   5   6
ATOM      6  C   UNL     1      13.637  -4.671  20.034  1.00  0.00     0.000 C 
BRANCH   6   7
ATOM      7  C   UNL     1      14.552  -5.854  19.651  1.00  0.00     0.000 C 
BRANCH   7   8
ATOM      8  C   UNL     1      14.717  -6.047  18.132  1.00  0.00     0.000 C 
BRANCH   8   9
ATOM      9  C   UNL     1      13.468  -5.708  17.301  1.00  0.00     0.000 C 
BRANCH   9  10
ATOM     10  C   UNL     1      13.051  -6.857  16.370  1.00  0.00     0.000 C 
BRANCH  10  11
ATOM     11  C   UNL     1      13.793  -6.782  15.026  1.00  0.00     0.000 C 
BRANCH  11  12
ATOM     12  C   UNL     1      13.838  -8.132  14.291  1.00  0.00     0.000 C 
BRANCH  12  13
ATOM     13  C   UNL     1      14.008  -9.324  15.251  1.00  0.00     0.006 C 
BRANCH  13  14
ATOM     14  C   UNL     1      15.481  -9.590  15.591  1.00  0.00     0.053 C 
BRANCH  14  15
ATOM     15  C   UNL     1      15.711  -9.612  17.073  1.00  0.00     0.041 C 
ATOM     16  O   UNL     1      16.884  -9.630  17.533  1.00  0.00    -0.550 OA
ATOM     17  O   UNL     1      14.629  -9.631  17.942  1.00  0.00    -0.550 OA
ENDBRANCH  14  15
ENDBRANCH  13  14
ENDBRANCH  12  13
ENDBRANCH  11  12
ENDBRANCH  10  11
ENDBRANCH   9  10
ENDBRANCH   8   9
ENDBRANCH   7   8
ENDBRANCH   6   7
ENDBRANCH   5   6
ENDBRANCH   4   5
ENDBRANCH   3   4
ENDBRANCH   2   3
ENDBRANCH   1   2
BRANCH   1  18
ATOM     18  C   UNL     1      10.850   0.290  23.350  1.00  0.00     0.000 C 
BRANCH  18  19
ATOM     19  C   UNL     1       9.539  -0.491  23.531  1.00  0.00     0.000 C 
BRANCH  19  20
ATOM     20  C   UNL     1       9.663  -1.967  23.100  1.00  0.00     0.000 C 
BRANCH  20  21
ATOM     21  C   UNL     1       8.586  -2.880  23.710  1.00  0.00     0.000 C 
BRANCH  21  22
ATOM     22  C   UNL     1       8.215  -2.548  25.164  1.00  0.00     0.000 C 
BRANCH  22  23
ATOM     23  C   UNL     1       7.356  -3.642  25.817  1.00  0.00     0.000 C 
BRANCH  23  24
ATOM     24  C   UNL     1       7.456  -3.585  27.345  1.00  0.00    -0.000 C 
BRANCH  24  25
ATOM     25  C   UNL     1       8.309  -4.740  27.881  1.00  0.00    -0.000 C 
BRANCH  25  26
ATOM     26  C   UNL     1       7.713  -5.310  29.174  1.00  0.00    -0.000 C 
BRANCH  26  27
ATOM     27  C   UNL     1       7.167  -6.742  28.995  1.00  0.00    -0.000 C 
BRANCH  27  28
ATOM     28  C   UNL     1       5.662  -6.878  29.305  1.00  0.00    -0.000 C 
BRANCH  28  29
ATOM     29  C   UNL     1       5.322  -7.737  30.538  1.00  0.00    -0.000 C 
BRANCH  29  30
ATOM     30  C   UNL     1       6.037  -7.322  31.837  1.00  0.00    -0.000 C 
BRANCH  30  31
ATOM     31  C   UNL     1       5.703  -5.888  32.269  1.00  0.00    -0.003 C 
ATOM     32  C   UNL     1       6.938  -5.174  32.807  1.00  0.00     0.004 C 
ENDBRANCH  30  31
ENDBRANCH  29  30
ENDBRANCH  28  29
ENDBRANCH  27  28
ENDBRANCH  26  27
ENDBRANCH  25  26
ENDBRANCH  24  25
ENDBRANCH  23  24
ENDBRANCH  22  23
ENDBRANCH  21  22
ENDBRANCH  20  21
ENDBRANCH  19  20
ENDBRANCH  18  19
ENDBRANCH   1  18
TORSDOF 28
ENDMDL
MODEL 8
REMARK VINA RESULT:    -4.882      4.786     12.584
REMARK INTER + INTRA:         -15.439
REMARK INTER:                 -12.670
REMARK INTRA:                  -2.768
REMARK UNBOUND:                -2.565
REMARK SMILES CCCCCCCCCCCCCCCCCCCCCCCCCCCCCC(=O)[O-]
REMARK SMILES IDX 16 1 17 2 18 3 19 4 20 5 21 6 22 7 23 8 24 9 25 10 26 11
REMARK SMILES IDX 27 12 28 13 29 14 30 15 31 16 32 17 15 18 14 19 13 20 12 21
REMARK SMILES IDX 11 22 10 23 9 24 8 25 7 26 6 27 5 28 4 29 3 30 2 31 1 32
REMARK H PARENT
REMARK Flexibility Score: inf
ROOT
ATOM      1  C   UNL     1      13.512  -1.864  21.600  1.00  0.00     0.000 C 
ENDROOT
BRANCH   1   2
ATOM      2  C   UNL     1      13.109  -0.779  22.611  1.00  0.00     0.000 C 
BRANCH   2   3
ATOM      3  C   UNL     1      11.748  -0.151  22.266  1.00  0.00     0.000 C 
BRANCH   3   4
ATOM      4  C   UNL     1      11.025   0.421  23.502  1.00  0.00     0.000 C 
BRANCH   4   5
ATOM      5  C   UNL     1       9.615  -0.166  23.671  1.00  0.00     0.000 C 
BRANCH   5   6
ATOM      6  C   UNL     1       9.452  -1.483  22.889  1.00  0.00     0.000 C 
BRANCH   6   7
ATOM      7  C   UNL     1       9.155  -2.689  23.806  1.00  0.00     0.000 C 
BRANCH   7   8
ATOM      8  C   UNL     1       8.108  -2.398  24.898  1.00  0.00     0.000 C 
BRANCH   8   9
ATOM      9  C   UNL     1       7.715  -3.614  25.752  1.00  0.00     0.000 C 
BRANCH   9  10
ATOM     10  C   UNL     1       7.208  -3.215  27.147  1.00  0.00     0.000 C 
BRANCH  10  11
ATOM     11  C   UNL     1       7.508  -4.311  28.182  1.00  0.00     0.000 C 
BRANCH  11  12
ATOM     12  C   UNL     1       7.380  -5.730  27.605  1.00  0.00     0.000 C 
BRANCH  12  13
ATOM     13  C   UNL     1       6.574  -6.672  28.519  1.00  0.00     0.006 C 
BRANCH  13  14
ATOM     14  C   UNL     1       6.045  -5.955  29.768  1.00  0.00     0.053 C 
BRANCH  14  15
ATOM     15  C   UNL     1       6.620  -6.536  31.026  1.00  0.00     0.041 C 
ATOM     16  O   UNL     1       5.902  -7.233  31.790  1.00  0.00    -0.550 OA
ATOM     17  O   UNL     1       7.945  -6.290  31.360  1.00  0.00    -0.550 OA
ENDBRANCH  14  15
ENDBRANCH  13  14
ENDBRANCH  12  13
ENDBRANCH  11  12
ENDBRANCH  10  11
ENDBRANCH   9  10
ENDBRANCH   8   9
ENDBRANCH   7   8
ENDBRANCH   6   7
ENDBRANCH   5   6
ENDBRANCH   4   5
ENDBRANCH   3   4
ENDBRANCH   2   3
ENDBRANCH   1   2
BRANCH   1  18
ATOM     18  C   UNL     1      12.753  -3.175  21.843  1.00  0.00     0.000 C 
BRANCH  18  19
ATOM     19  C   UNL     1      13.583  -4.376  21.362  1.00  0.00     0.000 C 
BRANCH  19  20
ATOM     20  C   UNL     1      13.153  -4.872  19.965  1.00  0.00     0.000 C 
BRANCH  20  21
ATOM     21  C   UNL     1      14.329  -5.056  18.990  1.00  0.00     0.000 C 
BRANCH  21  22
ATOM     22  C   UNL     1      13.929  -5.563  17.595  1.00  0.00     0.000 C 
BRANCH  22  23
ATOM     23  C   UNL     1      12.720  -6.509  17.637  1.00  0.00     0.000 C 
BRANCH  23  24
ATOM     24  C   UNL     1      12.402  -7.062  16.243  1.00  0.00    -0.000 C 
BRANCH  24  25
ATOM     25  C   UNL     1      13.509  -6.703  15.246  1.00  0.00    -0.000 C 
BRANCH  25  26
ATOM     26  C   UNL     1      13.491  -7.648  14.039  1.00  0.00    -0.000 C 
BRANCH  26  27
ATOM     27  C   UNL     1      14.242  -8.969  14.308  1.00  0.00    -0.000 C 
BRANCH  27  28
ATOM     28  C   UNL     1      15.322  -8.859  15.402  1.00  0.00    -0.000 C 
BRANCH  28  29
ATOM     29  C   UNL     1      15.428 -10.075  16.343  1.00  0.00    -0.000 C 
BRANCH  29  30
ATOM     30  C   UNL     1      14.619  -9.959  17.649  1.00  0.00    -0.000 C 
BRANCH  30  31
ATOM     31  C   UNL     1      15.316  -9.094  18.706  1.00  0.00    -0.003 C 
ATOM     32  C   UNL     1      14.349  -8.699  19.818  1.00  0.00     0.004 C 
ENDBRANCH  30  31
ENDBRANCH  29  30
ENDBRANCH  28  29
ENDBRANCH  27  28
ENDBRANCH  26  27
ENDBRANCH  25  26
ENDBRANCH  24  25
ENDBRANCH  23  24
ENDBRANCH  22  23
ENDBRANCH  21  22
ENDBRANCH  20  21
ENDBRANCH  19  20
ENDBRANCH  18  19
ENDBRANCH   1  18
TORSDOF 28
ENDMDL
MODEL 9
REMARK VINA RESULT:    -3.532      6.713      9.454
REMARK INTER + INTRA:         -11.878
REMARK INTER:                  -6.828
REMARK INTRA:                  -5.050
REMARK UNBOUND:                -2.565
REMARK SMILES CCCCCCCCCCCCCCCCCCCCCCCCCCCCCC(=O)[O-]
REMARK SMILES IDX 16 1 17 2 18 3 19 4 20 5 21 6 22 7 23 8 24 9 25 10 26 11
REMARK SMILES IDX 27 12 28 13 29 14 30 15 31 16 32 17 15 18 14 19 13 20 12 21
REMARK SMILES IDX 11 22 10 23 9 24 8 25 7 26 6 27 5 28 4 29 3 30 2 31 1 32
REMARK H PARENT
REMARK Flexibility Score: inf
ROOT
ATOM      1  C   UNL     1       3.273  -8.604  25.582  1.00  0.00     0.000 C 
ENDROOT
BRANCH   1   2
ATOM      2  C   UNL     1       4.389  -9.512  25.039  1.00  0.00     0.000 C 
BRANCH   2   3
ATOM      3  C   UNL     1       5.639  -8.710  24.645  1.00  0.00     0.000 C 
BRANCH   3   4
ATOM      4  C   UNL     1       6.812  -9.611  24.210  1.00  0.00     0.000 C 
BRANCH   4   5
ATOM      5  C   UNL     1       6.645 -10.125  22.772  1.00  0.00     0.000 C 
BRANCH   5   6
ATOM      6  C   UNL     1       6.658  -8.970  21.752  1.00  0.00     0.000 C 
BRANCH   6   7
ATOM      7  C   UNL     1       5.505  -9.063  20.730  1.00  0.00     0.000 C 
BRANCH   7   8
ATOM      8  C   UNL     1       4.223  -9.706  21.293  1.00  0.00     0.000 C 
BRANCH   8   9
ATOM      9  C   UNL     1       2.951  -8.858  21.126  1.00  0.00     0.000 C 
BRANCH   9  10
ATOM     10  C   UNL     1       3.162  -7.392  21.534  1.00  0.00     0.000 C 
BRANCH  10  11
ATOM     11  C   UNL     1       2.135  -6.956  22.589  1.00  0.00     0.000 C 
BRANCH  11  12
ATOM     12  C   UNL     1       2.654  -5.832  23.502  1.00  0.00     0.000 C 
BRANCH  12  13
ATOM     13  C   UNL     1       4.166  -5.586  23.338  1.00  0.00     0.006 C 
BRANCH  13  14
ATOM     14  C   UNL     1       4.861  -5.329  24.681  1.00  0.00     0.053 C 
BRANCH  14  15
ATOM     15  C   UNL     1       6.311  -4.990  24.498  1.00  0.00     0.041 C 
ATOM     16  O   UNL     1       6.805  -3.983  25.072  1.00  0.00    -0.550 OA
ATOM     17  O   UNL     1       7.109  -5.777  23.679  1.00  0.00    -0.550 OA
ENDBRANCH  14  15
ENDBRANCH  13  14
ENDBRANCH  12  13
ENDBRANCH  11  12
ENDBRANCH  10  11
ENDBRANCH   9  10
ENDBRANCH   8   9
ENDBRANCH   7   8
ENDBRANCH   6   7
ENDBRANCH   5   6
ENDBRANCH   4   5
ENDBRANCH   3   4
ENDBRANCH   2   3
ENDBRANCH   1   2
BRANCH   1  18
ATOM     18  C   UNL     1       2.481  -9.289  26.703  1.00  0.00     0.000 C 
BRANCH  18  19
ATOM     19  C   UNL     1       2.111  -8.276  27.798  1.00  0.00     0.000 C 
BRANCH  19  20
ATOM     20  C   UNL     1       3.130  -8.256  28.956  1.00  0.00     0.000 C 
BRANCH  20  21
ATOM     21  C   UNL     1       3.848  -9.600  29.167  1.00  0.00     0.000 C 
BRANCH  21  22
ATOM     22  C   UNL     1       5.363  -9.486  29.401  1.00  0.00     0.000 C 
BRANCH  22  23
ATOM     23  C   UNL     1       6.158  -9.427  28.088  1.00  0.00     0.000 C 
BRANCH  23  24
ATOM     24  C   UNL     1       7.360  -8.484  28.212  1.00  0.00    -0.000 C 
BRANCH  24  25
ATOM     25  C   UNL     1       7.041  -7.110  27.613  1.00  0.00    -0.000 C 
BRANCH  25  26
ATOM     26  C   UNL     1       6.152  -6.291  28.557  1.00  0.00    -0.000 C 
BRANCH  26  27
ATOM     27  C   UNL     1       6.961  -5.309  29.431  1.00  0.00    -0.000 C 
BRANCH  27  28
ATOM     28  C   UNL     1       7.724  -5.988  30.586  1.00  0.00    -0.000 C 
BRANCH  28  29
ATOM     29  C   UNL     1       7.502  -5.361  31.976  1.00  0.00    -0.000 C 
BRANCH  29  30
ATOM     30  C   UNL     1       6.091  -5.563  32.562  1.00  0.00    -0.000 C 
BRANCH  30  31
ATOM     31  C   UNL     1       5.507  -6.945  32.245  1.00  0.00    -0.003 C 
ATOM     32  C   UNL     1       4.134  -7.122  32.885  1.00  0.00     0.004 C 
ENDBRANCH  30  31
ENDBRANCH  29  30
ENDBRANCH  28  29
ENDBRANCH  27  28
ENDBRANCH  26  27
ENDBRANCH  25  26
ENDBRANCH  24  25
ENDBRANCH  23  24
ENDBRANCH  22  23
ENDBRANCH  21  22
ENDBRANCH  20  21
ENDBRANCH  19  20
ENDBRANCH  18  19
ENDBRANCH   1  18
TORSDOF 28
ENDMDL
