MODEL 1
REMARK VINA RESULT:    -7.112      0.000      0.000
REMARK INTER + INTRA:         -13.311
REMARK INTER:                 -11.686
REMARK INTRA:                  -1.625
REMARK UNBOUND:                -1.625
REMARK SMILES C[C@@H]1O[C@@H](OC[C@H]2O[C@@H](Oc3c(-c4ccc(O)c(O)c4)oc4cc(O)cc(O)c4c3=O)[C@@H](O)[C@H](O)[C@H]2O)[C@H](O)[C@@H](O)[C@@H]1O
REMARK SMILES IDX 7 1 36 2 34 3 32 4 9 5 8 6 6 7 5 8 4 9 1 10 2 11 42 12 3 13
REMARK SMILES IDX 40 14 38 15 43 16 41 18 39 20 37 22 35 24 10 26 11 27 12 28
REMARK SMILES IDX 30 29 21 30 29 31 31 32 22 33 27 34 23 35 26 36 24 37 13 38
REMARK SMILES IDX 20 39 14 40 18 41 15 42 16 43 19 44 17 46 28 48 25 50 33 52
REMARK H PARENT 43 17 41 19 39 21 37 23 35 25 19 45 17 47 28 49 25 51 33 53
REMARK Flexibility Score: inf
ROOT
ATOM      1  C   UNL     1      12.052 -27.272   4.594  1.00  0.00     0.180 C 
ATOM      2  C   UNL     1      11.955 -28.415   3.542  1.00  0.00     0.177 C 
ATOM      3  C   UNL     1      13.336 -29.128   3.366  1.00  0.00     0.180 C 
ATOM      4  C   UNL     1      13.743 -29.610   4.784  1.00  0.00     0.214 C 
ATOM      5  C   UNL     1      13.857 -28.517   5.846  1.00  0.00     0.339 C 
ATOM      6  O   UNL     1      12.753 -27.567   5.865  1.00  0.00    -0.332 OA
ENDROOT
BRANCH   1   7
ATOM      7  C   UNL     1      10.584 -26.451   4.551  1.00  0.00     0.198 C 
BRANCH   7   8
ATOM      8  O   UNL     1       9.760 -26.107   5.697  1.00  0.00    -0.347 OA
BRANCH   8   9
ATOM      9  C   UNL     1      10.351 -25.649   6.953  1.00  0.00     0.281 C 
ATOM     10  C   UNL     1       8.967 -28.154   9.424  1.00  0.00     0.041 C 
ATOM     11  C   UNL     1       9.063 -27.363   8.033  1.00  0.00     0.150 C 
ATOM     12  C   UNL     1       7.823 -26.417   7.484  1.00  0.00     0.174 C 
ATOM     13  O   UNL     1      10.314 -26.743   7.909  1.00  0.00    -0.344 OA
ATOM     14  C   UNL     1       8.117 -24.902   8.015  1.00  0.00     0.179 C 
ATOM     15  C   UNL     1       9.543 -24.410   7.602  1.00  0.00     0.202 C 
BRANCH  12  16
ATOM     16  O   UNL     1       6.545 -26.959   7.743  1.00  0.00    -0.388 OA
ATOM     17  H   UNL     1       6.592 -27.953   7.581  1.00  0.00     0.211 HD
ENDBRANCH  12  16
BRANCH  14  18
ATOM     18  O   UNL     1       7.226 -23.853   7.592  1.00  0.00    -0.387 OA
ATOM     19  H   UNL     1       6.337 -24.233   7.490  1.00  0.00     0.211 HD
ENDBRANCH  14  18
BRANCH  15  20
ATOM     20  O   UNL     1      10.166 -23.702   8.706  1.00  0.00    -0.385 OA
ATOM     21  H   UNL     1       9.649 -23.060   9.248  1.00  0.00     0.211 HD
ENDBRANCH  15  20
ENDBRANCH   8   9
ENDBRANCH   7   8
ENDBRANCH   1   7
BRANCH   2  22
ATOM     22  O   UNL     1      10.953 -29.368   3.710  1.00  0.00    -0.387 OA
ATOM     23  H   UNL     1      10.085 -28.967   3.267  1.00  0.00     0.211 HD
ENDBRANCH   2  22
BRANCH   3  24
ATOM     24  O   UNL     1      14.321 -28.217   2.833  1.00  0.00    -0.387 OA
ATOM     25  H   UNL     1      14.073 -27.295   3.188  1.00  0.00     0.211 HD
ENDBRANCH   3  24
BRANCH   5  26
ATOM     26  O   UNL     1      13.993 -29.259   7.099  1.00  0.00    -0.454 OA
BRANCH  26  27
ATOM     27  C   UNL     1      13.779 -28.920   8.438  1.00  0.00     0.214 A 
ATOM     28  C   UNL     1      14.622 -27.910   9.103  1.00  0.00     0.180 A 
ATOM     29  C   UNL     1      12.840 -29.620   9.247  1.00  0.00     0.239 A 
ATOM     30  O   UNL     1      14.450 -27.660  10.379  1.00  0.00    -0.452 OA
ATOM     31  C   UNL     1      12.963 -29.500  10.659  1.00  0.00     0.111 A 
ATOM     32  O   UNL     1      12.016 -30.448   8.756  1.00  0.00    -0.285 OA
ATOM     33  C   UNL     1      13.765 -28.484  11.167  1.00  0.00     0.146 A 
ATOM     34  C   UNL     1      12.219 -30.249  11.584  1.00  0.00     0.134 A 
ATOM     35  C   UNL     1      14.016 -28.387  12.546  1.00  0.00     0.094 A 
ATOM     36  C   UNL     1      12.771 -30.422  12.881  1.00  0.00     0.093 A 
ATOM     37  C   UNL     1      13.677 -29.449  13.357  1.00  0.00     0.123 A 
BRANCH  28  38
ATOM     38  C   UNL     1      15.851 -27.236   8.546  1.00  0.00     0.025 A 
ATOM     39  C   UNL     1      15.670 -26.252   7.545  1.00  0.00     0.062 A 
ATOM     40  C   UNL     1      16.589 -26.782   9.598  1.00  0.00     0.016 A 
ATOM     41  C   UNL     1      15.810 -24.901   7.996  1.00  0.00     0.158 A 
ATOM     42  C   UNL     1      16.079 -25.630  10.176  1.00  0.00     0.051 A 
ATOM     43  C   UNL     1      15.654 -24.613   9.329  1.00  0.00     0.157 A 
BRANCH  41  44
ATOM     44  O   UNL     1      16.574 -23.893   7.303  1.00  0.00    -0.504 OA
ATOM     45  H   UNL     1      16.316 -22.912   7.462  1.00  0.00     0.293 HD
ENDBRANCH  41  44
BRANCH  43  46
ATOM     46  O   UNL     1      15.152 -23.326   9.730  1.00  0.00    -0.504 OA
ATOM     47  H   UNL     1      14.127 -23.120   9.559  1.00  0.00     0.293 HD
ENDBRANCH  43  46
ENDBRANCH  28  38
BRANCH  34  48
ATOM     48  O   UNL     1      11.064 -30.953  11.336  1.00  0.00    -0.507 OA
ATOM     49  H   UNL     1      10.910 -31.455  10.435  1.00  0.00     0.293 HD
ENDBRANCH  34  48
BRANCH  37  50
ATOM     50  O   UNL     1      14.345 -29.603  14.542  1.00  0.00    -0.508 OA
ATOM     51  H   UNL     1      13.853 -29.734  15.407  1.00  0.00     0.293 HD
ENDBRANCH  37  50
ENDBRANCH  26  27
ENDBRANCH   5  26
BRANCH   4  52
ATOM     52  O   UNL     1      12.841 -30.563   5.202  1.00  0.00    -0.384 OA
ATOM     53  H   UNL     1      12.750 -31.345   4.532  1.00  0.00     0.211 HD
ENDBRANCH   4  52
TORSDOF 16
ENDMDL
MODEL 2
REMARK VINA RESULT:    -6.371      0.778      1.843
REMARK INTER + INTRA:         -12.093
REMARK INTER:                  -9.932
REMARK INTRA:                  -2.161
REMARK UNBOUND:                -1.625
REMARK SMILES C[C@@H]1O[C@@H](OC[C@H]2O[C@@H](Oc3c(-c4ccc(O)c(O)c4)oc4cc(O)cc(O)c4c3=O)[C@@H](O)[C@H](O)[C@H]2O)[C@H](O)[C@@H](O)[C@@H]1O
REMARK SMILES IDX 7 1 36 2 34 3 32 4 9 5 8 6 6 7 5 8 4 9 1 10 2 11 42 12 3 13
REMARK SMILES IDX 40 14 38 15 43 16 41 18 39 20 37 22 35 24 10 26 11 27 12 28
REMARK SMILES IDX 30 29 21 30 29 31 31 32 22 33 27 34 23 35 26 36 24 37 13 38
REMARK SMILES IDX 20 39 14 40 18 41 15 42 16 43 19 44 17 46 28 48 25 50 33 52
REMARK H PARENT 43 17 41 19 39 21 37 23 35 25 19 45 17 47 28 49 25 51 33 53
REMARK Flexibility Score: inf
ROOT
ATOM      1  C   UNL     1      11.982 -27.232   4.651  1.00  0.00     0.180 C 
ATOM      2  C   UNL     1      11.933 -28.372   3.590  1.00  0.00     0.177 C 
ATOM      3  C   UNL     1      13.349 -29.003   3.385  1.00  0.00     0.180 C 
ATOM      4  C   UNL     1      13.807 -29.471   4.793  1.00  0.00     0.214 C 
ATOM      5  C   UNL     1      13.876 -28.382   5.863  1.00  0.00     0.339 C 
ATOM      6  O   UNL     1      12.720 -27.497   5.907  1.00  0.00    -0.332 OA
ENDROOT
BRANCH   1   7
ATOM      7  C   UNL     1      10.469 -26.497   4.640  1.00  0.00     0.198 C 
BRANCH   7   8
ATOM      8  O   UNL     1       9.814 -25.864   5.772  1.00  0.00    -0.347 OA
BRANCH   8   9
ATOM      9  C   UNL     1       9.233 -26.655   6.856  1.00  0.00     0.281 C 
ATOM     10  C   UNL     1       7.762 -23.968   9.073  1.00  0.00     0.041 C 
ATOM     11  C   UNL     1       8.683 -24.567   7.907  1.00  0.00     0.150 C 
ATOM     12  C   UNL     1      10.333 -24.455   7.959  1.00  0.00     0.174 C 
ATOM     13  O   UNL     1       8.239 -25.844   7.538  1.00  0.00    -0.344 OA
ATOM     14  C   UNL     1      10.874 -25.820   8.670  1.00  0.00     0.179 C 
ATOM     15  C   UNL     1      10.331 -27.100   7.954  1.00  0.00     0.202 C 
BRANCH  12  16
ATOM     16  O   UNL     1      10.797 -23.225   8.477  1.00  0.00    -0.388 OA
ATOM     17  H   UNL     1      11.501 -23.428   9.169  1.00  0.00     0.211 HD
ENDBRANCH  12  16
BRANCH  14  18
ATOM     18  O   UNL     1      12.297 -26.019   8.756  1.00  0.00    -0.387 OA
ATOM     19  H   UNL     1      12.685 -25.812   7.889  1.00  0.00     0.211 HD
ENDBRANCH  14  18
BRANCH  15  20
ATOM     20  O   UNL     1       9.937 -28.093   8.937  1.00  0.00    -0.385 OA
ATOM     21  H   UNL     1       9.111 -27.979   9.465  1.00  0.00     0.211 HD
ENDBRANCH  15  20
ENDBRANCH   8   9
ENDBRANCH   7   8
ENDBRANCH   1   7
BRANCH   2  22
ATOM     22  O   UNL     1      10.990 -29.381   3.767  1.00  0.00    -0.387 OA
ATOM     23  H   UNL     1      10.925 -29.891   2.847  1.00  0.00     0.211 HD
ENDBRANCH   2  22
BRANCH   3  24
ATOM     24  O   UNL     1      14.271 -28.032   2.845  1.00  0.00    -0.387 OA
ATOM     25  H   UNL     1      14.710 -28.477   2.041  1.00  0.00     0.211 HD
ENDBRANCH   3  24
BRANCH   5  26
ATOM     26  O   UNL     1      14.076 -29.125   7.107  1.00  0.00    -0.454 OA
BRANCH  26  27
ATOM     27  C   UNL     1      13.852 -28.815   8.451  1.00  0.00     0.214 A 
ATOM     28  C   UNL     1      14.695 -27.825   9.146  1.00  0.00     0.180 A 
ATOM     29  C   UNL     1      12.901 -29.526   9.235  1.00  0.00     0.239 A 
ATOM     30  O   UNL     1      14.513 -27.603  10.425  1.00  0.00    -0.452 OA
ATOM     31  C   UNL     1      13.012 -29.439  10.651  1.00  0.00     0.111 A 
ATOM     32  O   UNL     1      12.076 -30.337   8.718  1.00  0.00    -0.285 OA
ATOM     33  C   UNL     1      13.816 -28.440  11.189  1.00  0.00     0.146 A 
ATOM     34  C   UNL     1      12.255 -30.203  11.552  1.00  0.00     0.134 A 
ATOM     35  C   UNL     1      14.055 -28.375  12.572  1.00  0.00     0.094 A 
ATOM     36  C   UNL     1      12.793 -30.409  12.850  1.00  0.00     0.093 A 
ATOM     37  C   UNL     1      13.702 -29.454  13.355  1.00  0.00     0.123 A 
BRANCH  28  38
ATOM     38  C   UNL     1      15.934 -27.148   8.615  1.00  0.00     0.025 A 
ATOM     39  C   UNL     1      15.774 -26.190   7.585  1.00  0.00     0.062 A 
ATOM     40  C   UNL     1      16.628 -26.658   9.680  1.00  0.00     0.016 A 
ATOM     41  C   UNL     1      15.880 -24.827   8.006  1.00  0.00     0.158 A 
ATOM     42  C   UNL     1      16.083 -25.500  10.212  1.00  0.00     0.051 A 
ATOM     43  C   UNL     1      15.674 -24.510   9.327  1.00  0.00     0.157 A 
BRANCH  41  44
ATOM     44  O   UNL     1      16.654 -23.825   7.316  1.00  0.00    -0.504 OA
ATOM     45  H   UNL     1      17.495 -24.137   6.819  1.00  0.00     0.293 HD
ENDBRANCH  41  44
BRANCH  43  46
ATOM     46  O   UNL     1      15.141 -23.221   9.678  1.00  0.00    -0.504 OA
ATOM     47  H   UNL     1      15.150 -22.944  10.701  1.00  0.00     0.293 HD
ENDBRANCH  43  46
ENDBRANCH  28  38
BRANCH  34  48
ATOM     48  O   UNL     1      11.097 -30.894  11.278  1.00  0.00    -0.507 OA
ATOM     49  H   UNL     1      11.114 -31.884  10.949  1.00  0.00     0.293 HD
ENDBRANCH  34  48
BRANCH  37  50
ATOM     50  O   UNL     1      14.358 -29.638  14.542  1.00  0.00    -0.508 OA
ATOM     51  H   UNL     1      13.858 -29.745  15.406  1.00  0.00     0.293 HD
ENDBRANCH  37  50
ENDBRANCH  26  27
ENDBRANCH   5  26
BRANCH   4  52
ATOM     52  O   UNL     1      12.968 -30.478   5.217  1.00  0.00    -0.384 OA
ATOM     53  H   UNL     1      13.291 -31.415   4.922  1.00  0.00     0.211 HD
ENDBRANCH   4  52
TORSDOF 16
ENDMDL
MODEL 3
REMARK VINA RESULT:    -5.959      1.589      5.936
REMARK INTER + INTRA:         -11.417
REMARK INTER:                  -9.275
REMARK INTRA:                  -2.142
REMARK UNBOUND:                -1.625
REMARK SMILES C[C@@H]1O[C@@H](OC[C@H]2O[C@@H](Oc3c(-c4ccc(O)c(O)c4)oc4cc(O)cc(O)c4c3=O)[C@@H](O)[C@H](O)[C@H]2O)[C@H](O)[C@@H](O)[C@@H]1O
REMARK SMILES IDX 7 1 36 2 34 3 32 4 9 5 8 6 6 7 5 8 4 9 1 10 2 11 42 12 3 13
REMARK SMILES IDX 40 14 38 15 43 16 41 18 39 20 37 22 35 24 10 26 11 27 12 28
REMARK SMILES IDX 30 29 21 30 29 31 31 32 22 33 27 34 23 35 26 36 24 37 13 38
REMARK SMILES IDX 20 39 14 40 18 41 15 42 16 43 19 44 17 46 28 48 25 50 33 52
REMARK H PARENT 43 17 41 19 39 21 37 23 35 25 19 45 17 47 28 49 25 51 33 53
REMARK Flexibility Score: inf
ROOT
ATOM      1  C   UNL     1      10.243 -29.619  10.267  1.00  0.00     0.180 C 
ATOM      2  C   UNL     1      10.244 -29.870  11.804  1.00  0.00     0.177 C 
ATOM      3  C   UNL     1      11.336 -30.918  12.197  1.00  0.00     0.180 C 
ATOM      4  C   UNL     1      12.674 -30.352  11.650  1.00  0.00     0.214 C 
ATOM      5  C   UNL     1      12.719 -30.098  10.144  1.00  0.00     0.339 C 
ATOM      6  O   UNL     1      11.552 -29.413   9.606  1.00  0.00    -0.332 OA
ENDROOT
BRANCH   1   7
ATOM      7  C   UNL     1       8.911 -28.647   9.937  1.00  0.00     0.198 C 
BRANCH   7   8
ATOM      8  O   UNL     1       8.947 -27.256   9.516  1.00  0.00    -0.347 OA
BRANCH   8   9
ATOM      9  C   UNL     1       9.669 -26.840   8.316  1.00  0.00     0.281 C 
ATOM     10  C   UNL     1      11.515 -23.776   9.542  1.00  0.00     0.041 C 
ATOM     11  C   UNL     1      10.415 -24.941   9.581  1.00  0.00     0.150 C 
ATOM     12  C   UNL     1       8.795 -24.607   9.546  1.00  0.00     0.174 C 
ATOM     13  O   UNL     1      10.772 -25.982   8.713  1.00  0.00    -0.344 OA
ATOM     14  C   UNL     1       8.340 -24.649   7.981  1.00  0.00     0.179 C 
ATOM     15  C   UNL     1       8.741 -25.997   7.296  1.00  0.00     0.202 C 
BRANCH  12  16
ATOM     16  O   UNL     1       8.440 -23.464  10.296  1.00  0.00    -0.388 OA
ATOM     17  H   UNL     1       7.469 -23.264  10.113  1.00  0.00     0.211 HD
ENDBRANCH  12  16
BRANCH  14  18
ATOM     18  O   UNL     1       6.942 -24.483   7.678  1.00  0.00    -0.387 OA
ATOM     19  H   UNL     1       6.460 -25.244   8.042  1.00  0.00     0.211 HD
ENDBRANCH  14  18
BRANCH  15  20
ATOM     20  O   UNL     1       9.260 -25.746   5.964  1.00  0.00    -0.385 OA
ATOM     21  H   UNL     1       8.712 -25.275   5.291  1.00  0.00     0.211 HD
ENDBRANCH  15  20
ENDBRANCH   8   9
ENDBRANCH   7   8
ENDBRANCH   1   7
BRANCH   2  22
ATOM     22  O   UNL     1      10.333 -28.761  12.642  1.00  0.00    -0.387 OA
ATOM     23  H   UNL     1      10.966 -29.040  13.437  1.00  0.00     0.211 HD
ENDBRANCH   2  22
BRANCH   3  24
ATOM     24  O   UNL     1      11.048 -32.205  11.611  1.00  0.00    -0.387 OA
ATOM     25  H   UNL     1      10.673 -32.015  10.683  1.00  0.00     0.211 HD
ENDBRANCH   3  24
BRANCH   5  26
ATOM     26  O   UNL     1      13.961 -29.349   9.952  1.00  0.00    -0.454 OA
BRANCH  26  27
ATOM     27  C   UNL     1      14.294 -28.236   9.176  1.00  0.00     0.214 A 
ATOM     28  C   UNL     1      14.555 -28.375   7.731  1.00  0.00     0.180 A 
ATOM     29  C   UNL     1      14.526 -26.959   9.760  1.00  0.00     0.239 A 
ATOM     30  O   UNL     1      14.936 -27.329   7.038  1.00  0.00    -0.452 OA
ATOM     31  C   UNL     1      15.239 -25.998   8.990  1.00  0.00     0.111 A 
ATOM     32  O   UNL     1      14.257 -26.716  10.974  1.00  0.00    -0.285 OA
ATOM     33  C   UNL     1      15.391 -26.227   7.627  1.00  0.00     0.146 A 
ATOM     34  C   UNL     1      15.680 -24.760   9.482  1.00  0.00     0.134 A 
ATOM     35  C   UNL     1      16.180 -25.374   6.838  1.00  0.00     0.094 A 
ATOM     36  C   UNL     1      16.779 -24.147   8.823  1.00  0.00     0.093 A 
ATOM     37  C   UNL     1      17.006 -24.467   7.467  1.00  0.00     0.123 A 
BRANCH  28  38
ATOM     38  C   UNL     1      14.646 -29.655   6.939  1.00  0.00     0.025 A 
ATOM     39  C   UNL     1      13.463 -30.411   6.765  1.00  0.00     0.062 A 
ATOM     40  C   UNL     1      15.262 -29.369   5.758  1.00  0.00     0.016 A 
ATOM     41  C   UNL     1      12.863 -30.302   5.471  1.00  0.00     0.158 A 
ATOM     42  C   UNL     1      14.440 -28.728   4.846  1.00  0.00     0.051 A 
ATOM     43  C   UNL     1      13.149 -29.215   4.682  1.00  0.00     0.157 A 
BRANCH  41  44
ATOM     44  O   UNL     1      12.387 -31.427   4.702  1.00  0.00    -0.504 OA
ATOM     45  H   UNL     1      12.536 -32.364   5.094  1.00  0.00     0.293 HD
ENDBRANCH  41  44
BRANCH  43  46
ATOM     46  O   UNL     1      12.167 -28.729   3.749  1.00  0.00    -0.504 OA
ATOM     47  H   UNL     1      11.568 -29.443   3.246  1.00  0.00     0.293 HD
ENDBRANCH  43  46
ENDBRANCH  28  38
BRANCH  34  48
ATOM     48  O   UNL     1      15.251 -24.126  10.625  1.00  0.00    -0.507 OA
ATOM     49  H   UNL     1      14.960 -23.125  10.621  1.00  0.00     0.293 HD
ENDBRANCH  34  48
BRANCH  37  50
ATOM     50  O   UNL     1      18.111 -24.017   6.794  1.00  0.00    -0.508 OA
ATOM     51  H   UNL     1      18.221 -24.169   5.807  1.00  0.00     0.293 HD
ENDBRANCH  37  50
ENDBRANCH  26  27
ENDBRANCH   5  26
BRANCH   4  52
ATOM     52  O   UNL     1      12.967 -29.185  12.321  1.00  0.00    -0.384 OA
ATOM     53  H   UNL     1      13.500 -29.350  13.191  1.00  0.00     0.211 HD
ENDBRANCH   4  52
TORSDOF 16
ENDMDL
MODEL 4
REMARK VINA RESULT:    -5.605      1.695      5.794
REMARK INTER + INTRA:         -10.835
REMARK INTER:                  -8.299
REMARK INTRA:                  -2.536
REMARK UNBOUND:                -1.625
REMARK SMILES C[C@@H]1O[C@@H](OC[C@H]2O[C@@H](Oc3c(-c4ccc(O)c(O)c4)oc4cc(O)cc(O)c4c3=O)[C@@H](O)[C@H](O)[C@H]2O)[C@H](O)[C@@H](O)[C@@H]1O
REMARK SMILES IDX 7 1 36 2 34 3 32 4 9 5 8 6 6 7 5 8 4 9 1 10 2 11 42 12 3 13
REMARK SMILES IDX 40 14 38 15 43 16 41 18 39 20 37 22 35 24 10 26 11 27 12 28
REMARK SMILES IDX 30 29 21 30 29 31 31 32 22 33 27 34 23 35 26 36 24 37 13 38
REMARK SMILES IDX 20 39 14 40 18 41 15 42 16 43 19 44 17 46 28 48 25 50 33 52
REMARK H PARENT 43 17 41 19 39 21 37 23 35 25 19 45 17 47 28 49 25 51 33 53
REMARK Flexibility Score: inf
ROOT
ATOM      1  C   UNL     1      10.056 -29.115  10.029  1.00  0.00     0.180 C 
ATOM      2  C   UNL     1       9.970 -29.648  11.489  1.00  0.00     0.177 C 
ATOM      3  C   UNL     1      10.915 -30.879  11.690  1.00  0.00     0.180 C 
ATOM      4  C   UNL     1      12.330 -30.391  11.279  1.00  0.00     0.214 C 
ATOM      5  C   UNL     1      12.460 -29.866   9.850  1.00  0.00     0.339 C 
ATOM      6  O   UNL     1      11.403 -28.952   9.437  1.00  0.00    -0.332 OA
ENDROOT
BRANCH   1   7
ATOM      7  C   UNL     1       8.862 -27.940   9.873  1.00  0.00     0.198 C 
BRANCH   7   8
ATOM      8  O   UNL     1       8.908 -26.781   8.997  1.00  0.00    -0.347 OA
BRANCH   8   9
ATOM      9  C   UNL     1       9.614 -25.561   9.382  1.00  0.00     0.281 C 
ATOM     10  C   UNL     1       8.871 -23.278   6.460  1.00  0.00     0.041 C 
ATOM     11  C   UNL     1       8.971 -24.671   7.247  1.00  0.00     0.150 C 
ATOM     12  C   UNL     1       9.960 -25.892   6.730  1.00  0.00     0.174 C 
ATOM     13  O   UNL     1       9.061 -24.449   8.628  1.00  0.00    -0.344 OA
ATOM     14  C   UNL     1      11.384 -25.703   7.504  1.00  0.00     0.179 C 
ATOM     15  C   UNL     1      11.194 -25.632   9.055  1.00  0.00     0.202 C 
BRANCH  12  16
ATOM     16  O   UNL     1       9.999 -26.028   5.324  1.00  0.00    -0.388 OA
ATOM     17  H   UNL     1      10.756 -25.459   4.980  1.00  0.00     0.211 HD
ENDBRANCH  12  16
BRANCH  14  18
ATOM     18  O   UNL     1      12.401 -26.700   7.301  1.00  0.00    -0.387 OA
ATOM     19  H   UNL     1      12.001 -27.575   7.440  1.00  0.00     0.211 HD
ENDBRANCH  14  18
BRANCH  15  20
ATOM     20  O   UNL     1      12.045 -24.597   9.615  1.00  0.00    -0.385 OA
ATOM     21  H   UNL     1      12.774 -24.829  10.240  1.00  0.00     0.211 HD
ENDBRANCH  15  20
ENDBRANCH   8   9
ENDBRANCH   7   8
ENDBRANCH   1   7
BRANCH   2  22
ATOM     22  O   UNL     1      10.160 -28.736  12.525  1.00  0.00    -0.387 OA
ATOM     23  H   UNL     1       9.597 -29.092  13.342  1.00  0.00     0.211 HD
ENDBRANCH   2  22
BRANCH   3  24
ATOM     24  O   UNL     1      10.497 -31.987  10.865  1.00  0.00    -0.387 OA
ATOM     25  H   UNL     1       9.828 -32.517  11.421  1.00  0.00     0.211 HD
ENDBRANCH   3  24
BRANCH   5  26
ATOM     26  O   UNL     1      13.788 -29.254   9.821  1.00  0.00    -0.454 OA
BRANCH  26  27
ATOM     27  C   UNL     1      14.286 -28.080   9.250  1.00  0.00     0.214 A 
ATOM     28  C   UNL     1      14.867 -28.088   7.894  1.00  0.00     0.180 A 
ATOM     29  C   UNL     1      14.378 -26.867   9.990  1.00  0.00     0.239 A 
ATOM     30  O   UNL     1      15.393 -26.990   7.409  1.00  0.00    -0.452 OA
ATOM     31  C   UNL     1      15.244 -25.853   9.497  1.00  0.00     0.111 A 
ATOM     32  O   UNL     1      13.840 -26.734  11.130  1.00  0.00    -0.285 OA
ATOM     33  C   UNL     1      15.702 -25.957   8.187  1.00  0.00     0.146 A 
ATOM     34  C   UNL     1      15.560 -24.676  10.192  1.00  0.00     0.134 A 
ATOM     35  C   UNL     1      16.647 -25.049   7.681  1.00  0.00     0.094 A 
ATOM     36  C   UNL     1      16.779 -24.026   9.859  1.00  0.00     0.093 A 
ATOM     37  C   UNL     1      17.308 -24.221   8.565  1.00  0.00     0.123 A 
BRANCH  28  38
ATOM     38  C   UNL     1      15.138 -29.290   7.025  1.00  0.00     0.025 A 
ATOM     39  C   UNL     1      14.147 -30.298   6.962  1.00  0.00     0.062 A 
ATOM     40  C   UNL     1      15.502 -28.837   5.793  1.00  0.00     0.016 A 
ATOM     41  C   UNL     1      13.364 -30.300   5.765  1.00  0.00     0.158 A 
ATOM     42  C   UNL     1      14.436 -28.384   5.032  1.00  0.00     0.051 A 
ATOM     43  C   UNL     1      13.281 -29.156   5.009  1.00  0.00     0.157 A 
BRANCH  41  44
ATOM     44  O   UNL     1      13.056 -31.484   5.001  1.00  0.00    -0.504 OA
ATOM     45  H   UNL     1      13.210 -32.392   5.454  1.00  0.00     0.293 HD
ENDBRANCH  41  44
BRANCH  43  46
ATOM     46  O   UNL     1      12.094 -28.889   4.241  1.00  0.00    -0.504 OA
ATOM     47  H   UNL     1      12.208 -28.397   3.310  1.00  0.00     0.293 HD
ENDBRANCH  43  46
ENDBRANCH  28  38
BRANCH  34  48
ATOM     48  O   UNL     1      14.882 -24.143  11.263  1.00  0.00    -0.507 OA
ATOM     49  H   UNL     1      15.021 -24.500  12.233  1.00  0.00     0.293 HD
ENDBRANCH  34  48
BRANCH  37  50
ATOM     50  O   UNL     1      18.535 -23.732   8.204  1.00  0.00    -0.508 OA
ATOM     51  H   UNL     1      18.647 -23.142   7.400  1.00  0.00     0.293 HD
ENDBRANCH  37  50
ENDBRANCH  26  27
ENDBRANCH   5  26
BRANCH   4  52
ATOM     52  O   UNL     1      12.735 -29.416  12.164  1.00  0.00    -0.384 OA
ATOM     53  H   UNL     1      12.104 -29.334  12.980  1.00  0.00     0.211 HD
ENDBRANCH   4  52
TORSDOF 16
ENDMDL
MODEL 5
REMARK VINA RESULT:    -5.556      1.781      5.162
REMARK INTER + INTRA:         -10.755
REMARK INTER:                  -9.737
REMARK INTRA:                  -1.018
REMARK UNBOUND:                -1.625
REMARK SMILES C[C@@H]1O[C@@H](OC[C@H]2O[C@@H](Oc3c(-c4ccc(O)c(O)c4)oc4cc(O)cc(O)c4c3=O)[C@@H](O)[C@H](O)[C@H]2O)[C@H](O)[C@@H](O)[C@@H]1O
REMARK SMILES IDX 7 1 36 2 34 3 32 4 9 5 8 6 6 7 5 8 4 9 1 10 2 11 42 12 3 13
REMARK SMILES IDX 40 14 38 15 43 16 41 18 39 20 37 22 35 24 10 26 11 27 12 28
REMARK SMILES IDX 30 29 21 30 29 31 31 32 22 33 27 34 23 35 26 36 24 37 13 38
REMARK SMILES IDX 20 39 14 40 18 41 15 42 16 43 19 44 17 46 28 48 25 50 33 52
REMARK H PARENT 43 17 41 19 39 21 37 23 35 25 19 45 17 47 28 49 25 51 33 53
REMARK Flexibility Score: inf
ROOT
ATOM      1  C   UNL     1      13.343 -29.563   6.316  1.00  0.00     0.180 C 
ATOM      2  C   UNL     1      14.485 -29.617   5.258  1.00  0.00     0.177 C 
ATOM      3  C   UNL     1      14.053 -28.907   3.934  1.00  0.00     0.180 C 
ATOM      4  C   UNL     1      13.643 -27.467   4.346  1.00  0.00     0.214 C 
ATOM      5  C   UNL     1      12.520 -27.368   5.377  1.00  0.00     0.339 C 
ATOM      6  O   UNL     1      12.656 -28.267   6.515  1.00  0.00    -0.332 OA
ENDROOT
BRANCH   1   7
ATOM      7  C   UNL     1      13.834 -30.524   7.606  1.00  0.00     0.198 C 
BRANCH   7   8
ATOM      8  O   UNL     1      13.544 -30.288   9.011  1.00  0.00    -0.347 OA
BRANCH   8   9
ATOM      9  C   UNL     1      13.125 -28.973   9.493  1.00  0.00     0.281 C 
ATOM     10  C   UNL     1      12.946 -29.536  13.228  1.00  0.00     0.041 C 
ATOM     11  C   UNL     1      13.024 -29.953  11.682  1.00  0.00     0.150 C 
ATOM     12  C   UNL     1      11.820 -30.822  10.955  1.00  0.00     0.174 C 
ATOM     13  O   UNL     1      13.457 -28.870  10.904  1.00  0.00    -0.344 OA
ATOM     14  C   UNL     1      10.792 -29.741  10.295  1.00  0.00     0.179 C 
ATOM     15  C   UNL     1      11.533 -28.739   9.350  1.00  0.00     0.202 C 
BRANCH  12  16
ATOM     16  O   UNL     1      11.266 -31.821  11.787  1.00  0.00    -0.388 OA
ATOM     17  H   UNL     1      10.404 -32.130  11.366  1.00  0.00     0.211 HD
ENDBRANCH  12  16
BRANCH  14  18
ATOM     18  O   UNL     1       9.692 -30.243   9.514  1.00  0.00    -0.387 OA
ATOM     19  H   UNL     1      10.004 -31.015   9.012  1.00  0.00     0.211 HD
ENDBRANCH  14  18
BRANCH  15  20
ATOM     20  O   UNL     1      11.028 -27.394   9.553  1.00  0.00    -0.385 OA
ATOM     21  H   UNL     1      10.078 -27.240   9.772  1.00  0.00     0.211 HD
ENDBRANCH  15  20
ENDBRANCH   8   9
ENDBRANCH   7   8
ENDBRANCH   1   7
BRANCH   2  22
ATOM     22  O   UNL     1      15.746 -29.168   5.642  1.00  0.00    -0.387 OA
ATOM     23  H   UNL     1      15.820 -28.170   5.310  1.00  0.00     0.211 HD
ENDBRANCH   2  22
BRANCH   3  24
ATOM     24  O   UNL     1      12.945 -29.597   3.319  1.00  0.00    -0.387 OA
ATOM     25  H   UNL     1      12.417 -30.020   4.081  1.00  0.00     0.211 HD
ENDBRANCH   3  24
BRANCH   5  26
ATOM     26  O   UNL     1      12.519 -25.957   5.759  1.00  0.00    -0.454 OA
BRANCH  26  27
ATOM     27  C   UNL     1      11.947 -25.257   6.825  1.00  0.00     0.214 A 
ATOM     28  C   UNL     1      12.640 -25.162   8.123  1.00  0.00     0.180 A 
ATOM     29  C   UNL     1      10.628 -24.726   6.750  1.00  0.00     0.239 A 
ATOM     30  O   UNL     1      12.051 -24.562   9.130  1.00  0.00    -0.452 OA
ATOM     31  C   UNL     1       9.976 -24.397   7.971  1.00  0.00     0.111 A 
ATOM     32  O   UNL     1       9.981 -24.687   5.662  1.00  0.00    -0.285 OA
ATOM     33  C   UNL     1      10.746 -24.306   9.126  1.00  0.00     0.146 A 
ATOM     34  C   UNL     1       8.629 -24.016   8.071  1.00  0.00     0.134 A 
ATOM     35  C   UNL     1      10.144 -24.097  10.378  1.00  0.00     0.094 A 
ATOM     36  C   UNL     1       7.982 -24.217   9.319  1.00  0.00     0.093 A 
ATOM     37  C   UNL     1       8.776 -24.241  10.486  1.00  0.00     0.123 A 
BRANCH  28  38
ATOM     38  C   UNL     1      13.906 -25.870   8.536  1.00  0.00     0.025 A 
ATOM     39  C   UNL     1      15.122 -25.444   7.951  1.00  0.00     0.062 A 
ATOM     40  C   UNL     1      13.954 -25.874   9.897  1.00  0.00     0.016 A 
ATOM     41  C   UNL     1      15.951 -24.642   8.798  1.00  0.00     0.158 A 
ATOM     42  C   UNL     1      14.322 -24.655  10.442  1.00  0.00     0.051 A 
ATOM     43  C   UNL     1      15.389 -23.980   9.862  1.00  0.00     0.157 A 
BRANCH  41  44
ATOM     44  O   UNL     1      17.370 -24.839   8.962  1.00  0.00    -0.504 OA
ATOM     45  H   UNL     1      17.865 -25.351   8.223  1.00  0.00     0.293 HD
ENDBRANCH  41  44
BRANCH  43  46
ATOM     46  O   UNL     1      15.958 -22.738  10.313  1.00  0.00    -0.504 OA
ATOM     47  H   UNL     1      15.349 -21.871  10.270  1.00  0.00     0.293 HD
ENDBRANCH  43  46
ENDBRANCH  28  38
BRANCH  34  48
ATOM     48  O   UNL     1       7.816 -23.586   7.048  1.00  0.00    -0.507 OA
ATOM     49  H   UNL     1       7.622 -22.574   6.889  1.00  0.00     0.293 HD
ENDBRANCH  34  48
BRANCH  37  50
ATOM     50  O   UNL     1       8.250 -24.550  11.712  1.00  0.00    -0.508 OA
ATOM     51  H   UNL     1       7.449 -25.150  11.802  1.00  0.00     0.293 HD
ENDBRANCH  37  50
ENDBRANCH  26  27
ENDBRANCH   5  26
BRANCH   4  52
ATOM     52  O   UNL     1      14.758 -26.809   4.817  1.00  0.00    -0.384 OA
ATOM     53  H   UNL     1      14.630 -26.453   5.779  1.00  0.00     0.211 HD
ENDBRANCH   4  52
TORSDOF 16
ENDMDL
MODEL 6
REMARK VINA RESULT:    -4.492      1.668      6.085
REMARK INTER + INTRA:          -9.006
REMARK INTER:                  -8.016
REMARK INTRA:                  -0.990
REMARK UNBOUND:                -1.625
REMARK SMILES C[C@@H]1O[C@@H](OC[C@H]2O[C@@H](Oc3c(-c4ccc(O)c(O)c4)oc4cc(O)cc(O)c4c3=O)[C@@H](O)[C@H](O)[C@H]2O)[C@H](O)[C@@H](O)[C@@H]1O
REMARK SMILES IDX 7 1 36 2 34 3 32 4 9 5 8 6 6 7 5 8 4 9 1 10 2 11 42 12 3 13
REMARK SMILES IDX 40 14 38 15 43 16 41 18 39 20 37 22 35 24 10 26 11 27 12 28
REMARK SMILES IDX 30 29 21 30 29 31 31 32 22 33 27 34 23 35 26 36 24 37 13 38
REMARK SMILES IDX 20 39 14 40 18 41 15 42 16 43 19 44 17 46 28 48 25 50 33 52
REMARK H PARENT 43 17 41 19 39 21 37 23 35 25 19 45 17 47 28 49 25 51 33 53
REMARK Flexibility Score: inf
ROOT
ATOM      1  C   UNL     1      13.294 -24.092  10.128  1.00  0.00     0.180 C 
ATOM      2  C   UNL     1      14.511 -23.126  10.237  1.00  0.00     0.177 C 
ATOM      3  C   UNL     1      15.799 -23.899  10.671  1.00  0.00     0.180 C 
ATOM      4  C   UNL     1      15.983 -25.028   9.622  1.00  0.00     0.214 C 
ATOM      5  C   UNL     1      14.814 -26.004   9.488  1.00  0.00     0.339 C 
ATOM      6  O   UNL     1      13.501 -25.378   9.423  1.00  0.00    -0.332 OA
ENDROOT
BRANCH   1   7
ATOM      7  C   UNL     1      11.938 -23.133   9.861  1.00  0.00     0.198 C 
BRANCH   7   8
ATOM      8  O   UNL     1      10.707 -23.550   9.210  1.00  0.00    -0.347 OA
BRANCH   8   9
ATOM      9  C   UNL     1      10.329 -24.959   9.124  1.00  0.00     0.281 C 
ATOM     10  C   UNL     1      10.813 -25.669   5.442  1.00  0.00     0.041 C 
ATOM     11  C   UNL     1      10.641 -24.762   6.752  1.00  0.00     0.150 C 
ATOM     12  C   UNL     1       9.363 -23.727   6.930  1.00  0.00     0.174 C 
ATOM     13  O   UNL     1      10.893 -25.516   7.906  1.00  0.00    -0.344 OA
ATOM     14  C   UNL     1       8.198 -24.551   7.720  1.00  0.00     0.179 C 
ATOM     15  C   UNL     1       8.728 -25.167   9.057  1.00  0.00     0.202 C 
BRANCH  12  16
ATOM     16  O   UNL     1       8.998 -23.073   5.733  1.00  0.00    -0.388 OA
ATOM     17  H   UNL     1       8.989 -22.081   5.913  1.00  0.00     0.211 HD
ENDBRANCH  12  16
BRANCH  14  18
ATOM     18  O   UNL     1       7.000 -23.843   8.088  1.00  0.00    -0.387 OA
ATOM     19  H   UNL     1       7.065 -23.605   9.029  1.00  0.00     0.211 HD
ENDBRANCH  14  18
BRANCH  15  20
ATOM     20  O   UNL     1       8.215 -26.514   9.224  1.00  0.00    -0.385 OA
ATOM     21  H   UNL     1       7.870 -26.816  10.098  1.00  0.00     0.211 HD
ENDBRANCH  15  20
ENDBRANCH   8   9
ENDBRANCH   7   8
ENDBRANCH   1   7
BRANCH   2  22
ATOM     22  O   UNL     1      14.795 -22.317   9.139  1.00  0.00    -0.387 OA
ATOM     23  H   UNL     1      14.645 -22.913   8.283  1.00  0.00     0.211 HD
ENDBRANCH   2  22
BRANCH   3  24
ATOM     24  O   UNL     1      15.645 -24.452  11.995  1.00  0.00    -0.387 OA
ATOM     25  H   UNL     1      15.359 -25.421  11.865  1.00  0.00     0.211 HD
ENDBRANCH   3  24
BRANCH   5  26
ATOM     26  O   UNL     1      15.139 -26.778   8.290  1.00  0.00    -0.454 OA
BRANCH  26  27
ATOM     27  C   UNL     1      14.499 -27.831   7.631  1.00  0.00     0.214 A 
ATOM     28  C   UNL     1      14.261 -29.115   8.316  1.00  0.00     0.180 A 
ATOM     29  C   UNL     1      14.172 -27.760   6.248  1.00  0.00     0.239 A 
ATOM     30  O   UNL     1      13.724 -30.112   7.655  1.00  0.00    -0.452 OA
ATOM     31  C   UNL     1      13.905 -28.979   5.567  1.00  0.00     0.111 A 
ATOM     32  O   UNL     1      14.264 -26.680   5.590  1.00  0.00    -0.285 OA
ATOM     33  C   UNL     1      13.664 -30.120   6.326  1.00  0.00     0.146 A 
ATOM     34  C   UNL     1      13.725 -29.088   4.179  1.00  0.00     0.134 A 
ATOM     35  C   UNL     1      13.507 -31.374   5.712  1.00  0.00     0.094 A 
ATOM     36  C   UNL     1      13.980 -30.351   3.582  1.00  0.00     0.093 A 
ATOM     37  C   UNL     1      13.849 -31.506   4.383  1.00  0.00     0.123 A 
BRANCH  28  38
ATOM     38  C   UNL     1      14.759 -29.530   9.677  1.00  0.00     0.025 A 
ATOM     39  C   UNL     1      14.658 -28.592  10.733  1.00  0.00     0.062 A 
ATOM     40  C   UNL     1      14.183 -30.725   9.984  1.00  0.00     0.016 A 
ATOM     41  C   UNL     1      13.594 -28.837  11.657  1.00  0.00     0.158 A 
ATOM     42  C   UNL     1      12.858 -30.618  10.375  1.00  0.00     0.051 A 
ATOM     43  C   UNL     1      12.526 -29.608  11.270  1.00  0.00     0.157 A 
BRANCH  41  44
ATOM     44  O   UNL     1      13.741 -28.786  13.092  1.00  0.00    -0.504 OA
ATOM     45  H   UNL     1      12.985 -29.186  13.659  1.00  0.00     0.293 HD
ENDBRANCH  41  44
BRANCH  43  46
ATOM     46  O   UNL     1      11.226 -29.368  11.838  1.00  0.00    -0.504 OA
ATOM     47  H   UNL     1      10.487 -28.935  11.216  1.00  0.00     0.293 HD
ENDBRANCH  43  46
ENDBRANCH  28  38
BRANCH  34  48
ATOM     48  O   UNL     1      13.454 -28.065   3.300  1.00  0.00    -0.507 OA
ATOM     49  H   UNL     1      14.194 -27.401   2.986  1.00  0.00     0.293 HD
ENDBRANCH  34  48
BRANCH  37  50
ATOM     50  O   UNL     1      14.194 -32.748   3.921  1.00  0.00    -0.508 OA
ATOM     51  H   UNL     1      14.831 -33.338   4.428  1.00  0.00     0.293 HD
ENDBRANCH  37  50
ENDBRANCH  26  27
ENDBRANCH   5  26
BRANCH   4  52
ATOM     52  O   UNL     1      16.243 -24.455   8.397  1.00  0.00    -0.384 OA
ATOM     53  H   UNL     1      17.136 -24.779   7.989  1.00  0.00     0.211 HD
ENDBRANCH   4  52
TORSDOF 16
ENDMDL
