MODEL 1
REMARK VINA RESULT:    -6.371      0.000      0.000
REMARK INTER + INTRA:         -11.159
REMARK INTER:                  -9.350
REMARK INTRA:                  -1.809
REMARK UNBOUND:                -1.809
REMARK SMILES O=c1c(O[C@@H]2O[C@@H](CO)[C@@H](O)[C@H](O)[C@H]2O)c(-c2ccc(O)c(O)c2)oc2cc(O)cc(O)c12
REMARK SMILES IDX 4 1 3 2 16 3 25 4 2 5 26 6 1 7 33 8 27 9 31 10 28 11 30 12
REMARK SMILES IDX 17 13 18 14 19 15 20 16 24 17 22 18 21 19 23 21 32 23 29 25
REMARK SMILES IDX 5 27 14 28 6 29 12 30 7 31 10 32 15 33 13 35 8 37 9 38 11 40
REMARK H PARENT 21 20 23 22 32 24 29 26 15 34 13 36 9 39 11 41
REMARK Flexibility Score: inf
ROOT
ATOM      1  O   UNL     1      15.166  36.802 123.445  1.00  0.00    -0.454 OA
ENDROOT
BRANCH   1   2
ATOM      2  C   UNL     1      14.023  36.799 124.260  1.00  0.00     0.214 A 
ATOM      3  C   UNL     1      12.906  36.037 123.891  1.00  0.00     0.180 A 
ATOM      4  O   UNL     1      11.740  36.242 124.494  1.00  0.00    -0.452 OA
ATOM      5  C   UNL     1      13.972  37.586 125.408  1.00  0.00     0.239 A 
ATOM      6  C   UNL     1      11.610  37.114 125.517  1.00  0.00     0.146 A 
ATOM      7  O   UNL     1      15.006  38.240 125.736  1.00  0.00    -0.285 OA
ATOM      8  C   UNL     1      12.740  37.766 126.078  1.00  0.00     0.111 A 
ATOM      9  C   UNL     1      10.328  37.413 125.984  1.00  0.00     0.094 A 
ATOM     10  C   UNL     1      12.580  38.585 127.238  1.00  0.00     0.134 A 
ATOM     11  C   UNL     1      10.165  38.295 127.074  1.00  0.00     0.123 A 
ATOM     12  C   UNL     1      11.292  38.836 127.702  1.00  0.00     0.093 A 
BRANCH   3  13
ATOM     13  C   UNL     1      12.967  35.052 122.793  1.00  0.00     0.025 A 
ATOM     14  C   UNL     1      13.729  33.870 122.940  1.00  0.00     0.016 A 
ATOM     15  C   UNL     1      13.751  32.922 121.897  1.00  0.00     0.051 A 
ATOM     16  C   UNL     1      13.165  33.204 120.678  1.00  0.00     0.157 A 
ATOM     17  C   UNL     1      12.222  35.255 121.620  1.00  0.00     0.062 A 
ATOM     18  C   UNL     1      12.374  34.360 120.543  1.00  0.00     0.158 A 
BRANCH  16  19
ATOM     19  O   UNL     1      13.289  32.304 119.643  1.00  0.00    -0.504 OA
ATOM     20  H   UNL     1      14.197  31.948 119.332  1.00  0.00     0.293 HD
ENDBRANCH  16  19
BRANCH  18  21
ATOM     21  O   UNL     1      11.747  34.645 119.338  1.00  0.00    -0.504 OA
ATOM     22  H   UNL     1      12.231  35.192 118.627  1.00  0.00     0.293 HD
ENDBRANCH  18  21
ENDBRANCH   3  13
BRANCH  10  23
ATOM     23  O   UNL     1      13.637  39.125 127.975  1.00  0.00    -0.507 OA
ATOM     24  H   UNL     1      13.499  39.727 128.781  1.00  0.00     0.293 HD
ENDBRANCH  10  23
BRANCH  11  25
ATOM     25  O   UNL     1       8.878  38.625 127.499  1.00  0.00    -0.508 OA
ATOM     26  H   UNL     1       8.216  37.899 127.763  1.00  0.00     0.293 HD
ENDBRANCH  11  25
ENDBRANCH   1   2
BRANCH   1  27
ATOM     27  C   UNL     1      15.444  37.907 122.557  1.00  0.00     0.339 C 
ATOM     28  C   UNL     1      16.934  38.129 122.334  1.00  0.00     0.214 C 
ATOM     29  O   UNL     1      14.749  37.730 121.333  1.00  0.00    -0.332 OA
ATOM     30  C   UNL     1      17.552  36.767 121.863  1.00  0.00     0.180 C 
ATOM     31  C   UNL     1      15.268  36.790 120.375  1.00  0.00     0.179 C 
ATOM     32  C   UNL     1      16.817  36.356 120.531  1.00  0.00     0.177 C 
BRANCH  28  33
ATOM     33  O   UNL     1      17.051  39.121 121.353  1.00  0.00    -0.384 OA
ATOM     34  H   UNL     1      16.348  38.947 120.650  1.00  0.00     0.211 HD
ENDBRANCH  28  33
BRANCH  30  35
ATOM     35  O   UNL     1      17.433  35.750 122.811  1.00  0.00    -0.387 OA
ATOM     36  H   UNL     1      18.225  35.801 123.428  1.00  0.00     0.211 HD
ENDBRANCH  30  35
BRANCH  31  37
ATOM     37  C   UNL     1      14.981  37.431 118.977  1.00  0.00     0.191 C 
BRANCH  37  38
ATOM     38  O   UNL     1      15.497  38.744 118.914  1.00  0.00    -0.394 OA
ATOM     39  H   UNL     1      16.420  38.636 118.550  1.00  0.00     0.210 HD
ENDBRANCH  37  38
ENDBRANCH  31  37
BRANCH  32  40
ATOM     40  O   UNL     1      17.602  36.837 119.487  1.00  0.00    -0.387 OA
ATOM     41  H   UNL     1      18.506  37.072 119.845  1.00  0.00     0.211 HD
ENDBRANCH  32  40
ENDBRANCH   1  27
TORSDOF 12
ENDMDL
MODEL 2
REMARK VINA RESULT:    -6.148      1.196      1.839
REMARK INTER + INTRA:         -10.833
REMARK INTER:                  -9.279
REMARK INTRA:                  -1.554
REMARK UNBOUND:                -1.809
REMARK SMILES O=c1c(O[C@@H]2O[C@@H](CO)[C@@H](O)[C@H](O)[C@H]2O)c(-c2ccc(O)c(O)c2)oc2cc(O)cc(O)c12
REMARK SMILES IDX 4 1 3 2 16 3 25 4 2 5 26 6 1 7 33 8 27 9 31 10 28 11 30 12
REMARK SMILES IDX 17 13 18 14 19 15 20 16 24 17 22 18 21 19 23 21 32 23 29 25
REMARK SMILES IDX 5 27 14 28 6 29 12 30 7 31 10 32 15 33 13 35 8 37 9 38 11 40
REMARK H PARENT 21 20 23 22 32 24 29 26 15 34 13 36 9 39 11 41
REMARK Flexibility Score: inf
ROOT
ATOM      1  O   UNL     1      14.503  37.129 122.147  1.00  0.00    -0.454 OA
ENDROOT
BRANCH   1   2
ATOM      2  C   UNL     1      13.629  36.989 123.235  1.00  0.00     0.214 A 
ATOM      3  C   UNL     1      12.736  35.910 123.278  1.00  0.00     0.180 A 
ATOM      4  O   UNL     1      11.730  35.920 124.146  1.00  0.00    -0.452 OA
ATOM      5  C   UNL     1      13.607  37.943 124.251  1.00  0.00     0.239 A 
ATOM      6  C   UNL     1      11.581  36.909 125.053  1.00  0.00     0.146 A 
ATOM      7  O   UNL     1      14.446  38.890 124.205  1.00  0.00    -0.285 OA
ATOM      8  C   UNL     1      12.563  37.925 125.204  1.00  0.00     0.111 A 
ATOM      9  C   UNL     1      10.409  36.953 125.811  1.00  0.00     0.094 A 
ATOM     10  C   UNL     1      12.433  38.882 126.257  1.00  0.00     0.134 A 
ATOM     11  C   UNL     1      10.243  37.956 126.790  1.00  0.00     0.123 A 
ATOM     12  C   UNL     1      11.268  38.878 127.019  1.00  0.00     0.093 A 
BRANCH   3  13
ATOM     13  C   UNL     1      12.837  34.781 122.332  1.00  0.00     0.025 A 
ATOM     14  C   UNL     1      13.870  33.825 122.472  1.00  0.00     0.016 A 
ATOM     15  C   UNL     1      13.934  32.734 121.583  1.00  0.00     0.051 A 
ATOM     16  C   UNL     1      13.097  32.671 120.485  1.00  0.00     0.157 A 
ATOM     17  C   UNL     1      11.875  34.617 121.323  1.00  0.00     0.062 A 
ATOM     18  C   UNL     1      12.045  33.598 120.366  1.00  0.00     0.158 A 
BRANCH  16  19
ATOM     19  O   UNL     1      13.250  31.649 119.575  1.00  0.00    -0.504 OA
ATOM     20  H   UNL     1      13.594  31.808 118.624  1.00  0.00     0.293 HD
ENDBRANCH  16  19
BRANCH  18  21
ATOM     21  O   UNL     1      11.170  33.531 119.290  1.00  0.00    -0.504 OA
ATOM     22  H   UNL     1      10.393  32.871 119.305  1.00  0.00     0.293 HD
ENDBRANCH  18  21
ENDBRANCH   3  13
BRANCH  10  23
ATOM     23  O   UNL     1      13.420  39.808 126.608  1.00  0.00    -0.507 OA
ATOM     24  H   UNL     1      13.216  40.675 127.096  1.00  0.00     0.293 HD
ENDBRANCH  10  23
BRANCH  11  25
ATOM     25  O   UNL     1       9.046  38.019 127.506  1.00  0.00    -0.508 OA
ATOM     26  H   UNL     1       8.349  37.283 127.420  1.00  0.00     0.293 HD
ENDBRANCH  11  25
ENDBRANCH   1   2
BRANCH   1  27
ATOM     27  C   UNL     1      15.917  36.870 122.291  1.00  0.00     0.339 C 
ATOM     28  C   UNL     1      16.403  35.719 121.419  1.00  0.00     0.214 C 
ATOM     29  O   UNL     1      16.652  38.059 122.050  1.00  0.00    -0.332 OA
ATOM     30  C   UNL     1      15.961  36.021 119.945  1.00  0.00     0.180 C 
ATOM     31  C   UNL     1      16.840  38.492 120.691  1.00  0.00     0.179 C 
ATOM     32  C   UNL     1      16.624  37.389 119.528  1.00  0.00     0.177 C 
BRANCH  28  33
ATOM     33  O   UNL     1      17.796  35.677 121.546  1.00  0.00    -0.384 OA
ATOM     34  H   UNL     1      18.042  36.123 122.418  1.00  0.00     0.211 HD
ENDBRANCH  28  33
BRANCH  30  35
ATOM     35  O   UNL     1      14.576  36.091 119.788  1.00  0.00    -0.387 OA
ATOM     36  H   UNL     1      14.379  36.322 118.829  1.00  0.00     0.211 HD
ENDBRANCH  30  35
BRANCH  31  37
ATOM     37  C   UNL     1      18.279  39.105 120.651  1.00  0.00     0.191 C 
BRANCH  37  38
ATOM     38  O   UNL     1      19.243  38.142 121.019  1.00  0.00    -0.394 OA
ATOM     39  H   UNL     1      19.239  38.148 122.017  1.00  0.00     0.210 HD
ENDBRANCH  37  38
ENDBRANCH  31  37
BRANCH  32  40
ATOM     40  O   UNL     1      17.815  37.066 118.887  1.00  0.00    -0.387 OA
ATOM     41  H   UNL     1      17.923  36.072 118.889  1.00  0.00     0.211 HD
ENDBRANCH  32  40
ENDBRANCH   1  27
TORSDOF 12
ENDMDL
MODEL 3
REMARK VINA RESULT:    -6.112      1.783      2.604
REMARK INTER + INTRA:         -10.780
REMARK INTER:                  -9.179
REMARK INTRA:                  -1.601
REMARK UNBOUND:                -1.809
REMARK SMILES O=c1c(O[C@@H]2O[C@@H](CO)[C@@H](O)[C@H](O)[C@H]2O)c(-c2ccc(O)c(O)c2)oc2cc(O)cc(O)c12
REMARK SMILES IDX 4 1 3 2 16 3 25 4 2 5 26 6 1 7 33 8 27 9 31 10 28 11 30 12
REMARK SMILES IDX 17 13 18 14 19 15 20 16 24 17 22 18 21 19 23 21 32 23 29 25
REMARK SMILES IDX 5 27 14 28 6 29 12 30 7 31 10 32 15 33 13 35 8 37 9 38 11 40
REMARK H PARENT 21 20 23 22 32 24 29 26 15 34 13 36 9 39 11 41
REMARK Flexibility Score: inf
ROOT
ATOM      1  O   UNL     1      14.495  38.363 123.464  1.00  0.00    -0.454 OA
ENDROOT
BRANCH   1   2
ATOM      2  C   UNL     1      13.781  38.518 124.662  1.00  0.00     0.214 A 
ATOM      3  C   UNL     1      12.976  37.473 125.135  1.00  0.00     0.180 A 
ATOM      4  O   UNL     1      12.094  37.705 126.100  1.00  0.00    -0.452 OA
ATOM      5  C   UNL     1      13.828  39.723 125.361  1.00  0.00     0.239 A 
ATOM      6  C   UNL     1      11.998  38.909 126.704  1.00  0.00     0.146 A 
ATOM      7  O   UNL     1      14.587  40.640 124.930  1.00  0.00    -0.285 OA
ATOM      8  C   UNL     1      12.920  39.951 126.420  1.00  0.00     0.111 A 
ATOM      9  C   UNL     1      10.934  39.137 127.580  1.00  0.00     0.094 A 
ATOM     10  C   UNL     1      12.864  41.167 127.169  1.00  0.00     0.134 A 
ATOM     11  C   UNL     1      10.829  40.374 128.250  1.00  0.00     0.123 A 
ATOM     12  C   UNL     1      11.811  41.351 128.061  1.00  0.00     0.093 A 
BRANCH   3  13
ATOM     13  C   UNL     1      13.029  36.123 124.540  1.00  0.00     0.025 A 
ATOM     14  C   UNL     1      13.942  35.163 125.034  1.00  0.00     0.016 A 
ATOM     15  C   UNL     1      13.959  33.867 124.479  1.00  0.00     0.051 A 
ATOM     16  C   UNL     1      13.205  33.572 123.360  1.00  0.00     0.157 A 
ATOM     17  C   UNL     1      12.134  35.766 123.519  1.00  0.00     0.062 A 
ATOM     18  C   UNL     1      12.268  34.512 122.891  1.00  0.00     0.158 A 
BRANCH  16  19
ATOM     19  O   UNL     1      13.317  32.330 122.777  1.00  0.00    -0.504 OA
ATOM     20  H   UNL     1      13.005  32.143 121.819  1.00  0.00     0.293 HD
ENDBRANCH  16  19
BRANCH  18  21
ATOM     21  O   UNL     1      11.475  34.222 121.789  1.00  0.00    -0.504 OA
ATOM     22  H   UNL     1      11.481  33.284 121.389  1.00  0.00     0.293 HD
ENDBRANCH  18  21
ENDBRANCH   3  13
BRANCH  10  23
ATOM     23  O   UNL     1      13.823  42.181 127.100  1.00  0.00    -0.507 OA
ATOM     24  H   UNL     1      13.664  43.118 127.458  1.00  0.00     0.293 HD
ENDBRANCH  10  23
BRANCH  11  25
ATOM     25  O   UNL     1       9.734  40.608 129.084  1.00  0.00    -0.508 OA
ATOM     26  H   UNL     1       9.557  40.012 129.889  1.00  0.00     0.293 HD
ENDBRANCH  11  25
ENDBRANCH   1   2
BRANCH   1  27
ATOM     27  C   UNL     1      15.859  37.886 123.468  1.00  0.00     0.339 C 
ATOM     28  C   UNL     1      16.030  36.569 122.721  1.00  0.00     0.214 C 
ATOM     29  O   UNL     1      16.724  38.892 122.965  1.00  0.00    -0.332 OA
ATOM     30  C   UNL     1      15.428  36.756 121.286  1.00  0.00     0.180 C 
ATOM     31  C   UNL     1      16.773  39.112 121.545  1.00  0.00     0.179 C 
ATOM     32  C   UNL     1      16.224  37.927 120.593  1.00  0.00     0.177 C 
BRANCH  28  33
ATOM     33  O   UNL     1      17.404  36.304 122.680  1.00  0.00    -0.384 OA
ATOM     34  H   UNL     1      17.830  36.974 122.056  1.00  0.00     0.211 HD
ENDBRANCH  28  33
BRANCH  30  35
ATOM     35  O   UNL     1      14.062  37.042 121.293  1.00  0.00    -0.387 OA
ATOM     36  H   UNL     1      13.613  36.418 121.941  1.00  0.00     0.211 HD
ENDBRANCH  30  35
BRANCH  31  37
ATOM     37  C   UNL     1      18.268  39.460 121.236  1.00  0.00     0.191 C 
BRANCH  37  38
ATOM     38  O   UNL     1      19.107  38.365 121.532  1.00  0.00    -0.394 OA
ATOM     39  H   UNL     1      19.386  38.507 122.479  1.00  0.00     0.210 HD
ENDBRANCH  37  38
ENDBRANCH  31  37
BRANCH  32  40
ATOM     40  O   UNL     1      17.245  37.327 119.863  1.00  0.00    -0.387 OA
ATOM     41  H   UNL     1      18.113  37.759 120.109  1.00  0.00     0.211 HD
ENDBRANCH  32  40
ENDBRANCH   1  27
TORSDOF 12
ENDMDL
MODEL 4
REMARK VINA RESULT:    -6.062      2.452      6.703
REMARK INTER + INTRA:         -10.706
REMARK INTER:                  -8.937
REMARK INTRA:                  -1.769
REMARK UNBOUND:                -1.809
REMARK SMILES O=c1c(O[C@@H]2O[C@@H](CO)[C@@H](O)[C@H](O)[C@H]2O)c(-c2ccc(O)c(O)c2)oc2cc(O)cc(O)c12
REMARK SMILES IDX 4 1 3 2 16 3 25 4 2 5 26 6 1 7 33 8 27 9 31 10 28 11 30 12
REMARK SMILES IDX 17 13 18 14 19 15 20 16 24 17 22 18 21 19 23 21 32 23 29 25
REMARK SMILES IDX 5 27 14 28 6 29 12 30 7 31 10 32 15 33 13 35 8 37 9 38 11 40
REMARK H PARENT 21 20 23 22 32 24 29 26 15 34 13 36 9 39 11 41
REMARK Flexibility Score: inf
ROOT
ATOM      1  O   UNL     1      14.585  38.545 124.575  1.00  0.00    -0.454 OA
ENDROOT
BRANCH   1   2
ATOM      2  C   UNL     1      15.054  37.793 123.487  1.00  0.00     0.214 A 
ATOM      3  C   UNL     1      14.602  36.480 123.301  1.00  0.00     0.180 A 
ATOM      4  O   UNL     1      15.236  35.677 122.454  1.00  0.00    -0.452 OA
ATOM      5  C   UNL     1      16.001  38.326 122.616  1.00  0.00     0.239 A 
ATOM      6  C   UNL     1      16.267  36.112 121.696  1.00  0.00     0.146 A 
ATOM      7  O   UNL     1      16.369  39.526 122.787  1.00  0.00    -0.285 OA
ATOM      8  C   UNL     1      16.643  37.482 121.681  1.00  0.00     0.111 A 
ATOM      9  C   UNL     1      17.002  35.177 120.964  1.00  0.00     0.094 A 
ATOM     10  C   UNL     1      17.655  37.926 120.774  1.00  0.00     0.134 A 
ATOM     11  C   UNL     1      18.062  35.609 120.138  1.00  0.00     0.123 A 
ATOM     12  C   UNL     1      18.346  36.973 120.031  1.00  0.00     0.093 A 
BRANCH   3  13
ATOM     13  C   UNL     1      13.473  35.930 124.078  1.00  0.00     0.025 A 
ATOM     14  C   UNL     1      13.678  35.462 125.397  1.00  0.00     0.016 A 
ATOM     15  C   UNL     1      12.586  34.971 126.139  1.00  0.00     0.051 A 
ATOM     16  C   UNL     1      11.351  34.798 125.543  1.00  0.00     0.157 A 
ATOM     17  C   UNL     1      12.179  35.922 123.535  1.00  0.00     0.062 A 
ATOM     18  C   UNL     1      11.135  35.299 124.247  1.00  0.00     0.158 A 
BRANCH  16  19
ATOM     19  O   UNL     1      10.328  34.221 126.262  1.00  0.00    -0.504 OA
ATOM     20  H   UNL     1      10.209  34.375 127.267  1.00  0.00     0.293 HD
ENDBRANCH  16  19
BRANCH  18  21
ATOM     21  O   UNL     1       9.892  35.169 123.642  1.00  0.00    -0.504 OA
ATOM     22  H   UNL     1       9.820  34.783 122.701  1.00  0.00     0.293 HD
ENDBRANCH  18  21
ENDBRANCH   3  13
BRANCH  10  23
ATOM     23  O   UNL     1      17.977  39.267 120.547  1.00  0.00    -0.507 OA
ATOM     24  H   UNL     1      18.797  39.714 120.946  1.00  0.00     0.293 HD
ENDBRANCH  10  23
BRANCH  11  25
ATOM     25  O   UNL     1      18.820  34.661 119.450  1.00  0.00    -0.508 OA
ATOM     26  H   UNL     1      19.734  34.375 119.796  1.00  0.00     0.293 HD
ENDBRANCH  11  25
ENDBRANCH   1   2
BRANCH   1  27
ATOM     27  C   UNL     1      13.366  39.313 124.479  1.00  0.00     0.339 C 
ATOM     28  C   UNL     1      12.396  39.034 125.620  1.00  0.00     0.214 C 
ATOM     29  O   UNL     1      13.672  40.695 124.376  1.00  0.00    -0.332 OA
ATOM     30  C   UNL     1      13.172  39.243 126.965  1.00  0.00     0.180 C 
ATOM     31  C   UNL     1      14.061  41.406 125.564  1.00  0.00     0.179 C 
ATOM     32  C   UNL     1      13.681  40.735 126.985  1.00  0.00     0.177 C 
BRANCH  28  33
ATOM     33  O   UNL     1      11.338  39.940 125.481  1.00  0.00    -0.384 OA
ATOM     34  H   UNL     1      10.878  40.020 126.376  1.00  0.00     0.211 HD
ENDBRANCH  28  33
BRANCH  30  35
ATOM     35  O   UNL     1      14.247  38.368 127.125  1.00  0.00    -0.387 OA
ATOM     36  H   UNL     1      15.090  38.855 126.875  1.00  0.00     0.211 HD
ENDBRANCH  30  35
BRANCH  31  37
ATOM     37  C   UNL     1      13.439  42.834 125.409  1.00  0.00     0.191 C 
BRANCH  37  38
ATOM     38  O   UNL     1      12.072  42.748 125.069  1.00  0.00    -0.394 OA
ATOM     39  H   UNL     1      11.709  42.029 125.658  1.00  0.00     0.210 HD
ENDBRANCH  37  38
ENDBRANCH  31  37
BRANCH  32  40
ATOM     40  O   UNL     1      12.714  41.469 127.666  1.00  0.00    -0.387 OA
ATOM     41  H   UNL     1      12.481  42.276 127.124  1.00  0.00     0.211 HD
ENDBRANCH  32  40
ENDBRANCH   1  27
TORSDOF 12
ENDMDL
MODEL 5
REMARK VINA RESULT:    -5.912      2.679      5.614
REMARK INTER + INTRA:         -10.485
REMARK INTER:                  -8.431
REMARK INTRA:                  -2.055
REMARK UNBOUND:                -1.809
REMARK SMILES O=c1c(O[C@@H]2O[C@@H](CO)[C@@H](O)[C@H](O)[C@H]2O)c(-c2ccc(O)c(O)c2)oc2cc(O)cc(O)c12
REMARK SMILES IDX 4 1 3 2 16 3 25 4 2 5 26 6 1 7 33 8 27 9 31 10 28 11 30 12
REMARK SMILES IDX 17 13 18 14 19 15 20 16 24 17 22 18 21 19 23 21 32 23 29 25
REMARK SMILES IDX 5 27 14 28 6 29 12 30 7 31 10 32 15 33 13 35 8 37 9 38 11 40
REMARK H PARENT 21 20 23 22 32 24 29 26 15 34 13 36 9 39 11 41
REMARK Flexibility Score: inf
ROOT
ATOM      1  O   UNL     1      12.529  37.626 123.490  1.00  0.00    -0.454 OA
ENDROOT
BRANCH   1   2
ATOM      2  C   UNL     1      12.980  38.875 123.942  1.00  0.00     0.214 A 
ATOM      3  C   UNL     1      14.352  39.162 123.944  1.00  0.00     0.180 A 
ATOM      4  O   UNL     1      14.805  40.213 124.617  1.00  0.00    -0.452 OA
ATOM      5  C   UNL     1      12.078  39.816 124.435  1.00  0.00     0.239 A 
ATOM      6  C   UNL     1      13.972  41.072 125.244  1.00  0.00     0.146 A 
ATOM      7  O   UNL     1      10.842  39.544 124.393  1.00  0.00    -0.285 OA
ATOM      8  C   UNL     1      12.562  40.960 125.111  1.00  0.00     0.111 A 
ATOM      9  C   UNL     1      14.519  42.048 126.080  1.00  0.00     0.094 A 
ATOM     10  C   UNL     1      11.717  41.959 125.685  1.00  0.00     0.134 A 
ATOM     11  C   UNL     1      13.673  42.979 126.720  1.00  0.00     0.123 A 
ATOM     12  C   UNL     1      12.296  42.940 126.484  1.00  0.00     0.093 A 
BRANCH   3  13
ATOM     13  C   UNL     1      15.329  38.283 123.271  1.00  0.00     0.025 A 
ATOM     14  C   UNL     1      15.485  38.336 121.867  1.00  0.00     0.016 A 
ATOM     15  C   UNL     1      16.445  37.516 121.241  1.00  0.00     0.051 A 
ATOM     16  C   UNL     1      17.125  36.553 121.963  1.00  0.00     0.157 A 
ATOM     17  C   UNL     1      16.150  37.431 124.027  1.00  0.00     0.062 A 
ATOM     18  C   UNL     1      17.001  36.525 123.363  1.00  0.00     0.158 A 
BRANCH  16  19
ATOM     19  O   UNL     1      17.982  35.697 121.308  1.00  0.00    -0.504 OA
ATOM     20  H   UNL     1      17.954  35.562 120.293  1.00  0.00     0.293 HD
ENDBRANCH  16  19
BRANCH  18  21
ATOM     21  O   UNL     1      17.702  35.589 124.111  1.00  0.00    -0.504 OA
ATOM     22  H   UNL     1      18.704  35.703 124.261  1.00  0.00     0.293 HD
ENDBRANCH  18  21
ENDBRANCH   3  13
BRANCH  10  23
ATOM     23  O   UNL     1      10.339  42.048 125.466  1.00  0.00    -0.507 OA
ATOM     24  H   UNL     1       9.755  41.238 125.280  1.00  0.00     0.293 HD
ENDBRANCH  10  23
BRANCH  11  25
ATOM     25  O   UNL     1      14.227  43.917 127.592  1.00  0.00    -0.508 OA
ATOM     26  H   UNL     1      13.715  44.760 127.843  1.00  0.00     0.293 HD
ENDBRANCH  11  25
ENDBRANCH   1   2
BRANCH   1  27
ATOM     27  C   UNL     1      12.621  36.453 124.329  1.00  0.00     0.339 C 
ATOM     28  C   UNL     1      11.266  35.982 124.844  1.00  0.00     0.214 C 
ATOM     29  O   UNL     1      13.311  35.421 123.643  1.00  0.00    -0.332 OA
ATOM     30  C   UNL     1      10.325  35.802 123.604  1.00  0.00     0.180 C 
ATOM     31  C   UNL     1      12.609  34.678 122.630  1.00  0.00     0.179 C 
ATOM     32  C   UNL     1      10.994  34.732 122.659  1.00  0.00     0.177 C 
BRANCH  28  33
ATOM     33  O   UNL     1      11.487  34.772 125.511  1.00  0.00    -0.384 OA
ATOM     34  H   UNL     1      11.633  34.979 126.489  1.00  0.00     0.211 HD
ENDBRANCH  28  33
BRANCH  30  35
ATOM     35  O   UNL     1      10.101  36.988 122.903  1.00  0.00    -0.387 OA
ATOM     36  H   UNL     1      10.652  37.713 123.328  1.00  0.00     0.211 HD
ENDBRANCH  30  35
BRANCH  31  37
ATOM     37  C   UNL     1      13.145  33.212 122.753  1.00  0.00     0.191 C 
BRANCH  37  38
ATOM     38  O   UNL     1      13.027  32.747 124.080  1.00  0.00    -0.394 OA
ATOM     39  H   UNL     1      13.944  32.839 124.463  1.00  0.00     0.210 HD
ENDBRANCH  37  38
ENDBRANCH  31  37
BRANCH  32  40
ATOM     40  O   UNL     1      10.437  33.504 123.003  1.00  0.00    -0.387 OA
ATOM     41  H   UNL     1       9.739  33.266 122.327  1.00  0.00     0.211 HD
ENDBRANCH  32  40
ENDBRANCH   1  27
TORSDOF 12
ENDMDL
MODEL 6
REMARK VINA RESULT:    -5.807     12.463     15.538
REMARK INTER + INTRA:         -10.332
REMARK INTER:                  -8.984
REMARK INTRA:                  -1.348
REMARK UNBOUND:                -1.809
REMARK SMILES O=c1c(O[C@@H]2O[C@@H](CO)[C@@H](O)[C@H](O)[C@H]2O)c(-c2ccc(O)c(O)c2)oc2cc(O)cc(O)c12
REMARK SMILES IDX 4 1 3 2 16 3 25 4 2 5 26 6 1 7 33 8 27 9 31 10 28 11 30 12
REMARK SMILES IDX 17 13 18 14 19 15 20 16 24 17 22 18 21 19 23 21 32 23 29 25
REMARK SMILES IDX 5 27 14 28 6 29 12 30 7 31 10 32 15 33 13 35 8 37 9 38 11 40
REMARK H PARENT 21 20 23 22 32 24 29 26 15 34 13 36 9 39 11 41
REMARK Flexibility Score: inf
ROOT
ATOM      1  O   UNL     1      22.384  44.413 131.986  1.00  0.00    -0.454 OA
ENDROOT
BRANCH   1   2
ATOM      2  C   UNL     1      23.455  44.032 132.808  1.00  0.00     0.214 A 
ATOM      3  C   UNL     1      24.645  43.567 132.233  1.00  0.00     0.180 A 
ATOM      4  O   UNL     1      25.547  42.951 132.989  1.00  0.00    -0.452 OA
ATOM      5  C   UNL     1      23.327  44.066 134.196  1.00  0.00     0.239 A 
ATOM      6  C   UNL     1      25.391  42.825 134.324  1.00  0.00     0.146 A 
ATOM      7  O   UNL     1      22.254  44.520 134.690  1.00  0.00    -0.285 OA
ATOM      8  C   UNL     1      24.312  43.452 135.003  1.00  0.00     0.111 A 
ATOM      9  C   UNL     1      26.282  42.013 135.030  1.00  0.00     0.094 A 
ATOM     10  C   UNL     1      24.249  43.401 136.430  1.00  0.00     0.134 A 
ATOM     11  C   UNL     1      26.163  41.891 136.431  1.00  0.00     0.123 A 
ATOM     12  C   UNL     1      25.174  42.612 137.107  1.00  0.00     0.093 A 
BRANCH   3  13
ATOM     13  C   UNL     1      24.901  43.679 130.783  1.00  0.00     0.025 A 
ATOM     14  C   UNL     1      24.967  44.951 130.168  1.00  0.00     0.016 A 
ATOM     15  C   UNL     1      25.246  45.044 128.790  1.00  0.00     0.051 A 
ATOM     16  C   UNL     1      25.302  43.908 128.005  1.00  0.00     0.157 A 
ATOM     17  C   UNL     1      25.138  42.527 130.017  1.00  0.00     0.062 A 
ATOM     18  C   UNL     1      25.276  42.643 128.620  1.00  0.00     0.158 A 
BRANCH  16  19
ATOM     19  O   UNL     1      25.473  44.034 126.644  1.00  0.00    -0.504 OA
ATOM     20  H   UNL     1      26.331  43.737 126.170  1.00  0.00     0.293 HD
ENDBRANCH  16  19
BRANCH  18  21
ATOM     21  O   UNL     1      25.367  41.489 127.853  1.00  0.00    -0.504 OA
ATOM     22  H   UNL     1      26.241  41.257 127.384  1.00  0.00     0.293 HD
ENDBRANCH  18  21
ENDBRANCH   3  13
BRANCH  10  23
ATOM     23  O   UNL     1      23.342  44.126 137.206  1.00  0.00    -0.507 OA
ATOM     24  H   UNL     1      23.432  45.123 137.376  1.00  0.00     0.293 HD
ENDBRANCH  10  23
BRANCH  11  25
ATOM     25  O   UNL     1      27.028  41.038 137.118  1.00  0.00    -0.508 OA
ATOM     26  H   UNL     1      28.011  41.276 137.230  1.00  0.00     0.293 HD
ENDBRANCH  11  25
ENDBRANCH   1   2
BRANCH   1  27
ATOM     27  C   UNL     1      21.668  43.437 131.197  1.00  0.00     0.339 C 
ATOM     28  C   UNL     1      20.365  42.988 131.847  1.00  0.00     0.214 C 
ATOM     29  O   UNL     1      21.457  43.936 129.886  1.00  0.00    -0.332 OA
ATOM     30  C   UNL     1      19.530  44.273 132.175  1.00  0.00     0.180 C 
ATOM     31  C   UNL     1      20.418  44.910 129.678  1.00  0.00     0.179 C 
ATOM     32  C   UNL     1      19.274  45.025 130.813  1.00  0.00     0.177 C 
BRANCH  28  33
ATOM     33  O   UNL     1      19.714  42.166 130.919  1.00  0.00    -0.384 OA
ATOM     34  H   UNL     1      20.241  41.308 130.841  1.00  0.00     0.211 HD
ENDBRANCH  28  33
BRANCH  30  35
ATOM     35  O   UNL     1      20.162  45.125 133.082  1.00  0.00    -0.387 OA
ATOM     36  H   UNL     1      19.973  46.074 132.807  1.00  0.00     0.211 HD
ENDBRANCH  30  35
BRANCH  31  37
ATOM     37  C   UNL     1      19.814  44.571 128.275  1.00  0.00     0.191 C 
BRANCH  37  38
ATOM     38  O   UNL     1      20.634  43.649 127.588  1.00  0.00    -0.394 OA
ATOM     39  H   UNL     1      20.442  43.810 126.622  1.00  0.00     0.210 HD
ENDBRANCH  37  38
ENDBRANCH  31  37
BRANCH  32  40
ATOM     40  O   UNL     1      18.036  44.588 130.353  1.00  0.00    -0.387 OA
ATOM     41  H   UNL     1      18.177  43.819 129.728  1.00  0.00     0.211 HD
ENDBRANCH  32  40
ENDBRANCH   1  27
TORSDOF 12
ENDMDL
MODEL 7
REMARK VINA RESULT:    -5.788      2.412      5.227
REMARK INTER + INTRA:         -10.305
REMARK INTER:                  -8.850
REMARK INTRA:                  -1.454
REMARK UNBOUND:                -1.809
REMARK SMILES O=c1c(O[C@@H]2O[C@@H](CO)[C@@H](O)[C@H](O)[C@H]2O)c(-c2ccc(O)c(O)c2)oc2cc(O)cc(O)c12
REMARK SMILES IDX 4 1 3 2 16 3 25 4 2 5 26 6 1 7 33 8 27 9 31 10 28 11 30 12
REMARK SMILES IDX 17 13 18 14 19 15 20 16 24 17 22 18 21 19 23 21 32 23 29 25
REMARK SMILES IDX 5 27 14 28 6 29 12 30 7 31 10 32 15 33 13 35 8 37 9 38 11 40
REMARK H PARENT 21 20 23 22 32 24 29 26 15 34 13 36 9 39 11 41
REMARK Flexibility Score: inf
ROOT
ATOM      1  O   UNL     1      14.028  37.024 124.269  1.00  0.00    -0.454 OA
ENDROOT
BRANCH   1   2
ATOM      2  C   UNL     1      13.837  38.383 124.563  1.00  0.00     0.214 A 
ATOM      3  C   UNL     1      14.530  39.358 123.832  1.00  0.00     0.180 A 
ATOM      4  O   UNL     1      14.571  40.609 124.276  1.00  0.00    -0.452 OA
ATOM      5  C   UNL     1      13.000  38.769 125.607  1.00  0.00     0.239 A 
ATOM      6  C   UNL     1      13.895  40.997 125.379  1.00  0.00     0.146 A 
ATOM      7  O   UNL     1      12.362  37.870 126.230  1.00  0.00    -0.285 OA
ATOM      8  C   UNL     1      13.009  40.111 126.050  1.00  0.00     0.111 A 
ATOM      9  C   UNL     1      14.124  42.275 125.892  1.00  0.00     0.094 A 
ATOM     10  C   UNL     1      12.217  40.594 127.137  1.00  0.00     0.134 A 
ATOM     11  C   UNL     1      13.407  42.718 127.024  1.00  0.00     0.123 A 
ATOM     12  C   UNL     1      12.444  41.886 127.603  1.00  0.00     0.093 A 
BRANCH   3  13
ATOM     13  C   UNL     1      15.282  39.021 122.608  1.00  0.00     0.025 A 
ATOM     14  C   UNL     1      14.596  38.781 121.394  1.00  0.00     0.016 A 
ATOM     15  C   UNL     1      15.329  38.494 120.225  1.00  0.00     0.051 A 
ATOM     16  C   UNL     1      16.695  38.293 120.283  1.00  0.00     0.157 A 
ATOM     17  C   UNL     1      16.686  38.995 122.626  1.00  0.00     0.062 A 
ATOM     18  C   UNL     1      17.383  38.569 121.479  1.00  0.00     0.158 A 
BRANCH  16  19
ATOM     19  O   UNL     1      17.372  37.913 119.146  1.00  0.00    -0.504 OA
ATOM     20  H   UNL     1      17.027  37.177 118.522  1.00  0.00     0.293 HD
ENDBRANCH  16  19
BRANCH  18  21
ATOM     21  O   UNL     1      18.760  38.408 121.549  1.00  0.00    -0.504 OA
ATOM     22  H   UNL     1      19.207  38.218 122.445  1.00  0.00     0.293 HD
ENDBRANCH  18  21
ENDBRANCH   3  13
BRANCH  10  23
ATOM     23  O   UNL     1      11.190  39.869 127.748  1.00  0.00    -0.507 OA
ATOM     24  H   UNL     1      11.360  39.056 128.333  1.00  0.00     0.293 HD
ENDBRANCH  10  23
BRANCH  11  25
ATOM     25  O   UNL     1      13.681  43.979 127.556  1.00  0.00    -0.508 OA
ATOM     26  H   UNL     1      14.617  44.373 127.502  1.00  0.00     0.293 HD
ENDBRANCH  11  25
ENDBRANCH   1   2
BRANCH   1  27
ATOM     27  C   UNL     1      13.199  36.349 123.298  1.00  0.00     0.339 C 
ATOM     28  C   UNL     1      13.935  35.238 122.558  1.00  0.00     0.214 C 
ATOM     29  O   UNL     1      12.016  35.873 123.919  1.00  0.00    -0.332 OA
ATOM     30  C   UNL     1      14.556  34.282 123.634  1.00  0.00     0.180 C 
ATOM     31  C   UNL     1      12.091  34.684 124.726  1.00  0.00     0.179 C 
ATOM     32  C   UNL     1      13.367  33.718 124.502  1.00  0.00     0.177 C 
BRANCH  28  33
ATOM     33  O   UNL     1      12.984  34.583 121.766  1.00  0.00    -0.384 OA
ATOM     34  H   UNL     1      12.317  35.272 121.449  1.00  0.00     0.211 HD
ENDBRANCH  28  33
BRANCH  30  35
ATOM     35  O   UNL     1      15.493  34.910 124.455  1.00  0.00    -0.387 OA
ATOM     36  H   UNL     1      16.412  34.654 124.137  1.00  0.00     0.211 HD
ENDBRANCH  30  35
BRANCH  31  37
ATOM     37  C   UNL     1      10.741  33.934 124.474  1.00  0.00     0.191 C 
BRANCH  37  38
ATOM     38  O   UNL     1      10.459  33.863 123.093  1.00  0.00    -0.394 OA
ATOM     39  H   UNL     1       9.524  34.202 123.007  1.00  0.00     0.210 HD
ENDBRANCH  37  38
ENDBRANCH  31  37
BRANCH  32  40
ATOM     40  O   UNL     1      13.007  32.503 123.928  1.00  0.00    -0.387 OA
ATOM     41  H   UNL     1      12.760  31.863 124.656  1.00  0.00     0.211 HD
ENDBRANCH  32  40
ENDBRANCH   1  27
TORSDOF 12
ENDMDL
MODEL 8
REMARK VINA RESULT:    -5.677      2.007      6.299
REMARK INTER + INTRA:         -10.141
REMARK INTER:                  -8.604
REMARK INTRA:                  -1.537
REMARK UNBOUND:                -1.809
REMARK SMILES O=c1c(O[C@@H]2O[C@@H](CO)[C@@H](O)[C@H](O)[C@H]2O)c(-c2ccc(O)c(O)c2)oc2cc(O)cc(O)c12
REMARK SMILES IDX 4 1 3 2 16 3 25 4 2 5 26 6 1 7 33 8 27 9 31 10 28 11 30 12
REMARK SMILES IDX 17 13 18 14 19 15 20 16 24 17 22 18 21 19 23 21 32 23 29 25
REMARK SMILES IDX 5 27 14 28 6 29 12 30 7 31 10 32 15 33 13 35 8 37 9 38 11 40
REMARK H PARENT 21 20 23 22 32 24 29 26 15 34 13 36 9 39 11 41
REMARK Flexibility Score: inf
ROOT
ATOM      1  O   UNL     1      13.234  35.640 123.311  1.00  0.00    -0.454 OA
ENDROOT
BRANCH   1   2
ATOM      2  C   UNL     1      14.083  36.376 122.472  1.00  0.00     0.214 A 
ATOM      3  C   UNL     1      14.259  35.981 121.138  1.00  0.00     0.180 A 
ATOM      4  O   UNL     1      15.256  36.493 120.425  1.00  0.00    -0.452 OA
ATOM      5  C   UNL     1      14.790  37.470 122.966  1.00  0.00     0.239 A 
ATOM      6  C   UNL     1      16.068  37.452 120.921  1.00  0.00     0.146 A 
ATOM      7  O   UNL     1      14.589  37.825 124.164  1.00  0.00    -0.285 OA
ATOM      8  C   UNL     1      15.820  38.046 122.187  1.00  0.00     0.111 A 
ATOM      9  C   UNL     1      17.201  37.815 120.189  1.00  0.00     0.094 A 
ATOM     10  C   UNL     1      16.626  39.143 122.623  1.00  0.00     0.134 A 
ATOM     11  C   UNL     1      18.048  38.838 120.667  1.00  0.00     0.123 A 
ATOM     12  C   UNL     1      17.728  39.505 121.853  1.00  0.00     0.093 A 
BRANCH   3  13
ATOM     13  C   UNL     1      13.406  34.950 120.515  1.00  0.00     0.025 A 
ATOM     14  C   UNL     1      12.144  35.299 119.981  1.00  0.00     0.016 A 
ATOM     15  C   UNL     1      11.354  34.312 119.359  1.00  0.00     0.051 A 
ATOM     16  C   UNL     1      11.728  32.982 119.402  1.00  0.00     0.157 A 
ATOM     17  C   UNL     1      13.866  33.629 120.397  1.00  0.00     0.062 A 
ATOM     18  C   UNL     1      12.999  32.638 119.897  1.00  0.00     0.158 A 
BRANCH  16  19
ATOM     19  O   UNL     1      10.888  32.026 118.876  1.00  0.00    -0.504 OA
ATOM     20  H   UNL     1      10.136  32.257 118.220  1.00  0.00     0.293 HD
ENDBRANCH  16  19
BRANCH  18  21
ATOM     21  O   UNL     1      13.410  31.312 119.916  1.00  0.00    -0.504 OA
ATOM     22  H   UNL     1      13.679  30.875 120.797  1.00  0.00     0.293 HD
ENDBRANCH  18  21
ENDBRANCH   3  13
BRANCH  10  23
ATOM     23  O   UNL     1      16.362  39.914 123.758  1.00  0.00    -0.507 OA
ATOM     24  H   UNL     1      15.910  39.540 124.587  1.00  0.00     0.293 HD
ENDBRANCH  10  23
BRANCH  11  25
ATOM     25  O   UNL     1      19.203  39.157 119.952  1.00  0.00    -0.508 OA
ATOM     26  H   UNL     1      20.115  39.140 120.403  1.00  0.00     0.293 HD
ENDBRANCH  11  25
ENDBRANCH   1   2
BRANCH   1  27
ATOM     27  C   UNL     1      11.806  35.856 123.300  1.00  0.00     0.339 C 
ATOM     28  C   UNL     1      11.008  34.567 123.453  1.00  0.00     0.214 C 
ATOM     29  O   UNL     1      11.454  36.812 124.288  1.00  0.00    -0.332 OA
ATOM     30  C   UNL     1      11.528  33.837 124.739  1.00  0.00     0.180 C 
ATOM     31  C   UNL     1      11.411  36.398 125.665  1.00  0.00     0.179 C 
ATOM     32  C   UNL     1      11.299  34.812 125.956  1.00  0.00     0.177 C 
BRANCH  28  33
ATOM     33  O   UNL     1       9.663  34.937 123.571  1.00  0.00    -0.384 OA
ATOM     34  H   UNL     1       9.111  34.093 123.602  1.00  0.00     0.211 HD
ENDBRANCH  28  33
BRANCH  30  35
ATOM     35  O   UNL     1      12.873  33.473 124.661  1.00  0.00    -0.387 OA
ATOM     36  H   UNL     1      13.199  33.270 125.591  1.00  0.00     0.211 HD
ENDBRANCH  30  35
BRANCH  31  37
ATOM     37  C   UNL     1      10.217  37.190 126.293  1.00  0.00     0.191 C 
BRANCH  37  38
ATOM     38  O   UNL     1       9.007  36.872 125.639  1.00  0.00    -0.394 OA
ATOM     39  H   UNL     1       9.257  36.770 124.678  1.00  0.00     0.210 HD
ENDBRANCH  37  38
ENDBRANCH  31  37
BRANCH  32  40
ATOM     40  O   UNL     1      10.069  34.467 126.507  1.00  0.00    -0.387 OA
ATOM     41  H   UNL     1      10.206  34.206 127.463  1.00  0.00     0.211 HD
ENDBRANCH  32  40
ENDBRANCH   1  27
TORSDOF 12
ENDMDL
MODEL 9
REMARK VINA RESULT:    -5.611      2.346      3.361
REMARK INTER + INTRA:         -10.044
REMARK INTER:                  -8.137
REMARK INTRA:                  -1.906
REMARK UNBOUND:                -1.809
REMARK SMILES O=c1c(O[C@@H]2O[C@@H](CO)[C@@H](O)[C@H](O)[C@H]2O)c(-c2ccc(O)c(O)c2)oc2cc(O)cc(O)c12
REMARK SMILES IDX 4 1 3 2 16 3 25 4 2 5 26 6 1 7 33 8 27 9 31 10 28 11 30 12
REMARK SMILES IDX 17 13 18 14 19 15 20 16 24 17 22 18 21 19 23 21 32 23 29 25
REMARK SMILES IDX 5 27 14 28 6 29 12 30 7 31 10 32 15 33 13 35 8 37 9 38 11 40
REMARK H PARENT 21 20 23 22 32 24 29 26 15 34 13 36 9 39 11 41
REMARK Flexibility Score: inf
ROOT
ATOM      1  O   UNL     1      14.242  38.285 124.381  1.00  0.00    -0.454 OA
ENDROOT
BRANCH   1   2
ATOM      2  C   UNL     1      13.446  38.857 125.385  1.00  0.00     0.214 A 
ATOM      3  C   UNL     1      12.334  38.159 125.876  1.00  0.00     0.180 A 
ATOM      4  O   UNL     1      11.428  38.794 126.611  1.00  0.00    -0.452 OA
ATOM      5  C   UNL     1      13.724  40.136 125.865  1.00  0.00     0.239 A 
ATOM      6  C   UNL     1      11.582  40.086 126.973  1.00  0.00     0.146 A 
ATOM      7  O   UNL     1      14.752  40.732 125.428  1.00  0.00    -0.285 OA
ATOM      8  C   UNL     1      12.780  40.794 126.687  1.00  0.00     0.111 A 
ATOM      9  C   UNL     1      10.514  40.742 127.589  1.00  0.00     0.094 A 
ATOM     10  C   UNL     1      12.957  42.118 127.194  1.00  0.00     0.134 A 
ATOM     11  C   UNL     1      10.660  42.082 128.008  1.00  0.00     0.123 A 
ATOM     12  C   UNL     1      11.885  42.732 127.836  1.00  0.00     0.093 A 
BRANCH   3  13
ATOM     13  C   UNL     1      12.098  36.741 125.540  1.00  0.00     0.025 A 
ATOM     14  C   UNL     1      12.987  35.743 126.002  1.00  0.00     0.016 A 
ATOM     15  C   UNL     1      12.732  34.390 125.702  1.00  0.00     0.051 A 
ATOM     16  C   UNL     1      11.713  34.042 124.835  1.00  0.00     0.157 A 
ATOM     17  C   UNL     1      10.959  36.369 124.808  1.00  0.00     0.062 A 
ATOM     18  C   UNL     1      10.806  35.027 124.406  1.00  0.00     0.158 A 
BRANCH  16  19
ATOM     19  O   UNL     1      11.550  32.722 124.478  1.00  0.00    -0.504 OA
ATOM     20  H   UNL     1      11.867  32.354 123.577  1.00  0.00     0.293 HD
ENDBRANCH  16  19
BRANCH  18  21
ATOM     21  O   UNL     1       9.754  34.693 123.564  1.00  0.00    -0.504 OA
ATOM     22  H   UNL     1       9.793  34.941 122.576  1.00  0.00     0.293 HD
ENDBRANCH  18  21
ENDBRANCH   3  13
BRANCH  10  23
ATOM     23  O   UNL     1      14.155  42.835 127.128  1.00  0.00    -0.507 OA
ATOM     24  H   UNL     1      15.044  42.406 126.889  1.00  0.00     0.293 HD
ENDBRANCH  10  23
BRANCH  11  25
ATOM     25  O   UNL     1       9.570  42.741 128.577  1.00  0.00    -0.508 OA
ATOM     26  H   UNL     1       9.194  42.445 129.475  1.00  0.00     0.293 HD
ENDBRANCH  11  25
ENDBRANCH   1   2
BRANCH   1  27
ATOM     27  C   UNL     1      13.733  38.103 123.042  1.00  0.00     0.339 C 
ATOM     28  C   UNL     1      14.267  39.135 122.057  1.00  0.00     0.214 C 
ATOM     29  O   UNL     1      13.989  36.777 122.604  1.00  0.00    -0.332 OA
ATOM     30  C   UNL     1      15.832  39.114 122.149  1.00  0.00     0.180 C 
ATOM     31  C   UNL     1      15.320  36.437 122.177  1.00  0.00     0.179 C 
ATOM     32  C   UNL     1      16.303  37.657 121.777  1.00  0.00     0.177 C 
BRANCH  28  33
ATOM     33  O   UNL     1      13.814  38.755 120.789  1.00  0.00    -0.384 OA
ATOM     34  H   UNL     1      14.385  37.985 120.473  1.00  0.00     0.211 HD
ENDBRANCH  28  33
BRANCH  30  35
ATOM     35  O   UNL     1      16.316  39.469 123.409  1.00  0.00    -0.387 OA
ATOM     36  H   UNL     1      16.407  40.470 123.440  1.00  0.00     0.211 HD
ENDBRANCH  30  35
BRANCH  31  37
ATOM     37  C   UNL     1      15.125  35.434 120.992  1.00  0.00     0.191 C 
BRANCH  37  38
ATOM     38  O   UNL     1      14.260  35.975 120.017  1.00  0.00    -0.394 OA
ATOM     39  H   UNL     1      14.330  35.351 119.241  1.00  0.00     0.210 HD
ENDBRANCH  37  38
ENDBRANCH  31  37
BRANCH  32  40
ATOM     40  O   UNL     1      16.587  37.673 120.416  1.00  0.00    -0.387 OA
ATOM     41  H   UNL     1      17.210  38.432 120.225  1.00  0.00     0.211 HD
ENDBRANCH  32  40
ENDBRANCH   1  27
TORSDOF 12
ENDMDL
