MODEL 1
REMARK VINA RESULT:    -4.795      0.000      0.000
REMARK INTER + INTRA:         -11.589
REMARK INTER:                  -9.281
REMARK INTRA:                  -2.309
REMARK UNBOUND:                -2.309
REMARK SMILES CCCCCCCCCCCCCCCCCC(=O)[O-]
REMARK SMILES IDX 10 1 11 2 12 3 13 4 14 5 15 6 16 7 17 8 18 9 19 10 20 11
REMARK SMILES IDX 9 12 8 13 7 14 6 15 5 16 4 17 3 18 2 19 1 20
REMARK H PARENT
REMARK Flexibility Score: inf
ROOT
ATOM      1  C   UNL     1     -22.891  20.412 -21.265  1.00  0.00     0.000 C 
ENDROOT
BRANCH   1   2
ATOM      2  C   UNL     1     -23.947  21.231 -22.023  1.00  0.00     0.000 C 
BRANCH   2   3
ATOM      3  C   UNL     1     -23.291  22.355 -22.840  1.00  0.00     0.000 C 
BRANCH   3   4
ATOM      4  C   UNL     1     -23.233  22.044 -24.345  1.00  0.00     0.000 C 
BRANCH   4   5
ATOM      5  C   UNL     1     -21.814  21.838 -24.905  1.00  0.00     0.000 C 
BRANCH   5   6
ATOM      6  C   UNL     1     -21.332  23.021 -25.761  1.00  0.00     0.000 C 
BRANCH   6   7
ATOM      7  C   UNL     1     -21.187  24.315 -24.947  1.00  0.00     0.006 C 
BRANCH   7   8
ATOM      8  C   UNL     1     -21.441  25.571 -25.789  1.00  0.00     0.053 C 
BRANCH   8   9
ATOM      9  C   UNL     1     -22.791  25.507 -26.429  1.00  0.00     0.041 C 
ATOM     10  O   UNL     1     -22.909  25.634 -27.676  1.00  0.00    -0.550 OA
ATOM     11  O   UNL     1     -23.926  25.349 -25.643  1.00  0.00    -0.550 OA
ENDBRANCH   8   9
ENDBRANCH   7   8
ENDBRANCH   6   7
ENDBRANCH   5   6
ENDBRANCH   4   5
ENDBRANCH   3   4
ENDBRANCH   2   3
ENDBRANCH   1   2
BRANCH   1  12
ATOM     12  C   UNL     1     -22.868  18.930 -21.683  1.00  0.00     0.000 C 
BRANCH  12  13
ATOM     13  C   UNL     1     -24.194  18.407 -22.267  1.00  0.00    -0.000 C 
BRANCH  13  14
ATOM     14  C   UNL     1     -23.990  17.517 -23.505  1.00  0.00    -0.000 C 
BRANCH  14  15
ATOM     15  C   UNL     1     -23.391  18.281 -24.701  1.00  0.00    -0.000 C 
BRANCH  15  16
ATOM     16  C   UNL     1     -22.287  17.532 -25.468  1.00  0.00    -0.000 C 
BRANCH  16  17
ATOM     17  C   UNL     1     -20.922  18.230 -25.386  1.00  0.00    -0.000 C 
BRANCH  17  18
ATOM     18  C   UNL     1     -20.113  17.717 -24.189  1.00  0.00    -0.000 C 
BRANCH  18  19
ATOM     19  C   UNL     1     -20.508  16.280 -23.831  1.00  0.00    -0.003 C 
ATOM     20  C   UNL     1     -20.548  16.079 -22.319  1.00  0.00     0.004 C 
ENDBRANCH  18  19
ENDBRANCH  17  18
ENDBRANCH  16  17
ENDBRANCH  15  16
ENDBRANCH  14  15
ENDBRANCH  13  14
ENDBRANCH  12  13
ENDBRANCH   1  12
TORSDOF 16
ENDMDL
MODEL 2
REMARK VINA RESULT:    -4.726      1.264      2.812
REMARK INTER + INTRA:         -11.456
REMARK INTER:                  -8.903
REMARK INTRA:                  -2.553
REMARK UNBOUND:                -2.309
REMARK SMILES CCCCCCCCCCCCCCCCCC(=O)[O-]
REMARK SMILES IDX 10 1 11 2 12 3 13 4 14 5 15 6 16 7 17 8 18 9 19 10 20 11
REMARK SMILES IDX 9 12 8 13 7 14 6 15 5 16 4 17 3 18 2 19 1 20
REMARK H PARENT
REMARK Flexibility Score: inf
ROOT
ATOM      1  C   UNL     1     -23.946  18.261 -22.151  1.00  0.00     0.000 C 
ENDROOT
BRANCH   1   2
ATOM      2  C   UNL     1     -22.756  19.194 -21.878  1.00  0.00     0.000 C 
BRANCH   2   3
ATOM      3  C   UNL     1     -23.217  20.489 -21.193  1.00  0.00     0.000 C 
BRANCH   3   4
ATOM      4  C   UNL     1     -24.519  21.051 -21.790  1.00  0.00     0.000 C 
BRANCH   4   5
ATOM      5  C   UNL     1     -24.481  22.555 -22.114  1.00  0.00     0.000 C 
BRANCH   5   6
ATOM      6  C   UNL     1     -23.245  22.957 -22.936  1.00  0.00     0.000 C 
BRANCH   6   7
ATOM      7  C   UNL     1     -23.215  22.287 -24.317  1.00  0.00     0.006 C 
BRANCH   7   8
ATOM      8  C   UNL     1     -21.798  22.203 -24.899  1.00  0.00     0.053 C 
BRANCH   8   9
ATOM      9  C   UNL     1     -21.345  23.549 -25.369  1.00  0.00     0.041 C 
ATOM     10  O   UNL     1     -22.175  24.364 -25.852  1.00  0.00    -0.550 OA
ATOM     11  O   UNL     1     -19.999  23.890 -25.313  1.00  0.00    -0.550 OA
ENDBRANCH   8   9
ENDBRANCH   7   8
ENDBRANCH   6   7
ENDBRANCH   5   6
ENDBRANCH   4   5
ENDBRANCH   3   4
ENDBRANCH   2   3
ENDBRANCH   1   2
BRANCH   1  12
ATOM     12  C   UNL     1     -23.896  17.621 -23.552  1.00  0.00     0.000 C 
BRANCH  12  13
ATOM     13  C   UNL     1     -23.309  18.527 -24.651  1.00  0.00    -0.000 C 
BRANCH  13  14
ATOM     14  C   UNL     1     -22.452  17.751 -25.667  1.00  0.00    -0.000 C 
BRANCH  14  15
ATOM     15  C   UNL     1     -20.992  18.238 -25.715  1.00  0.00    -0.000 C 
BRANCH  15  16
ATOM     16  C   UNL     1     -20.183  18.003 -24.428  1.00  0.00    -0.000 C 
BRANCH  16  17
ATOM     17  C   UNL     1     -20.255  16.551 -23.933  1.00  0.00    -0.000 C 
BRANCH  17  18
ATOM     18  C   UNL     1     -20.506  16.498 -22.421  1.00  0.00    -0.000 C 
BRANCH  18  19
ATOM     19  C   UNL     1     -20.917  15.090 -21.980  1.00  0.00    -0.003 C 
ATOM     20  C   UNL     1     -22.258  15.109 -21.253  1.00  0.00     0.004 C 
ENDBRANCH  18  19
ENDBRANCH  17  18
ENDBRANCH  16  17
ENDBRANCH  15  16
ENDBRANCH  14  15
ENDBRANCH  13  14
ENDBRANCH  12  13
ENDBRANCH   1  12
TORSDOF 16
ENDMDL
MODEL 3
REMARK VINA RESULT:    -4.636      1.360      2.543
REMARK INTER + INTRA:         -11.282
REMARK INTER:                  -9.687
REMARK INTRA:                  -1.595
REMARK UNBOUND:                -2.309
REMARK SMILES CCCCCCCCCCCCCCCCCC(=O)[O-]
REMARK SMILES IDX 10 1 11 2 12 3 13 4 14 5 15 6 16 7 17 8 18 9 19 10 20 11
REMARK SMILES IDX 9 12 8 13 7 14 6 15 5 16 4 17 3 18 2 19 1 20
REMARK H PARENT
REMARK Flexibility Score: inf
ROOT
ATOM      1  C   UNL     1     -23.462  19.397 -21.752  1.00  0.00     0.000 C 
ENDROOT
BRANCH   1   2
ATOM      2  C   UNL     1     -23.208  20.780 -22.371  1.00  0.00     0.000 C 
BRANCH   2   3
ATOM      3  C   UNL     1     -22.747  20.654 -23.831  1.00  0.00     0.000 C 
BRANCH   3   4
ATOM      4  C   UNL     1     -22.846  21.980 -24.606  1.00  0.00     0.000 C 
BRANCH   4   5
ATOM      5  C   UNL     1     -21.600  22.335 -25.436  1.00  0.00     0.000 C 
BRANCH   5   6
ATOM      6  C   UNL     1     -20.977  23.682 -25.031  1.00  0.00     0.000 C 
BRANCH   6   7
ATOM      7  C   UNL     1     -20.328  24.410 -26.218  1.00  0.00     0.006 C 
BRANCH   7   8
ATOM      8  C   UNL     1     -20.852  25.841 -26.387  1.00  0.00     0.053 C 
BRANCH   8   9
ATOM      9  C   UNL     1     -21.881  25.896 -27.471  1.00  0.00     0.041 C 
ATOM     10  O   UNL     1     -23.085  25.629 -27.218  1.00  0.00    -0.550 OA
ATOM     11  O   UNL     1     -21.503  26.203 -28.773  1.00  0.00    -0.550 OA
ENDBRANCH   8   9
ENDBRANCH   7   8
ENDBRANCH   6   7
ENDBRANCH   5   6
ENDBRANCH   4   5
ENDBRANCH   3   4
ENDBRANCH   2   3
ENDBRANCH   1   2
BRANCH   1  12
ATOM     12  C   UNL     1     -23.214  18.243 -22.742  1.00  0.00     0.000 C 
BRANCH  12  13
ATOM     13  C   UNL     1     -22.663  16.955 -22.101  1.00  0.00    -0.000 C 
BRANCH  13  14
ATOM     14  C   UNL     1     -21.132  16.842 -22.214  1.00  0.00    -0.000 C 
BRANCH  14  15
ATOM     15  C   UNL     1     -20.658  16.542 -23.649  1.00  0.00    -0.000 C 
BRANCH  15  16
ATOM     16  C   UNL     1     -19.701  17.585 -24.252  1.00  0.00    -0.000 C 
BRANCH  16  17
ATOM     17  C   UNL     1     -20.404  18.556 -25.212  1.00  0.00    -0.000 C 
BRANCH  17  18
ATOM     18  C   UNL     1     -21.395  17.814 -26.116  1.00  0.00    -0.000 C 
BRANCH  18  19
ATOM     19  C   UNL     1     -21.265  18.273 -27.571  1.00  0.00    -0.003 C 
ATOM     20  C   UNL     1     -20.450  17.280 -28.394  1.00  0.00     0.004 C 
ENDBRANCH  18  19
ENDBRANCH  17  18
ENDBRANCH  16  17
ENDBRANCH  15  16
ENDBRANCH  14  15
ENDBRANCH  13  14
ENDBRANCH  12  13
ENDBRANCH   1  12
TORSDOF 16
ENDMDL
MODEL 4
REMARK VINA RESULT:    -4.630      1.613      4.468
REMARK INTER + INTRA:         -11.269
REMARK INTER:                  -8.908
REMARK INTRA:                  -2.361
REMARK UNBOUND:                -2.309
REMARK SMILES CCCCCCCCCCCCCCCCCC(=O)[O-]
REMARK SMILES IDX 10 1 11 2 12 3 13 4 14 5 15 6 16 7 17 8 18 9 19 10 20 11
REMARK SMILES IDX 9 12 8 13 7 14 6 15 5 16 4 17 3 18 2 19 1 20
REMARK H PARENT
REMARK Flexibility Score: inf
ROOT
ATOM      1  C   UNL     1     -20.822  17.149 -24.250  1.00  0.00     0.000 C 
ENDROOT
BRANCH   1   2
ATOM      2  C   UNL     1     -20.248  18.255 -25.149  1.00  0.00     0.000 C 
BRANCH   2   3
ATOM      3  C   UNL     1     -21.227  18.611 -26.278  1.00  0.00     0.000 C 
BRANCH   3   4
ATOM      4  C   UNL     1     -21.622  20.098 -26.280  1.00  0.00     0.000 C 
BRANCH   4   5
ATOM      5  C   UNL     1     -21.646  20.759 -24.890  1.00  0.00     0.000 C 
BRANCH   5   6
ATOM      6  C   UNL     1     -22.912  21.600 -24.651  1.00  0.00     0.000 C 
BRANCH   6   7
ATOM      7  C   UNL     1     -22.634  23.109 -24.706  1.00  0.00     0.006 C 
BRANCH   7   8
ATOM      8  C   UNL     1     -21.151  23.425 -24.945  1.00  0.00     0.053 C 
BRANCH   8   9
ATOM      9  C   UNL     1     -20.982  24.222 -26.199  1.00  0.00     0.041 C 
ATOM     10  O   UNL     1     -19.872  24.242 -26.792  1.00  0.00    -0.550 OA
ATOM     11  O   UNL     1     -22.040  24.976 -26.692  1.00  0.00    -0.550 OA
ENDBRANCH   8   9
ENDBRANCH   7   8
ENDBRANCH   6   7
ENDBRANCH   5   6
ENDBRANCH   4   5
ENDBRANCH   3   4
ENDBRANCH   2   3
ENDBRANCH   1   2
BRANCH   1  12
ATOM     12  C   UNL     1     -22.311  16.864 -24.528  1.00  0.00     0.000 C 
BRANCH  12  13
ATOM     13  C   UNL     1     -23.274  17.350 -23.428  1.00  0.00    -0.000 C 
BRANCH  13  14
ATOM     14  C   UNL     1     -22.546  17.744 -22.131  1.00  0.00    -0.000 C 
BRANCH  14  15
ATOM     15  C   UNL     1     -22.832  19.196 -21.701  1.00  0.00    -0.000 C 
BRANCH  15  16
ATOM     16  C   UNL     1     -24.315  19.607 -21.735  1.00  0.00    -0.000 C 
BRANCH  16  17
ATOM     17  C   UNL     1     -24.542  21.062 -21.301  1.00  0.00    -0.000 C 
BRANCH  17  18
ATOM     18  C   UNL     1     -23.232  21.706 -20.831  1.00  0.00    -0.000 C 
BRANCH  18  19
ATOM     19  C   UNL     1     -23.284  23.230 -20.974  1.00  0.00    -0.003 C 
ATOM     20  C   UNL     1     -22.867  23.921 -19.679  1.00  0.00     0.004 C 
ENDBRANCH  18  19
ENDBRANCH  17  18
ENDBRANCH  16  17
ENDBRANCH  15  16
ENDBRANCH  14  15
ENDBRANCH  13  14
ENDBRANCH  12  13
ENDBRANCH   1  12
TORSDOF 16
ENDMDL
MODEL 5
REMARK VINA RESULT:    -4.623      1.931      3.884
REMARK INTER + INTRA:         -11.256
REMARK INTER:                  -9.097
REMARK INTRA:                  -2.159
REMARK UNBOUND:                -2.309
REMARK SMILES CCCCCCCCCCCCCCCCCC(=O)[O-]
REMARK SMILES IDX 10 1 11 2 12 3 13 4 14 5 15 6 16 7 17 8 18 9 19 10 20 11
REMARK SMILES IDX 9 12 8 13 7 14 6 15 5 16 4 17 3 18 2 19 1 20
REMARK H PARENT
REMARK Flexibility Score: inf
ROOT
ATOM      1  C   UNL     1     -24.187  17.524 -23.145  1.00  0.00     0.000 C 
ENDROOT
BRANCH   1   2
ATOM      2  C   UNL     1     -24.115  18.216 -21.775  1.00  0.00     0.000 C 
BRANCH   2   3
ATOM      3  C   UNL     1     -22.867  19.106 -21.672  1.00  0.00     0.000 C 
BRANCH   3   4
ATOM      4  C   UNL     1     -23.186  20.527 -21.175  1.00  0.00     0.000 C 
BRANCH   4   5
ATOM      5  C   UNL     1     -23.988  21.390 -22.166  1.00  0.00     0.000 C 
BRANCH   5   6
ATOM      6  C   UNL     1     -23.091  22.290 -23.033  1.00  0.00     0.000 C 
BRANCH   6   7
ATOM      7  C   UNL     1     -22.982  21.790 -24.481  1.00  0.00     0.006 C 
BRANCH   7   8
ATOM      8  C   UNL     1     -21.569  21.956 -25.055  1.00  0.00     0.053 C 
BRANCH   8   9
ATOM      9  C   UNL     1     -21.281  23.398 -25.325  1.00  0.00     0.041 C 
ATOM     10  O   UNL     1     -22.202  24.170 -25.698  1.00  0.00    -0.550 OA
ATOM     11  O   UNL     1     -19.984  23.883 -25.204  1.00  0.00    -0.550 OA
ENDBRANCH   8   9
ENDBRANCH   7   8
ENDBRANCH   6   7
ENDBRANCH   5   6
ENDBRANCH   4   5
ENDBRANCH   3   4
ENDBRANCH   2   3
ENDBRANCH   1   2
BRANCH   1  12
ATOM     12  C   UNL     1     -23.063  17.969 -24.101  1.00  0.00     0.000 C 
BRANCH  12  13
ATOM     13  C   UNL     1     -22.042  16.868 -24.448  1.00  0.00    -0.000 C 
BRANCH  13  14
ATOM     14  C   UNL     1     -20.643  17.150 -23.871  1.00  0.00    -0.000 C 
BRANCH  14  15
ATOM     15  C   UNL     1     -20.404  16.461 -22.515  1.00  0.00    -0.000 C 
BRANCH  15  16
ATOM     16  C   UNL     1     -21.429  15.374 -22.145  1.00  0.00    -0.000 C 
BRANCH  16  17
ATOM     17  C   UNL     1     -21.065  14.623 -20.857  1.00  0.00    -0.000 C 
BRANCH  17  18
ATOM     18  C   UNL     1     -22.297  13.938 -20.253  1.00  0.00    -0.000 C 
BRANCH  18  19
ATOM     19  C   UNL     1     -23.582  14.405 -20.945  1.00  0.00    -0.003 C 
ATOM     20  C   UNL     1     -24.526  15.083 -19.956  1.00  0.00     0.004 C 
ENDBRANCH  18  19
ENDBRANCH  17  18
ENDBRANCH  16  17
ENDBRANCH  15  16
ENDBRANCH  14  15
ENDBRANCH  13  14
ENDBRANCH  12  13
ENDBRANCH   1  12
TORSDOF 16
ENDMDL
MODEL 6
REMARK VINA RESULT:    -4.622      2.729      6.045
REMARK INTER + INTRA:         -11.254
REMARK INTER:                  -9.039
REMARK INTRA:                  -2.215
REMARK UNBOUND:                -2.309
REMARK SMILES CCCCCCCCCCCCCCCCCC(=O)[O-]
REMARK SMILES IDX 10 1 11 2 12 3 13 4 14 5 15 6 16 7 17 8 18 9 19 10 20 11
REMARK SMILES IDX 9 12 8 13 7 14 6 15 5 16 4 17 3 18 2 19 1 20
REMARK H PARENT
REMARK Flexibility Score: inf
ROOT
ATOM      1  C   UNL     1     -22.841  19.378 -21.751  1.00  0.00     0.000 C 
ENDROOT
BRANCH   1   2
ATOM      2  C   UNL     1     -23.508  18.573 -22.877  1.00  0.00     0.000 C 
BRANCH   2   3
ATOM      3  C   UNL     1     -23.151  17.082 -22.774  1.00  0.00     0.000 C 
BRANCH   3   4
ATOM      4  C   UNL     1     -22.094  16.793 -21.694  1.00  0.00     0.000 C 
BRANCH   4   5
ATOM      5  C   UNL     1     -20.687  16.485 -22.237  1.00  0.00     0.000 C 
BRANCH   5   6
ATOM      6  C   UNL     1     -20.632  16.467 -23.774  1.00  0.00     0.000 C 
BRANCH   6   7
ATOM      7  C   UNL     1     -19.755  17.591 -24.344  1.00  0.00     0.006 C 
BRANCH   7   8
ATOM      8  C   UNL     1     -20.574  18.658 -25.082  1.00  0.00     0.053 C 
BRANCH   8   9
ATOM      9  C   UNL     1     -21.246  18.064 -26.280  1.00  0.00     0.041 C 
ATOM     10  O   UNL     1     -22.462  17.741 -26.229  1.00  0.00    -0.550 OA
ATOM     11  O   UNL     1     -20.519  17.829 -27.440  1.00  0.00    -0.550 OA
ENDBRANCH   8   9
ENDBRANCH   7   8
ENDBRANCH   6   7
ENDBRANCH   5   6
ENDBRANCH   4   5
ENDBRANCH   3   4
ENDBRANCH   2   3
ENDBRANCH   1   2
BRANCH   1  12
ATOM     12  C   UNL     1     -23.708  20.553 -21.260  1.00  0.00     0.000 C 
BRANCH  12  13
ATOM     13  C   UNL     1     -23.273  21.935 -21.783  1.00  0.00    -0.000 C 
BRANCH  13  14
ATOM     14  C   UNL     1     -24.310  22.568 -22.728  1.00  0.00    -0.000 C 
BRANCH  14  15
ATOM     15  C   UNL     1     -23.748  22.845 -24.135  1.00  0.00    -0.000 C 
BRANCH  15  16
ATOM     16  C   UNL     1     -22.938  21.692 -24.753  1.00  0.00    -0.000 C 
BRANCH  16  17
ATOM     17  C   UNL     1     -21.503  22.098 -25.118  1.00  0.00    -0.000 C 
BRANCH  17  18
ATOM     18  C   UNL     1     -21.414  23.602 -25.406  1.00  0.00    -0.000 C 
BRANCH  18  19
ATOM     19  C   UNL     1     -20.320  24.261 -24.560  1.00  0.00    -0.003 C 
ATOM     20  C   UNL     1     -20.922  25.096 -23.433  1.00  0.00     0.004 C 
ENDBRANCH  18  19
ENDBRANCH  17  18
ENDBRANCH  16  17
ENDBRANCH  15  16
ENDBRANCH  14  15
ENDBRANCH  13  14
ENDBRANCH  12  13
ENDBRANCH   1  12
TORSDOF 16
ENDMDL
MODEL 7
REMARK VINA RESULT:    -4.596      3.183      4.522
REMARK INTER + INTRA:         -11.203
REMARK INTER:                  -8.960
REMARK INTRA:                  -2.243
REMARK UNBOUND:                -2.309
REMARK SMILES CCCCCCCCCCCCCCCCCC(=O)[O-]
REMARK SMILES IDX 10 1 11 2 12 3 13 4 14 5 15 6 16 7 17 8 18 9 19 10 20 11
REMARK SMILES IDX 9 12 8 13 7 14 6 15 5 16 4 17 3 18 2 19 1 20
REMARK H PARENT
REMARK Flexibility Score: inf
ROOT
ATOM      1  C   UNL     1     -22.773  19.141 -21.927  1.00  0.00     0.000 C 
ENDROOT
BRANCH   1   2
ATOM      2  C   UNL     1     -23.154  20.473 -21.263  1.00  0.00     0.000 C 
BRANCH   2   3
ATOM      3  C   UNL     1     -24.057  21.309 -22.183  1.00  0.00     0.000 C 
BRANCH   3   4
ATOM      4  C   UNL     1     -23.268  22.300 -23.056  1.00  0.00     0.000 C 
BRANCH   4   5
ATOM      5  C   UNL     1     -23.115  21.879 -24.529  1.00  0.00     0.000 C 
BRANCH   5   6
ATOM      6  C   UNL     1     -21.698  21.382 -24.862  1.00  0.00     0.000 C 
BRANCH   6   7
ATOM      7  C   UNL     1     -21.701  20.257 -25.908  1.00  0.00     0.006 C 
BRANCH   7   8
ATOM      8  C   UNL     1     -21.038  18.974 -25.392  1.00  0.00     0.053 C 
BRANCH   8   9
ATOM      9  C   UNL     1     -21.562  17.783 -26.129  1.00  0.00     0.041 C 
ATOM     10  O   UNL     1     -22.447  17.054 -25.609  1.00  0.00    -0.550 OA
ATOM     11  O   UNL     1     -21.044  17.452 -27.376  1.00  0.00    -0.550 OA
ENDBRANCH   8   9
ENDBRANCH   7   8
ENDBRANCH   6   7
ENDBRANCH   5   6
ENDBRANCH   4   5
ENDBRANCH   3   4
ENDBRANCH   2   3
ENDBRANCH   1   2
BRANCH   1  12
ATOM     12  C   UNL     1     -23.959  18.469 -22.646  1.00  0.00     0.000 C 
BRANCH  12  13
ATOM     13  C   UNL     1     -24.075  16.951 -22.413  1.00  0.00    -0.000 C 
BRANCH  13  14
ATOM     14  C   UNL     1     -24.224  16.586 -20.926  1.00  0.00    -0.000 C 
BRANCH  14  15
ATOM     15  C   UNL     1     -24.314  15.067 -20.687  1.00  0.00    -0.000 C 
BRANCH  15  16
ATOM     16  C   UNL     1     -23.138  14.248 -21.245  1.00  0.00    -0.000 C 
BRANCH  16  17
ATOM     17  C   UNL     1     -21.770  14.834 -20.870  1.00  0.00    -0.000 C 
BRANCH  17  18
ATOM     18  C   UNL     1     -20.672  14.308 -21.803  1.00  0.00    -0.000 C 
BRANCH  18  19
ATOM     19  C   UNL     1     -20.578  15.155 -23.076  1.00  0.00    -0.003 C 
ATOM     20  C   UNL     1     -20.279  16.615 -22.748  1.00  0.00     0.004 C 
ENDBRANCH  18  19
ENDBRANCH  17  18
ENDBRANCH  16  17
ENDBRANCH  15  16
ENDBRANCH  14  15
ENDBRANCH  13  14
ENDBRANCH  12  13
ENDBRANCH   1  12
TORSDOF 16
ENDMDL
MODEL 8
REMARK VINA RESULT:    -4.572      1.311      2.344
REMARK INTER + INTRA:         -11.157
REMARK INTER:                  -9.122
REMARK INTRA:                  -2.035
REMARK UNBOUND:                -2.309
REMARK SMILES CCCCCCCCCCCCCCCCCC(=O)[O-]
REMARK SMILES IDX 10 1 11 2 12 3 13 4 14 5 15 6 16 7 17 8 18 9 19 10 20 11
REMARK SMILES IDX 9 12 8 13 7 14 6 15 5 16 4 17 3 18 2 19 1 20
REMARK H PARENT
REMARK Flexibility Score: inf
ROOT
ATOM      1  C   UNL     1     -23.247  20.466 -21.248  1.00  0.00     0.000 C 
ENDROOT
BRANCH   1   2
ATOM      2  C   UNL     1     -23.626  21.504 -22.317  1.00  0.00     0.000 C 
BRANCH   2   3
ATOM      3  C   UNL     1     -22.889  21.230 -23.637  1.00  0.00     0.000 C 
BRANCH   3   4
ATOM      4  C   UNL     1     -22.804  22.471 -24.542  1.00  0.00     0.000 C 
BRANCH   4   5
ATOM      5  C   UNL     1     -24.115  23.267 -24.667  1.00  0.00     0.000 C 
BRANCH   5   6
ATOM      6  C   UNL     1     -23.987  24.712 -24.154  1.00  0.00     0.000 C 
BRANCH   6   7
ATOM      7  C   UNL     1     -22.991  25.542 -24.976  1.00  0.00     0.006 C 
BRANCH   7   8
ATOM      8  C   UNL     1     -23.305  25.517 -26.478  1.00  0.00     0.053 C 
BRANCH   8   9
ATOM      9  C   UNL     1     -22.046  25.368 -27.272  1.00  0.00     0.041 C 
ATOM     10  O   UNL     1     -21.176  24.526 -26.930  1.00  0.00    -0.550 OA
ATOM     11  O   UNL     1     -21.815  26.190 -28.368  1.00  0.00    -0.550 OA
ENDBRANCH   8   9
ENDBRANCH   7   8
ENDBRANCH   6   7
ENDBRANCH   5   6
ENDBRANCH   4   5
ENDBRANCH   3   4
ENDBRANCH   2   3
ENDBRANCH   1   2
BRANCH   1  12
ATOM     12  C   UNL     1     -22.668  19.171 -21.850  1.00  0.00     0.000 C 
BRANCH  12  13
ATOM     13  C   UNL     1     -23.557  17.926 -21.667  1.00  0.00    -0.000 C 
BRANCH  13  14
ATOM     14  C   UNL     1     -22.809  16.613 -21.957  1.00  0.00    -0.000 C 
BRANCH  14  15
ATOM     15  C   UNL     1     -21.281  16.796 -22.029  1.00  0.00    -0.000 C 
BRANCH  15  16
ATOM     16  C   UNL     1     -20.631  16.345 -23.348  1.00  0.00    -0.000 C 
BRANCH  16  17
ATOM     17  C   UNL     1     -19.851  17.469 -24.046  1.00  0.00    -0.000 C 
BRANCH  17  18
ATOM     18  C   UNL     1     -20.787  18.352 -24.879  1.00  0.00    -0.000 C 
BRANCH  18  19
ATOM     19  C   UNL     1     -21.818  17.507 -25.633  1.00  0.00    -0.003 C 
ATOM     20  C   UNL     1     -23.237  18.001 -25.369  1.00  0.00     0.004 C 
ENDBRANCH  18  19
ENDBRANCH  17  18
ENDBRANCH  16  17
ENDBRANCH  15  16
ENDBRANCH  14  15
ENDBRANCH  13  14
ENDBRANCH  12  13
ENDBRANCH   1  12
TORSDOF 16
ENDMDL
MODEL 9
REMARK VINA RESULT:    -4.540      4.407      7.963
REMARK INTER + INTRA:         -11.095
REMARK INTER:                  -8.968
REMARK INTRA:                  -2.126
REMARK UNBOUND:                -2.309
REMARK SMILES CCCCCCCCCCCCCCCCCC(=O)[O-]
REMARK SMILES IDX 10 1 11 2 12 3 13 4 14 5 15 6 16 7 17 8 18 9 19 10 20 11
REMARK SMILES IDX 9 12 8 13 7 14 6 15 5 16 4 17 3 18 2 19 1 20
REMARK H PARENT
REMARK Flexibility Score: inf
ROOT
ATOM      1  C   UNL     1     -22.431  18.291 -24.404  1.00  0.00     0.000 C 
ENDROOT
BRANCH   1   2
ATOM      2  C   UNL     1     -21.425  17.236 -24.890  1.00  0.00     0.000 C 
BRANCH   2   3
ATOM      3  C   UNL     1     -20.125  17.298 -24.074  1.00  0.00     0.000 C 
BRANCH   3   4
ATOM      4  C   UNL     1     -20.276  16.702 -22.663  1.00  0.00     0.000 C 
BRANCH   4   5
ATOM      5  C   UNL     1     -20.977  15.332 -22.616  1.00  0.00     0.000 C 
BRANCH   5   6
ATOM      6  C   UNL     1     -20.668  14.549 -21.328  1.00  0.00     0.000 C 
BRANCH   6   7
ATOM      7  C   UNL     1     -21.939  14.143 -20.568  1.00  0.00     0.006 C 
BRANCH   7   8
ATOM      8  C   UNL     1     -23.176  14.919 -21.037  1.00  0.00     0.053 C 
BRANCH   8   9
ATOM      9  C   UNL     1     -24.403  14.413 -20.346  1.00  0.00     0.041 C 
ATOM     10  O   UNL     1     -25.124  13.539 -20.894  1.00  0.00    -0.550 OA
ATOM     11  O   UNL     1     -24.773  14.937 -19.113  1.00  0.00    -0.550 OA
ENDBRANCH   8   9
ENDBRANCH   7   8
ENDBRANCH   6   7
ENDBRANCH   5   6
ENDBRANCH   4   5
ENDBRANCH   3   4
ENDBRANCH   2   3
ENDBRANCH   1   2
BRANCH   1  12
ATOM     12  C   UNL     1     -23.678  17.670 -23.745  1.00  0.00     0.000 C 
BRANCH  12  13
ATOM     13  C   UNL     1     -24.059  18.287 -22.385  1.00  0.00    -0.000 C 
BRANCH  13  14
ATOM     14  C   UNL     1     -22.865  18.952 -21.678  1.00  0.00    -0.000 C 
BRANCH  14  15
ATOM     15  C   UNL     1     -23.142  20.415 -21.282  1.00  0.00    -0.000 C 
BRANCH  15  16
ATOM     16  C   UNL     1     -24.571  20.909 -21.570  1.00  0.00    -0.000 C 
BRANCH  16  17
ATOM     17  C   UNL     1     -24.610  22.356 -22.082  1.00  0.00    -0.000 C 
BRANCH  17  18
ATOM     18  C   UNL     1     -23.260  22.764 -22.683  1.00  0.00    -0.000 C 
BRANCH  18  19
ATOM     19  C   UNL     1     -23.311  22.753 -24.214  1.00  0.00    -0.003 C 
ATOM     20  C   UNL     1     -22.337  21.730 -24.792  1.00  0.00     0.004 C 
ENDBRANCH  18  19
ENDBRANCH  17  18
ENDBRANCH  16  17
ENDBRANCH  15  16
ENDBRANCH  14  15
ENDBRANCH  13  14
ENDBRANCH  12  13
ENDBRANCH   1  12
TORSDOF 16
ENDMDL
