MODEL 1
REMARK VINA RESULT:    -5.832      0.000      0.000
REMARK INTER + INTRA:          -7.345
REMARK INTER:                  -7.026
REMARK INTRA:                  -0.319
REMARK UNBOUND:                -0.319
REMARK SMILES O=c1c(O)c(-c2ccc(O)c(O)c2)oc2cc(O)cc(O)c12
REMARK SMILES IDX 5 1 3 2 2 3 1 4 22 5 20 6 19 7 17 8 16 9 15 10 14 11 6 12
REMARK SMILES IDX 7 13 8 14 9 15 13 16 11 17 10 18 12 20 4 22 21 24 18 26
REMARK H PARENT 10 19 12 21 4 23 21 25 18 27
REMARK Flexibility Score: inf
ROOT
ATOM      1  C   UNL     1      47.305  28.799  15.228  1.00  0.00     0.180 A 
ATOM      2  C   UNL     1      45.928  29.051  15.103  1.00  0.00     0.208 A 
ATOM      3  C   UNL     1      45.028  28.332  15.905  1.00  0.00     0.238 A 
ATOM      4  O   UNL     1      43.794  28.523  15.751  1.00  0.00    -0.285 OA
ATOM      5  C   UNL     1      45.517  27.381  16.834  1.00  0.00     0.111 A 
ATOM      6  C   UNL     1      44.699  26.624  17.725  1.00  0.00     0.134 A 
ATOM      7  C   UNL     1      45.279  25.617  18.508  1.00  0.00     0.093 A 
ATOM      8  C   UNL     1      46.652  25.385  18.481  1.00  0.00     0.123 A 
ATOM      9  C   UNL     1      47.470  26.160  17.657  1.00  0.00     0.094 A 
ATOM     10  C   UNL     1      46.917  27.147  16.837  1.00  0.00     0.146 A 
ATOM     11  O   UNL     1      47.728  27.854  16.060  1.00  0.00    -0.452 OA
ENDROOT
BRANCH   1  12
ATOM     12  C   UNL     1      48.316  29.535  14.435  1.00  0.00     0.025 A 
ATOM     13  C   UNL     1      48.884  28.929  13.306  1.00  0.00     0.016 A 
ATOM     14  C   UNL     1      49.852  29.596  12.556  1.00  0.00     0.051 A 
ATOM     15  C   UNL     1      50.285  30.875  12.925  1.00  0.00     0.157 A 
ATOM     16  C   UNL     1      48.764  30.810  14.822  1.00  0.00     0.062 A 
ATOM     17  C   UNL     1      49.738  31.488  14.078  1.00  0.00     0.158 A 
BRANCH  15  18
ATOM     18  O   UNL     1      51.251  31.492  12.128  1.00  0.00    -0.504 OA
ATOM     19  H   UNL     1      51.687  32.376  12.352  1.00  0.00     0.293 HD
ENDBRANCH  15  18
BRANCH  17  20
ATOM     20  O   UNL     1      50.134  32.752  14.519  1.00  0.00    -0.504 OA
ATOM     21  H   UNL     1      49.723  33.228  15.309  1.00  0.00     0.293 HD
ENDBRANCH  17  20
ENDBRANCH   1  12
BRANCH   2  22
ATOM     22  O   UNL     1      45.465  29.978  14.165  1.00  0.00    -0.502 OA
ATOM     23  H   UNL     1      46.000  30.796  13.899  1.00  0.00     0.293 HD
ENDBRANCH   2  22
BRANCH   6  24
ATOM     24  O   UNL     1      43.328  26.837  17.897  1.00  0.00    -0.507 OA
ATOM     25  H   UNL     1      42.921  27.670  18.295  1.00  0.00     0.293 HD
ENDBRANCH   6  24
BRANCH   8  26
ATOM     26  O   UNL     1      47.197  24.386  19.285  1.00  0.00    -0.508 OA
ATOM     27  H   UNL     1      47.083  23.405  19.063  1.00  0.00     0.293 HD
ENDBRANCH   8  26
TORSDOF 6
ENDMDL
MODEL 2
REMARK VINA RESULT:    -5.794      3.146      6.595
REMARK INTER + INTRA:          -7.299
REMARK INTER:                  -6.995
REMARK INTRA:                  -0.304
REMARK UNBOUND:                -0.319
REMARK SMILES O=c1c(O)c(-c2ccc(O)c(O)c2)oc2cc(O)cc(O)c12
REMARK SMILES IDX 5 1 3 2 2 3 1 4 22 5 20 6 19 7 17 8 16 9 15 10 14 11 6 12
REMARK SMILES IDX 7 13 8 14 9 15 13 16 11 17 10 18 12 20 4 22 21 24 18 26
REMARK H PARENT 10 19 12 21 4 23 21 25 18 27
REMARK Flexibility Score: inf
ROOT
ATOM      1  C   UNL     1      46.826  25.956  18.858  1.00  0.00     0.180 A 
ATOM      2  C   UNL     1      45.520  25.579  19.220  1.00  0.00     0.208 A 
ATOM      3  C   UNL     1      44.437  26.088  18.486  1.00  0.00     0.238 A 
ATOM      4  O   UNL     1      43.269  25.791  18.848  1.00  0.00    -0.285 OA
ATOM      5  C   UNL     1      44.672  26.955  17.392  1.00  0.00     0.111 A 
ATOM      6  C   UNL     1      43.652  27.498  16.554  1.00  0.00     0.134 A 
ATOM      7  C   UNL     1      43.990  28.448  15.582  1.00  0.00     0.093 A 
ATOM      8  C   UNL     1      45.315  28.825  15.373  1.00  0.00     0.123 A 
ATOM      9  C   UNL     1      46.328  28.255  16.147  1.00  0.00     0.094 A 
ATOM     10  C   UNL     1      46.018  27.332  17.148  1.00  0.00     0.146 A 
ATOM     11  O   UNL     1      47.010  26.822  17.869  1.00  0.00    -0.452 OA
ENDROOT
BRANCH   1  12
ATOM     12  C   UNL     1      48.019  25.440  19.567  1.00  0.00     0.025 A 
ATOM     13  C   UNL     1      48.692  24.320  19.061  1.00  0.00     0.016 A 
ATOM     14  C   UNL     1      49.807  23.805  19.723  1.00  0.00     0.051 A 
ATOM     15  C   UNL     1      50.263  24.388  20.911  1.00  0.00     0.157 A 
ATOM     16  C   UNL     1      48.461  26.014  20.772  1.00  0.00     0.062 A 
ATOM     17  C   UNL     1      49.577  25.503  21.446  1.00  0.00     0.158 A 
BRANCH  15  18
ATOM     18  O   UNL     1      51.389  23.830  21.521  1.00  0.00    -0.504 OA
ATOM     19  H   UNL     1      51.595  22.841  21.529  1.00  0.00     0.293 HD
ENDBRANCH  15  18
BRANCH  17  20
ATOM     20  O   UNL     1      49.960  26.125  22.636  1.00  0.00    -0.504 OA
ATOM     21  H   UNL     1      50.921  26.282  22.907  1.00  0.00     0.293 HD
ENDBRANCH  17  20
ENDBRANCH   1  12
BRANCH   2  22
ATOM     22  O   UNL     1      45.309  24.740  20.317  1.00  0.00    -0.502 OA
ATOM     23  H   UNL     1      44.589  24.029  20.327  1.00  0.00     0.293 HD
ENDBRANCH   2  22
BRANCH   6  24
ATOM     24  O   UNL     1      42.307  27.122  16.618  1.00  0.00    -0.507 OA
ATOM     25  H   UNL     1      41.716  26.962  15.817  1.00  0.00     0.293 HD
ENDBRANCH   6  24
BRANCH   8  26
ATOM     26  O   UNL     1      45.617  29.761  14.386  1.00  0.00    -0.508 OA
ATOM     27  H   UNL     1      46.387  29.624  13.743  1.00  0.00     0.293 HD
ENDBRANCH   8  26
TORSDOF 6
ENDMDL
MODEL 3
REMARK VINA RESULT:    -5.778      1.842      7.215
REMARK INTER + INTRA:          -7.279
REMARK INTER:                  -7.105
REMARK INTRA:                  -0.174
REMARK UNBOUND:                -0.319
REMARK SMILES O=c1c(O)c(-c2ccc(O)c(O)c2)oc2cc(O)cc(O)c12
REMARK SMILES IDX 5 1 3 2 2 3 1 4 22 5 20 6 19 7 17 8 16 9 15 10 14 11 6 12
REMARK SMILES IDX 7 13 8 14 9 15 13 16 11 17 10 18 12 20 4 22 21 24 18 26
REMARK H PARENT 10 19 12 21 4 23 21 25 18 27
REMARK Flexibility Score: inf
ROOT
ATOM      1  C   UNL     1      47.936  28.558  14.432  1.00  0.00     0.180 A 
ATOM      2  C   UNL     1      48.610  27.536  13.739  1.00  0.00     0.208 A 
ATOM      3  C   UNL     1      49.797  27.846  13.057  1.00  0.00     0.238 A 
ATOM      4  O   UNL     1      50.367  26.940  12.394  1.00  0.00    -0.285 OA
ATOM      5  C   UNL     1      50.305  29.167  13.087  1.00  0.00     0.111 A 
ATOM      6  C   UNL     1      51.519  29.583  12.465  1.00  0.00     0.134 A 
ATOM      7  C   UNL     1      51.857  30.943  12.449  1.00  0.00     0.093 A 
ATOM      8  C   UNL     1      51.060  31.890  13.088  1.00  0.00     0.123 A 
ATOM      9  C   UNL     1      49.900  31.486  13.752  1.00  0.00     0.094 A 
ATOM     10  C   UNL     1      49.518  30.142  13.754  1.00  0.00     0.146 A 
ATOM     11  O   UNL     1      48.402  29.801  14.387  1.00  0.00    -0.452 OA
ENDROOT
BRANCH   1  12
ATOM     12  C   UNL     1      46.694  28.305  15.196  1.00  0.00     0.025 A 
ATOM     13  C   UNL     1      45.517  28.981  14.845  1.00  0.00     0.016 A 
ATOM     14  C   UNL     1      44.340  28.773  15.564  1.00  0.00     0.051 A 
ATOM     15  C   UNL     1      44.316  27.897  16.656  1.00  0.00     0.157 A 
ATOM     16  C   UNL     1      46.679  27.441  16.305  1.00  0.00     0.062 A 
ATOM     17  C   UNL     1      45.503  27.227  17.035  1.00  0.00     0.158 A 
BRANCH  15  18
ATOM     18  O   UNL     1      43.104  27.726  17.328  1.00  0.00    -0.504 OA
ATOM     19  H   UNL     1      42.327  28.368  17.263  1.00  0.00     0.293 HD
ENDBRANCH  15  18
BRANCH  17  20
ATOM     20  O   UNL     1      45.561  26.355  18.124  1.00  0.00    -0.504 OA
ATOM     21  H   UNL     1      45.129  26.538  19.018  1.00  0.00     0.293 HD
ENDBRANCH  17  20
ENDBRANCH   1  12
BRANCH   2  22
ATOM     22  O   UNL     1      48.081  26.244  13.704  1.00  0.00    -0.502 OA
ATOM     23  H   UNL     1      48.560  25.448  14.106  1.00  0.00     0.293 HD
ENDBRANCH   2  22
BRANCH   6  24
ATOM     24  O   UNL     1      52.435  28.706  11.876  1.00  0.00    -0.507 OA
ATOM     25  H   UNL     1      53.257  28.341  12.332  1.00  0.00     0.293 HD
ENDBRANCH   6  24
BRANCH   8  26
ATOM     26  O   UNL     1      51.434  33.232  13.067  1.00  0.00    -0.508 OA
ATOM     27  H   UNL     1      52.080  33.613  13.746  1.00  0.00     0.293 HD
ENDBRANCH   8  26
TORSDOF 6
ENDMDL
MODEL 4
REMARK VINA RESULT:    -5.759      1.571      6.856
REMARK INTER + INTRA:          -7.256
REMARK INTER:                  -7.152
REMARK INTRA:                  -0.104
REMARK UNBOUND:                -0.319
REMARK SMILES O=c1c(O)c(-c2ccc(O)c(O)c2)oc2cc(O)cc(O)c12
REMARK SMILES IDX 5 1 3 2 2 3 1 4 22 5 20 6 19 7 17 8 16 9 15 10 14 11 6 12
REMARK SMILES IDX 7 13 8 14 9 15 13 16 11 17 10 18 12 20 4 22 21 24 18 26
REMARK H PARENT 10 19 12 21 4 23 21 25 18 27
REMARK Flexibility Score: inf
ROOT
ATOM      1  C   UNL     1      47.512  29.430  14.822  1.00  0.00     0.180 A 
ATOM      2  C   UNL     1      47.732  30.818  14.877  1.00  0.00     0.208 A 
ATOM      3  C   UNL     1      48.871  31.351  14.253  1.00  0.00     0.238 A 
ATOM      4  O   UNL     1      49.091  32.586  14.351  1.00  0.00    -0.285 OA
ATOM      5  C   UNL     1      49.767  30.494  13.569  1.00  0.00     0.111 A 
ATOM      6  C   UNL     1      50.930  30.931  12.867  1.00  0.00     0.134 A 
ATOM      7  C   UNL     1      51.814  29.983  12.338  1.00  0.00     0.093 A 
ATOM      8  C   UNL     1      51.545  28.619  12.427  1.00  0.00     0.123 A 
ATOM      9  C   UNL     1      50.379  28.182  13.059  1.00  0.00     0.094 A 
ATOM     10  C   UNL     1      49.496  29.102  13.628  1.00  0.00     0.146 A 
ATOM     11  O   UNL     1      48.405  28.645  14.230  1.00  0.00    -0.452 OA
ENDROOT
BRANCH   1  12
ATOM     12  C   UNL     1      46.321  28.797  15.434  1.00  0.00     0.025 A 
ATOM     13  C   UNL     1      45.041  29.185  15.015  1.00  0.00     0.016 A 
ATOM     14  C   UNL     1      43.905  28.616  15.592  1.00  0.00     0.051 A 
ATOM     15  C   UNL     1      44.023  27.660  16.607  1.00  0.00     0.157 A 
ATOM     16  C   UNL     1      46.444  27.853  16.468  1.00  0.00     0.062 A 
ATOM     17  C   UNL     1      45.310  27.278  17.056  1.00  0.00     0.158 A 
BRANCH  15  18
ATOM     18  O   UNL     1      42.848  27.123  17.137  1.00  0.00    -0.504 OA
ATOM     19  H   UNL     1      42.670  27.022  18.126  1.00  0.00     0.293 HD
ENDBRANCH  15  18
BRANCH  17  20
ATOM     20  O   UNL     1      45.506  26.346  18.076  1.00  0.00    -0.504 OA
ATOM     21  H   UNL     1      45.268  25.367  18.001  1.00  0.00     0.293 HD
ENDBRANCH  17  20
ENDBRANCH   1  12
BRANCH   2  22
ATOM     22  O   UNL     1      46.847  31.643  15.575  1.00  0.00    -0.502 OA
ATOM     23  H   UNL     1      46.979  31.879  16.551  1.00  0.00     0.293 HD
ENDBRANCH   2  22
BRANCH   6  24
ATOM     24  O   UNL     1      51.246  32.274  12.641  1.00  0.00    -0.507 OA
ATOM     25  H   UNL     1      50.656  33.054  12.888  1.00  0.00     0.293 HD
ENDBRANCH   6  24
BRANCH   8  26
ATOM     26  O   UNL     1      52.439  27.703  11.875  1.00  0.00    -0.508 OA
ATOM     27  H   UNL     1      53.441  27.817  11.969  1.00  0.00     0.293 HD
ENDBRANCH   8  26
TORSDOF 6
ENDMDL
MODEL 5
REMARK VINA RESULT:    -5.530      3.883      5.399
REMARK INTER + INTRA:          -6.981
REMARK INTER:                  -6.670
REMARK INTRA:                  -0.311
REMARK UNBOUND:                -0.319
REMARK SMILES O=c1c(O)c(-c2ccc(O)c(O)c2)oc2cc(O)cc(O)c12
REMARK SMILES IDX 5 1 3 2 2 3 1 4 22 5 20 6 19 7 17 8 16 9 15 10 14 11 6 12
REMARK SMILES IDX 7 13 8 14 9 15 13 16 11 17 10 18 12 20 4 22 21 24 18 26
REMARK H PARENT 10 19 12 21 4 23 21 25 18 27
REMARK Flexibility Score: inf
ROOT
ATOM      1  C   UNL     1      47.986  26.448  18.580  1.00  0.00     0.180 A 
ATOM      2  C   UNL     1      47.301  25.520  19.385  1.00  0.00     0.208 A 
ATOM      3  C   UNL     1      45.920  25.347  19.199  1.00  0.00     0.238 A 
ATOM      4  O   UNL     1      45.303  24.555  19.957  1.00  0.00    -0.285 OA
ATOM      5  C   UNL     1      45.244  26.092  18.202  1.00  0.00     0.111 A 
ATOM      6  C   UNL     1      43.855  25.967  17.900  1.00  0.00     0.134 A 
ATOM      7  C   UNL     1      43.266  26.848  16.983  1.00  0.00     0.093 A 
ATOM      8  C   UNL     1      44.026  27.802  16.311  1.00  0.00     0.123 A 
ATOM      9  C   UNL     1      45.398  27.892  16.554  1.00  0.00     0.094 A 
ATOM     10  C   UNL     1      46.008  27.052  17.489  1.00  0.00     0.146 A 
ATOM     11  O   UNL     1      47.313  27.178  17.699  1.00  0.00    -0.452 OA
ENDROOT
BRANCH   1  12
ATOM     12  C   UNL     1      49.446  26.667  18.699  1.00  0.00     0.025 A 
ATOM     13  C   UNL     1      50.330  25.796  18.048  1.00  0.00     0.016 A 
ATOM     14  C   UNL     1      51.709  25.971  18.163  1.00  0.00     0.051 A 
ATOM     15  C   UNL     1      52.234  27.010  18.941  1.00  0.00     0.157 A 
ATOM     16  C   UNL     1      49.969  27.697  19.500  1.00  0.00     0.062 A 
ATOM     17  C   UNL     1      51.352  27.880  19.624  1.00  0.00     0.158 A 
BRANCH  15  18
ATOM     18  O   UNL     1      53.623  27.136  19.009  1.00  0.00    -0.504 OA
ATOM     19  H   UNL     1      54.208  26.608  19.640  1.00  0.00     0.293 HD
ENDBRANCH  15  18
BRANCH  17  20
ATOM     20  O   UNL     1      51.801  28.926  20.433  1.00  0.00    -0.504 OA
ATOM     21  H   UNL     1      52.507  28.823  21.148  1.00  0.00     0.293 HD
ENDBRANCH  17  20
ENDBRANCH   1  12
BRANCH   2  22
ATOM     22  O   UNL     1      47.983  24.812  20.377  1.00  0.00    -0.502 OA
ATOM     23  H   UNL     1      47.511  24.198  21.030  1.00  0.00     0.293 HD
ENDBRANCH   2  22
BRANCH   6  24
ATOM     24  O   UNL     1      43.022  24.988  18.448  1.00  0.00    -0.507 OA
ATOM     25  H   UNL     1      42.869  24.074  18.050  1.00  0.00     0.293 HD
ENDBRANCH   6  24
BRANCH   8  26
ATOM     26  O   UNL     1      43.411  28.651  15.393  1.00  0.00    -0.508 OA
ATOM     27  H   UNL     1      42.488  29.032  15.559  1.00  0.00     0.293 HD
ENDBRANCH   8  26
TORSDOF 6
ENDMDL
MODEL 6
REMARK VINA RESULT:    -5.513      2.276      7.433
REMARK INTER + INTRA:          -6.960
REMARK INTER:                  -6.659
REMARK INTRA:                  -0.301
REMARK UNBOUND:                -0.319
REMARK SMILES O=c1c(O)c(-c2ccc(O)c(O)c2)oc2cc(O)cc(O)c12
REMARK SMILES IDX 5 1 3 2 2 3 1 4 22 5 20 6 19 7 17 8 16 9 15 10 14 11 6 12
REMARK SMILES IDX 7 13 8 14 9 15 13 16 11 17 10 18 12 20 4 22 21 24 18 26
REMARK H PARENT 10 19 12 21 4 23 21 25 18 27
REMARK Flexibility Score: inf
ROOT
ATOM      1  C   UNL     1      44.915  26.162  17.515  1.00  0.00     0.180 A 
ATOM      2  C   UNL     1      44.073  27.107  16.901  1.00  0.00     0.208 A 
ATOM      3  C   UNL     1      44.637  28.063  16.041  1.00  0.00     0.238 A 
ATOM      4  O   UNL     1      43.887  28.939  15.537  1.00  0.00    -0.285 OA
ATOM      5  C   UNL     1      46.031  28.054  15.794  1.00  0.00     0.111 A 
ATOM      6  C   UNL     1      46.702  28.950  14.909  1.00  0.00     0.134 A 
ATOM      7  C   UNL     1      48.101  28.935  14.842  1.00  0.00     0.093 A 
ATOM      8  C   UNL     1      48.847  28.014  15.574  1.00  0.00     0.123 A 
ATOM      9  C   UNL     1      48.197  27.092  16.397  1.00  0.00     0.094 A 
ATOM     10  C   UNL     1      46.805  27.107  16.513  1.00  0.00     0.146 A 
ATOM     11  O   UNL     1      46.227  26.221  17.315  1.00  0.00    -0.452 OA
ENDROOT
BRANCH   1  12
ATOM     12  C   UNL     1      44.392  25.108  18.414  1.00  0.00     0.025 A 
ATOM     13  C   UNL     1      44.120  23.834  17.897  1.00  0.00     0.016 A 
ATOM     14  C   UNL     1      43.608  22.831  18.721  1.00  0.00     0.051 A 
ATOM     15  C   UNL     1      43.343  23.083  20.073  1.00  0.00     0.157 A 
ATOM     16  C   UNL     1      44.107  25.372  19.765  1.00  0.00     0.062 A 
ATOM     17  C   UNL     1      43.590  24.373  20.600  1.00  0.00     0.158 A 
BRANCH  15  18
ATOM     18  O   UNL     1      42.839  22.035  20.845  1.00  0.00    -0.504 OA
ATOM     19  H   UNL     1      43.136  21.837  21.790  1.00  0.00     0.293 HD
ENDBRANCH  15  18
BRANCH  17  20
ATOM     20  O   UNL     1      43.333  24.704  21.931  1.00  0.00    -0.504 OA
ATOM     21  H   UNL     1      44.051  24.859  22.623  1.00  0.00     0.293 HD
ENDBRANCH  17  20
ENDBRANCH   1  12
BRANCH   2  22
ATOM     22  O   UNL     1      42.704  27.112  17.176  1.00  0.00    -0.502 OA
ATOM     23  H   UNL     1      42.011  26.813  16.500  1.00  0.00     0.293 HD
ENDBRANCH   2  22
BRANCH   6  24
ATOM     24  O   UNL     1      46.046  29.850  14.064  1.00  0.00    -0.507 OA
ATOM     25  H   UNL     1      46.461  30.686  13.682  1.00  0.00     0.293 HD
ENDBRANCH   6  24
BRANCH   8  26
ATOM     26  O   UNL     1      50.237  28.016  15.470  1.00  0.00    -0.508 OA
ATOM     27  H   UNL     1      50.738  28.795  15.060  1.00  0.00     0.293 HD
ENDBRANCH   8  26
TORSDOF 6
ENDMDL
MODEL 7
REMARK VINA RESULT:    -5.447      1.612      1.738
REMARK INTER + INTRA:          -6.881
REMARK INTER:                  -6.546
REMARK INTRA:                  -0.334
REMARK UNBOUND:                -0.319
REMARK SMILES O=c1c(O)c(-c2ccc(O)c(O)c2)oc2cc(O)cc(O)c12
REMARK SMILES IDX 5 1 3 2 2 3 1 4 22 5 20 6 19 7 17 8 16 9 15 10 14 11 6 12
REMARK SMILES IDX 7 13 8 14 9 15 13 16 11 17 10 18 12 20 4 22 21 24 18 26
REMARK H PARENT 10 19 12 21 4 23 21 25 18 27
REMARK Flexibility Score: inf
ROOT
ATOM      1  C   UNL     1      47.780  27.920  15.315  1.00  0.00     0.180 A 
ATOM      2  C   UNL     1      46.613  28.603  14.928  1.00  0.00     0.208 A 
ATOM      3  C   UNL     1      45.431  28.398  15.657  1.00  0.00     0.238 A 
ATOM      4  O   UNL     1      44.378  28.970  15.274  1.00  0.00    -0.285 OA
ATOM      5  C   UNL     1      45.433  27.526  16.772  1.00  0.00     0.111 A 
ATOM      6  C   UNL     1      44.303  27.275  17.607  1.00  0.00     0.134 A 
ATOM      7  C   UNL     1      44.384  26.294  18.602  1.00  0.00     0.093 A 
ATOM      8  C   UNL     1      45.570  25.602  18.837  1.00  0.00     0.123 A 
ATOM      9  C   UNL     1      46.700  25.882  18.066  1.00  0.00     0.094 A 
ATOM     10  C   UNL     1      46.640  26.830  17.041  1.00  0.00     0.146 A 
ATOM     11  O   UNL     1      47.734  27.058  16.324  1.00  0.00    -0.452 OA
ENDROOT
BRANCH   1  12
ATOM     12  C   UNL     1      49.070  28.104  14.612  1.00  0.00     0.025 A 
ATOM     13  C   UNL     1      49.423  27.227  13.576  1.00  0.00     0.016 A 
ATOM     14  C   UNL     1      50.642  27.370  12.913  1.00  0.00     0.051 A 
ATOM     15  C   UNL     1      51.540  28.379  13.280  1.00  0.00     0.157 A 
ATOM     16  C   UNL     1      49.978  29.105  14.997  1.00  0.00     0.062 A 
ATOM     17  C   UNL     1      51.206  29.255  14.340  1.00  0.00     0.158 A 
BRANCH  15  18
ATOM     18  O   UNL     1      52.740  28.474  12.572  1.00  0.00    -0.504 OA
ATOM     19  H   UNL     1      53.650  28.513  13.007  1.00  0.00     0.293 HD
ENDBRANCH  15  18
BRANCH  17  20
ATOM     20  O   UNL     1      52.058  30.272  14.774  1.00  0.00    -0.504 OA
ATOM     21  H   UNL     1      52.544  30.904  14.155  1.00  0.00     0.293 HD
ENDBRANCH  17  20
ENDBRANCH   1  12
BRANCH   2  22
ATOM     22  O   UNL     1      46.628  29.443  13.811  1.00  0.00    -0.502 OA
ATOM     23  H   UNL     1      45.993  29.323  13.032  1.00  0.00     0.293 HD
ENDBRANCH   2  22
BRANCH   6  24
ATOM     24  O   UNL     1      43.096  27.975  17.517  1.00  0.00    -0.507 OA
ATOM     25  H   UNL     1      43.006  28.977  17.584  1.00  0.00     0.293 HD
ENDBRANCH   6  24
BRANCH   8  26
ATOM     26  O   UNL     1      45.621  24.643  19.847  1.00  0.00    -0.508 OA
ATOM     27  H   UNL     1      45.678  24.904  20.823  1.00  0.00     0.293 HD
ENDBRANCH   8  26
TORSDOF 6
ENDMDL
MODEL 8
REMARK VINA RESULT:    -5.394      8.729     10.703
REMARK INTER + INTRA:          -6.817
REMARK INTER:                  -6.730
REMARK INTRA:                  -0.087
REMARK UNBOUND:                -0.319
REMARK SMILES O=c1c(O)c(-c2ccc(O)c(O)c2)oc2cc(O)cc(O)c12
REMARK SMILES IDX 5 1 3 2 2 3 1 4 22 5 20 6 19 7 17 8 16 9 15 10 14 11 6 12
REMARK SMILES IDX 7 13 8 14 9 15 13 16 11 17 10 18 12 20 4 22 21 24 18 26
REMARK H PARENT 10 19 12 21 4 23 21 25 18 27
REMARK Flexibility Score: inf
ROOT
ATOM      1  C   UNL     1      47.152  25.170  24.901  1.00  0.00     0.180 A 
ATOM      2  C   UNL     1      47.165  25.120  23.495  1.00  0.00     0.208 A 
ATOM      3  C   UNL     1      46.088  24.518  22.826  1.00  0.00     0.238 A 
ATOM      4  O   UNL     1      46.130  24.428  21.572  1.00  0.00    -0.285 OA
ATOM      5  C   UNL     1      45.004  23.988  23.568  1.00  0.00     0.111 A 
ATOM      6  C   UNL     1      43.843  23.392  22.991  1.00  0.00     0.134 A 
ATOM      7  C   UNL     1      42.894  22.783  23.823  1.00  0.00     0.093 A 
ATOM      8  C   UNL     1      43.032  22.806  25.209  1.00  0.00     0.123 A 
ATOM      9  C   UNL     1      44.134  23.440  25.787  1.00  0.00     0.094 A 
ATOM     10  C   UNL     1      45.115  24.024  24.982  1.00  0.00     0.146 A 
ATOM     11  O   UNL     1      46.153  24.606  25.570  1.00  0.00    -0.452 OA
ENDROOT
BRANCH   1  12
ATOM     12  C   UNL     1      48.238  25.811  25.676  1.00  0.00     0.025 A 
ATOM     13  C   UNL     1      47.945  26.907  26.500  1.00  0.00     0.016 A 
ATOM     14  C   UNL     1      48.957  27.539  27.224  1.00  0.00     0.051 A 
ATOM     15  C   UNL     1      50.283  27.100  27.129  1.00  0.00     0.157 A 
ATOM     16  C   UNL     1      49.572  25.382  25.561  1.00  0.00     0.062 A 
ATOM     17  C   UNL     1      50.595  26.011  26.281  1.00  0.00     0.158 A 
BRANCH  15  18
ATOM     18  O   UNL     1      51.247  27.770  27.886  1.00  0.00    -0.504 OA
ATOM     19  H   UNL     1      51.035  28.496  28.555  1.00  0.00     0.293 HD
ENDBRANCH  15  18
BRANCH  17  20
ATOM     20  O   UNL     1      51.896  25.531  26.120  1.00  0.00    -0.504 OA
ATOM     21  H   UNL     1      52.394  25.003  26.823  1.00  0.00     0.293 HD
ENDBRANCH  17  20
ENDBRANCH   1  12
BRANCH   2  22
ATOM     22  O   UNL     1      48.254  25.630  22.784  1.00  0.00    -0.502 OA
ATOM     23  H   UNL     1      48.462  26.620  22.744  1.00  0.00     0.293 HD
ENDBRANCH   2  22
BRANCH   6  24
ATOM     24  O   UNL     1      43.563  23.394  21.622  1.00  0.00    -0.507 OA
ATOM     25  H   UNL     1      44.255  23.480  20.893  1.00  0.00     0.293 HD
ENDBRANCH   6  24
BRANCH   8  26
ATOM     26  O   UNL     1      42.061  22.205  26.008  1.00  0.00    -0.508 OA
ATOM     27  H   UNL     1      41.307  21.660  25.607  1.00  0.00     0.293 HD
ENDBRANCH   8  26
TORSDOF 6
ENDMDL
MODEL 9
REMARK VINA RESULT:    -5.367      6.820      9.747
REMARK INTER + INTRA:          -6.785
REMARK INTER:                  -6.597
REMARK INTRA:                  -0.188
REMARK UNBOUND:                -0.319
REMARK SMILES O=c1c(O)c(-c2ccc(O)c(O)c2)oc2cc(O)cc(O)c12
REMARK SMILES IDX 5 1 3 2 2 3 1 4 22 5 20 6 19 7 17 8 16 9 15 10 14 11 6 12
REMARK SMILES IDX 7 13 8 14 9 15 13 16 11 17 10 18 12 20 4 22 21 24 18 26
REMARK H PARENT 10 19 12 21 4 23 21 25 18 27
REMARK Flexibility Score: inf
ROOT
ATOM      1  C   UNL     1      47.288  25.427  23.415  1.00  0.00     0.180 A 
ATOM      2  C   UNL     1      47.910  25.744  22.194  1.00  0.00     0.208 A 
ATOM      3  C   UNL     1      47.358  25.250  21.001  1.00  0.00     0.238 A 
ATOM      4  O   UNL     1      47.949  25.491  19.917  1.00  0.00    -0.285 OA
ATOM      5  C   UNL     1      46.183  24.460  21.042  1.00  0.00     0.111 A 
ATOM      6  C   UNL     1      45.516  23.942  19.892  1.00  0.00     0.134 A 
ATOM      7  C   UNL     1      44.437  23.064  20.057  1.00  0.00     0.093 A 
ATOM      8  C   UNL     1      43.961  22.739  21.325  1.00  0.00     0.123 A 
ATOM      9  C   UNL     1      44.569  23.288  22.456  1.00  0.00     0.094 A 
ATOM     10  C   UNL     1      45.670  24.138  22.325  1.00  0.00     0.146 A 
ATOM     11  O   UNL     1      46.226  24.630  23.425  1.00  0.00    -0.452 OA
ENDROOT
BRANCH   1  12
ATOM     12  C   UNL     1      47.795  25.932  24.711  1.00  0.00     0.025 A 
ATOM     13  C   UNL     1      47.058  26.894  25.414  1.00  0.00     0.016 A 
ATOM     14  C   UNL     1      47.527  27.398  26.628  1.00  0.00     0.051 A 
ATOM     15  C   UNL     1      48.748  26.963  27.157  1.00  0.00     0.157 A 
ATOM     16  C   UNL     1      49.032  25.509  25.228  1.00  0.00     0.062 A 
ATOM     17  C   UNL     1      49.514  26.010  26.444  1.00  0.00     0.158 A 
BRANCH  15  18
ATOM     18  O   UNL     1      49.157  27.500  28.379  1.00  0.00    -0.504 OA
ATOM     19  H   UNL     1      49.742  28.319  28.468  1.00  0.00     0.293 HD
ENDBRANCH  15  18
BRANCH  17  20
ATOM     20  O   UNL     1      50.749  25.544  26.899  1.00  0.00    -0.504 OA
ATOM     21  H   UNL     1      51.405  26.104  27.425  1.00  0.00     0.293 HD
ENDBRANCH  17  20
ENDBRANCH   1  12
BRANCH   2  22
ATOM     22  O   UNL     1      49.080  26.506  22.179  1.00  0.00    -0.502 OA
ATOM     23  H   UNL     1      49.702  26.533  21.380  1.00  0.00     0.293 HD
ENDBRANCH   2  22
BRANCH   6  24
ATOM     24  O   UNL     1      45.854  24.275  18.577  1.00  0.00    -0.507 OA
ATOM     25  H   UNL     1      45.933  25.217  18.225  1.00  0.00     0.293 HD
ENDBRANCH   6  24
BRANCH   8  26
ATOM     26  O   UNL     1      42.875  21.875  21.453  1.00  0.00    -0.508 OA
ATOM     27  H   UNL     1      42.977  20.950  21.852  1.00  0.00     0.293 HD
ENDBRANCH   8  26
TORSDOF 6
ENDMDL
