MODEL 1
REMARK VINA RESULT:    -4.502      0.000      0.000
REMARK INTER + INTRA:          -7.733
REMARK INTER:                  -7.134
REMARK INTRA:                  -0.599
REMARK UNBOUND:                -0.599
REMARK SMILES CCCCCCCCCCCC(=O)[O-]
REMARK SMILES IDX 7 1 8 2 9 3 10 4 11 5 12 6 13 7 14 8 6 9 5 10 4 11 3 12 2 13
REMARK SMILES IDX 1 14
REMARK H PARENT
REMARK Flexibility Score: inf
ROOT
ATOM      1  C   UNL     1      -4.822  -3.363   4.531  1.00  0.00     0.000 C 
ENDROOT
BRANCH   1   2
ATOM      2  C   UNL     1      -5.276  -3.868   3.152  1.00  0.00     0.000 C 
BRANCH   2   3
ATOM      3  C   UNL     1      -5.207  -2.779   2.071  1.00  0.00     0.000 C 
BRANCH   3   4
ATOM      4  C   UNL     1      -4.688  -3.352   0.747  1.00  0.00     0.006 C 
BRANCH   4   5
ATOM      5  C   UNL     1      -4.774  -4.882   0.740  1.00  0.00     0.053 C 
BRANCH   5   6
ATOM      6  C   UNL     1      -5.843  -5.341  -0.201  1.00  0.00     0.041 C 
ATOM      7  O   UNL     1      -7.024  -5.491   0.207  1.00  0.00    -0.550 OA
ATOM      8  O   UNL     1      -5.525  -5.650  -1.517  1.00  0.00    -0.550 OA
ENDBRANCH   5   6
ENDBRANCH   4   5
ENDBRANCH   3   4
ENDBRANCH   2   3
ENDBRANCH   1   2
BRANCH   1   9
ATOM      9  C   UNL     1      -4.291  -1.919   4.491  1.00  0.00     0.000 C 
BRANCH   9  10
ATOM     10  C   UNL     1      -4.045  -1.351   5.905  1.00  0.00    -0.000 C 
BRANCH  10  11
ATOM     11  C   UNL     1      -3.244  -0.037   5.910  1.00  0.00    -0.000 C 
BRANCH  11  12
ATOM     12  C   UNL     1      -2.029  -0.076   4.970  1.00  0.00    -0.000 C 
BRANCH  12  13
ATOM     13  C   UNL     1      -0.716   0.267   5.691  1.00  0.00    -0.003 C 
ATOM     14  C   UNL     1      -0.735  -0.113   7.171  1.00  0.00     0.004 C 
ENDBRANCH  12  13
ENDBRANCH  11  12
ENDBRANCH  10  11
ENDBRANCH   9  10
ENDBRANCH   1   9
TORSDOF 10
ENDMDL
MODEL 2
REMARK VINA RESULT:    -4.408      3.828      7.340
REMARK INTER + INTRA:          -7.584
REMARK INTER:                  -6.962
REMARK INTRA:                  -0.622
REMARK UNBOUND:                -0.599
REMARK SMILES CCCCCCCCCCCC(=O)[O-]
REMARK SMILES IDX 7 1 8 2 9 3 10 4 11 5 12 6 13 7 14 8 6 9 5 10 4 11 3 12 2 13
REMARK SMILES IDX 1 14
REMARK H PARENT
REMARK Flexibility Score: inf
ROOT
ATOM      1  C   UNL     1      -4.307  -1.667   3.587  1.00  0.00     0.000 C 
ENDROOT
BRANCH   1   2
ATOM      2  C   UNL     1      -4.789  -1.937   5.022  1.00  0.00     0.000 C 
BRANCH   2   3
ATOM      3  C   UNL     1      -3.669  -1.782   6.061  1.00  0.00     0.000 C 
BRANCH   3   4
ATOM      4  C   UNL     1      -3.508  -0.315   6.479  1.00  0.00     0.006 C 
BRANCH   4   5
ATOM      5  C   UNL     1      -2.041   0.014   6.774  1.00  0.00     0.053 C 
BRANCH   5   6
ATOM      6  C   UNL     1      -1.358   0.514   5.541  1.00  0.00     0.041 C 
ATOM      7  O   UNL     1      -1.760   1.566   4.978  1.00  0.00    -0.550 OA
ATOM      8  O   UNL     1      -0.310  -0.207   4.985  1.00  0.00    -0.550 OA
ENDBRANCH   5   6
ENDBRANCH   4   5
ENDBRANCH   3   4
ENDBRANCH   2   3
ENDBRANCH   1   2
BRANCH   1   9
ATOM      9  C   UNL     1      -4.950  -2.611   2.557  1.00  0.00     0.000 C 
BRANCH   9  10
ATOM     10  C   UNL     1      -5.377  -3.955   3.186  1.00  0.00    -0.000 C 
BRANCH  10  11
ATOM     11  C   UNL     1      -5.557  -5.087   2.158  1.00  0.00    -0.000 C 
BRANCH  11  12
ATOM     12  C   UNL     1      -4.749  -4.858   0.872  1.00  0.00    -0.000 C 
BRANCH  12  13
ATOM     13  C   UNL     1      -5.502  -5.318  -0.386  1.00  0.00    -0.003 C 
ATOM     14  C   UNL     1      -6.998  -5.512  -0.144  1.00  0.00     0.004 C 
ENDBRANCH  12  13
ENDBRANCH  11  12
ENDBRANCH  10  11
ENDBRANCH   9  10
ENDBRANCH   1   9
TORSDOF 10
ENDMDL
MODEL 3
REMARK VINA RESULT:    -4.341      1.216      1.912
REMARK INTER + INTRA:          -7.478
REMARK INTER:                  -6.800
REMARK INTRA:                  -0.678
REMARK UNBOUND:                -0.599
REMARK SMILES CCCCCCCCCCCC(=O)[O-]
REMARK SMILES IDX 7 1 8 2 9 3 10 4 11 5 12 6 13 7 14 8 6 9 5 10 4 11 3 12 2 13
REMARK SMILES IDX 1 14
REMARK H PARENT
REMARK Flexibility Score: inf
ROOT
ATOM      1  C   UNL     1      -4.936  -2.813   2.633  1.00  0.00     0.000 C 
ENDROOT
BRANCH   1   2
ATOM      2  C   UNL     1      -5.477  -4.156   3.148  1.00  0.00     0.000 C 
BRANCH   2   3
ATOM      3  C   UNL     1      -5.499  -5.241   2.061  1.00  0.00     0.000 C 
BRANCH   3   4
ATOM      4  C   UNL     1      -4.809  -4.751   0.783  1.00  0.00     0.006 C 
BRANCH   4   5
ATOM      5  C   UNL     1      -5.490  -5.326  -0.463  1.00  0.00     0.053 C 
BRANCH   5   6
ATOM      6  C   UNL     1      -5.987  -4.222  -1.344  1.00  0.00     0.041 C 
ATOM      7  O   UNL     1      -6.104  -4.406  -2.583  1.00  0.00    -0.550 OA
ATOM      8  O   UNL     1      -6.274  -2.976  -0.802  1.00  0.00    -0.550 OA
ENDBRANCH   5   6
ENDBRANCH   4   5
ENDBRANCH   3   4
ENDBRANCH   2   3
ENDBRANCH   1   2
BRANCH   1   9
ATOM      9  C   UNL     1      -4.443  -1.897   3.766  1.00  0.00     0.000 C 
BRANCH   9  10
ATOM     10  C   UNL     1      -4.509  -2.589   5.144  1.00  0.00    -0.000 C 
BRANCH  10  11
ATOM     11  C   UNL     1      -3.778  -1.818   6.258  1.00  0.00    -0.000 C 
BRANCH  11  12
ATOM     12  C   UNL     1      -3.494  -0.356   5.881  1.00  0.00    -0.000 C 
BRANCH  12  13
ATOM     13  C   UNL     1      -2.080   0.091   6.284  1.00  0.00    -0.003 C 
ATOM     14  C   UNL     1      -1.113   0.138   5.102  1.00  0.00     0.004 C 
ENDBRANCH  12  13
ENDBRANCH  11  12
ENDBRANCH  10  11
ENDBRANCH   9  10
ENDBRANCH   1   9
TORSDOF 10
ENDMDL
MODEL 4
REMARK VINA RESULT:    -4.264      2.758      4.201
REMARK INTER + INTRA:          -7.356
REMARK INTER:                  -5.991
REMARK INTRA:                  -1.365
REMARK UNBOUND:                -0.599
REMARK SMILES CCCCCCCCCCCC(=O)[O-]
REMARK SMILES IDX 7 1 8 2 9 3 10 4 11 5 12 6 13 7 14 8 6 9 5 10 4 11 3 12 2 13
REMARK SMILES IDX 1 14
REMARK H PARENT
REMARK Flexibility Score: inf
ROOT
ATOM      1  C   UNL     1      -5.776  -2.685   0.708  1.00  0.00     0.000 C 
ENDROOT
BRANCH   1   2
ATOM      2  C   UNL     1      -4.635  -3.714   0.754  1.00  0.00     0.000 C 
BRANCH   2   3
ATOM      3  C   UNL     1      -5.096  -5.126   0.360  1.00  0.00     0.000 C 
BRANCH   3   4
ATOM      4  C   UNL     1      -6.625  -5.202   0.282  1.00  0.00     0.006 C 
BRANCH   4   5
ATOM      5  C   UNL     1      -7.077  -5.826  -1.041  1.00  0.00     0.053 C 
BRANCH   5   6
ATOM      6  C   UNL     1      -6.667  -4.964  -2.193  1.00  0.00     0.041 C 
ATOM      7  O   UNL     1      -5.876  -5.408  -3.066  1.00  0.00    -0.550 OA
ATOM      8  O   UNL     1      -7.121  -3.654  -2.278  1.00  0.00    -0.550 OA
ENDBRANCH   5   6
ENDBRANCH   4   5
ENDBRANCH   3   4
ENDBRANCH   2   3
ENDBRANCH   1   2
BRANCH   1   9
ATOM      9  C   UNL     1      -5.659  -1.618   1.810  1.00  0.00     0.000 C 
BRANCH   9  10
ATOM     10  C   UNL     1      -4.524  -1.934   2.807  1.00  0.00    -0.000 C 
BRANCH  10  11
ATOM     11  C   UNL     1      -5.022  -2.259   4.226  1.00  0.00    -0.000 C 
BRANCH  11  12
ATOM     12  C   UNL     1      -4.845  -3.740   4.595  1.00  0.00    -0.000 C 
BRANCH  12  13
ATOM     13  C   UNL     1      -6.020  -4.609   4.119  1.00  0.00    -0.003 C 
ATOM     14  C   UNL     1      -5.719  -6.105   4.193  1.00  0.00     0.004 C 
ENDBRANCH  12  13
ENDBRANCH  11  12
ENDBRANCH  10  11
ENDBRANCH   9  10
ENDBRANCH   1   9
TORSDOF 10
ENDMDL
MODEL 5
REMARK VINA RESULT:    -4.198      4.285      7.398
REMARK INTER + INTRA:          -7.252
REMARK INTER:                  -6.789
REMARK INTRA:                  -0.463
REMARK UNBOUND:                -0.599
REMARK SMILES CCCCCCCCCCCC(=O)[O-]
REMARK SMILES IDX 7 1 8 2 9 3 10 4 11 5 12 6 13 7 14 8 6 9 5 10 4 11 3 12 2 13
REMARK SMILES IDX 1 14
REMARK H PARENT
REMARK Flexibility Score: inf
ROOT
ATOM      1  C   UNL     1      -4.703  -2.652   5.492  1.00  0.00     0.000 C 
ENDROOT
BRANCH   1   2
ATOM      2  C   UNL     1      -4.363  -1.157   5.394  1.00  0.00     0.000 C 
BRANCH   2   3
ATOM      3  C   UNL     1      -3.190  -0.757   6.301  1.00  0.00     0.000 C 
BRANCH   3   4
ATOM      4  C   UNL     1      -2.419   0.430   5.709  1.00  0.00     0.006 C 
BRANCH   4   5
ATOM      5  C   UNL     1      -1.098  -0.030   5.085  1.00  0.00     0.053 C 
BRANCH   5   6
ATOM      6  C   UNL     1      -0.056  -0.217   6.142  1.00  0.00     0.041 C 
ATOM      7  O   UNL     1      -0.175   0.358   7.256  1.00  0.00    -0.550 OA
ATOM      8  O   UNL     1       1.069  -0.987   5.882  1.00  0.00    -0.550 OA
ENDBRANCH   5   6
ENDBRANCH   4   5
ENDBRANCH   3   4
ENDBRANCH   2   3
ENDBRANCH   1   2
BRANCH   1   9
ATOM      9  C   UNL     1      -4.857  -3.318   4.113  1.00  0.00     0.000 C 
BRANCH   9  10
ATOM     10  C   UNL     1      -4.892  -2.283   2.968  1.00  0.00    -0.000 C 
BRANCH  10  11
ATOM     11  C   UNL     1      -4.909  -2.916   1.565  1.00  0.00    -0.000 C 
BRANCH  11  12
ATOM     12  C   UNL     1      -5.285  -4.405   1.588  1.00  0.00    -0.000 C 
BRANCH  12  13
ATOM     13  C   UNL     1      -4.826  -5.147   0.323  1.00  0.00    -0.003 C 
ATOM     14  C   UNL     1      -5.954  -5.349  -0.688  1.00  0.00     0.004 C 
ENDBRANCH  12  13
ENDBRANCH  11  12
ENDBRANCH  10  11
ENDBRANCH   9  10
ENDBRANCH   1   9
TORSDOF 10
ENDMDL
MODEL 6
REMARK VINA RESULT:    -4.197      1.392      2.274
REMARK INTER + INTRA:          -7.249
REMARK INTER:                  -6.527
REMARK INTRA:                  -0.722
REMARK UNBOUND:                -0.599
REMARK SMILES CCCCCCCCCCCC(=O)[O-]
REMARK SMILES IDX 7 1 8 2 9 3 10 4 11 5 12 6 13 7 14 8 6 9 5 10 4 11 3 12 2 13
REMARK SMILES IDX 1 14
REMARK H PARENT
REMARK Flexibility Score: inf
ROOT
ATOM      1  C   UNL     1      -3.787  -1.898   6.164  1.00  0.00     0.000 C 
ENDROOT
BRANCH   1   2
ATOM      2  C   UNL     1      -4.571  -3.068   5.547  1.00  0.00     0.000 C 
BRANCH   2   3
ATOM      3  C   UNL     1      -4.894  -2.845   4.062  1.00  0.00     0.000 C 
BRANCH   3   4
ATOM      4  C   UNL     1      -5.279  -4.164   3.380  1.00  0.00     0.006 C 
BRANCH   4   5
ATOM      5  C   UNL     1      -5.908  -3.909   2.007  1.00  0.00     0.053 C 
BRANCH   5   6
ATOM      6  C   UNL     1      -4.905  -4.140   0.921  1.00  0.00     0.041 C 
ATOM      7  O   UNL     1      -4.529  -3.185   0.193  1.00  0.00    -0.550 OA
ATOM      8  O   UNL     1      -4.421  -5.420   0.682  1.00  0.00    -0.550 OA
ENDBRANCH   5   6
ENDBRANCH   4   5
ENDBRANCH   3   4
ENDBRANCH   2   3
ENDBRANCH   1   2
BRANCH   1   9
ATOM      9  C   UNL     1      -3.418  -0.819   5.131  1.00  0.00     0.000 C 
BRANCH   9  10
ATOM     10  C   UNL     1      -2.688   0.378   5.777  1.00  0.00    -0.000 C 
BRANCH  10  11
ATOM     11  C   UNL     1      -1.281   0.625   5.204  1.00  0.00    -0.000 C 
BRANCH  11  12
ATOM     12  C   UNL     1      -0.216  -0.290   5.827  1.00  0.00    -0.000 C 
BRANCH  12  13
ATOM     13  C   UNL     1      -0.268  -0.293   7.363  1.00  0.00    -0.003 C 
ATOM     14  C   UNL     1      -0.459  -1.692   7.947  1.00  0.00     0.004 C 
ENDBRANCH  12  13
ENDBRANCH  11  12
ENDBRANCH  10  11
ENDBRANCH   9  10
ENDBRANCH   1   9
TORSDOF 10
ENDMDL
MODEL 7
REMARK VINA RESULT:    -4.150      1.614      2.125
REMARK INTER + INTRA:          -7.175
REMARK INTER:                  -6.408
REMARK INTRA:                  -0.766
REMARK UNBOUND:                -0.599
REMARK SMILES CCCCCCCCCCCC(=O)[O-]
REMARK SMILES IDX 7 1 8 2 9 3 10 4 11 5 12 6 13 7 14 8 6 9 5 10 4 11 3 12 2 13
REMARK SMILES IDX 1 14
REMARK H PARENT
REMARK Flexibility Score: inf
ROOT
ATOM      1  C   UNL     1      -5.157  -2.444   5.848  1.00  0.00     0.000 C 
ENDROOT
BRANCH   1   2
ATOM      2  C   UNL     1      -4.816  -3.770   5.152  1.00  0.00     0.000 C 
BRANCH   2   3
ATOM      3  C   UNL     1      -5.374  -3.848   3.722  1.00  0.00     0.000 C 
BRANCH   3   4
ATOM      4  C   UNL     1      -4.839  -2.698   2.861  1.00  0.00     0.006 C 
BRANCH   4   5
ATOM      5  C   UNL     1      -5.794  -2.388   1.705  1.00  0.00     0.053 C 
BRANCH   5   6
ATOM      6  C   UNL     1      -5.226  -2.881   0.411  1.00  0.00     0.041 C 
ATOM      7  O   UNL     1      -4.404  -3.833   0.403  1.00  0.00    -0.550 OA
ATOM      8  O   UNL     1      -5.568  -2.256  -0.781  1.00  0.00    -0.550 OA
ENDBRANCH   5   6
ENDBRANCH   4   5
ENDBRANCH   3   4
ENDBRANCH   2   3
ENDBRANCH   1   2
BRANCH   1   9
ATOM      9  C   UNL     1      -3.924  -1.764   6.468  1.00  0.00     0.000 C 
BRANCH   9  10
ATOM     10  C   UNL     1      -3.659  -0.372   5.856  1.00  0.00    -0.000 C 
BRANCH  10  11
ATOM     11  C   UNL     1      -2.506  -0.356   4.837  1.00  0.00    -0.000 C 
BRANCH  11  12
ATOM     12  C   UNL     1      -1.392   0.633   5.213  1.00  0.00    -0.000 C 
BRANCH  12  13
ATOM     13  C   UNL     1      -0.767   0.322   6.583  1.00  0.00    -0.003 C 
ATOM     14  C   UNL     1       0.376  -0.688   6.499  1.00  0.00     0.004 C 
ENDBRANCH  12  13
ENDBRANCH  11  12
ENDBRANCH  10  11
ENDBRANCH   9  10
ENDBRANCH   1   9
TORSDOF 10
ENDMDL
MODEL 8
REMARK VINA RESULT:    -4.119      2.003      2.600
REMARK INTER + INTRA:          -7.125
REMARK INTER:                  -6.126
REMARK INTRA:                  -0.999
REMARK UNBOUND:                -0.599
REMARK SMILES CCCCCCCCCCCC(=O)[O-]
REMARK SMILES IDX 7 1 8 2 9 3 10 4 11 5 12 6 13 7 14 8 6 9 5 10 4 11 3 12 2 13
REMARK SMILES IDX 1 14
REMARK H PARENT
REMARK Flexibility Score: inf
ROOT
ATOM      1  C   UNL     1      -4.509  -1.984   2.638  1.00  0.00     0.000 C 
ENDROOT
BRANCH   1   2
ATOM      2  C   UNL     1      -5.389  -2.402   1.449  1.00  0.00     0.000 C 
BRANCH   2   3
ATOM      3  C   UNL     1      -4.745  -3.505   0.596  1.00  0.00     0.000 C 
BRANCH   3   4
ATOM      4  C   UNL     1      -5.043  -4.892   1.177  1.00  0.00     0.006 C 
BRANCH   4   5
ATOM      5  C   UNL     1      -6.490  -4.982   1.670  1.00  0.00     0.053 C 
BRANCH   5   6
ATOM      6  C   UNL     1      -6.532  -5.487   3.078  1.00  0.00     0.041 C 
ATOM      7  O   UNL     1      -7.598  -5.415   3.744  1.00  0.00    -0.550 OA
ATOM      8  O   UNL     1      -5.383  -5.993   3.670  1.00  0.00    -0.550 OA
ENDBRANCH   5   6
ENDBRANCH   4   5
ENDBRANCH   3   4
ENDBRANCH   2   3
ENDBRANCH   1   2
BRANCH   1   9
ATOM      9  C   UNL     1      -5.274  -1.989   3.974  1.00  0.00     0.000 C 
BRANCH   9  10
ATOM     10  C   UNL     1      -4.503  -2.739   5.081  1.00  0.00    -0.000 C 
BRANCH  10  11
ATOM     11  C   UNL     1      -4.365  -1.937   6.387  1.00  0.00    -0.000 C 
BRANCH  11  12
ATOM     12  C   UNL     1      -3.852  -0.507   6.157  1.00  0.00    -0.000 C 
BRANCH  12  13
ATOM     13  C   UNL     1      -2.319  -0.415   6.214  1.00  0.00    -0.003 C 
ATOM     14  C   UNL     1      -1.710   0.141   4.928  1.00  0.00     0.004 C 
ENDBRANCH  12  13
ENDBRANCH  11  12
ENDBRANCH  10  11
ENDBRANCH   9  10
ENDBRANCH   1   9
TORSDOF 10
ENDMDL
MODEL 9
REMARK VINA RESULT:    -4.036      1.787      3.032
REMARK INTER + INTRA:          -6.995
REMARK INTER:                  -6.027
REMARK INTRA:                  -0.968
REMARK UNBOUND:                -0.599
REMARK SMILES CCCCCCCCCCCC(=O)[O-]
REMARK SMILES IDX 7 1 8 2 9 3 10 4 11 5 12 6 13 7 14 8 6 9 5 10 4 11 3 12 2 13
REMARK SMILES IDX 1 14
REMARK H PARENT
REMARK Flexibility Score: inf
ROOT
ATOM      1  C   UNL     1      -4.320  -1.267   6.695  1.00  0.00     0.000 C 
ENDROOT
BRANCH   1   2
ATOM      2  C   UNL     1      -4.394  -1.508   5.179  1.00  0.00     0.000 C 
BRANCH   2   3
ATOM      3  C   UNL     1      -4.569  -2.992   4.824  1.00  0.00     0.000 C 
BRANCH   3   4
ATOM      4  C   UNL     1      -5.730  -3.187   3.841  1.00  0.00     0.006 C 
BRANCH   4   5
ATOM      5  C   UNL     1      -5.293  -4.021   2.633  1.00  0.00     0.053 C 
BRANCH   5   6
ATOM      6  C   UNL     1      -4.981  -3.134   1.470  1.00  0.00     0.041 C 
ATOM      7  O   UNL     1      -4.420  -3.606   0.447  1.00  0.00    -0.550 OA
ATOM      8  O   UNL     1      -5.266  -1.776   1.534  1.00  0.00    -0.550 OA
ENDBRANCH   5   6
ENDBRANCH   4   5
ENDBRANCH   3   4
ENDBRANCH   2   3
ENDBRANCH   1   2
BRANCH   1   9
ATOM      9  C   UNL     1      -3.325  -2.206   7.399  1.00  0.00     0.000 C 
BRANCH   9  10
ATOM     10  C   UNL     1      -2.379  -1.444   8.351  1.00  0.00    -0.000 C 
BRANCH  10  11
ATOM     11  C   UNL     1      -0.942  -1.310   7.816  1.00  0.00    -0.000 C 
BRANCH  11  12
ATOM     12  C   UNL     1      -0.665   0.066   7.192  1.00  0.00    -0.000 C 
BRANCH  12  13
ATOM     13  C   UNL     1      -0.866   0.073   5.668  1.00  0.00    -0.003 C 
ATOM     14  C   UNL     1      -1.744   1.229   5.191  1.00  0.00     0.004 C 
ENDBRANCH  12  13
ENDBRANCH  11  12
ENDBRANCH  10  11
ENDBRANCH   9  10
ENDBRANCH   1   9
TORSDOF 10
ENDMDL
