MODEL 1
REMARK VINA RESULT:    -5.866      0.000      0.000
REMARK INTER + INTRA:         -19.446
REMARK INTER:                 -15.468
REMARK INTRA:                  -3.978
REMARK UNBOUND:                -3.978
REMARK SMILES CCCCCCCCCCCCCCCCCCCCCCCCCCCCCC(=O)[O-]
REMARK SMILES IDX 16 1 17 2 18 3 19 4 20 5 21 6 22 7 23 8 24 9 25 10 26 11
REMARK SMILES IDX 27 12 28 13 29 14 30 15 31 16 32 17 15 18 14 19 13 20 12 21
REMARK SMILES IDX 11 22 10 23 9 24 8 25 7 26 6 27 5 28 4 29 3 30 2 31 1 32
REMARK H PARENT
REMARK Flexibility Score: inf
ROOT
ATOM      1  C   UNL     1       2.257   4.931  19.413  1.00  0.00     0.000 C 
ENDROOT
BRANCH   1   2
ATOM      2  C   UNL     1       1.845   5.295  17.969  1.00  0.00     0.000 C 
BRANCH   2   3
ATOM      3  C   UNL     1       2.989   5.311  16.936  1.00  0.00     0.000 C 
BRANCH   3   4
ATOM      4  C   UNL     1       3.018   4.070  16.027  1.00  0.00     0.000 C 
BRANCH   4   5
ATOM      5  C   UNL     1       4.168   4.131  15.008  1.00  0.00     0.000 C 
BRANCH   5   6
ATOM      6  C   UNL     1       3.662   4.253  13.560  1.00  0.00     0.000 C 
BRANCH   6   7
ATOM      7  C   UNL     1       3.971   5.624  12.930  1.00  0.00     0.000 C 
BRANCH   7   8
ATOM      8  C   UNL     1       5.462   6.006  12.882  1.00  0.00     0.000 C 
BRANCH   8   9
ATOM      9  C   UNL     1       5.697   7.526  12.887  1.00  0.00     0.000 C 
BRANCH   9  10
ATOM     10  C   UNL     1       6.537   7.999  14.087  1.00  0.00     0.000 C 
BRANCH  10  11
ATOM     11  C   UNL     1       5.965   7.566  15.454  1.00  0.00     0.000 C 
BRANCH  11  12
ATOM     12  C   UNL     1       4.510   8.035  15.649  1.00  0.00     0.000 C 
BRANCH  12  13
ATOM     13  C   UNL     1       4.325   8.919  16.897  1.00  0.00     0.006 C 
BRANCH  13  14
ATOM     14  C   UNL     1       2.951   8.763  17.567  1.00  0.00     0.053 C 
BRANCH  14  15
ATOM     15  C   UNL     1       2.876   9.456  18.894  1.00  0.00     0.041 C 
ATOM     16  O   UNL     1       1.919   9.222  19.677  1.00  0.00    -0.550 OA
ATOM     17  O   UNL     1       3.865  10.356  19.268  1.00  0.00    -0.550 OA
ENDBRANCH  14  15
ENDBRANCH  13  14
ENDBRANCH  12  13
ENDBRANCH  11  12
ENDBRANCH  10  11
ENDBRANCH   9  10
ENDBRANCH   8   9
ENDBRANCH   7   8
ENDBRANCH   6   7
ENDBRANCH   5   6
ENDBRANCH   4   5
ENDBRANCH   3   4
ENDBRANCH   2   3
ENDBRANCH   1   2
BRANCH   1  18
ATOM     18  C   UNL     1       1.497   3.736  20.016  1.00  0.00     0.000 C 
BRANCH  18  19
ATOM     19  C   UNL     1       2.161   2.381  19.717  1.00  0.00     0.000 C 
BRANCH  19  20
ATOM     20  C   UNL     1       3.628   2.526  19.272  1.00  0.00     0.000 C 
BRANCH  20  21
ATOM     21  C   UNL     1       4.118   1.383  18.357  1.00  0.00     0.000 C 
BRANCH  21  22
ATOM     22  C   UNL     1       4.937   0.288  19.079  1.00  0.00     0.000 C 
BRANCH  22  23
ATOM     23  C   UNL     1       4.867  -1.096  18.409  1.00  0.00     0.000 C 
BRANCH  23  24
ATOM     24  C   UNL     1       4.340  -1.035  16.962  1.00  0.00    -0.000 C 
BRANCH  24  25
ATOM     25  C   UNL     1       5.203  -1.865  15.994  1.00  0.00    -0.000 C 
BRANCH  25  26
ATOM     26  C   UNL     1       5.870  -1.012  14.896  1.00  0.00    -0.000 C 
BRANCH  26  27
ATOM     27  C   UNL     1       5.528   0.484  15.026  1.00  0.00    -0.000 C 
BRANCH  27  28
ATOM     28  C   UNL     1       4.991   1.086  13.718  1.00  0.00    -0.000 C 
BRANCH  28  29
ATOM     29  C   UNL     1       3.559   0.626  13.400  1.00  0.00    -0.000 C 
BRANCH  29  30
ATOM     30  C   UNL     1       2.676   0.521  14.657  1.00  0.00    -0.000 C 
BRANCH  30  31
ATOM     31  C   UNL     1       1.356  -0.247  14.463  1.00  0.00    -0.003 C 
ATOM     32  C   UNL     1       1.441  -1.708  14.899  1.00  0.00     0.004 C 
ENDBRANCH  30  31
ENDBRANCH  29  30
ENDBRANCH  28  29
ENDBRANCH  27  28
ENDBRANCH  26  27
ENDBRANCH  25  26
ENDBRANCH  24  25
ENDBRANCH  23  24
ENDBRANCH  22  23
ENDBRANCH  21  22
ENDBRANCH  20  21
ENDBRANCH  19  20
ENDBRANCH  18  19
ENDBRANCH   1  18
TORSDOF 28
ENDMDL
MODEL 2
REMARK VINA RESULT:    -5.572      2.876      7.937
REMARK INTER + INTRA:         -18.671
REMARK INTER:                 -15.289
REMARK INTRA:                  -3.382
REMARK UNBOUND:                -3.978
REMARK SMILES CCCCCCCCCCCCCCCCCCCCCCCCCCCCCC(=O)[O-]
REMARK SMILES IDX 16 1 17 2 18 3 19 4 20 5 21 6 22 7 23 8 24 9 25 10 26 11
REMARK SMILES IDX 27 12 28 13 29 14 30 15 31 16 32 17 15 18 14 19 13 20 12 21
REMARK SMILES IDX 11 22 10 23 9 24 8 25 7 26 6 27 5 28 4 29 3 30 2 31 1 32
REMARK H PARENT
REMARK Flexibility Score: inf
ROOT
ATOM      1  C   UNL     1       2.401   4.939  19.168  1.00  0.00     0.000 C 
ENDROOT
BRANCH   1   2
ATOM      2  C   UNL     1       1.656   3.800  19.900  1.00  0.00     0.000 C 
BRANCH   2   3
ATOM      3  C   UNL     1       2.210   2.382  19.659  1.00  0.00     0.000 C 
BRANCH   3   4
ATOM      4  C   UNL     1       3.714   2.353  19.338  1.00  0.00     0.000 C 
BRANCH   4   5
ATOM      5  C   UNL     1       4.090   1.152  18.455  1.00  0.00     0.000 C 
BRANCH   5   6
ATOM      6  C   UNL     1       4.864   0.072  19.230  1.00  0.00     0.000 C 
BRANCH   6   7
ATOM      7  C   UNL     1       4.730  -1.329  18.604  1.00  0.00     0.000 C 
BRANCH   7   8
ATOM      8  C   UNL     1       5.811  -1.694  17.570  1.00  0.00     0.000 C 
BRANCH   8   9
ATOM      9  C   UNL     1       5.339  -1.522  16.116  1.00  0.00     0.000 C 
BRANCH   9  10
ATOM     10  C   UNL     1       5.728  -0.158  15.518  1.00  0.00     0.000 C 
BRANCH  10  11
ATOM     11  C   UNL     1       6.125  -0.224  14.027  1.00  0.00     0.000 C 
BRANCH  11  12
ATOM     12  C   UNL     1       4.953   0.145  13.098  1.00  0.00     0.000 C 
BRANCH  12  13
ATOM     13  C   UNL     1       3.691  -0.702  13.356  1.00  0.00     0.006 C 
BRANCH  13  14
ATOM     14  C   UNL     1       2.412   0.131  13.534  1.00  0.00     0.053 C 
BRANCH  14  15
ATOM     15  C   UNL     1       1.585  -0.326  14.697  1.00  0.00     0.041 C 
ATOM     16  O   UNL     1       2.079  -1.100  15.559  1.00  0.00    -0.550 OA
ATOM     17  O   UNL     1       0.272   0.105  14.832  1.00  0.00    -0.550 OA
ENDBRANCH  14  15
ENDBRANCH  13  14
ENDBRANCH  12  13
ENDBRANCH  11  12
ENDBRANCH  10  11
ENDBRANCH   9  10
ENDBRANCH   8   9
ENDBRANCH   7   8
ENDBRANCH   6   7
ENDBRANCH   5   6
ENDBRANCH   4   5
ENDBRANCH   3   4
ENDBRANCH   2   3
ENDBRANCH   1   2
BRANCH   1  18
ATOM     18  C   UNL     1       2.007   5.119  17.690  1.00  0.00     0.000 C 
BRANCH  18  19
ATOM     19  C   UNL     1       3.213   5.118  16.736  1.00  0.00     0.000 C 
BRANCH  19  20
ATOM     20  C   UNL     1       3.433   3.751  16.062  1.00  0.00     0.000 C 
BRANCH  20  21
ATOM     21  C   UNL     1       3.184   3.760  14.538  1.00  0.00     0.000 C 
BRANCH  21  22
ATOM     22  C   UNL     1       4.403   3.344  13.684  1.00  0.00     0.000 C 
BRANCH  22  23
ATOM     23  C   UNL     1       5.047   4.500  12.898  1.00  0.00     0.000 C 
BRANCH  23  24
ATOM     24  C   UNL     1       4.171   5.769  12.875  1.00  0.00    -0.000 C 
BRANCH  24  25
ATOM     25  C   UNL     1       5.010   7.056  12.981  1.00  0.00    -0.000 C 
BRANCH  25  26
ATOM     26  C   UNL     1       6.235   6.905  13.905  1.00  0.00    -0.000 C 
BRANCH  26  27
ATOM     27  C   UNL     1       6.022   7.575  15.276  1.00  0.00    -0.000 C 
BRANCH  27  28
ATOM     28  C   UNL     1       4.542   7.860  15.572  1.00  0.00    -0.000 C 
BRANCH  28  29
ATOM     29  C   UNL     1       4.349   8.779  16.790  1.00  0.00    -0.000 C 
BRANCH  29  30
ATOM     30  C   UNL     1       3.012   8.534  17.514  1.00  0.00    -0.000 C 
BRANCH  30  31
ATOM     31  C   UNL     1       2.671   9.554  18.615  1.00  0.00    -0.003 C 
ATOM     32  C   UNL     1       2.200   8.902  19.913  1.00  0.00     0.004 C 
ENDBRANCH  30  31
ENDBRANCH  29  30
ENDBRANCH  28  29
ENDBRANCH  27  28
ENDBRANCH  26  27
ENDBRANCH  25  26
ENDBRANCH  24  25
ENDBRANCH  23  24
ENDBRANCH  22  23
ENDBRANCH  21  22
ENDBRANCH  20  21
ENDBRANCH  19  20
ENDBRANCH  18  19
ENDBRANCH   1  18
TORSDOF 28
ENDMDL
MODEL 3
REMARK VINA RESULT:    -5.423      2.071      5.118
REMARK INTER + INTRA:         -18.277
REMARK INTER:                 -15.546
REMARK INTRA:                  -2.731
REMARK UNBOUND:                -3.978
REMARK SMILES CCCCCCCCCCCCCCCCCCCCCCCCCCCCCC(=O)[O-]
REMARK SMILES IDX 16 1 17 2 18 3 19 4 20 5 21 6 22 7 23 8 24 9 25 10 26 11
REMARK SMILES IDX 27 12 28 13 29 14 30 15 31 16 32 17 15 18 14 19 13 20 12 21
REMARK SMILES IDX 11 22 10 23 9 24 8 25 7 26 6 27 5 28 4 29 3 30 2 31 1 32
REMARK H PARENT
REMARK Flexibility Score: inf
ROOT
ATOM      1  C   UNL     1       4.871   1.027  17.787  1.00  0.00     0.000 C 
ENDROOT
BRANCH   1   2
ATOM      2  C   UNL     1       3.737   1.313  18.798  1.00  0.00     0.000 C 
BRANCH   2   3
ATOM      3  C   UNL     1       3.450   2.803  19.069  1.00  0.00     0.000 C 
BRANCH   3   4
ATOM      4  C   UNL     1       2.033   3.071  19.605  1.00  0.00     0.000 C 
BRANCH   4   5
ATOM      5  C   UNL     1       1.508   4.451  19.179  1.00  0.00     0.000 C 
BRANCH   5   6
ATOM      6  C   UNL     1       2.541   5.569  19.409  1.00  0.00     0.000 C 
BRANCH   6   7
ATOM      7  C   UNL     1       2.228   6.849  18.611  1.00  0.00     0.000 C 
BRANCH   7   8
ATOM      8  C   UNL     1       1.888   8.087  19.460  1.00  0.00     0.000 C 
BRANCH   8   9
ATOM      9  C   UNL     1       2.639   9.352  19.012  1.00  0.00     0.000 C 
BRANCH   9  10
ATOM     10  C   UNL     1       2.938   9.367  17.502  1.00  0.00     0.000 C 
BRANCH  10  11
ATOM     11  C   UNL     1       3.752   8.147  17.018  1.00  0.00     0.000 C 
BRANCH  11  12
ATOM     12  C   UNL     1       4.639   8.487  15.806  1.00  0.00     0.000 C 
BRANCH  12  13
ATOM     13  C   UNL     1       4.955   7.260  14.929  1.00  0.00     0.006 C 
BRANCH  13  14
ATOM     14  C   UNL     1       6.369   7.277  14.326  1.00  0.00     0.053 C 
BRANCH  14  15
ATOM     15  C   UNL     1       6.691   8.575  13.650  1.00  0.00     0.041 C 
ATOM     16  O   UNL     1       5.780   9.239  13.089  1.00  0.00    -0.550 OA
ATOM     17  O   UNL     1       7.994   9.055  13.645  1.00  0.00    -0.550 OA
ENDBRANCH  14  15
ENDBRANCH  13  14
ENDBRANCH  12  13
ENDBRANCH  11  12
ENDBRANCH  10  11
ENDBRANCH   9  10
ENDBRANCH   8   9
ENDBRANCH   7   8
ENDBRANCH   6   7
ENDBRANCH   5   6
ENDBRANCH   4   5
ENDBRANCH   3   4
ENDBRANCH   2   3
ENDBRANCH   1   2
BRANCH   1  18
ATOM     18  C   UNL     1       5.473  -0.386  17.880  1.00  0.00     0.000 C 
BRANCH  18  19
ATOM     19  C   UNL     1       5.446  -1.147  16.543  1.00  0.00     0.000 C 
BRANCH  19  20
ATOM     20  C   UNL     1       5.121  -0.232  15.348  1.00  0.00     0.000 C 
BRANCH  20  21
ATOM     21  C   UNL     1       5.699  -0.729  14.006  1.00  0.00     0.000 C 
BRANCH  21  22
ATOM     22  C   UNL     1       5.892   0.374  12.940  1.00  0.00     0.000 C 
BRANCH  22  23
ATOM     23  C   UNL     1       4.799   1.457  12.949  1.00  0.00     0.000 C 
BRANCH  23  24
ATOM     24  C   UNL     1       5.372   2.887  12.875  1.00  0.00    -0.000 C 
BRANCH  24  25
ATOM     25  C   UNL     1       4.462   3.914  13.572  1.00  0.00    -0.000 C 
BRANCH  25  26
ATOM     26  C   UNL     1       4.467   3.783  15.108  1.00  0.00    -0.000 C 
BRANCH  26  27
ATOM     27  C   UNL     1       3.103   4.133  15.732  1.00  0.00    -0.000 C 
BRANCH  27  28
ATOM     28  C   UNL     1       1.976   3.206  15.250  1.00  0.00    -0.000 C 
BRANCH  28  29
ATOM     29  C   UNL     1       2.324   1.717  15.413  1.00  0.00    -0.000 C 
BRANCH  29  30
ATOM     30  C   UNL     1       1.075   0.823  15.520  1.00  0.00    -0.000 C 
BRANCH  30  31
ATOM     31  C   UNL     1       0.996  -0.312  14.484  1.00  0.00    -0.003 C 
ATOM     32  C   UNL     1       1.903  -1.494  14.817  1.00  0.00     0.004 C 
ENDBRANCH  30  31
ENDBRANCH  29  30
ENDBRANCH  28  29
ENDBRANCH  27  28
ENDBRANCH  26  27
ENDBRANCH  25  26
ENDBRANCH  24  25
ENDBRANCH  23  24
ENDBRANCH  22  23
ENDBRANCH  21  22
ENDBRANCH  20  21
ENDBRANCH  19  20
ENDBRANCH  18  19
ENDBRANCH   1  18
TORSDOF 28
ENDMDL
MODEL 4
REMARK VINA RESULT:    -5.384      2.102      5.078
REMARK INTER + INTRA:         -18.175
REMARK INTER:                 -14.839
REMARK INTRA:                  -3.336
REMARK UNBOUND:                -3.978
REMARK SMILES CCCCCCCCCCCCCCCCCCCCCCCCCCCCCC(=O)[O-]
REMARK SMILES IDX 16 1 17 2 18 3 19 4 20 5 21 6 22 7 23 8 24 9 25 10 26 11
REMARK SMILES IDX 27 12 28 13 29 14 30 15 31 16 32 17 15 18 14 19 13 20 12 21
REMARK SMILES IDX 11 22 10 23 9 24 8 25 7 26 6 27 5 28 4 29 3 30 2 31 1 32
REMARK H PARENT
REMARK Flexibility Score: inf
ROOT
ATOM      1  C   UNL     1       2.495   2.201  16.049  1.00  0.00     0.000 C 
ENDROOT
BRANCH   1   2
ATOM      2  C   UNL     1       3.724   2.507  16.934  1.00  0.00     0.000 C 
BRANCH   2   3
ATOM      3  C   UNL     1       3.530   2.269  18.445  1.00  0.00     0.000 C 
BRANCH   3   4
ATOM      4  C   UNL     1       3.089   3.526  19.215  1.00  0.00     0.000 C 
BRANCH   4   5
ATOM      5  C   UNL     1       2.135   4.402  18.387  1.00  0.00     0.000 C 
BRANCH   5   6
ATOM      6  C   UNL     1       2.637   5.850  18.250  1.00  0.00     0.000 C 
BRANCH   6   7
ATOM      7  C   UNL     1       1.651   6.884  18.826  1.00  0.00     0.000 C 
BRANCH   7   8
ATOM      8  C   UNL     1       2.296   8.044  19.608  1.00  0.00     0.000 C 
BRANCH   8   9
ATOM      9  C   UNL     1       2.309   9.367  18.824  1.00  0.00     0.000 C 
BRANCH   9  10
ATOM     10  C   UNL     1       3.597   9.565  18.005  1.00  0.00     0.000 C 
BRANCH  10  11
ATOM     11  C   UNL     1       3.563   8.883  16.620  1.00  0.00     0.000 C 
BRANCH  11  12
ATOM     12  C   UNL     1       4.952   8.372  16.192  1.00  0.00     0.000 C 
BRANCH  12  13
ATOM     13  C   UNL     1       4.882   7.123  15.292  1.00  0.00     0.006 C 
BRANCH  13  14
ATOM     14  C   UNL     1       6.019   7.037  14.262  1.00  0.00     0.053 C 
BRANCH  14  15
ATOM     15  C   UNL     1       6.443   8.383  13.760  1.00  0.00     0.041 C 
ATOM     16  O   UNL     1       5.582   9.208  13.355  1.00  0.00    -0.550 OA
ATOM     17  O   UNL     1       7.788   8.730  13.742  1.00  0.00    -0.550 OA
ENDBRANCH  14  15
ENDBRANCH  13  14
ENDBRANCH  12  13
ENDBRANCH  11  12
ENDBRANCH  10  11
ENDBRANCH   9  10
ENDBRANCH   8   9
ENDBRANCH   7   8
ENDBRANCH   6   7
ENDBRANCH   5   6
ENDBRANCH   4   5
ENDBRANCH   3   4
ENDBRANCH   2   3
ENDBRANCH   1   2
BRANCH   1  18
ATOM     18  C   UNL     1       2.436   2.997  14.733  1.00  0.00     0.000 C 
BRANCH  18  19
ATOM     19  C   UNL     1       3.540   4.063  14.618  1.00  0.00     0.000 C 
BRANCH  19  20
ATOM     20  C   UNL     1       4.432   3.858  13.381  1.00  0.00     0.000 C 
BRANCH  20  21
ATOM     21  C   UNL     1       4.621   2.378  12.986  1.00  0.00     0.000 C 
BRANCH  21  22
ATOM     22  C   UNL     1       5.942   1.744  13.478  1.00  0.00     0.000 C 
BRANCH  22  23
ATOM     23  C   UNL     1       5.790   0.312  14.023  1.00  0.00     0.000 C 
BRANCH  23  24
ATOM     24  C   UNL     1       5.522  -0.725  12.914  1.00  0.00    -0.000 C 
BRANCH  24  25
ATOM     25  C   UNL     1       4.203  -1.487  13.138  1.00  0.00    -0.000 C 
BRANCH  25  26
ATOM     26  C   UNL     1       3.110  -0.624  13.800  1.00  0.00    -0.000 C 
BRANCH  26  27
ATOM     27  C   UNL     1       2.477  -1.315  15.023  1.00  0.00    -0.000 C 
BRANCH  27  28
ATOM     28  C   UNL     1       3.521  -1.974  15.938  1.00  0.00    -0.000 C 
BRANCH  28  29
ATOM     29  C   UNL     1       4.374  -0.945  16.699  1.00  0.00    -0.000 C 
BRANCH  29  30
ATOM     30  C   UNL     1       4.652  -1.364  18.155  1.00  0.00    -0.000 C 
BRANCH  30  31
ATOM     31  C   UNL     1       5.670  -0.485  18.902  1.00  0.00    -0.003 C 
ATOM     32  C   UNL     1       6.725  -1.295  19.653  1.00  0.00     0.004 C 
ENDBRANCH  30  31
ENDBRANCH  29  30
ENDBRANCH  28  29
ENDBRANCH  27  28
ENDBRANCH  26  27
ENDBRANCH  25  26
ENDBRANCH  24  25
ENDBRANCH  23  24
ENDBRANCH  22  23
ENDBRANCH  21  22
ENDBRANCH  20  21
ENDBRANCH  19  20
ENDBRANCH  18  19
ENDBRANCH   1  18
TORSDOF 28
ENDMDL
MODEL 5
REMARK VINA RESULT:    -5.346      2.971      7.663
REMARK INTER + INTRA:         -18.075
REMARK INTER:                 -14.765
REMARK INTRA:                  -3.310
REMARK UNBOUND:                -3.978
REMARK SMILES CCCCCCCCCCCCCCCCCCCCCCCCCCCCCC(=O)[O-]
REMARK SMILES IDX 16 1 17 2 18 3 19 4 20 5 21 6 22 7 23 8 24 9 25 10 26 11
REMARK SMILES IDX 27 12 28 13 29 14 30 15 31 16 32 17 15 18 14 19 13 20 12 21
REMARK SMILES IDX 11 22 10 23 9 24 8 25 7 26 6 27 5 28 4 29 3 30 2 31 1 32
REMARK H PARENT
REMARK Flexibility Score: inf
ROOT
ATOM      1  C   UNL     1       1.446   4.299  19.730  1.00  0.00     0.000 C 
ENDROOT
BRANCH   1   2
ATOM      2  C   UNL     1       2.484   3.160  19.615  1.00  0.00     0.000 C 
BRANCH   2   3
ATOM      3  C   UNL     1       2.837   2.725  18.179  1.00  0.00     0.000 C 
BRANCH   3   4
ATOM      4  C   UNL     1       4.097   1.846  18.092  1.00  0.00     0.000 C 
BRANCH   4   5
ATOM      5  C   UNL     1       4.398   1.141  19.425  1.00  0.00     0.000 C 
BRANCH   5   6
ATOM      6  C   UNL     1       4.463  -0.389  19.278  1.00  0.00     0.000 C 
BRANCH   6   7
ATOM      7  C   UNL     1       5.584  -0.855  18.331  1.00  0.00     0.000 C 
BRANCH   7   8
ATOM      8  C   UNL     1       5.159  -1.874  17.258  1.00  0.00     0.000 C 
BRANCH   8   9
ATOM      9  C   UNL     1       5.362  -1.361  15.822  1.00  0.00     0.000 C 
BRANCH   9  10
ATOM     10  C   UNL     1       5.781   0.119  15.769  1.00  0.00     0.000 C 
BRANCH  10  11
ATOM     11  C   UNL     1       5.495   0.798  14.412  1.00  0.00     0.000 C 
BRANCH  11  12
ATOM     12  C   UNL     1       4.828  -0.166  13.412  1.00  0.00     0.000 C 
BRANCH  12  13
ATOM     13  C   UNL     1       3.321   0.098  13.236  1.00  0.00     0.006 C 
BRANCH  13  14
ATOM     14  C   UNL     1       2.597   0.454  14.544  1.00  0.00     0.053 C 
BRANCH  14  15
ATOM     15  C   UNL     1       1.404  -0.416  14.797  1.00  0.00     0.041 C 
ATOM     16  O   UNL     1       0.274   0.101  14.997  1.00  0.00    -0.550 OA
ATOM     17  O   UNL     1       1.537  -1.799  14.806  1.00  0.00    -0.550 OA
ENDBRANCH  14  15
ENDBRANCH  13  14
ENDBRANCH  12  13
ENDBRANCH  11  12
ENDBRANCH  10  11
ENDBRANCH   9  10
ENDBRANCH   8   9
ENDBRANCH   7   8
ENDBRANCH   6   7
ENDBRANCH   5   6
ENDBRANCH   4   5
ENDBRANCH   3   4
ENDBRANCH   2   3
ENDBRANCH   1   2
BRANCH   1  18
ATOM     18  C   UNL     1       1.194   5.073  18.424  1.00  0.00     0.000 C 
BRANCH  18  19
ATOM     19  C   UNL     1       2.200   6.213  18.190  1.00  0.00     0.000 C 
BRANCH  19  20
ATOM     20  C   UNL     1       2.275   7.189  19.378  1.00  0.00     0.000 C 
BRANCH  20  21
ATOM     21  C   UNL     1       2.033   8.664  18.989  1.00  0.00     0.000 C 
BRANCH  21  22
ATOM     22  C   UNL     1       3.270   9.388  18.410  1.00  0.00     0.000 C 
BRANCH  22  23
ATOM     23  C   UNL     1       3.390   9.305  16.879  1.00  0.00     0.000 C 
BRANCH  23  24
ATOM     24  C   UNL     1       4.545   8.393  16.417  1.00  0.00    -0.000 C 
BRANCH  24  25
ATOM     25  C   UNL     1       4.862   8.569  14.921  1.00  0.00    -0.000 C 
BRANCH  25  26
ATOM     26  C   UNL     1       6.335   8.271  14.576  1.00  0.00    -0.000 C 
BRANCH  26  27
ATOM     27  C   UNL     1       6.474   7.278  13.407  1.00  0.00    -0.000 C 
BRANCH  27  28
ATOM     28  C   UNL     1       5.117   6.776  12.890  1.00  0.00    -0.000 C 
BRANCH  28  29
ATOM     29  C   UNL     1       4.848   5.308  13.263  1.00  0.00    -0.000 C 
BRANCH  29  30
ATOM     30  C   UNL     1       4.452   5.133  14.741  1.00  0.00    -0.000 C 
BRANCH  30  31
ATOM     31  C   UNL     1       3.661   3.851  15.056  1.00  0.00    -0.003 C 
ATOM     32  C   UNL     1       2.231   3.881  14.521  1.00  0.00     0.004 C 
ENDBRANCH  30  31
ENDBRANCH  29  30
ENDBRANCH  28  29
ENDBRANCH  27  28
ENDBRANCH  26  27
ENDBRANCH  25  26
ENDBRANCH  24  25
ENDBRANCH  23  24
ENDBRANCH  22  23
ENDBRANCH  21  22
ENDBRANCH  20  21
ENDBRANCH  19  20
ENDBRANCH  18  19
ENDBRANCH   1  18
TORSDOF 28
ENDMDL
MODEL 6
REMARK VINA RESULT:    -5.273      2.937      5.301
REMARK INTER + INTRA:         -17.882
REMARK INTER:                 -14.256
REMARK INTRA:                  -3.626
REMARK UNBOUND:                -3.978
REMARK SMILES CCCCCCCCCCCCCCCCCCCCCCCCCCCCCC(=O)[O-]
REMARK SMILES IDX 16 1 17 2 18 3 19 4 20 5 21 6 22 7 23 8 24 9 25 10 26 11
REMARK SMILES IDX 27 12 28 13 29 14 30 15 31 16 32 17 15 18 14 19 13 20 12 21
REMARK SMILES IDX 11 22 10 23 9 24 8 25 7 26 6 27 5 28 4 29 3 30 2 31 1 32
REMARK H PARENT
REMARK Flexibility Score: inf
ROOT
ATOM      1  C   UNL     1       2.231   8.460  19.651  1.00  0.00     0.000 C 
ENDROOT
BRANCH   1   2
ATOM      2  C   UNL     1       2.462   9.702  18.761  1.00  0.00     0.000 C 
BRANCH   2   3
ATOM      3  C   UNL     1       3.802   9.734  17.999  1.00  0.00     0.000 C 
BRANCH   3   4
ATOM      4  C   UNL     1       3.710   9.182  16.566  1.00  0.00     0.000 C 
BRANCH   4   5
ATOM      5  C   UNL     1       4.885   8.249  16.233  1.00  0.00     0.000 C 
BRANCH   5   6
ATOM      6  C   UNL     1       4.477   7.103  15.290  1.00  0.00     0.000 C 
BRANCH   6   7
ATOM      7  C   UNL     1       5.503   6.856  14.168  1.00  0.00     0.000 C 
BRANCH   7   8
ATOM      8  C   UNL     1       4.933   6.227  12.882  1.00  0.00     0.000 C 
BRANCH   8   9
ATOM      9  C   UNL     1       4.074   4.980  13.149  1.00  0.00     0.000 C 
BRANCH   9  10
ATOM     10  C   UNL     1       4.904   3.769  13.611  1.00  0.00     0.000 C 
BRANCH  10  11
ATOM     11  C   UNL     1       4.328   3.059  14.856  1.00  0.00     0.000 C 
BRANCH  11  12
ATOM     12  C   UNL     1       2.833   3.370  15.061  1.00  0.00     0.000 C 
BRANCH  12  13
ATOM     13  C   UNL     1       2.086   2.259  15.823  1.00  0.00     0.006 C 
BRANCH  13  14
ATOM     14  C   UNL     1       2.555   0.840  15.466  1.00  0.00     0.053 C 
BRANCH  14  15
ATOM     15  C   UNL     1       1.487   0.034  14.791  1.00  0.00     0.041 C 
ATOM     16  O   UNL     1       0.275   0.346  14.930  1.00  0.00    -0.550 OA
ATOM     17  O   UNL     1       1.828  -1.058  14.005  1.00  0.00    -0.550 OA
ENDBRANCH  14  15
ENDBRANCH  13  14
ENDBRANCH  12  13
ENDBRANCH  11  12
ENDBRANCH  10  11
ENDBRANCH   9  10
ENDBRANCH   8   9
ENDBRANCH   7   8
ENDBRANCH   6   7
ENDBRANCH   5   6
ENDBRANCH   4   5
ENDBRANCH   3   4
ENDBRANCH   2   3
ENDBRANCH   1   2
BRANCH   1  18
ATOM     18  C   UNL     1       1.870   7.177  18.882  1.00  0.00     0.000 C 
BRANCH  18  19
ATOM     19  C   UNL     1       2.612   5.931  19.395  1.00  0.00     0.000 C 
BRANCH  19  20
ATOM     20  C   UNL     1       2.307   4.674  18.560  1.00  0.00     0.000 C 
BRANCH  20  21
ATOM     21  C   UNL     1       1.408   3.648  19.284  1.00  0.00     0.000 C 
BRANCH  21  22
ATOM     22  C   UNL     1       2.129   2.347  19.705  1.00  0.00     0.000 C 
BRANCH  22  23
ATOM     23  C   UNL     1       3.655   2.379  19.510  1.00  0.00     0.000 C 
BRANCH  23  24
ATOM     24  C   UNL     1       4.170   1.224  18.627  1.00  0.00    -0.000 C 
BRANCH  24  25
ATOM     25  C   UNL     1       4.529  -0.024  19.454  1.00  0.00    -0.000 C 
BRANCH  25  26
ATOM     26  C   UNL     1       5.924  -0.589  19.121  1.00  0.00    -0.000 C 
BRANCH  26  27
ATOM     27  C   UNL     1       5.877  -1.645  18.000  1.00  0.00    -0.000 C 
BRANCH  27  28
ATOM     28  C   UNL     1       4.508  -1.712  17.306  1.00  0.00    -0.000 C 
BRANCH  28  29
ATOM     29  C   UNL     1       4.619  -2.041  15.808  1.00  0.00    -0.000 C 
BRANCH  29  30
ATOM     30  C   UNL     1       5.442  -0.997  15.030  1.00  0.00    -0.000 C 
BRANCH  30  31
ATOM     31  C   UNL     1       5.289  -1.057  13.500  1.00  0.00    -0.003 C 
ATOM     32  C   UNL     1       4.969   0.300  12.875  1.00  0.00     0.004 C 
ENDBRANCH  30  31
ENDBRANCH  29  30
ENDBRANCH  28  29
ENDBRANCH  27  28
ENDBRANCH  26  27
ENDBRANCH  25  26
ENDBRANCH  24  25
ENDBRANCH  23  24
ENDBRANCH  22  23
ENDBRANCH  21  22
ENDBRANCH  20  21
ENDBRANCH  19  20
ENDBRANCH  18  19
ENDBRANCH   1  18
TORSDOF 28
ENDMDL
MODEL 7
REMARK VINA RESULT:    -5.195      2.120      4.102
REMARK INTER + INTRA:         -17.677
REMARK INTER:                 -13.622
REMARK INTRA:                  -4.056
REMARK UNBOUND:                -3.978
REMARK SMILES CCCCCCCCCCCCCCCCCCCCCCCCCCCCCC(=O)[O-]
REMARK SMILES IDX 16 1 17 2 18 3 19 4 20 5 21 6 22 7 23 8 24 9 25 10 26 11
REMARK SMILES IDX 27 12 28 13 29 14 30 15 31 16 32 17 15 18 14 19 13 20 12 21
REMARK SMILES IDX 11 22 10 23 9 24 8 25 7 26 6 27 5 28 4 29 3 30 2 31 1 32
REMARK H PARENT
REMARK Flexibility Score: inf
ROOT
ATOM      1  C   UNL     1       2.710   2.593  18.993  1.00  0.00     0.000 C 
ENDROOT
BRANCH   1   2
ATOM      2  C   UNL     1       3.103   3.929  18.323  1.00  0.00     0.000 C 
BRANCH   2   3
ATOM      3  C   UNL     1       2.047   5.049  18.405  1.00  0.00     0.000 C 
BRANCH   3   4
ATOM      4  C   UNL     1       2.372   6.127  19.454  1.00  0.00     0.000 C 
BRANCH   4   5
ATOM      5  C   UNL     1       1.635   7.445  19.170  1.00  0.00     0.000 C 
BRANCH   5   6
ATOM      6  C   UNL     1       2.359   8.664  19.768  1.00  0.00     0.000 C 
BRANCH   6   7
ATOM      7  C   UNL     1       3.052   9.534  18.702  1.00  0.00     0.000 C 
BRANCH   7   8
ATOM      8  C   UNL     1       2.905   9.038  17.251  1.00  0.00     0.000 C 
BRANCH   8   9
ATOM      9  C   UNL     1       4.186   9.216  16.419  1.00  0.00     0.000 C 
BRANCH   9  10
ATOM     10  C   UNL     1       4.982   7.909  16.258  1.00  0.00     0.000 C 
BRANCH  10  11
ATOM     11  C   UNL     1       4.123   6.712  15.794  1.00  0.00     0.000 C 
BRANCH  11  12
ATOM     12  C   UNL     1       4.830   5.878  14.709  1.00  0.00     0.000 C 
BRANCH  12  13
ATOM     13  C   UNL     1       4.813   6.552  13.324  1.00  0.00     0.006 C 
BRANCH  13  14
ATOM     14  C   UNL     1       6.183   7.087  12.878  1.00  0.00     0.053 C 
BRANCH  14  15
ATOM     15  C   UNL     1       6.372   8.535  13.212  1.00  0.00     0.041 C 
ATOM     16  O   UNL     1       5.419   9.346  13.075  1.00  0.00    -0.550 OA
ATOM     17  O   UNL     1       7.598   8.989  13.681  1.00  0.00    -0.550 OA
ENDBRANCH  14  15
ENDBRANCH  13  14
ENDBRANCH  12  13
ENDBRANCH  11  12
ENDBRANCH  10  11
ENDBRANCH   9  10
ENDBRANCH   8   9
ENDBRANCH   7   8
ENDBRANCH   6   7
ENDBRANCH   5   6
ENDBRANCH   4   5
ENDBRANCH   3   4
ENDBRANCH   2   3
ENDBRANCH   1   2
BRANCH   1  18
ATOM     18  C   UNL     1       3.879   1.616  19.213  1.00  0.00     0.000 C 
BRANCH  18  19
ATOM     19  C   UNL     1       4.508   1.114  17.901  1.00  0.00     0.000 C 
BRANCH  19  20
ATOM     20  C   UNL     1       5.754   0.242  18.138  1.00  0.00     0.000 C 
BRANCH  20  21
ATOM     21  C   UNL     1       5.432  -1.241  18.423  1.00  0.00     0.000 C 
BRANCH  21  22
ATOM     22  C   UNL     1       4.890  -2.027  17.206  1.00  0.00     0.000 C 
BRANCH  22  23
ATOM     23  C   UNL     1       5.261  -1.415  15.844  1.00  0.00     0.000 C 
BRANCH  23  24
ATOM     24  C   UNL     1       4.349  -1.901  14.700  1.00  0.00    -0.000 C 
BRANCH  24  25
ATOM     25  C   UNL     1       4.517  -1.057  13.424  1.00  0.00    -0.000 C 
BRANCH  25  26
ATOM     26  C   UNL     1       5.850  -0.283  13.382  1.00  0.00    -0.000 C 
BRANCH  26  27
ATOM     27  C   UNL     1       5.648   1.220  13.109  1.00  0.00    -0.000 C 
BRANCH  27  28
ATOM     28  C   UNL     1       4.997   1.954  14.292  1.00  0.00    -0.000 C 
BRANCH  28  29
ATOM     29  C   UNL     1       3.630   2.560  13.932  1.00  0.00    -0.000 C 
BRANCH  29  30
ATOM     30  C   UNL     1       2.610   2.449  15.080  1.00  0.00    -0.000 C 
BRANCH  30  31
ATOM     31  C   UNL     1       2.322   1.015  15.558  1.00  0.00    -0.003 C 
ATOM     32  C   UNL     1       1.215   0.328  14.761  1.00  0.00     0.004 C 
ENDBRANCH  30  31
ENDBRANCH  29  30
ENDBRANCH  28  29
ENDBRANCH  27  28
ENDBRANCH  26  27
ENDBRANCH  25  26
ENDBRANCH  24  25
ENDBRANCH  23  24
ENDBRANCH  22  23
ENDBRANCH  21  22
ENDBRANCH  20  21
ENDBRANCH  19  20
ENDBRANCH  18  19
ENDBRANCH   1  18
TORSDOF 28
ENDMDL
MODEL 8
REMARK VINA RESULT:    -5.083      1.910      4.802
REMARK INTER + INTRA:         -17.383
REMARK INTER:                 -14.267
REMARK INTRA:                  -3.116
REMARK UNBOUND:                -3.978
REMARK SMILES CCCCCCCCCCCCCCCCCCCCCCCCCCCCCC(=O)[O-]
REMARK SMILES IDX 16 1 17 2 18 3 19 4 20 5 21 6 22 7 23 8 24 9 25 10 26 11
REMARK SMILES IDX 27 12 28 13 29 14 30 15 31 16 32 17 15 18 14 19 13 20 12 21
REMARK SMILES IDX 11 22 10 23 9 24 8 25 7 26 6 27 5 28 4 29 3 30 2 31 1 32
REMARK H PARENT
REMARK Flexibility Score: inf
ROOT
ATOM      1  C   UNL     1       4.274   3.152  15.225  1.00  0.00     0.000 C 
ENDROOT
BRANCH   1   2
ATOM      2  C   UNL     1       4.233   4.636  14.800  1.00  0.00     0.000 C 
BRANCH   2   3
ATOM      3  C   UNL     1       4.328   4.897  13.284  1.00  0.00     0.000 C 
BRANCH   3   4
ATOM      4  C   UNL     1       4.800   6.317  12.929  1.00  0.00     0.000 C 
BRANCH   4   5
ATOM      5  C   UNL     1       6.041   6.729  13.738  1.00  0.00     0.000 C 
BRANCH   5   6
ATOM      6  C   UNL     1       6.061   8.234  14.058  1.00  0.00     0.000 C 
BRANCH   6   7
ATOM      7  C   UNL     1       4.743   8.734  14.680  1.00  0.00     0.000 C 
BRANCH   7   8
ATOM      8  C   UNL     1       4.408   8.153  16.066  1.00  0.00     0.000 C 
BRANCH   8   9
ATOM      9  C   UNL     1       4.319   9.227  17.164  1.00  0.00     0.000 C 
BRANCH   9  10
ATOM     10  C   UNL     1       2.892   9.405  17.713  1.00  0.00     0.000 C 
BRANCH  10  11
ATOM     11  C   UNL     1       2.755   9.064  19.212  1.00  0.00     0.000 C 
BRANCH  11  12
ATOM     12  C   UNL     1       1.787   7.889  19.453  1.00  0.00     0.000 C 
BRANCH  12  13
ATOM     13  C   UNL     1       2.263   6.575  18.805  1.00  0.00     0.006 C 
BRANCH  13  14
ATOM     14  C   UNL     1       2.448   5.423  19.804  1.00  0.00     0.053 C 
BRANCH  14  15
ATOM     15  C   UNL     1       2.131   4.086  19.206  1.00  0.00     0.041 C 
ATOM     16  O   UNL     1       2.187   3.920  17.960  1.00  0.00    -0.550 OA
ATOM     17  O   UNL     1       1.779   3.021  20.025  1.00  0.00    -0.550 OA
ENDBRANCH  14  15
ENDBRANCH  13  14
ENDBRANCH  12  13
ENDBRANCH  11  12
ENDBRANCH  10  11
ENDBRANCH   9  10
ENDBRANCH   8   9
ENDBRANCH   7   8
ENDBRANCH   6   7
ENDBRANCH   5   6
ENDBRANCH   4   5
ENDBRANCH   3   4
ENDBRANCH   2   3
ENDBRANCH   1   2
BRANCH   1  18
ATOM     18  C   UNL     1       3.330   2.230  14.432  1.00  0.00     0.000 C 
BRANCH  18  19
ATOM     19  C   UNL     1       2.016   1.924  15.172  1.00  0.00     0.000 C 
BRANCH  19  20
ATOM     20  C   UNL     1       1.770   0.414  15.342  1.00  0.00     0.000 C 
BRANCH  20  21
ATOM     21  C   UNL     1       1.931  -0.395  14.037  1.00  0.00     0.000 C 
BRANCH  21  22
ATOM     22  C   UNL     1       2.484  -1.826  14.232  1.00  0.00     0.000 C 
BRANCH  22  23
ATOM     23  C   UNL     1       3.858  -2.065  13.582  1.00  0.00     0.000 C 
BRANCH  23  24
ATOM     24  C   UNL     1       4.520  -0.765  13.084  1.00  0.00    -0.000 C 
BRANCH  24  25
ATOM     25  C   UNL     1       5.785  -0.413  13.888  1.00  0.00    -0.000 C 
BRANCH  25  26
ATOM     26  C   UNL     1       5.541  -0.361  15.409  1.00  0.00    -0.000 C 
BRANCH  26  27
ATOM     27  C   UNL     1       5.571  -1.759  16.056  1.00  0.00    -0.000 C 
BRANCH  27  28
ATOM     28  C   UNL     1       4.700  -1.846  17.319  1.00  0.00    -0.000 C 
BRANCH  28  29
ATOM     29  C   UNL     1       5.534  -1.881  18.611  1.00  0.00    -0.000 C 
BRANCH  29  30
ATOM     30  C   UNL     1       5.821  -0.476  19.171  1.00  0.00    -0.000 C 
BRANCH  30  31
ATOM     31  C   UNL     1       4.575   0.385  19.442  1.00  0.00    -0.003 C 
ATOM     32  C   UNL     1       4.310   1.419  18.350  1.00  0.00     0.004 C 
ENDBRANCH  30  31
ENDBRANCH  29  30
ENDBRANCH  28  29
ENDBRANCH  27  28
ENDBRANCH  26  27
ENDBRANCH  25  26
ENDBRANCH  24  25
ENDBRANCH  23  24
ENDBRANCH  22  23
ENDBRANCH  21  22
ENDBRANCH  20  21
ENDBRANCH  19  20
ENDBRANCH  18  19
ENDBRANCH   1  18
TORSDOF 28
ENDMDL
MODEL 9
REMARK VINA RESULT:    -5.083      2.883      8.157
REMARK INTER + INTRA:         -17.381
REMARK INTER:                 -13.695
REMARK INTRA:                  -3.686
REMARK UNBOUND:                -3.978
REMARK SMILES CCCCCCCCCCCCCCCCCCCCCCCCCCCCCC(=O)[O-]
REMARK SMILES IDX 16 1 17 2 18 3 19 4 20 5 21 6 22 7 23 8 24 9 25 10 26 11
REMARK SMILES IDX 27 12 28 13 29 14 30 15 31 16 32 17 15 18 14 19 13 20 12 21
REMARK SMILES IDX 11 22 10 23 9 24 8 25 7 26 6 27 5 28 4 29 3 30 2 31 1 32
REMARK H PARENT
REMARK Flexibility Score: inf
ROOT
ATOM      1  C   UNL     1       5.702   6.307  14.209  1.00  0.00     0.000 C 
ENDROOT
BRANCH   1   2
ATOM      2  C   UNL     1       4.872   5.899  12.972  1.00  0.00     0.000 C 
BRANCH   2   3
ATOM      3  C   UNL     1       4.165   4.532  13.068  1.00  0.00     0.000 C 
BRANCH   3   4
ATOM      4  C   UNL     1       3.851   4.100  14.511  1.00  0.00     0.000 C 
BRANCH   4   5
ATOM      5  C   UNL     1       3.657   2.579  14.626  1.00  0.00     0.000 C 
BRANCH   5   6
ATOM      6  C   UNL     1       2.407   2.207  15.443  1.00  0.00     0.000 C 
BRANCH   6   7
ATOM      7  C   UNL     1       1.955   0.751  15.218  1.00  0.00     0.000 C 
BRANCH   7   8
ATOM      8  C   UNL     1       2.477   0.092  13.928  1.00  0.00     0.000 C 
BRANCH   8   9
ATOM      9  C   UNL     1       2.665  -1.429  14.060  1.00  0.00     0.000 C 
BRANCH   9  10
ATOM     10  C   UNL     1       4.130  -1.869  13.886  1.00  0.00     0.000 C 
BRANCH  10  11
ATOM     11  C   UNL     1       5.091  -0.708  13.550  1.00  0.00     0.000 C 
BRANCH  11  12
ATOM     12  C   UNL     1       5.893  -0.245  14.781  1.00  0.00     0.000 C 
BRANCH  12  13
ATOM     13  C   UNL     1       5.321  -0.779  16.108  1.00  0.00     0.006 C 
BRANCH  13  14
ATOM     14  C   UNL     1       5.283   0.268  17.232  1.00  0.00     0.053 C 
BRANCH  14  15
ATOM     15  C   UNL     1       5.354  -0.349  18.596  1.00  0.00     0.041 C 
ATOM     16  O   UNL     1       6.144  -1.304  18.818  1.00  0.00    -0.550 OA
ATOM     17  O   UNL     1       4.552   0.132  19.622  1.00  0.00    -0.550 OA
ENDBRANCH  14  15
ENDBRANCH  13  14
ENDBRANCH  12  13
ENDBRANCH  11  12
ENDBRANCH  10  11
ENDBRANCH   9  10
ENDBRANCH   8   9
ENDBRANCH   7   8
ENDBRANCH   6   7
ENDBRANCH   5   6
ENDBRANCH   4   5
ENDBRANCH   3   4
ENDBRANCH   2   3
ENDBRANCH   1   2
BRANCH   1  18
ATOM     18  C   UNL     1       6.367   7.692  14.109  1.00  0.00     0.000 C 
BRANCH  18  19
ATOM     19  C   UNL     1       5.409   8.792  13.620  1.00  0.00     0.000 C 
BRANCH  19  20
ATOM     20  C   UNL     1       4.579   9.404  14.763  1.00  0.00     0.000 C 
BRANCH  20  21
ATOM     21  C   UNL     1       4.149   8.383  15.838  1.00  0.00     0.000 C 
BRANCH  21  22
ATOM     22  C   UNL     1       4.620   8.722  17.271  1.00  0.00     0.000 C 
BRANCH  22  23
ATOM     23  C   UNL     1       3.781   9.804  17.973  1.00  0.00     0.000 C 
BRANCH  23  24
ATOM     24  C   UNL     1       2.326   9.361  18.229  1.00  0.00    -0.000 C 
BRANCH  24  25
ATOM     25  C   UNL     1       2.143   8.753  19.631  1.00  0.00    -0.000 C 
BRANCH  25  26
ATOM     26  C   UNL     1       2.323   7.222  19.655  1.00  0.00    -0.000 C 
BRANCH  26  27
ATOM     27  C   UNL     1       1.774   6.546  18.384  1.00  0.00    -0.000 C 
BRANCH  27  28
ATOM     28  C   UNL     1       2.697   5.436  17.858  1.00  0.00    -0.000 C 
BRANCH  28  29
ATOM     29  C   UNL     1       3.139   4.461  18.961  1.00  0.00    -0.000 C 
BRANCH  29  30
ATOM     30  C   UNL     1       2.800   2.996  18.630  1.00  0.00    -0.000 C 
BRANCH  30  31
ATOM     31  C   UNL     1       1.690   2.373  19.494  1.00  0.00    -0.003 C 
ATOM     32  C   UNL     1       1.285   3.251  20.676  1.00  0.00     0.004 C 
ENDBRANCH  30  31
ENDBRANCH  29  30
ENDBRANCH  28  29
ENDBRANCH  27  28
ENDBRANCH  26  27
ENDBRANCH  25  26
ENDBRANCH  24  25
ENDBRANCH  23  24
ENDBRANCH  22  23
ENDBRANCH  21  22
ENDBRANCH  20  21
ENDBRANCH  19  20
ENDBRANCH  18  19
ENDBRANCH   1  18
TORSDOF 28
ENDMDL
