MODEL 1
REMARK VINA RESULT:    -7.353      0.000      0.000
REMARK INTER + INTRA:          -9.180
REMARK INTER:                  -8.858
REMARK INTRA:                  -0.322
REMARK UNBOUND:                -0.322
REMARK SMILES O=c1c(O)c(-c2ccc(O)c(O)c2)oc2cc(O)cc(O)c12
REMARK SMILES IDX 5 1 3 2 2 3 1 4 22 5 20 6 19 7 17 8 16 9 15 10 14 11 6 12
REMARK SMILES IDX 7 13 8 14 9 15 13 16 11 17 10 18 12 20 4 22 21 24 18 26
REMARK H PARENT 10 19 12 21 4 23 21 25 18 27
REMARK Flexibility Score: inf
ROOT
ATOM      1  C   UNL     1      -6.420  48.175 -15.780  1.00  0.00     0.180 A 
ATOM      2  C   UNL     1      -7.074  49.417 -15.857  1.00  0.00     0.208 A 
ATOM      3  C   UNL     1      -6.433  50.556 -15.342  1.00  0.00     0.238 A 
ATOM      4  O   UNL     1      -7.000  51.674 -15.463  1.00  0.00    -0.285 OA
ATOM      5  C   UNL     1      -5.156  50.436 -14.743  1.00  0.00     0.111 A 
ATOM      6  C   UNL     1      -4.433  51.517 -14.154  1.00  0.00     0.134 A 
ATOM      7  C   UNL     1      -3.122  51.308 -13.709  1.00  0.00     0.093 A 
ATOM      8  C   UNL     1      -2.533  50.043 -13.771  1.00  0.00     0.123 A 
ATOM      9  C   UNL     1      -3.252  48.969 -14.291  1.00  0.00     0.094 A 
ATOM     10  C   UNL     1      -4.549  49.154 -14.776  1.00  0.00     0.146 A 
ATOM     11  O   UNL     1      -5.196  48.106 -15.273  1.00  0.00    -0.452 OA
ENDROOT
BRANCH   1  12
ATOM     12  C   UNL     1      -7.042  46.926 -16.277  1.00  0.00     0.025 A 
ATOM     13  C   UNL     1      -6.841  46.484 -17.597  1.00  0.00     0.016 A 
ATOM     14  C   UNL     1      -7.458  45.315 -18.052  1.00  0.00     0.051 A 
ATOM     15  C   UNL     1      -8.292  44.580 -17.200  1.00  0.00     0.157 A 
ATOM     16  C   UNL     1      -7.895  46.196 -15.435  1.00  0.00     0.062 A 
ATOM     17  C   UNL     1      -8.514  45.022 -15.890  1.00  0.00     0.158 A 
BRANCH  15  18
ATOM     18  O   UNL     1      -8.907  43.412 -17.649  1.00  0.00    -0.504 OA
ATOM     19  H   UNL     1      -8.761  42.523 -17.185  1.00  0.00     0.293 HD
ENDBRANCH  15  18
BRANCH  17  20
ATOM     20  O   UNL     1      -9.350  44.292 -15.046  1.00  0.00    -0.504 OA
ATOM     21  H   UNL     1      -9.315  43.280 -15.011  1.00  0.00     0.293 HD
ENDBRANCH  17  20
ENDBRANCH   1  12
BRANCH   2  22
ATOM     22  O   UNL     1      -8.325  49.517 -16.471  1.00  0.00    -0.502 OA
ATOM     23  H   UNL     1      -8.582  50.300 -17.061  1.00  0.00     0.293 HD
ENDBRANCH   2  22
BRANCH   6  24
ATOM     24  O   UNL     1      -4.962  52.796 -13.960  1.00  0.00    -0.507 OA
ATOM     25  H   UNL     1      -5.586  53.263 -14.601  1.00  0.00     0.293 HD
ENDBRANCH   6  24
BRANCH   8  26
ATOM     26  O   UNL     1      -1.234  49.841 -13.311  1.00  0.00    -0.508 OA
ATOM     27  H   UNL     1      -0.543  50.583 -13.330  1.00  0.00     0.293 HD
ENDBRANCH   8  26
TORSDOF 6
ENDMDL
MODEL 2
REMARK VINA RESULT:    -6.967      1.276      2.905
REMARK INTER + INTRA:          -8.715
REMARK INTER:                  -8.383
REMARK INTRA:                  -0.332
REMARK UNBOUND:                -0.322
REMARK SMILES O=c1c(O)c(-c2ccc(O)c(O)c2)oc2cc(O)cc(O)c12
REMARK SMILES IDX 5 1 3 2 2 3 1 4 22 5 20 6 19 7 17 8 16 9 15 10 14 11 6 12
REMARK SMILES IDX 7 13 8 14 9 15 13 16 11 17 10 18 12 20 4 22 21 24 18 26
REMARK H PARENT 10 19 12 21 4 23 21 25 18 27
REMARK Flexibility Score: inf
ROOT
ATOM      1  C   UNL     1      -5.783  48.211 -15.175  1.00  0.00     0.180 A 
ATOM      2  C   UNL     1      -4.478  47.982 -14.705  1.00  0.00     0.208 A 
ATOM      3  C   UNL     1      -3.754  49.053 -14.156  1.00  0.00     0.238 A 
ATOM      4  O   UNL     1      -2.606  48.829 -13.688  1.00  0.00    -0.285 OA
ATOM      5  C   UNL     1      -4.337  50.341 -14.098  1.00  0.00     0.111 A 
ATOM      6  C   UNL     1      -3.680  51.506 -13.599  1.00  0.00     0.134 A 
ATOM      7  C   UNL     1      -4.399  52.700 -13.468  1.00  0.00     0.093 A 
ATOM      8  C   UNL     1      -5.731  52.789 -13.879  1.00  0.00     0.123 A 
ATOM      9  C   UNL     1      -6.363  51.673 -14.422  1.00  0.00     0.094 A 
ATOM     10  C   UNL     1      -5.683  50.457 -14.532  1.00  0.00     0.146 A 
ATOM     11  O   UNL     1      -6.326  49.415 -15.046  1.00  0.00    -0.452 OA
ENDROOT
BRANCH   1  12
ATOM     12  C   UNL     1      -6.598  47.139 -15.790  1.00  0.00     0.025 A 
ATOM     13  C   UNL     1      -6.507  46.845 -17.162  1.00  0.00     0.016 A 
ATOM     14  C   UNL     1      -7.304  45.845 -17.725  1.00  0.00     0.051 A 
ATOM     15  C   UNL     1      -8.212  45.134 -16.929  1.00  0.00     0.157 A 
ATOM     16  C   UNL     1      -7.524  46.437 -15.001  1.00  0.00     0.062 A 
ATOM     17  C   UNL     1      -8.325  45.432 -15.565  1.00  0.00     0.158 A 
BRANCH  15  18
ATOM     18  O   UNL     1      -9.008  44.134 -17.486  1.00  0.00    -0.504 OA
ATOM     19  H   UNL     1      -8.844  43.788 -18.424  1.00  0.00     0.293 HD
ENDBRANCH  15  18
BRANCH  17  20
ATOM     20  O   UNL     1      -9.234  44.728 -14.777  1.00  0.00    -0.504 OA
ATOM     21  H   UNL     1      -9.117  44.652 -13.773  1.00  0.00     0.293 HD
ENDBRANCH  17  20
ENDBRANCH   1  12
BRANCH   2  22
ATOM     22  O   UNL     1      -3.929  46.697 -14.752  1.00  0.00    -0.502 OA
ATOM     23  H   UNL     1      -4.415  45.883 -14.395  1.00  0.00     0.293 HD
ENDBRANCH   2  22
BRANCH   6  24
ATOM     24  O   UNL     1      -2.328  51.549 -13.247  1.00  0.00    -0.507 OA
ATOM     25  H   UNL     1      -1.572  51.721 -13.891  1.00  0.00     0.293 HD
ENDBRANCH   6  24
BRANCH   8  26
ATOM     26  O   UNL     1      -6.434  53.986 -13.760  1.00  0.00    -0.508 OA
ATOM     27  H   UNL     1      -7.258  54.060 -13.174  1.00  0.00     0.293 HD
ENDBRANCH   8  26
TORSDOF 6
ENDMDL
MODEL 3
REMARK VINA RESULT:    -6.719      3.080      6.568
REMARK INTER + INTRA:          -8.416
REMARK INTER:                  -8.216
REMARK INTRA:                  -0.200
REMARK UNBOUND:                -0.322
REMARK SMILES O=c1c(O)c(-c2ccc(O)c(O)c2)oc2cc(O)cc(O)c12
REMARK SMILES IDX 5 1 3 2 2 3 1 4 22 5 20 6 19 7 17 8 16 9 15 10 14 11 6 12
REMARK SMILES IDX 7 13 8 14 9 15 13 16 11 17 10 18 12 20 4 22 21 24 18 26
REMARK H PARENT 10 19 12 21 4 23 21 25 18 27
REMARK Flexibility Score: inf
ROOT
ATOM      1  C   UNL     1      -7.087  51.604 -16.482  1.00  0.00     0.180 A 
ATOM      2  C   UNL     1      -7.903  50.550 -16.929  1.00  0.00     0.208 A 
ATOM      3  C   UNL     1      -7.475  49.227 -16.732  1.00  0.00     0.238 A 
ATOM      4  O   UNL     1      -8.234  48.287 -17.086  1.00  0.00    -0.285 OA
ATOM      5  C   UNL     1      -6.231  48.975 -16.105  1.00  0.00     0.111 A 
ATOM      6  C   UNL     1      -5.681  47.675 -15.890  1.00  0.00     0.134 A 
ATOM      7  C   UNL     1      -4.504  47.539 -15.142  1.00  0.00     0.093 A 
ATOM      8  C   UNL     1      -3.824  48.659 -14.659  1.00  0.00     0.123 A 
ATOM      9  C   UNL     1      -4.322  49.935 -14.914  1.00  0.00     0.094 A 
ATOM     10  C   UNL     1      -5.513  50.101 -15.626  1.00  0.00     0.146 A 
ATOM     11  O   UNL     1      -5.958  51.334 -15.839  1.00  0.00    -0.452 OA
ENDROOT
BRANCH   1  12
ATOM     12  C   UNL     1      -7.458  53.024 -16.676  1.00  0.00     0.025 A 
ATOM     13  C   UNL     1      -7.542  53.590 -17.961  1.00  0.00     0.016 A 
ATOM     14  C   UNL     1      -7.870  54.939 -18.119  1.00  0.00     0.051 A 
ATOM     15  C   UNL     1      -8.106  55.744 -16.997  1.00  0.00     0.157 A 
ATOM     16  C   UNL     1      -7.676  53.841 -15.555  1.00  0.00     0.062 A 
ATOM     17  C   UNL     1      -8.006  55.195 -15.713  1.00  0.00     0.158 A 
BRANCH  15  18
ATOM     18  O   UNL     1      -8.437  57.090 -17.151  1.00  0.00    -0.504 OA
ATOM     19  H   UNL     1      -8.831  57.443 -18.014  1.00  0.00     0.293 HD
ENDBRANCH  15  18
BRANCH  17  20
ATOM     20  O   UNL     1      -8.235  56.000 -14.598  1.00  0.00    -0.504 OA
ATOM     21  H   UNL     1      -8.705  56.894 -14.677  1.00  0.00     0.293 HD
ENDBRANCH  17  20
ENDBRANCH   1  12
BRANCH   2  22
ATOM     22  O   UNL     1      -9.137  50.820 -17.526  1.00  0.00    -0.502 OA
ATOM     23  H   UNL     1      -9.217  51.212 -18.457  1.00  0.00     0.293 HD
ENDBRANCH   2  22
BRANCH   6  24
ATOM     24  O   UNL     1      -6.231  46.499 -16.408  1.00  0.00    -0.507 OA
ATOM     25  H   UNL     1      -6.696  45.793 -15.859  1.00  0.00     0.293 HD
ENDBRANCH   6  24
BRANCH   8  26
ATOM     26  O   UNL     1      -2.646  48.515 -13.930  1.00  0.00    -0.508 OA
ATOM     27  H   UNL     1      -1.738  48.662 -14.356  1.00  0.00     0.293 HD
ENDBRANCH   8  26
TORSDOF 6
ENDMDL
MODEL 4
REMARK VINA RESULT:    -6.668      3.081      5.190
REMARK INTER + INTRA:          -8.355
REMARK INTER:                  -8.081
REMARK INTRA:                  -0.273
REMARK UNBOUND:                -0.322
REMARK SMILES O=c1c(O)c(-c2ccc(O)c(O)c2)oc2cc(O)cc(O)c12
REMARK SMILES IDX 5 1 3 2 2 3 1 4 22 5 20 6 19 7 17 8 16 9 15 10 14 11 6 12
REMARK SMILES IDX 7 13 8 14 9 15 13 16 11 17 10 18 12 20 4 22 21 24 18 26
REMARK H PARENT 10 19 12 21 4 23 21 25 18 27
REMARK Flexibility Score: inf
ROOT
ATOM      1  C   UNL     1      -6.108  51.347 -15.338  1.00  0.00     0.180 A 
ATOM      2  C   UNL     1      -6.398  51.714 -16.663  1.00  0.00     0.208 A 
ATOM      3  C   UNL     1      -6.998  52.960 -16.909  1.00  0.00     0.238 A 
ATOM      4  O   UNL     1      -7.206  53.305 -18.103  1.00  0.00    -0.285 OA
ATOM      5  C   UNL     1      -7.314  53.816 -15.827  1.00  0.00     0.111 A 
ATOM      6  C   UNL     1      -7.959  55.082 -15.958  1.00  0.00     0.134 A 
ATOM      7  C   UNL     1      -8.103  55.902 -14.832  1.00  0.00     0.093 A 
ATOM      8  C   UNL     1      -7.687  55.473 -13.569  1.00  0.00     0.123 A 
ATOM      9  C   UNL     1      -7.110  54.213 -13.422  1.00  0.00     0.094 A 
ATOM     10  C   UNL     1      -6.919  53.388 -14.533  1.00  0.00     0.146 A 
ATOM     11  O   UNL     1      -6.356  52.199 -14.351  1.00  0.00    -0.452 OA
ENDROOT
BRANCH   1  12
ATOM     12  C   UNL     1      -5.500  50.041 -14.997  1.00  0.00     0.025 A 
ATOM     13  C   UNL     1      -4.132  49.926 -14.693  1.00  0.00     0.016 A 
ATOM     14  C   UNL     1      -3.576  48.679 -14.398  1.00  0.00     0.051 A 
ATOM     15  C   UNL     1      -4.374  47.528 -14.416  1.00  0.00     0.157 A 
ATOM     16  C   UNL     1      -6.291  48.880 -15.033  1.00  0.00     0.062 A 
ATOM     17  C   UNL     1      -5.733  47.628 -14.737  1.00  0.00     0.158 A 
BRANCH  15  18
ATOM     18  O   UNL     1      -3.823  46.282 -14.120  1.00  0.00    -0.504 OA
ATOM     19  H   UNL     1      -3.877  45.509 -14.773  1.00  0.00     0.293 HD
ENDBRANCH  15  18
BRANCH  17  20
ATOM     20  O   UNL     1      -6.524  46.480 -14.761  1.00  0.00    -0.504 OA
ATOM     21  H   UNL     1      -7.447  46.481 -15.177  1.00  0.00     0.293 HD
ENDBRANCH  17  20
ENDBRANCH   1  12
BRANCH   2  22
ATOM     22  O   UNL     1      -6.058  50.863 -17.719  1.00  0.00    -0.502 OA
ATOM     23  H   UNL     1      -6.594  50.820 -18.578  1.00  0.00     0.293 HD
ENDBRANCH   2  22
BRANCH   6  24
ATOM     24  O   UNL     1      -8.494  55.566 -17.155  1.00  0.00    -0.507 OA
ATOM     25  H   UNL     1      -7.989  56.126 -17.825  1.00  0.00     0.293 HD
ENDBRANCH   6  24
BRANCH   8  26
ATOM     26  O   UNL     1      -7.850  56.288 -12.452  1.00  0.00    -0.508 OA
ATOM     27  H   UNL     1      -7.583  55.977 -11.525  1.00  0.00     0.293 HD
ENDBRANCH   8  26
TORSDOF 6
ENDMDL
MODEL 5
REMARK VINA RESULT:    -6.629      2.851      7.722
REMARK INTER + INTRA:          -8.307
REMARK INTER:                  -8.007
REMARK INTRA:                  -0.300
REMARK UNBOUND:                -0.322
REMARK SMILES O=c1c(O)c(-c2ccc(O)c(O)c2)oc2cc(O)cc(O)c12
REMARK SMILES IDX 5 1 3 2 2 3 1 4 22 5 20 6 19 7 17 8 16 9 15 10 14 11 6 12
REMARK SMILES IDX 7 13 8 14 9 15 13 16 11 17 10 18 12 20 4 22 21 24 18 26
REMARK H PARENT 10 19 12 21 4 23 21 25 18 27
REMARK Flexibility Score: inf
ROOT
ATOM      1  C   UNL     1      -4.763  51.638 -12.961  1.00  0.00     0.180 A 
ATOM      2  C   UNL     1      -3.389  51.450 -13.189  1.00  0.00     0.208 A 
ATOM      3  C   UNL     1      -2.949  50.231 -13.730  1.00  0.00     0.238 A 
ATOM      4  O   UNL     1      -1.723  50.089 -13.982  1.00  0.00    -0.285 OA
ATOM      5  C   UNL     1      -3.886  49.210 -14.022  1.00  0.00     0.111 A 
ATOM      6  C   UNL     1      -3.547  47.922 -14.535  1.00  0.00     0.134 A 
ATOM      7  C   UNL     1      -4.567  47.039 -14.909  1.00  0.00     0.093 A 
ATOM      8  C   UNL     1      -5.912  47.371 -14.727  1.00  0.00     0.123 A 
ATOM      9  C   UNL     1      -6.250  48.603 -14.172  1.00  0.00     0.094 A 
ATOM     10  C   UNL     1      -5.256  49.520 -13.823  1.00  0.00     0.146 A 
ATOM     11  O   UNL     1      -5.623  50.687 -13.306  1.00  0.00    -0.452 OA
ENDROOT
BRANCH   1  12
ATOM     12  C   UNL     1      -5.300  52.885 -12.370  1.00  0.00     0.025 A 
ATOM     13  C   UNL     1      -5.644  52.961 -11.009  1.00  0.00     0.016 A 
ATOM     14  C   UNL     1      -6.172  54.141 -10.478  1.00  0.00     0.051 A 
ATOM     15  C   UNL     1      -6.376  55.256 -11.302  1.00  0.00     0.157 A 
ATOM     16  C   UNL     1      -5.526  53.999 -13.195  1.00  0.00     0.062 A 
ATOM     17  C   UNL     1      -6.056  55.184 -12.663  1.00  0.00     0.158 A 
BRANCH  15  18
ATOM     18  O   UNL     1      -6.901  56.436 -10.776  1.00  0.00    -0.504 OA
ATOM     19  H   UNL     1      -6.358  57.028 -10.158  1.00  0.00     0.293 HD
ENDBRANCH  15  18
BRANCH  17  20
ATOM     20  O   UNL     1      -6.267  56.292 -13.482  1.00  0.00    -0.504 OA
ATOM     21  H   UNL     1      -5.667  57.108 -13.435  1.00  0.00     0.293 HD
ENDBRANCH  17  20
ENDBRANCH   1  12
BRANCH   2  22
ATOM     22  O   UNL     1      -2.483  52.478 -12.914  1.00  0.00    -0.502 OA
ATOM     23  H   UNL     1      -2.682  53.216 -12.249  1.00  0.00     0.293 HD
ENDBRANCH   2  22
BRANCH   6  24
ATOM     24  O   UNL     1      -2.236  47.456 -14.670  1.00  0.00    -0.507 OA
ATOM     25  H   UNL     1      -1.587  47.339 -13.907  1.00  0.00     0.293 HD
ENDBRANCH   6  24
BRANCH   8  26
ATOM     26  O   UNL     1      -6.919  46.480 -15.088  1.00  0.00    -0.508 OA
ATOM     27  H   UNL     1      -7.831  46.804 -15.388  1.00  0.00     0.293 HD
ENDBRANCH   8  26
TORSDOF 6
ENDMDL
MODEL 6
REMARK VINA RESULT:    -6.462      3.125      5.115
REMARK INTER + INTRA:          -8.106
REMARK INTER:                  -7.844
REMARK INTRA:                  -0.262
REMARK UNBOUND:                -0.322
REMARK SMILES O=c1c(O)c(-c2ccc(O)c(O)c2)oc2cc(O)cc(O)c12
REMARK SMILES IDX 5 1 3 2 2 3 1 4 22 5 20 6 19 7 17 8 16 9 15 10 14 11 6 12
REMARK SMILES IDX 7 13 8 14 9 15 13 16 11 17 10 18 12 20 4 22 21 24 18 26
REMARK H PARENT 10 19 12 21 4 23 21 25 18 27
REMARK Flexibility Score: inf
ROOT
ATOM      1  C   UNL     1      -5.365  51.422 -13.524  1.00  0.00     0.180 A 
ATOM      2  C   UNL     1      -5.930  52.273 -14.490  1.00  0.00     0.208 A 
ATOM      3  C   UNL     1      -6.390  53.540 -14.096  1.00  0.00     0.238 A 
ATOM      4  O   UNL     1      -6.845  54.318 -14.975  1.00  0.00    -0.285 OA
ATOM      5  C   UNL     1      -6.291  53.935 -12.740  1.00  0.00     0.111 A 
ATOM      6  C   UNL     1      -6.761  55.179 -12.223  1.00  0.00     0.134 A 
ATOM      7  C   UNL     1      -6.493  55.518 -10.890  1.00  0.00     0.093 A 
ATOM      8  C   UNL     1      -5.832  54.628 -10.040  1.00  0.00     0.123 A 
ATOM      9  C   UNL     1      -5.422  53.387 -10.520  1.00  0.00     0.094 A 
ATOM     10  C   UNL     1      -5.642  53.036 -11.854  1.00  0.00     0.146 A 
ATOM     11  O   UNL     1      -5.227  51.846 -12.274  1.00  0.00    -0.452 OA
ENDROOT
BRANCH   1  12
ATOM     12  C   UNL     1      -4.883  50.063 -13.858  1.00  0.00     0.025 A 
ATOM     13  C   UNL     1      -3.511  49.787 -14.002  1.00  0.00     0.016 A 
ATOM     14  C   UNL     1      -3.081  48.501 -14.341  1.00  0.00     0.051 A 
ATOM     15  C   UNL     1      -4.013  47.477 -14.555  1.00  0.00     0.157 A 
ATOM     16  C   UNL     1      -5.814  49.037 -14.093  1.00  0.00     0.062 A 
ATOM     17  C   UNL     1      -5.383  47.747 -14.433  1.00  0.00     0.158 A 
BRANCH  15  18
ATOM     18  O   UNL     1      -3.588  46.193 -14.891  1.00  0.00    -0.504 OA
ATOM     19  H   UNL     1      -3.977  45.696 -15.683  1.00  0.00     0.293 HD
ENDBRANCH  15  18
BRANCH  17  20
ATOM     20  O   UNL     1      -6.309  46.728 -14.652  1.00  0.00    -0.504 OA
ATOM     21  H   UNL     1      -6.933  46.742 -15.450  1.00  0.00     0.293 HD
ENDBRANCH  17  20
ENDBRANCH   1  12
BRANCH   2  22
ATOM     22  O   UNL     1      -5.998  51.872 -15.827  1.00  0.00    -0.502 OA
ATOM     23  H   UNL     1      -5.315  51.251 -16.245  1.00  0.00     0.293 HD
ENDBRANCH   2  22
BRANCH   6  24
ATOM     24  O   UNL     1      -7.511  56.099 -12.962  1.00  0.00    -0.507 OA
ATOM     25  H   UNL     1      -7.136  56.703 -13.677  1.00  0.00     0.293 HD
ENDBRANCH   6  24
BRANCH   8  26
ATOM     26  O   UNL     1      -5.584  54.967  -8.712  1.00  0.00    -0.508 OA
ATOM     27  H   UNL     1      -4.739  54.667  -8.237  1.00  0.00     0.293 HD
ENDBRANCH   8  26
TORSDOF 6
ENDMDL
MODEL 7
REMARK VINA RESULT:    -6.457      8.393     11.361
REMARK INTER + INTRA:          -8.100
REMARK INTER:                  -7.805
REMARK INTRA:                  -0.295
REMARK UNBOUND:                -0.322
REMARK SMILES O=c1c(O)c(-c2ccc(O)c(O)c2)oc2cc(O)cc(O)c12
REMARK SMILES IDX 5 1 3 2 2 3 1 4 22 5 20 6 19 7 17 8 16 9 15 10 14 11 6 12
REMARK SMILES IDX 7 13 8 14 9 15 13 16 11 17 10 18 12 20 4 22 21 24 18 26
REMARK H PARENT 10 19 12 21 4 23 21 25 18 27
REMARK Flexibility Score: inf
ROOT
ATOM      1  C   UNL     1      -7.141  56.584  -9.421  1.00  0.00     0.180 A 
ATOM      2  C   UNL     1      -8.299  55.918  -8.984  1.00  0.00     0.208 A 
ATOM      3  C   UNL     1      -8.516  55.763  -7.605  1.00  0.00     0.238 A 
ATOM      4  O   UNL     1      -9.582  55.214  -7.219  1.00  0.00    -0.285 OA
ATOM      5  C   UNL     1      -7.566  56.263  -6.682  1.00  0.00     0.111 A 
ATOM      6  C   UNL     1      -7.666  56.127  -5.264  1.00  0.00     0.134 A 
ATOM      7  C   UNL     1      -6.735  56.774  -4.443  1.00  0.00     0.093 A 
ATOM      8  C   UNL     1      -5.671  57.497  -4.988  1.00  0.00     0.123 A 
ATOM      9  C   UNL     1      -5.533  57.586  -6.372  1.00  0.00     0.094 A 
ATOM     10  C   UNL     1      -6.466  56.981  -7.217  1.00  0.00     0.146 A 
ATOM     11  O   UNL     1      -6.303  57.098  -8.530  1.00  0.00    -0.452 OA
ENDROOT
BRANCH   1  12
ATOM     12  C   UNL     1      -6.830  56.763 -10.857  1.00  0.00     0.025 A 
ATOM     13  C   UNL     1      -7.128  57.962 -11.527  1.00  0.00     0.016 A 
ATOM     14  C   UNL     1      -6.848  58.100 -12.890  1.00  0.00     0.051 A 
ATOM     15  C   UNL     1      -6.279  57.037 -13.604  1.00  0.00     0.157 A 
ATOM     16  C   UNL     1      -6.278  55.694 -11.583  1.00  0.00     0.062 A 
ATOM     17  C   UNL     1      -5.996  55.831 -12.950  1.00  0.00     0.158 A 
BRANCH  15  18
ATOM     18  O   UNL     1      -5.996  57.171 -14.962  1.00  0.00    -0.504 OA
ATOM     19  H   UNL     1      -5.619  56.402 -15.504  1.00  0.00     0.293 HD
ENDBRANCH  15  18
BRANCH  17  20
ATOM     20  O   UNL     1      -5.436  54.773 -13.665  1.00  0.00    -0.504 OA
ATOM     21  H   UNL     1      -5.459  54.747 -14.677  1.00  0.00     0.293 HD
ENDBRANCH  17  20
ENDBRANCH   1  12
BRANCH   2  22
ATOM     22  O   UNL     1      -9.235  55.452  -9.912  1.00  0.00    -0.502 OA
ATOM     23  H   UNL     1      -8.992  54.803 -10.651  1.00  0.00     0.293 HD
ENDBRANCH   2  22
BRANCH   6  24
ATOM     24  O   UNL     1      -8.635  55.353  -4.620  1.00  0.00    -0.507 OA
ATOM     25  H   UNL     1      -8.445  54.693  -3.882  1.00  0.00     0.293 HD
ENDBRANCH   6  24
BRANCH   8  26
ATOM     26  O   UNL     1      -4.740  58.124  -4.164  1.00  0.00    -0.508 OA
ATOM     27  H   UNL     1      -4.337  59.022  -4.406  1.00  0.00     0.293 HD
ENDBRANCH   8  26
TORSDOF 6
ENDMDL
MODEL 8
REMARK VINA RESULT:    -6.272      2.848      6.851
REMARK INTER + INTRA:          -7.877
REMARK INTER:                  -7.691
REMARK INTRA:                  -0.186
REMARK UNBOUND:                -0.322
REMARK SMILES O=c1c(O)c(-c2ccc(O)c(O)c2)oc2cc(O)cc(O)c12
REMARK SMILES IDX 5 1 3 2 2 3 1 4 22 5 20 6 19 7 17 8 16 9 15 10 14 11 6 12
REMARK SMILES IDX 7 13 8 14 9 15 13 16 11 17 10 18 12 20 4 22 21 24 18 26
REMARK H PARENT 10 19 12 21 4 23 21 25 18 27
REMARK Flexibility Score: inf
ROOT
ATOM      1  C   UNL     1      -6.395  51.640 -14.668  1.00  0.00     0.180 A 
ATOM      2  C   UNL     1      -7.560  50.864 -14.537  1.00  0.00     0.208 A 
ATOM      3  C   UNL     1      -7.446  49.464 -14.517  1.00  0.00     0.238 A 
ATOM      4  O   UNL     1      -8.487  48.776 -14.345  1.00  0.00    -0.285 OA
ATOM      5  C   UNL     1      -6.173  48.858 -14.644  1.00  0.00     0.111 A 
ATOM      6  C   UNL     1      -5.946  47.449 -14.677  1.00  0.00     0.134 A 
ATOM      7  C   UNL     1      -4.633  46.962 -14.674  1.00  0.00     0.093 A 
ATOM      8  C   UNL     1      -3.541  47.833 -14.707  1.00  0.00     0.123 A 
ATOM      9  C   UNL     1      -3.754  49.209 -14.734  1.00  0.00     0.094 A 
ATOM     10  C   UNL     1      -5.052  49.726 -14.701  1.00  0.00     0.146 A 
ATOM     11  O   UNL     1      -5.210  51.044 -14.719  1.00  0.00    -0.452 OA
ENDROOT
BRANCH   1  12
ATOM     12  C   UNL     1      -6.437  53.119 -14.722  1.00  0.00     0.025 A 
ATOM     13  C   UNL     1      -5.927  53.905 -13.674  1.00  0.00     0.016 A 
ATOM     14  C   UNL     1      -5.999  55.299 -13.736  1.00  0.00     0.051 A 
ATOM     15  C   UNL     1      -6.593  55.927 -14.839  1.00  0.00     0.157 A 
ATOM     16  C   UNL     1      -7.049  53.753 -15.816  1.00  0.00     0.062 A 
ATOM     17  C   UNL     1      -7.122  55.152 -15.879  1.00  0.00     0.158 A 
BRANCH  15  18
ATOM     18  O   UNL     1      -6.665  57.318 -14.906  1.00  0.00    -0.504 OA
ATOM     19  H   UNL     1      -7.402  57.833 -14.441  1.00  0.00     0.293 HD
ENDBRANCH  15  18
BRANCH  17  20
ATOM     20  O   UNL     1      -7.718  55.779 -16.973  1.00  0.00    -0.504 OA
ATOM     21  H   UNL     1      -8.721  55.753 -17.117  1.00  0.00     0.293 HD
ENDBRANCH  17  20
ENDBRANCH   1  12
BRANCH   2  22
ATOM     22  O   UNL     1      -8.805  51.482 -14.390  1.00  0.00    -0.502 OA
ATOM     23  H   UNL     1      -8.997  52.154 -13.657  1.00  0.00     0.293 HD
ENDBRANCH   2  22
BRANCH   6  24
ATOM     24  O   UNL     1      -6.966  46.496 -14.740  1.00  0.00    -0.507 OA
ATOM     25  H   UNL     1      -7.001  45.655 -14.184  1.00  0.00     0.293 HD
ENDBRANCH   6  24
BRANCH   8  26
ATOM     26  O   UNL     1      -2.239  47.339 -14.720  1.00  0.00    -0.508 OA
ATOM     27  H   UNL     1      -1.653  47.411 -15.544  1.00  0.00     0.293 HD
ENDBRANCH   8  26
TORSDOF 6
ENDMDL
MODEL 9
REMARK VINA RESULT:    -6.247      3.052      5.467
REMARK INTER + INTRA:          -7.847
REMARK INTER:                  -7.530
REMARK INTRA:                  -0.317
REMARK UNBOUND:                -0.322
REMARK SMILES O=c1c(O)c(-c2ccc(O)c(O)c2)oc2cc(O)cc(O)c12
REMARK SMILES IDX 5 1 3 2 2 3 1 4 22 5 20 6 19 7 17 8 16 9 15 10 14 11 6 12
REMARK SMILES IDX 7 13 8 14 9 15 13 16 11 17 10 18 12 20 4 22 21 24 18 26
REMARK H PARENT 10 19 12 21 4 23 21 25 18 27
REMARK Flexibility Score: inf
ROOT
ATOM      1  C   UNL     1      -5.949  51.428 -14.270  1.00  0.00     0.180 A 
ATOM      2  C   UNL     1      -6.157  52.109 -13.058  1.00  0.00     0.208 A 
ATOM      3  C   UNL     1      -6.725  53.393 -13.086  1.00  0.00     0.238 A 
ATOM      4  O   UNL     1      -6.958  53.975 -11.994  1.00  0.00    -0.285 OA
ATOM      5  C   UNL     1      -7.064  53.986 -14.327  1.00  0.00     0.111 A 
ATOM      6  C   UNL     1      -7.608  55.298 -14.475  1.00  0.00     0.134 A 
ATOM      7  C   UNL     1      -8.027  55.731 -15.739  1.00  0.00     0.093 A 
ATOM      8  C   UNL     1      -7.860  54.926 -16.869  1.00  0.00     0.123 A 
ATOM      9  C   UNL     1      -7.276  53.668 -16.742  1.00  0.00     0.094 A 
ATOM     10  C   UNL     1      -6.881  53.193 -15.489  1.00  0.00     0.146 A 
ATOM     11  O   UNL     1      -6.338  51.984 -15.411  1.00  0.00    -0.452 OA
ENDROOT
BRANCH   1  12
ATOM     12  C   UNL     1      -5.332  50.084 -14.322  1.00  0.00     0.025 A 
ATOM     13  C   UNL     1      -3.938  49.915 -14.261  1.00  0.00     0.016 A 
ATOM     14  C   UNL     1      -3.376  48.637 -14.337  1.00  0.00     0.051 A 
ATOM     15  C   UNL     1      -4.198  47.513 -14.488  1.00  0.00     0.157 A 
ATOM     16  C   UNL     1      -6.150  48.954 -14.494  1.00  0.00     0.062 A 
ATOM     17  C   UNL     1      -5.587  47.672 -14.570  1.00  0.00     0.158 A 
BRANCH  15  18
ATOM     18  O   UNL     1      -3.642  46.236 -14.562  1.00  0.00    -0.504 OA
ATOM     19  H   UNL     1      -4.220  45.412 -14.671  1.00  0.00     0.293 HD
ENDBRANCH  15  18
BRANCH  17  20
ATOM     20  O   UNL     1      -6.402  46.552 -14.727  1.00  0.00    -0.504 OA
ATOM     21  H   UNL     1      -6.741  46.027 -13.929  1.00  0.00     0.293 HD
ENDBRANCH  17  20
ENDBRANCH   1  12
BRANCH   2  22
ATOM     22  O   UNL     1      -5.835  51.496 -11.843  1.00  0.00    -0.502 OA
ATOM     23  H   UNL     1      -6.138  51.866 -10.950  1.00  0.00     0.293 HD
ENDBRANCH   2  22
BRANCH   6  24
ATOM     24  O   UNL     1      -7.732  56.215 -13.428  1.00  0.00    -0.507 OA
ATOM     25  H   UNL     1      -8.216  57.097 -13.492  1.00  0.00     0.293 HD
ENDBRANCH   6  24
BRANCH   8  26
ATOM     26  O   UNL     1      -8.265  55.372 -18.125  1.00  0.00    -0.508 OA
ATOM     27  H   UNL     1      -8.514  54.723 -18.863  1.00  0.00     0.293 HD
ENDBRANCH   8  26
TORSDOF 6
ENDMDL
