MODEL 1
REMARK VINA RESULT:    -3.517      0.000      0.000
REMARK INTER + INTRA:          -8.133
REMARK INTER:                  -6.807
REMARK INTRA:                  -1.326
REMARK UNBOUND:                -1.326
REMARK SMILES CCCCCCCCCCCCCCCCCC(=O)[O-]
REMARK SMILES IDX 10 1 11 2 12 3 13 4 14 5 15 6 16 7 17 8 18 9 19 10 20 11
REMARK SMILES IDX 9 12 8 13 7 14 6 15 5 16 4 17 3 18 2 19 1 20
REMARK H PARENT
REMARK Flexibility Score: inf
ROOT
ATOM      1  C   UNL     1      -2.289 -50.506   2.214  1.00  0.00     0.000 C 
ENDROOT
BRANCH   1   2
ATOM      2  C   UNL     1      -2.410 -50.576   0.680  1.00  0.00     0.000 C 
BRANCH   2   3
ATOM      3  C   UNL     1      -3.430 -51.601   0.150  1.00  0.00     0.000 C 
BRANCH   3   4
ATOM      4  C   UNL     1      -4.749 -50.956  -0.302  1.00  0.00     0.000 C 
BRANCH   4   5
ATOM      5  C   UNL     1      -5.954 -51.679   0.319  1.00  0.00     0.000 C 
BRANCH   5   6
ATOM      6  C   UNL     1      -5.697 -52.125   1.767  1.00  0.00     0.000 C 
BRANCH   6   7
ATOM      7  C   UNL     1      -6.972 -52.102   2.629  1.00  0.00     0.006 C 
BRANCH   7   8
ATOM      8  C   UNL     1      -6.665 -51.833   4.108  1.00  0.00     0.053 C 
BRANCH   8   9
ATOM      9  C   UNL     1      -7.861 -51.305   4.838  1.00  0.00     0.041 C 
ATOM     10  O   UNL     1      -8.598 -52.085   5.498  1.00  0.00    -0.550 OA
ATOM     11  O   UNL     1      -8.148 -49.945   4.813  1.00  0.00    -0.550 OA
ENDBRANCH   8   9
ENDBRANCH   7   8
ENDBRANCH   6   7
ENDBRANCH   5   6
ENDBRANCH   4   5
ENDBRANCH   3   4
ENDBRANCH   2   3
ENDBRANCH   1   2
BRANCH   1  12
ATOM     12  C   UNL     1      -1.462 -51.663   2.802  1.00  0.00     0.000 C 
BRANCH  12  13
ATOM     13  C   UNL     1      -1.523 -51.707   4.338  1.00  0.00    -0.000 C 
BRANCH  13  14
ATOM     14  C   UNL     1      -2.960 -51.854   4.868  1.00  0.00    -0.000 C 
BRANCH  14  15
ATOM     15  C   UNL     1      -3.128 -51.281   6.286  1.00  0.00    -0.000 C 
BRANCH  15  16
ATOM     16  C   UNL     1      -2.335 -52.071   7.341  1.00  0.00    -0.000 C 
BRANCH  16  17
ATOM     17  C   UNL     1      -2.877 -51.864   8.765  1.00  0.00    -0.000 C 
BRANCH  17  18
ATOM     18  C   UNL     1      -4.144 -50.997   8.800  1.00  0.00    -0.000 C 
BRANCH  18  19
ATOM     19  C   UNL     1      -5.139 -51.521   9.842  1.00  0.00    -0.003 C 
ATOM     20  C   UNL     1      -6.522 -50.908   9.643  1.00  0.00     0.004 C 
ENDBRANCH  18  19
ENDBRANCH  17  18
ENDBRANCH  16  17
ENDBRANCH  15  16
ENDBRANCH  14  15
ENDBRANCH  13  14
ENDBRANCH  12  13
ENDBRANCH   1  12
TORSDOF 16
ENDMDL
MODEL 2
REMARK VINA RESULT:    -3.365      1.613      6.219
REMARK INTER + INTRA:          -7.840
REMARK INTER:                  -6.631
REMARK INTRA:                  -1.209
REMARK UNBOUND:                -1.326
REMARK SMILES CCCCCCCCCCCCCCCCCC(=O)[O-]
REMARK SMILES IDX 10 1 11 2 12 3 13 4 14 5 15 6 16 7 17 8 18 9 19 10 20 11
REMARK SMILES IDX 9 12 8 13 7 14 6 15 5 16 4 17 3 18 2 19 1 20
REMARK H PARENT
REMARK Flexibility Score: inf
ROOT
ATOM      1  C   UNL     1      -2.886 -52.125   3.407  1.00  0.00     0.000 C 
ENDROOT
BRANCH   1   2
ATOM      2  C   UNL     1      -2.240 -51.758   4.756  1.00  0.00     0.000 C 
BRANCH   2   3
ATOM      3  C   UNL     1      -3.214 -51.232   5.827  1.00  0.00     0.000 C 
BRANCH   3   4
ATOM      4  C   UNL     1      -2.524 -50.915   7.162  1.00  0.00     0.000 C 
BRANCH   4   5
ATOM      5  C   UNL     1      -2.579 -52.123   8.108  1.00  0.00     0.000 C 
BRANCH   5   6
ATOM      6  C   UNL     1      -3.042 -51.747   9.525  1.00  0.00     0.000 C 
BRANCH   6   7
ATOM      7  C   UNL     1      -4.546 -51.988   9.740  1.00  0.00     0.006 C 
BRANCH   7   8
ATOM      8  C   UNL     1      -5.340 -50.675   9.787  1.00  0.00     0.053 C 
BRANCH   8   9
ATOM      9  C   UNL     1      -6.580 -50.744   8.949  1.00  0.00     0.041 C 
ATOM     10  O   UNL     1      -7.590 -50.055   9.251  1.00  0.00    -0.550 OA
ATOM     11  O   UNL     1      -6.610 -51.549   7.816  1.00  0.00    -0.550 OA
ENDBRANCH   8   9
ENDBRANCH   7   8
ENDBRANCH   6   7
ENDBRANCH   5   6
ENDBRANCH   4   5
ENDBRANCH   3   4
ENDBRANCH   2   3
ENDBRANCH   1   2
BRANCH   1  12
ATOM     12  C   UNL     1      -2.503 -51.155   2.276  1.00  0.00     0.000 C 
BRANCH  12  13
ATOM     13  C   UNL     1      -3.695 -50.808   1.368  1.00  0.00    -0.000 C 
BRANCH  13  14
ATOM     14  C   UNL     1      -4.771 -51.909   1.362  1.00  0.00    -0.000 C 
BRANCH  14  15
ATOM     15  C   UNL     1      -5.556 -51.959   0.040  1.00  0.00    -0.000 C 
BRANCH  15  16
ATOM     16  C   UNL     1      -7.077 -52.025   0.259  1.00  0.00    -0.000 C 
BRANCH  16  17
ATOM     17  C   UNL     1      -7.476 -51.788   1.724  1.00  0.00    -0.000 C 
BRANCH  17  18
ATOM     18  C   UNL     1      -8.531 -50.683   1.883  1.00  0.00    -0.000 C 
BRANCH  18  19
ATOM     19  C   UNL     1      -8.775 -50.366   3.363  1.00  0.00    -0.003 C 
ATOM     20  C   UNL     1      -7.727 -51.033   4.250  1.00  0.00     0.004 C 
ENDBRANCH  18  19
ENDBRANCH  17  18
ENDBRANCH  16  17
ENDBRANCH  15  16
ENDBRANCH  14  15
ENDBRANCH  13  14
ENDBRANCH  12  13
ENDBRANCH   1  12
TORSDOF 16
ENDMDL
MODEL 3
REMARK VINA RESULT:    -3.158      1.875      5.883
REMARK INTER + INTRA:          -7.439
REMARK INTER:                  -5.850
REMARK INTRA:                  -1.588
REMARK UNBOUND:                -1.326
REMARK SMILES CCCCCCCCCCCCCCCCCC(=O)[O-]
REMARK SMILES IDX 10 1 11 2 12 3 13 4 14 5 15 6 16 7 17 8 18 9 19 10 20 11
REMARK SMILES IDX 9 12 8 13 7 14 6 15 5 16 4 17 3 18 2 19 1 20
REMARK H PARENT
REMARK Flexibility Score: inf
ROOT
ATOM      1  C   UNL     1      -2.569 -51.666   2.267  1.00  0.00     0.000 C 
ENDROOT
BRANCH   1   2
ATOM      2  C   UNL     1      -3.475 -52.001   3.466  1.00  0.00     0.000 C 
BRANCH   2   3
ATOM      3  C   UNL     1      -3.143 -51.249   4.768  1.00  0.00     0.000 C 
BRANCH   3   4
ATOM      4  C   UNL     1      -1.812 -51.693   5.395  1.00  0.00     0.000 C 
BRANCH   4   5
ATOM      5  C   UNL     1      -1.642 -51.097   6.800  1.00  0.00     0.000 C 
BRANCH   5   6
ATOM      6  C   UNL     1      -1.890 -52.125   7.916  1.00  0.00     0.000 C 
BRANCH   6   7
ATOM      7  C   UNL     1      -2.988 -51.679   8.898  1.00  0.00     0.006 C 
BRANCH   7   8
ATOM      8  C   UNL     1      -4.394 -51.836   8.304  1.00  0.00     0.053 C 
BRANCH   8   9
ATOM      9  C   UNL     1      -5.423 -51.101   9.107  1.00  0.00     0.041 C 
ATOM     10  O   UNL     1      -6.628 -51.467   9.081  1.00  0.00    -0.550 OA
ATOM     11  O   UNL     1      -5.046 -50.030   9.907  1.00  0.00    -0.550 OA
ENDBRANCH   8   9
ENDBRANCH   7   8
ENDBRANCH   6   7
ENDBRANCH   5   6
ENDBRANCH   4   5
ENDBRANCH   3   4
ENDBRANCH   2   3
ENDBRANCH   1   2
BRANCH   1  12
ATOM     12  C   UNL     1      -3.267 -51.873   0.912  1.00  0.00     0.000 C 
BRANCH  12  13
ATOM     13  C   UNL     1      -3.788 -50.557   0.311  1.00  0.00    -0.000 C 
BRANCH  13  14
ATOM     14  C   UNL     1      -5.216 -50.688  -0.248  1.00  0.00    -0.000 C 
BRANCH  14  15
ATOM     15  C   UNL     1      -5.791 -52.105  -0.074  1.00  0.00    -0.000 C 
BRANCH  15  16
ATOM     16  C   UNL     1      -7.069 -52.124   0.781  1.00  0.00    -0.000 C 
BRANCH  16  17
ATOM     17  C   UNL     1      -6.813 -51.704   2.238  1.00  0.00    -0.000 C 
BRANCH  17  18
ATOM     18  C   UNL     1      -8.003 -50.955   2.859  1.00  0.00    -0.000 C 
BRANCH  18  19
ATOM     19  C   UNL     1      -8.231 -51.396   4.310  1.00  0.00    -0.003 C 
ATOM     20  C   UNL     1      -6.988 -52.071   4.883  1.00  0.00     0.004 C 
ENDBRANCH  18  19
ENDBRANCH  17  18
ENDBRANCH  16  17
ENDBRANCH  15  16
ENDBRANCH  14  15
ENDBRANCH  13  14
ENDBRANCH  12  13
ENDBRANCH   1  12
TORSDOF 16
ENDMDL
MODEL 4
REMARK VINA RESULT:    -2.864      1.356      2.075
REMARK INTER + INTRA:          -6.869
REMARK INTER:                  -6.864
REMARK INTRA:                  -0.005
REMARK UNBOUND:                -1.326
REMARK SMILES CCCCCCCCCCCCCCCCCC(=O)[O-]
REMARK SMILES IDX 10 1 11 2 12 3 13 4 14 5 15 6 16 7 17 8 18 9 19 10 20 11
REMARK SMILES IDX 9 12 8 13 7 14 6 15 5 16 4 17 3 18 2 19 1 20
REMARK H PARENT
REMARK Flexibility Score: inf
ROOT
ATOM      1  C   UNL     1      -2.943 -51.033   2.901  1.00  0.00     0.000 C 
ENDROOT
BRANCH   1   2
ATOM      2  C   UNL     1      -1.602 -51.022   2.144  1.00  0.00     0.000 C 
BRANCH   2   3
ATOM      3  C   UNL     1      -1.549 -51.918   0.893  1.00  0.00     0.000 C 
BRANCH   3   4
ATOM      4  C   UNL     1      -2.649 -51.589  -0.128  1.00  0.00     0.000 C 
BRANCH   4   5
ATOM      5  C   UNL     1      -3.702 -50.653   0.483  1.00  0.00     0.000 C 
BRANCH   5   6
ATOM      6  C   UNL     1      -5.101 -50.859  -0.121  1.00  0.00     0.000 C 
BRANCH   6   7
ATOM      7  C   UNL     1      -5.796 -52.124   0.412  1.00  0.00     0.006 C 
BRANCH   7   8
ATOM      8  C   UNL     1      -7.250 -51.856   0.820  1.00  0.00     0.053 C 
BRANCH   8   9
ATOM      9  C   UNL     1      -7.389 -51.679   2.301  1.00  0.00     0.041 C 
ATOM     10  O   UNL     1      -8.526 -51.507   2.816  1.00  0.00    -0.550 OA
ATOM     11  O   UNL     1      -6.265 -51.732   3.116  1.00  0.00    -0.550 OA
ENDBRANCH   8   9
ENDBRANCH   7   8
ENDBRANCH   6   7
ENDBRANCH   5   6
ENDBRANCH   4   5
ENDBRANCH   3   4
ENDBRANCH   2   3
ENDBRANCH   1   2
BRANCH   1  12
ATOM     12  C   UNL     1      -2.837 -51.664   4.300  1.00  0.00     0.000 C 
BRANCH  12  13
ATOM     13  C   UNL     1      -1.450 -51.462   4.933  1.00  0.00    -0.000 C 
BRANCH  13  14
ATOM     14  C   UNL     1      -1.423 -51.835   6.426  1.00  0.00    -0.000 C 
BRANCH  14  15
ATOM     15  C   UNL     1      -2.825 -52.124   6.988  1.00  0.00    -0.000 C 
BRANCH  15  16
ATOM     16  C   UNL     1      -3.298 -51.049   7.981  1.00  0.00    -0.000 C 
BRANCH  16  17
ATOM     17  C   UNL     1      -4.008 -51.646   9.207  1.00  0.00    -0.000 C 
BRANCH  17  18
ATOM     18  C   UNL     1      -5.033 -50.685   9.828  1.00  0.00    -0.000 C 
BRANCH  18  19
ATOM     19  C   UNL     1      -6.452 -51.256   9.728  1.00  0.00    -0.003 C 
ATOM     20  C   UNL     1      -7.396 -50.272   9.042  1.00  0.00     0.004 C 
ENDBRANCH  18  19
ENDBRANCH  17  18
ENDBRANCH  16  17
ENDBRANCH  15  16
ENDBRANCH  14  15
ENDBRANCH  13  14
ENDBRANCH  12  13
ENDBRANCH   1  12
TORSDOF 16
ENDMDL
MODEL 5
REMARK VINA RESULT:    -2.649      3.157      5.282
REMARK INTER + INTRA:          -6.454
REMARK INTER:                  -4.736
REMARK INTRA:                  -1.718
REMARK UNBOUND:                -1.326
REMARK SMILES CCCCCCCCCCCCCCCCCC(=O)[O-]
REMARK SMILES IDX 10 1 11 2 12 3 13 4 14 5 15 6 16 7 17 8 18 9 19 10 20 11
REMARK SMILES IDX 9 12 8 13 7 14 6 15 5 16 4 17 3 18 2 19 1 20
REMARK H PARENT
REMARK Flexibility Score: inf
ROOT
ATOM      1  C   UNL     1      -8.699 -50.857   3.474  1.00  0.00     0.000 C 
ENDROOT
BRANCH   1   2
ATOM      2  C   UNL     1      -8.116 -50.215   2.202  1.00  0.00     0.000 C 
BRANCH   2   3
ATOM      3  C   UNL     1      -7.698 -51.207   1.101  1.00  0.00     0.000 C 
BRANCH   3   4
ATOM      4  C   UNL     1      -6.446 -50.757   0.332  1.00  0.00     0.000 C 
BRANCH   4   5
ATOM      5  C   UNL     1      -5.574 -51.962  -0.051  1.00  0.00     0.000 C 
BRANCH   5   6
ATOM      6  C   UNL     1      -4.347 -52.120   0.860  1.00  0.00     0.000 C 
BRANCH   6   7
ATOM      7  C   UNL     1      -3.266 -51.059   0.588  1.00  0.00     0.006 C 
BRANCH   7   8
ATOM      8  C   UNL     1      -2.195 -51.562  -0.389  1.00  0.00     0.053 C 
BRANCH   8   9
ATOM      9  C   UNL     1      -0.893 -51.829   0.301  1.00  0.00     0.041 C 
ATOM     10  O   UNL     1       0.185 -51.810  -0.349  1.00  0.00    -0.550 OA
ATOM     11  O   UNL     1      -0.868 -52.069   1.669  1.00  0.00    -0.550 OA
ENDBRANCH   8   9
ENDBRANCH   7   8
ENDBRANCH   6   7
ENDBRANCH   5   6
ENDBRANCH   4   5
ENDBRANCH   3   4
ENDBRANCH   2   3
ENDBRANCH   1   2
BRANCH   1  12
ATOM     12  C   UNL     1      -7.931 -52.115   3.917  1.00  0.00     0.000 C 
BRANCH  12  13
ATOM     13  C   UNL     1      -7.469 -52.038   5.381  1.00  0.00    -0.000 C 
BRANCH  13  14
ATOM     14  C   UNL     1      -5.939 -52.124   5.522  1.00  0.00    -0.000 C 
BRANCH  14  15
ATOM     15  C   UNL     1      -5.199 -51.365   4.407  1.00  0.00    -0.000 C 
BRANCH  15  16
ATOM     16  C   UNL     1      -3.712 -51.748   4.316  1.00  0.00    -0.000 C 
BRANCH  16  17
ATOM     17  C   UNL     1      -3.090 -52.033   5.692  1.00  0.00    -0.000 C 
BRANCH  17  18
ATOM     18  C   UNL     1      -2.512 -50.774   6.356  1.00  0.00    -0.000 C 
BRANCH  18  19
ATOM     19  C   UNL     1      -2.381 -50.964   7.872  1.00  0.00    -0.003 C 
ATOM     20  C   UNL     1      -3.747 -50.935   8.552  1.00  0.00     0.004 C 
ENDBRANCH  18  19
ENDBRANCH  17  18
ENDBRANCH  16  17
ENDBRANCH  15  16
ENDBRANCH  14  15
ENDBRANCH  13  14
ENDBRANCH  12  13
ENDBRANCH   1  12
TORSDOF 16
ENDMDL
MODEL 6
REMARK VINA RESULT:    -2.499      1.747      6.710
REMARK INTER + INTRA:          -6.163
REMARK INTER:                  -4.829
REMARK INTRA:                  -1.334
REMARK UNBOUND:                -1.326
REMARK SMILES CCCCCCCCCCCCCCCCCC(=O)[O-]
REMARK SMILES IDX 10 1 11 2 12 3 13 4 14 5 15 6 16 7 17 8 18 9 19 10 20 11
REMARK SMILES IDX 9 12 8 13 7 14 6 15 5 16 4 17 3 18 2 19 1 20
REMARK H PARENT
REMARK Flexibility Score: inf
ROOT
ATOM      1  C   UNL     1      -3.570 -51.134   4.178  1.00  0.00     0.000 C 
ENDROOT
BRANCH   1   2
ATOM      2  C   UNL     1      -3.266 -50.797   5.649  1.00  0.00     0.000 C 
BRANCH   2   3
ATOM      3  C   UNL     1      -1.930 -51.344   6.184  1.00  0.00     0.000 C 
BRANCH   3   4
ATOM      4  C   UNL     1      -1.880 -51.412   7.718  1.00  0.00     0.000 C 
BRANCH   4   5
ATOM      5  C   UNL     1      -3.122 -52.122   8.276  1.00  0.00     0.000 C 
BRANCH   5   6
ATOM      6  C   UNL     1      -3.600 -51.521   9.608  1.00  0.00     0.000 C 
BRANCH   6   7
ATOM      7  C   UNL     1      -4.838 -50.621   9.441  1.00  0.00     0.006 C 
BRANCH   7   8
ATOM      8  C   UNL     1      -6.113 -51.287   9.976  1.00  0.00     0.053 C 
BRANCH   8   9
ATOM      9  C   UNL     1      -7.313 -50.931   9.154  1.00  0.00     0.041 C 
ATOM     10  O   UNL     1      -7.418 -51.346   7.969  1.00  0.00    -0.550 OA
ATOM     11  O   UNL     1      -8.331 -50.164   9.706  1.00  0.00    -0.550 OA
ENDBRANCH   8   9
ENDBRANCH   7   8
ENDBRANCH   6   7
ENDBRANCH   5   6
ENDBRANCH   4   5
ENDBRANCH   3   4
ENDBRANCH   2   3
ENDBRANCH   1   2
BRANCH   1  12
ATOM     12  C   UNL     1      -4.736 -52.125   4.018  1.00  0.00     0.000 C 
BRANCH  12  13
ATOM     13  C   UNL     1      -5.985 -51.696   4.806  1.00  0.00    -0.000 C 
BRANCH  13  14
ATOM     14  C   UNL     1      -7.293 -52.119   4.115  1.00  0.00    -0.000 C 
BRANCH  14  15
ATOM     15  C   UNL     1      -8.303 -50.965   4.002  1.00  0.00    -0.000 C 
BRANCH  15  16
ATOM     16  C   UNL     1      -8.505 -50.494   2.551  1.00  0.00    -0.000 C 
BRANCH  16  17
ATOM     17  C   UNL     1      -8.733 -51.662   1.577  1.00  0.00    -0.000 C 
BRANCH  17  18
ATOM     18  C   UNL     1      -7.440 -52.125   0.889  1.00  0.00    -0.000 C 
BRANCH  18  19
ATOM     19  C   UNL     1      -6.394 -51.003   0.876  1.00  0.00    -0.003 C 
ATOM     20  C   UNL     1      -5.077 -51.483   0.273  1.00  0.00     0.004 C 
ENDBRANCH  18  19
ENDBRANCH  17  18
ENDBRANCH  16  17
ENDBRANCH  15  16
ENDBRANCH  14  15
ENDBRANCH  13  14
ENDBRANCH  12  13
ENDBRANCH   1  12
TORSDOF 16
ENDMDL
MODEL 7
REMARK VINA RESULT:    -2.289      2.628      7.384
REMARK INTER + INTRA:          -5.756
REMARK INTER:                  -4.687
REMARK INTRA:                  -1.069
REMARK UNBOUND:                -1.326
REMARK SMILES CCCCCCCCCCCCCCCCCC(=O)[O-]
REMARK SMILES IDX 10 1 11 2 12 3 13 4 14 5 15 6 16 7 17 8 18 9 19 10 20 11
REMARK SMILES IDX 9 12 8 13 7 14 6 15 5 16 4 17 3 18 2 19 1 20
REMARK H PARENT
REMARK Flexibility Score: inf
ROOT
ATOM      1  C   UNL     1      -9.025 -51.750   3.072  1.00  0.00     0.000 C 
ENDROOT
BRANCH   1   2
ATOM      2  C   UNL     1      -8.947 -51.919   4.601  1.00  0.00     0.000 C 
BRANCH   2   3
ATOM      3  C   UNL     1      -7.524 -52.064   5.172  1.00  0.00     0.000 C 
BRANCH   3   4
ATOM      4  C   UNL     1      -7.302 -51.234   6.446  1.00  0.00     0.000 C 
BRANCH   4   5
ATOM      5  C   UNL     1      -7.569 -52.076   7.703  1.00  0.00     0.000 C 
BRANCH   5   6
ATOM      6  C   UNL     1      -6.549 -51.812   8.822  1.00  0.00     0.000 C 
BRANCH   6   7
ATOM      7  C   UNL     1      -5.105 -52.125   8.392  1.00  0.00     0.006 C 
BRANCH   7   8
ATOM      8  C   UNL     1      -4.115 -51.055   8.873  1.00  0.00     0.053 C 
BRANCH   8   9
ATOM      9  C   UNL     1      -2.751 -51.257   8.289  1.00  0.00     0.041 C 
ATOM     10  O   UNL     1      -1.734 -51.253   9.033  1.00  0.00    -0.550 OA
ATOM     11  O   UNL     1      -2.604 -51.478   6.925  1.00  0.00    -0.550 OA
ENDBRANCH   8   9
ENDBRANCH   7   8
ENDBRANCH   6   7
ENDBRANCH   5   6
ENDBRANCH   4   5
ENDBRANCH   3   4
ENDBRANCH   2   3
ENDBRANCH   1   2
BRANCH   1  12
ATOM     12  C   UNL     1      -8.279 -50.501   2.569  1.00  0.00     0.000 C 
BRANCH  12  13
ATOM     13  C   UNL     1      -7.872 -50.615   1.091  1.00  0.00    -0.000 C 
BRANCH  13  14
ATOM     14  C   UNL     1      -7.358 -52.018   0.727  1.00  0.00    -0.000 C 
BRANCH  14  15
ATOM     15  C   UNL     1      -5.824 -52.119   0.784  1.00  0.00    -0.000 C 
BRANCH  15  16
ATOM     16  C   UNL     1      -5.127 -50.922   0.113  1.00  0.00    -0.000 C 
BRANCH  16  17
ATOM     17  C   UNL     1      -3.598 -51.079   0.065  1.00  0.00    -0.000 C 
BRANCH  17  18
ATOM     18  C   UNL     1      -2.972 -51.233   1.460  1.00  0.00    -0.000 C 
BRANCH  18  19
ATOM     19  C   UNL     1      -1.441 -51.219   1.377  1.00  0.00    -0.003 C 
ATOM     20  C   UNL     1      -0.960 -51.582  -0.025  1.00  0.00     0.004 C 
ENDBRANCH  18  19
ENDBRANCH  17  18
ENDBRANCH  16  17
ENDBRANCH  15  16
ENDBRANCH  14  15
ENDBRANCH  13  14
ENDBRANCH  12  13
ENDBRANCH   1  12
TORSDOF 16
ENDMDL
MODEL 8
REMARK VINA RESULT:    -2.213      2.179      5.087
REMARK INTER + INTRA:          -5.610
REMARK INTER:                  -5.015
REMARK INTRA:                  -0.595
REMARK UNBOUND:                -1.326
REMARK SMILES CCCCCCCCCCCCCCCCCC(=O)[O-]
REMARK SMILES IDX 10 1 11 2 12 3 13 4 14 5 15 6 16 7 17 8 18 9 19 10 20 11
REMARK SMILES IDX 9 12 8 13 7 14 6 15 5 16 4 17 3 18 2 19 1 20
REMARK H PARENT
REMARK Flexibility Score: inf
ROOT
ATOM      1  C   UNL     1      -3.836 -51.031   0.788  1.00  0.00     0.000 C 
ENDROOT
BRANCH   1   2
ATOM      2  C   UNL     1      -2.362 -51.406   0.546  1.00  0.00     0.000 C 
BRANCH   2   3
ATOM      3  C   UNL     1      -1.427 -51.201   1.752  1.00  0.00     0.000 C 
BRANCH   3   4
ATOM      4  C   UNL     1      -1.831 -52.041   2.973  1.00  0.00     0.000 C 
BRANCH   4   5
ATOM      5  C   UNL     1      -3.310 -51.825   3.324  1.00  0.00     0.000 C 
BRANCH   5   6
ATOM      6  C   UNL     1      -3.503 -51.114   4.673  1.00  0.00     0.000 C 
BRANCH   6   7
ATOM      7  C   UNL     1      -3.356 -52.068   5.872  1.00  0.00     0.006 C 
BRANCH   7   8
ATOM      8  C   UNL     1      -2.600 -51.419   7.039  1.00  0.00     0.053 C 
BRANCH   8   9
ATOM      9  C   UNL     1      -3.462 -51.291   8.257  1.00  0.00     0.041 C 
ATOM     10  O   UNL     1      -4.408 -50.460   8.281  1.00  0.00    -0.550 OA
ATOM     11  O   UNL     1      -3.238 -52.110   9.357  1.00  0.00    -0.550 OA
ENDBRANCH   8   9
ENDBRANCH   7   8
ENDBRANCH   6   7
ENDBRANCH   5   6
ENDBRANCH   4   5
ENDBRANCH   3   4
ENDBRANCH   2   3
ENDBRANCH   1   2
BRANCH   1  12
ATOM     12  C   UNL     1      -4.820 -52.008   0.122  1.00  0.00     0.000 C 
BRANCH  12  13
ATOM     13  C   UNL     1      -6.015 -51.291  -0.525  1.00  0.00    -0.000 C 
BRANCH  13  14
ATOM     14  C   UNL     1      -7.112 -50.934   0.493  1.00  0.00    -0.000 C 
BRANCH  14  15
ATOM     15  C   UNL     1      -7.500 -52.125   1.386  1.00  0.00    -0.000 C 
BRANCH  15  16
ATOM     16  C   UNL     1      -6.978 -51.980   2.826  1.00  0.00    -0.000 C 
BRANCH  16  17
ATOM     17  C   UNL     1      -7.812 -50.994   3.660  1.00  0.00    -0.000 C 
BRANCH  17  18
ATOM     18  C   UNL     1      -8.339 -51.614   4.963  1.00  0.00    -0.000 C 
BRANCH  18  19
ATOM     19  C   UNL     1      -7.624 -51.018   6.182  1.00  0.00    -0.003 C 
ATOM     20  C   UNL     1      -7.128 -52.114   7.122  1.00  0.00     0.004 C 
ENDBRANCH  18  19
ENDBRANCH  17  18
ENDBRANCH  16  17
ENDBRANCH  15  16
ENDBRANCH  14  15
ENDBRANCH  13  14
ENDBRANCH  12  13
ENDBRANCH   1  12
TORSDOF 16
ENDMDL
MODEL 9
REMARK VINA RESULT:    -2.160      1.381      2.234
REMARK INTER + INTRA:          -5.507
REMARK INTER:                  -4.991
REMARK INTRA:                  -0.516
REMARK UNBOUND:                -1.326
REMARK SMILES CCCCCCCCCCCCCCCCCC(=O)[O-]
REMARK SMILES IDX 10 1 11 2 12 3 13 4 14 5 15 6 16 7 17 8 18 9 19 10 20 11
REMARK SMILES IDX 9 12 8 13 7 14 6 15 5 16 4 17 3 18 2 19 1 20
REMARK H PARENT
REMARK Flexibility Score: inf
ROOT
ATOM      1  C   UNL     1      -2.962 -50.452   0.586  1.00  0.00     0.000 C 
ENDROOT
BRANCH   1   2
ATOM      2  C   UNL     1      -4.004 -51.578   0.720  1.00  0.00     0.000 C 
BRANCH   2   3
ATOM      3  C   UNL     1      -5.311 -51.178   1.429  1.00  0.00     0.000 C 
BRANCH   3   4
ATOM      4  C   UNL     1      -6.516 -52.023   0.988  1.00  0.00     0.000 C 
BRANCH   4   5
ATOM      5  C   UNL     1      -7.686 -51.127   0.554  1.00  0.00     0.000 C 
BRANCH   5   6
ATOM      6  C   UNL     1      -9.011 -51.510   1.233  1.00  0.00     0.000 C 
BRANCH   6   7
ATOM      7  C   UNL     1      -8.805 -52.125   2.628  1.00  0.00     0.006 C 
BRANCH   7   8
ATOM      8  C   UNL     1      -8.681 -51.053   3.720  1.00  0.00     0.053 C 
BRANCH   8   9
ATOM      9  C   UNL     1      -7.705 -51.452   4.784  1.00  0.00     0.041 C 
ATOM     10  O   UNL     1      -8.094 -52.104   5.789  1.00  0.00    -0.550 OA
ATOM     11  O   UNL     1      -6.361 -51.128   4.651  1.00  0.00    -0.550 OA
ENDBRANCH   8   9
ENDBRANCH   7   8
ENDBRANCH   6   7
ENDBRANCH   5   6
ENDBRANCH   4   5
ENDBRANCH   3   4
ENDBRANCH   2   3
ENDBRANCH   1   2
BRANCH   1  12
ATOM     12  C   UNL     1      -2.461 -49.935   1.945  1.00  0.00     0.000 C 
BRANCH  12  13
ATOM     13  C   UNL     1      -1.768 -51.030   2.773  1.00  0.00    -0.000 C 
BRANCH  13  14
ATOM     14  C   UNL     1      -2.758 -52.083   3.303  1.00  0.00    -0.000 C 
BRANCH  14  15
ATOM     15  C   UNL     1      -2.822 -52.112   4.840  1.00  0.00    -0.000 C 
BRANCH  15  16
ATOM     16  C   UNL     1      -1.500 -51.680   5.496  1.00  0.00    -0.000 C 
BRANCH  16  17
ATOM     17  C   UNL     1      -1.648 -51.406   7.001  1.00  0.00    -0.000 C 
BRANCH  17  18
ATOM     18  C   UNL     1      -3.078 -51.645   7.512  1.00  0.00    -0.000 C 
BRANCH  18  19
ATOM     19  C   UNL     1      -3.125 -51.613   9.044  1.00  0.00    -0.003 C 
ATOM     20  C   UNL     1      -1.813 -52.109   9.647  1.00  0.00     0.004 C 
ENDBRANCH  18  19
ENDBRANCH  17  18
ENDBRANCH  16  17
ENDBRANCH  15  16
ENDBRANCH  14  15
ENDBRANCH  13  14
ENDBRANCH  12  13
ENDBRANCH   1  12
TORSDOF 16
ENDMDL
