MODEL 1
REMARK VINA RESULT:    11.650      0.000      0.000
REMARK INTER + INTRA:          18.959
REMARK INTER:                  16.758
REMARK INTRA:                   2.202
REMARK UNBOUND:                 2.202
REMARK SMILES O=c1cc(-c2ccc(O)c(O)c2)oc2cc(O[C@H]3O[C@H](CO)[C@H](O)[C@@H](O)[C@H]3O)cc(O)c12
REMARK SMILES IDX 17 1 16 2 4 3 3 4 13 5 2 6 14 7 1 8 32 9 15 10 30 11 29 12
REMARK SMILES IDX 5 13 6 14 7 15 8 16 12 17 10 18 9 19 11 21 31 23 18 25 27 26
REMARK SMILES IDX 19 27 25 28 20 29 23 30 28 31 26 33 21 35 22 36 24 38
REMARK H PARENT 9 20 11 22 31 24 28 32 26 34 22 37 24 39
REMARK Flexibility Score: inf
ROOT
ATOM      1  O   UNL     1      14.370 -12.317 -26.845  1.00  0.00    -0.462 OA
ENDROOT
BRANCH   1   2
ATOM      2  C   UNL     1      13.643 -11.279 -27.454  1.00  0.00     0.130 A 
ATOM      3  C   UNL     1      13.123  -6.705 -28.724  1.00  0.00     0.138 A 
ATOM      4  C   UNL     1      11.869  -6.947 -29.310  1.00  0.00     0.100 A 
ATOM      5  O   UNL     1      13.784  -7.711 -28.155  1.00  0.00    -0.456 OA
ATOM      6  C   UNL     1      11.345  -8.241 -29.301  1.00  0.00     0.197 A 
ATOM      7  C   UNL     1      13.326  -8.959 -28.120  1.00  0.00     0.146 A 
ATOM      8  O   UNL     1      10.219  -8.448 -29.829  1.00  0.00    -0.289 OA
ATOM      9  C   UNL     1      12.078  -9.283 -28.700  1.00  0.00     0.107 A 
ATOM     10  C   UNL     1      14.095  -9.948 -27.502  1.00  0.00     0.094 A 
ATOM     11  C   UNL     1      11.621 -10.620 -28.647  1.00  0.00     0.134 A 
ATOM     12  C   UNL     1      12.407 -11.599 -28.024  1.00  0.00     0.093 A 
BRANCH   3  13
ATOM     13  C   UNL     1      13.732  -5.350 -28.704  1.00  0.00     0.021 A 
ATOM     14  C   UNL     1      14.437  -4.873 -27.584  1.00  0.00     0.016 A 
ATOM     15  C   UNL     1      14.990  -3.589 -27.590  1.00  0.00     0.051 A 
ATOM     16  C   UNL     1      14.842  -2.759 -28.709  1.00  0.00     0.157 A 
ATOM     17  C   UNL     1      13.576  -4.507 -29.818  1.00  0.00     0.062 A 
ATOM     18  C   UNL     1      14.129  -3.221 -29.827  1.00  0.00     0.158 A 
BRANCH  16  19
ATOM     19  O   UNL     1      15.397  -1.481 -28.711  1.00  0.00    -0.504 OA
ATOM     20  H   UNL     1      16.020  -1.173 -29.448  1.00  0.00     0.293 HD
ENDBRANCH  16  19
BRANCH  18  21
ATOM     21  O   UNL     1      13.960  -2.418 -30.954  1.00  0.00    -0.504 OA
ATOM     22  H   UNL     1      14.116  -2.767 -31.893  1.00  0.00     0.293 HD
ENDBRANCH  18  21
ENDBRANCH   3  13
BRANCH  11  23
ATOM     23  O   UNL     1      10.394 -10.981 -29.206  1.00  0.00    -0.507 OA
ATOM     24  H   UNL     1      10.299 -11.795 -29.802  1.00  0.00     0.293 HD
ENDBRANCH  11  23
ENDBRANCH   1   2
BRANCH   1  25
ATOM     25  C   UNL     1      14.124 -12.894 -25.554  1.00  0.00     0.339 C 
ATOM     26  C   UNL     1      13.711 -14.382 -25.650  1.00  0.00     0.214 C 
ATOM     27  O   UNL     1      13.138 -12.143 -24.863  1.00  0.00    -0.332 OA
ATOM     28  C   UNL     1      12.320 -14.528 -26.296  1.00  0.00     0.180 C 
ATOM     29  C   UNL     1      11.892 -12.157 -25.545  1.00  0.00     0.179 C 
ATOM     30  C   UNL     1      11.316 -13.591 -25.597  1.00  0.00     0.177 C 
BRANCH  26  31
ATOM     31  O   UNL     1      14.664 -15.113 -26.375  1.00  0.00    -0.384 OA
ATOM     32  H   UNL     1      15.428 -14.501 -26.544  1.00  0.00     0.211 HD
ENDBRANCH  26  31
BRANCH  28  33
ATOM     33  O   UNL     1      12.397 -14.224 -27.667  1.00  0.00    -0.387 OA
ATOM     34  H   UNL     1      12.182 -13.259 -27.759  1.00  0.00     0.211 HD
ENDBRANCH  28  33
BRANCH  29  35
ATOM     35  C   UNL     1      10.934 -11.191 -24.831  1.00  0.00     0.191 C 
BRANCH  35  36
ATOM     36  O   UNL     1      11.038 -11.313 -23.438  1.00  0.00    -0.394 OA
ATOM     37  H   UNL     1      10.586 -10.520 -23.048  1.00  0.00     0.210 HD
ENDBRANCH  35  36
ENDBRANCH  29  35
BRANCH  30  38
ATOM     38  O   UNL     1      11.061 -14.051 -24.294  1.00  0.00    -0.387 OA
ATOM     39  H   UNL     1      10.984 -15.040 -24.348  1.00  0.00     0.211 HD
ENDBRANCH  30  38
ENDBRANCH   1  25
TORSDOF 11
ENDMDL
MODEL 2
REMARK VINA RESULT:    13.255      1.596      3.220
REMARK INTER + INTRA:          21.267
REMARK INTER:                  17.791
REMARK INTRA:                   3.476
REMARK UNBOUND:                 2.202
REMARK SMILES O=c1cc(-c2ccc(O)c(O)c2)oc2cc(O[C@H]3O[C@H](CO)[C@H](O)[C@@H](O)[C@H]3O)cc(O)c12
REMARK SMILES IDX 17 1 16 2 4 3 3 4 13 5 2 6 14 7 1 8 32 9 15 10 30 11 29 12
REMARK SMILES IDX 5 13 6 14 7 15 8 16 12 17 10 18 9 19 11 21 31 23 18 25 27 26
REMARK SMILES IDX 19 27 25 28 20 29 23 30 28 31 26 33 21 35 22 36 24 38
REMARK H PARENT 9 20 11 22 31 24 28 32 26 34 22 37 24 39
REMARK Flexibility Score: inf
ROOT
ATOM      1  O   UNL     1      11.038 -11.286 -25.521  1.00  0.00    -0.462 OA
ENDROOT
BRANCH   1   2
ATOM      2  C   UNL     1      12.002 -10.639 -26.312  1.00  0.00     0.130 A 
ATOM      3  C   UNL     1      13.687  -6.767 -28.544  1.00  0.00     0.138 A 
ATOM      4  C   UNL     1      14.806  -7.462 -29.035  1.00  0.00     0.100 A 
ATOM      5  O   UNL     1      12.793  -7.412 -27.798  1.00  0.00    -0.456 OA
ATOM      6  C   UNL     1      14.968  -8.812 -28.719  1.00  0.00     0.197 A 
ATOM      7  C   UNL     1      12.903  -8.696 -27.472  1.00  0.00     0.146 A 
ATOM      8  O   UNL     1      15.974  -9.427 -29.165  1.00  0.00    -0.289 OA
ATOM      9  C   UNL     1      14.006  -9.459 -27.917  1.00  0.00     0.107 A 
ATOM     10  C   UNL     1      11.912  -9.284 -26.681  1.00  0.00     0.094 A 
ATOM     11  C   UNL     1      14.095 -10.821 -27.552  1.00  0.00     0.134 A 
ATOM     12  C   UNL     1      13.092 -11.393 -26.756  1.00  0.00     0.093 A 
BRANCH   3  13
ATOM     13  C   UNL     1      13.462  -5.330 -28.845  1.00  0.00     0.021 A 
ATOM     14  C   UNL     1      12.226  -4.862 -29.331  1.00  0.00     0.016 A 
ATOM     15  C   UNL     1      12.047  -3.505 -29.617  1.00  0.00     0.051 A 
ATOM     16  C   UNL     1      13.096  -2.597 -29.430  1.00  0.00     0.157 A 
ATOM     17  C   UNL     1      14.514  -4.414 -28.673  1.00  0.00     0.062 A 
ATOM     18  C   UNL     1      14.336  -3.056 -28.957  1.00  0.00     0.158 A 
BRANCH  16  19
ATOM     19  O   UNL     1      12.911  -1.245 -29.714  1.00  0.00    -0.504 OA
ATOM     20  H   UNL     1      12.010  -0.881 -30.000  1.00  0.00     0.293 HD
ENDBRANCH  16  19
BRANCH  18  21
ATOM     21  O   UNL     1      15.402  -2.178 -28.765  1.00  0.00    -0.504 OA
ATOM     22  H   UNL     1      15.819  -2.028 -27.853  1.00  0.00     0.293 HD
ENDBRANCH  18  21
ENDBRANCH   3  13
BRANCH  11  23
ATOM     23  O   UNL     1      15.167 -11.609 -27.972  1.00  0.00    -0.507 OA
ATOM     24  H   UNL     1      15.603 -11.476 -28.877  1.00  0.00     0.293 HD
ENDBRANCH  11  23
ENDBRANCH   1   2
BRANCH   1  25
ATOM     25  C   UNL     1      10.075 -12.254 -25.963  1.00  0.00     0.339 C 
ATOM     26  C   UNL     1      10.440 -13.688 -25.513  1.00  0.00     0.214 C 
ATOM     27  O   UNL     1       9.932 -12.191 -27.374  1.00  0.00    -0.332 OA
ATOM     28  C   UNL     1      11.701 -14.190 -26.241  1.00  0.00     0.180 C 
ATOM     29  C   UNL     1      11.144 -12.510 -28.040  1.00  0.00     0.179 C 
ATOM     30  C   UNL     1      11.551 -13.976 -27.760  1.00  0.00     0.177 C 
BRANCH  26  31
ATOM     31  O   UNL     1      10.627 -13.737 -24.124  1.00  0.00    -0.384 OA
ATOM     32  H   UNL     1       9.994 -13.083 -23.726  1.00  0.00     0.211 HD
ENDBRANCH  26  31
BRANCH  28  33
ATOM     33  O   UNL     1      12.833 -13.505 -25.762  1.00  0.00    -0.387 OA
ATOM     34  H   UNL     1      12.509 -12.851 -25.090  1.00  0.00     0.211 HD
ENDBRANCH  28  33
BRANCH  29  35
ATOM     35  C   UNL     1      10.957 -12.255 -29.544  1.00  0.00     0.191 C 
BRANCH  35  36
ATOM     36  O   UNL     1      11.750 -11.182 -29.977  1.00  0.00    -0.394 OA
ATOM     37  H   UNL     1      12.024 -11.388 -30.909  1.00  0.00     0.210 HD
ENDBRANCH  35  36
ENDBRANCH  29  35
BRANCH  30  38
ATOM     38  O   UNL     1      10.576 -14.848 -28.272  1.00  0.00    -0.387 OA
ATOM     39  H   UNL     1      10.878 -15.771 -28.064  1.00  0.00     0.211 HD
ENDBRANCH  30  38
ENDBRANCH   1  25
TORSDOF 11
ENDMDL
MODEL 3
REMARK VINA RESULT:    13.437      2.115      8.743
REMARK INTER + INTRA:          21.530
REMARK INTER:                  22.283
REMARK INTRA:                  -0.752
REMARK UNBOUND:                 2.202
REMARK SMILES O=c1cc(-c2ccc(O)c(O)c2)oc2cc(O[C@H]3O[C@H](CO)[C@H](O)[C@@H](O)[C@H]3O)cc(O)c12
REMARK SMILES IDX 17 1 16 2 4 3 3 4 13 5 2 6 14 7 1 8 32 9 15 10 30 11 29 12
REMARK SMILES IDX 5 13 6 14 7 15 8 16 12 17 10 18 9 19 11 21 31 23 18 25 27 26
REMARK SMILES IDX 19 27 25 28 20 29 23 30 28 31 26 33 21 35 22 36 24 38
REMARK H PARENT 9 20 11 22 31 24 28 32 26 34 22 37 24 39
REMARK Flexibility Score: inf
ROOT
ATOM      1  O   UNL     1      13.588  -7.485 -28.428  1.00  0.00    -0.462 OA
ENDROOT
BRANCH   1   2
ATOM      2  C   UNL     1      12.955  -8.739 -28.401  1.00  0.00     0.130 A 
ATOM      3  C   UNL     1      11.103 -12.454 -26.039  1.00  0.00     0.138 A 
ATOM      4  C   UNL     1      10.775 -13.125 -27.229  1.00  0.00     0.100 A 
ATOM      5  O   UNL     1      11.703 -11.267 -26.102  1.00  0.00    -0.456 OA
ATOM      6  C   UNL     1      11.068 -12.529 -28.456  1.00  0.00     0.197 A 
ATOM      7  C   UNL     1      12.003 -10.660 -27.245  1.00  0.00     0.146 A 
ATOM      8  O   UNL     1      10.770 -13.139 -29.518  1.00  0.00    -0.289 OA
ATOM      9  C   UNL     1      11.693 -11.266 -28.484  1.00  0.00     0.107 A 
ATOM     10  C   UNL     1      12.631  -9.412 -27.208  1.00  0.00     0.094 A 
ATOM     11  C   UNL     1      12.024 -10.593 -29.682  1.00  0.00     0.134 A 
ATOM     12  C   UNL     1      12.651  -9.342 -29.625  1.00  0.00     0.093 A 
BRANCH   3  13
ATOM     13  C   UNL     1      10.815 -13.037 -24.703  1.00  0.00     0.021 A 
ATOM     14  C   UNL     1      10.621 -14.420 -24.527  1.00  0.00     0.016 A 
ATOM     15  C   UNL     1      10.340 -14.939 -23.259  1.00  0.00     0.051 A 
ATOM     16  C   UNL     1      10.240 -14.088 -22.151  1.00  0.00     0.157 A 
ATOM     17  C   UNL     1      10.700 -12.189 -23.589  1.00  0.00     0.062 A 
ATOM     18  C   UNL     1      10.419 -12.706 -22.319  1.00  0.00     0.158 A 
BRANCH  16  19
ATOM     19  O   UNL     1       9.962 -14.611 -20.890  1.00  0.00    -0.504 OA
ATOM     20  H   UNL     1      10.110 -15.591 -20.676  1.00  0.00     0.293 HD
ENDBRANCH  16  19
BRANCH  18  21
ATOM     21  O   UNL     1      10.321 -11.832 -21.237  1.00  0.00    -0.504 OA
ATOM     22  H   UNL     1      10.105 -10.849 -21.357  1.00  0.00     0.293 HD
ENDBRANCH  18  21
ENDBRANCH   3  13
BRANCH  11  23
ATOM     23  O   UNL     1      11.736 -11.158 -30.925  1.00  0.00    -0.507 OA
ATOM     24  H   UNL     1      11.634 -12.160 -31.045  1.00  0.00     0.293 HD
ENDBRANCH  11  23
ENDBRANCH   1   2
BRANCH   1  25
ATOM     25  C   UNL     1      13.823  -6.667 -29.584  1.00  0.00     0.339 C 
ATOM     26  C   UNL     1      14.882  -5.571 -29.317  1.00  0.00     0.214 C 
ATOM     27  O   UNL     1      12.604  -6.090 -30.029  1.00  0.00    -0.332 OA
ATOM     28  C   UNL     1      14.349  -4.518 -28.328  1.00  0.00     0.180 C 
ATOM     29  C   UNL     1      12.039  -5.233 -29.049  1.00  0.00     0.179 C 
ATOM     30  C   UNL     1      12.963  -4.022 -28.784  1.00  0.00     0.177 C 
BRANCH  26  31
ATOM     31  O   UNL     1      16.069  -6.140 -28.832  1.00  0.00    -0.384 OA
ATOM     32  H   UNL     1      16.290  -6.899 -29.433  1.00  0.00     0.211 HD
ENDBRANCH  26  31
BRANCH  28  33
ATOM     33  O   UNL     1      14.267  -5.073 -27.038  1.00  0.00    -0.387 OA
ATOM     34  H   UNL     1      13.705  -4.460 -26.497  1.00  0.00     0.211 HD
ENDBRANCH  28  33
BRANCH  29  35
ATOM     35  C   UNL     1      10.650  -4.787 -29.532  1.00  0.00     0.191 C 
BRANCH  35  36
ATOM     36  O   UNL     1       9.877  -5.887 -29.932  1.00  0.00    -0.394 OA
ATOM     37  H   UNL     1      10.219  -6.673 -29.430  1.00  0.00     0.210 HD
ENDBRANCH  35  36
ENDBRANCH  29  35
BRANCH  30  38
ATOM     38  O   UNL     1      13.092  -3.255 -29.955  1.00  0.00    -0.387 OA
ATOM     39  H   UNL     1      12.171  -3.031 -30.255  1.00  0.00     0.211 HD
ENDBRANCH  30  38
ENDBRANCH   1  25
TORSDOF 11
ENDMDL
MODEL 4
REMARK VINA RESULT:    14.474      2.131      8.784
REMARK INTER + INTRA:          23.022
REMARK INTER:                  23.887
REMARK INTRA:                  -0.865
REMARK UNBOUND:                 2.202
REMARK SMILES O=c1cc(-c2ccc(O)c(O)c2)oc2cc(O[C@H]3O[C@H](CO)[C@H](O)[C@@H](O)[C@H]3O)cc(O)c12
REMARK SMILES IDX 17 1 16 2 4 3 3 4 13 5 2 6 14 7 1 8 32 9 15 10 30 11 29 12
REMARK SMILES IDX 5 13 6 14 7 15 8 16 12 17 10 18 9 19 11 21 31 23 18 25 27 26
REMARK SMILES IDX 19 27 25 28 20 29 23 30 28 31 26 33 21 35 22 36 24 38
REMARK H PARENT 9 20 11 22 31 24 28 32 26 34 22 37 24 39
REMARK Flexibility Score: inf
ROOT
ATOM      1  O   UNL     1      13.186  -7.492 -28.323  1.00  0.00    -0.462 OA
ENDROOT
BRANCH   1   2
ATOM      2  C   UNL     1      12.650  -8.791 -28.306  1.00  0.00     0.130 A 
ATOM      3  C   UNL     1      11.002 -12.620 -25.976  1.00  0.00     0.138 A 
ATOM      4  C   UNL     1      10.771 -13.323 -27.171  1.00  0.00     0.100 A 
ATOM      5  O   UNL     1      11.510 -11.391 -26.029  1.00  0.00    -0.456 OA
ATOM      6  C   UNL     1      11.063 -12.715 -28.393  1.00  0.00     0.197 A 
ATOM      7  C   UNL     1      11.806 -10.771 -27.167  1.00  0.00     0.146 A 
ATOM      8  O   UNL     1      10.853 -13.355 -29.459  1.00  0.00    -0.289 OA
ATOM      9  C   UNL     1      11.590 -11.408 -28.410  1.00  0.00     0.107 A 
ATOM     10  C   UNL     1      12.334  -9.478 -27.120  1.00  0.00     0.094 A 
ATOM     11  C   UNL     1      11.913 -10.721 -29.602  1.00  0.00     0.134 A 
ATOM     12  C   UNL     1      12.440  -9.424 -29.535  1.00  0.00     0.093 A 
BRANCH   3  13
ATOM     13  C   UNL     1      10.709 -13.214 -24.646  1.00  0.00     0.021 A 
ATOM     14  C   UNL     1      10.495 -14.596 -24.485  1.00  0.00     0.016 A 
ATOM     15  C   UNL     1      10.211 -15.125 -23.222  1.00  0.00     0.051 A 
ATOM     16  C   UNL     1      10.128 -14.285 -22.104  1.00  0.00     0.157 A 
ATOM     17  C   UNL     1      10.612 -12.377 -23.522  1.00  0.00     0.062 A 
ATOM     18  C   UNL     1      10.328 -12.904 -22.257  1.00  0.00     0.158 A 
BRANCH  16  19
ATOM     19  O   UNL     1       9.846 -14.818 -20.848  1.00  0.00    -0.504 OA
ATOM     20  H   UNL     1       9.038 -14.520 -20.313  1.00  0.00     0.293 HD
ENDBRANCH  16  19
BRANCH  18  21
ATOM     21  O   UNL     1      10.248 -12.041 -21.165  1.00  0.00    -0.504 OA
ATOM     22  H   UNL     1      10.061 -11.051 -21.273  1.00  0.00     0.293 HD
ENDBRANCH  18  21
ENDBRANCH   3  13
BRANCH  11  23
ATOM     23  O   UNL     1      11.716 -11.316 -30.849  1.00  0.00    -0.507 OA
ATOM     24  H   UNL     1      11.157 -10.872 -31.569  1.00  0.00     0.293 HD
ENDBRANCH  11  23
ENDBRANCH   1   2
BRANCH   1  25
ATOM     25  C   UNL     1      12.475  -6.268 -28.086  1.00  0.00     0.339 C 
ATOM     26  C   UNL     1      12.403  -5.381 -29.352  1.00  0.00     0.214 C 
ATOM     27  O   UNL     1      13.070  -5.559 -27.009  1.00  0.00    -0.332 OA
ATOM     28  C   UNL     1      13.794  -4.834 -29.722  1.00  0.00     0.180 C 
ATOM     29  C   UNL     1      14.409  -5.187 -27.301  1.00  0.00     0.179 C 
ATOM     30  C   UNL     1      14.453  -4.194 -28.485  1.00  0.00     0.177 C 
BRANCH  26  31
ATOM     31  O   UNL     1      11.858  -6.099 -30.426  1.00  0.00    -0.384 OA
ATOM     32  H   UNL     1      12.601  -6.620 -30.830  1.00  0.00     0.211 HD
ENDBRANCH  26  31
BRANCH  28  33
ATOM     33  O   UNL     1      14.599  -5.875 -30.219  1.00  0.00    -0.387 OA
ATOM     34  H   UNL     1      14.647  -5.755 -31.203  1.00  0.00     0.211 HD
ENDBRANCH  28  33
BRANCH  29  35
ATOM     35  C   UNL     1      15.034  -4.581 -26.034  1.00  0.00     0.191 C 
BRANCH  35  36
ATOM     36  O   UNL     1      14.391  -5.051 -24.879  1.00  0.00    -0.394 OA
ATOM     37  H   UNL     1      14.888  -4.678 -24.105  1.00  0.00     0.210 HD
ENDBRANCH  35  36
ENDBRANCH  29  35
BRANCH  30  38
ATOM     38  O   UNL     1      13.778  -3.010 -28.142  1.00  0.00    -0.387 OA
ATOM     39  H   UNL     1      13.691  -3.005 -27.153  1.00  0.00     0.211 HD
ENDBRANCH  30  38
ENDBRANCH   1  25
TORSDOF 11
ENDMDL
