MODEL 1
REMARK VINA RESULT:    -3.272      0.000      0.000
REMARK INTER + INTRA:          -4.227
REMARK INTER:                  -3.941
REMARK INTRA:                  -0.286
REMARK UNBOUND:                -0.286
REMARK SMILES O=c1c(O)c(-c2ccc(O)c(O)c2)oc2cc(O)cc(O)c12
REMARK SMILES IDX 5 1 3 2 2 3 1 4 22 5 20 6 19 7 17 8 16 9 15 10 14 11 6 12
REMARK SMILES IDX 7 13 8 14 9 15 13 16 11 17 10 18 12 20 4 22 21 24 18 26
REMARK H PARENT 10 19 12 21 4 23 21 25 18 27
REMARK Flexibility Score: inf
ROOT
ATOM      1  C   UNL     1      -2.502   2.822  21.325  1.00  0.00     0.180 A 
ATOM      2  C   UNL     1      -3.900   2.727  21.437  1.00  0.00     0.208 A 
ATOM      3  C   UNL     1      -4.468   2.482  22.698  1.00  0.00     0.238 A 
ATOM      4  O   UNL     1      -5.722   2.453  22.800  1.00  0.00    -0.285 OA
ATOM      5  C   UNL     1      -3.630   2.319  23.828  1.00  0.00     0.111 A 
ATOM      6  C   UNL     1      -4.095   2.028  25.145  1.00  0.00     0.134 A 
ATOM      7  C   UNL     1      -3.187   2.017  26.211  1.00  0.00     0.093 A 
ATOM      8  C   UNL     1      -1.825   2.222  25.998  1.00  0.00     0.123 A 
ATOM      9  C   UNL     1      -1.351   2.447  24.705  1.00  0.00     0.094 A 
ATOM     10  C   UNL     1      -2.237   2.500  23.627  1.00  0.00     0.146 A 
ATOM     11  O   UNL     1      -1.748   2.730  22.414  1.00  0.00    -0.452 OA
ENDROOT
BRANCH   1  12
ATOM     12  C   UNL     1      -1.829   3.053  20.027  1.00  0.00     0.025 A 
ATOM     13  C   UNL     1      -1.375   4.330  19.654  1.00  0.00     0.016 A 
ATOM     14  C   UNL     1      -0.765   4.529  18.414  1.00  0.00     0.051 A 
ATOM     15  C   UNL     1      -0.610   3.463  17.522  1.00  0.00     0.157 A 
ATOM     16  C   UNL     1      -1.690   1.989  19.120  1.00  0.00     0.062 A 
ATOM     17  C   UNL     1      -1.078   2.187  17.875  1.00  0.00     0.158 A 
BRANCH  15  18
ATOM     18  O   UNL     1       0.005   3.692  16.292  1.00  0.00    -0.504 OA
ATOM     19  H   UNL     1       0.293   2.934  15.685  1.00  0.00     0.293 HD
ENDBRANCH  15  18
BRANCH  17  20
ATOM     20  O   UNL     1      -0.934   1.120  16.988  1.00  0.00    -0.504 OA
ATOM     21  H   UNL     1      -1.378   1.123  16.078  1.00  0.00     0.293 HD
ENDBRANCH  17  20
ENDBRANCH   1  12
BRANCH   2  22
ATOM     22  O   UNL     1      -4.709   2.914  20.312  1.00  0.00    -0.502 OA
ATOM     23  H   UNL     1      -5.651   3.283  20.375  1.00  0.00     0.293 HD
ENDBRANCH   2  22
BRANCH   6  24
ATOM     24  O   UNL     1      -5.423   1.718  25.454  1.00  0.00    -0.507 OA
ATOM     25  H   UNL     1      -6.194   2.366  25.391  1.00  0.00     0.293 HD
ENDBRANCH   6  24
BRANCH   8  26
ATOM     26  O   UNL     1      -0.948   2.188  27.081  1.00  0.00    -0.508 OA
ATOM     27  H   UNL     1       0.053   2.293  26.956  1.00  0.00     0.293 HD
ENDBRANCH   8  26
TORSDOF 6
ENDMDL
MODEL 2
REMARK VINA RESULT:    -3.089      9.117     10.202
REMARK INTER + INTRA:          -4.007
REMARK INTER:                  -3.686
REMARK INTRA:                  -0.321
REMARK UNBOUND:                -0.286
REMARK SMILES O=c1c(O)c(-c2ccc(O)c(O)c2)oc2cc(O)cc(O)c12
REMARK SMILES IDX 5 1 3 2 2 3 1 4 22 5 20 6 19 7 17 8 16 9 15 10 14 11 6 12
REMARK SMILES IDX 7 13 8 14 9 15 13 16 11 17 10 18 12 20 4 22 21 24 18 26
REMARK H PARENT 10 19 12 21 4 23 21 25 18 27
REMARK Flexibility Score: inf
ROOT
ATOM      1  C   UNL     1       5.309  -2.866  20.707  1.00  0.00     0.180 A 
ATOM      2  C   UNL     1       5.538  -1.500  20.943  1.00  0.00     0.208 A 
ATOM      3  C   UNL     1       6.056  -1.101  22.186  1.00  0.00     0.238 A 
ATOM      4  O   UNL     1       6.310   0.117  22.373  1.00  0.00    -0.285 OA
ATOM      5  C   UNL     1       6.322  -2.072  23.183  1.00  0.00     0.111 A 
ATOM      6  C   UNL     1       6.809  -1.777  24.491  1.00  0.00     0.134 A 
ATOM      7  C   UNL     1       7.160  -2.826  25.350  1.00  0.00     0.093 A 
ATOM      8  C   UNL     1       6.981  -4.156  24.973  1.00  0.00     0.123 A 
ATOM      9  C   UNL     1       6.448  -4.455  23.718  1.00  0.00     0.094 A 
ATOM     10  C   UNL     1       6.123  -3.431  22.826  1.00  0.00     0.146 A 
ATOM     11  O   UNL     1       5.630  -3.758  21.637  1.00  0.00    -0.452 OA
ENDROOT
BRANCH   1  12
ATOM     12  C   UNL     1       4.742  -3.360  19.432  1.00  0.00     0.025 A 
ATOM     13  C   UNL     1       5.570  -3.749  18.364  1.00  0.00     0.016 A 
ATOM     14  C   UNL     1       5.012  -4.189  17.161  1.00  0.00     0.051 A 
ATOM     15  C   UNL     1       3.624  -4.236  17.000  1.00  0.00     0.157 A 
ATOM     16  C   UNL     1       3.348  -3.390  19.259  1.00  0.00     0.062 A 
ATOM     17  C   UNL     1       2.786  -3.832  18.052  1.00  0.00     0.158 A 
BRANCH  15  18
ATOM     18  O   UNL     1       3.097  -4.682  15.788  1.00  0.00    -0.504 OA
ATOM     19  H   UNL     1       2.104  -4.835  15.658  1.00  0.00     0.293 HD
ENDBRANCH  15  18
BRANCH  17  20
ATOM     20  O   UNL     1       1.401  -3.869  17.897  1.00  0.00    -0.504 OA
ATOM     21  H   UNL     1       0.775  -3.712  18.677  1.00  0.00     0.293 HD
ENDBRANCH  17  20
ENDBRANCH   1  12
BRANCH   2  22
ATOM     22  O   UNL     1       5.290  -0.561  19.938  1.00  0.00    -0.502 OA
ATOM     23  H   UNL     1       6.015   0.038  19.562  1.00  0.00     0.293 HD
ENDBRANCH   2  22
BRANCH   6  24
ATOM     24  O   UNL     1       6.940  -0.482  25.002  1.00  0.00    -0.507 OA
ATOM     25  H   UNL     1       7.398   0.280  24.526  1.00  0.00     0.293 HD
ENDBRANCH   6  24
BRANCH   8  26
ATOM     26  O   UNL     1       7.327  -5.174  25.859  1.00  0.00    -0.508 OA
ATOM     27  H   UNL     1       7.934  -5.936  25.579  1.00  0.00     0.293 HD
ENDBRANCH   8  26
TORSDOF 6
ENDMDL
MODEL 3
REMARK VINA RESULT:    -3.060      3.809      7.639
REMARK INTER + INTRA:          -3.971
REMARK INTER:                  -3.697
REMARK INTRA:                  -0.274
REMARK UNBOUND:                -0.286
REMARK SMILES O=c1c(O)c(-c2ccc(O)c(O)c2)oc2cc(O)cc(O)c12
REMARK SMILES IDX 5 1 3 2 2 3 1 4 22 5 20 6 19 7 17 8 16 9 15 10 14 11 6 12
REMARK SMILES IDX 7 13 8 14 9 15 13 16 11 17 10 18 12 20 4 22 21 24 18 26
REMARK H PARENT 10 19 12 21 4 23 21 25 18 27
REMARK Flexibility Score: inf
ROOT
ATOM      1  C   UNL     1      -2.873  -1.248  21.731  1.00  0.00     0.180 A 
ATOM      2  C   UNL     1      -3.695  -2.256  21.198  1.00  0.00     0.208 A 
ATOM      3  C   UNL     1      -3.889  -2.313  19.808  1.00  0.00     0.238 A 
ATOM      4  O   UNL     1      -4.582  -3.250  19.333  1.00  0.00    -0.285 OA
ATOM      5  C   UNL     1      -3.271  -1.352  18.971  1.00  0.00     0.111 A 
ATOM      6  C   UNL     1      -3.431  -1.291  17.554  1.00  0.00     0.134 A 
ATOM      7  C   UNL     1      -2.671  -0.379  16.812  1.00  0.00     0.093 A 
ATOM      8  C   UNL     1      -1.806   0.516  17.440  1.00  0.00     0.123 A 
ATOM      9  C   UNL     1      -1.688   0.506  18.831  1.00  0.00     0.094 A 
ATOM     10  C   UNL     1      -2.406  -0.417  19.595  1.00  0.00     0.146 A 
ATOM     11  O   UNL     1      -2.256  -0.402  20.914  1.00  0.00    -0.452 OA
ENDROOT
BRANCH   1  12
ATOM     12  C   UNL     1      -2.641  -1.108  23.186  1.00  0.00     0.025 A 
ATOM     13  C   UNL     1      -3.631  -0.588  24.039  1.00  0.00     0.016 A 
ATOM     14  C   UNL     1      -3.381  -0.442  25.405  1.00  0.00     0.051 A 
ATOM     15  C   UNL     1      -2.139  -0.799  25.940  1.00  0.00     0.157 A 
ATOM     16  C   UNL     1      -1.388  -1.446  23.723  1.00  0.00     0.062 A 
ATOM     17  C   UNL     1      -1.136  -1.301  25.095  1.00  0.00     0.158 A 
BRANCH  15  18
ATOM     18  O   UNL     1      -1.920  -0.644  27.308  1.00  0.00    -0.504 OA
ATOM     19  H   UNL     1      -2.529  -0.081  27.890  1.00  0.00     0.293 HD
ENDBRANCH  15  18
BRANCH  17  20
ATOM     20  O   UNL     1       0.108  -1.652  25.619  1.00  0.00    -0.504 OA
ATOM     21  H   UNL     1       0.281  -1.659  26.617  1.00  0.00     0.293 HD
ENDBRANCH  17  20
ENDBRANCH   1  12
BRANCH   2  22
ATOM     22  O   UNL     1      -4.276  -3.208  22.041  1.00  0.00    -0.502 OA
ATOM     23  H   UNL     1      -4.065  -3.260  23.030  1.00  0.00     0.293 HD
ENDBRANCH   2  22
BRANCH   6  24
ATOM     24  O   UNL     1      -4.336  -2.079  16.835  1.00  0.00    -0.507 OA
ATOM     25  H   UNL     1      -5.187  -2.467  17.214  1.00  0.00     0.293 HD
ENDBRANCH   6  24
BRANCH   8  26
ATOM     26  O   UNL     1      -1.076   1.420  16.671  1.00  0.00    -0.508 OA
ATOM     27  H   UNL     1      -0.812   2.330  17.032  1.00  0.00     0.293 HD
ENDBRANCH   8  26
TORSDOF 6
ENDMDL
MODEL 4
REMARK VINA RESULT:    -3.032      1.768      2.249
REMARK INTER + INTRA:          -3.938
REMARK INTER:                  -3.645
REMARK INTRA:                  -0.293
REMARK UNBOUND:                -0.286
REMARK SMILES O=c1c(O)c(-c2ccc(O)c(O)c2)oc2cc(O)cc(O)c12
REMARK SMILES IDX 5 1 3 2 2 3 1 4 22 5 20 6 19 7 17 8 16 9 15 10 14 11 6 12
REMARK SMILES IDX 7 13 8 14 9 15 13 16 11 17 10 18 12 20 4 22 21 24 18 26
REMARK H PARENT 10 19 12 21 4 23 21 25 18 27
REMARK Flexibility Score: inf
ROOT
ATOM      1  C   UNL     1      -2.581   3.131  21.236  1.00  0.00     0.180 A 
ATOM      2  C   UNL     1      -3.358   4.291  21.404  1.00  0.00     0.208 A 
ATOM      3  C   UNL     1      -3.566   4.789  22.700  1.00  0.00     0.238 A 
ATOM      4  O   UNL     1      -4.217   5.857  22.839  1.00  0.00    -0.285 OA
ATOM      5  C   UNL     1      -3.009   4.113  23.812  1.00  0.00     0.111 A 
ATOM      6  C   UNL     1      -3.189   4.506  25.172  1.00  0.00     0.134 A 
ATOM      7  C   UNL     1      -2.485   3.840  26.183  1.00  0.00     0.093 A 
ATOM      8  C   UNL     1      -1.659   2.756  25.890  1.00  0.00     0.123 A 
ATOM      9  C   UNL     1      -1.522   2.325  24.570  1.00  0.00     0.094 A 
ATOM     10  C   UNL     1      -2.184   2.992  23.536  1.00  0.00     0.146 A 
ATOM     11  O   UNL     1      -2.018   2.558  22.293  1.00  0.00    -0.452 OA
ENDROOT
BRANCH   1  12
ATOM     12  C   UNL     1      -2.339   2.532  19.904  1.00  0.00     0.025 A 
ATOM     13  C   UNL     1      -3.053   1.403  19.467  1.00  0.00     0.016 A 
ATOM     14  C   UNL     1      -2.791   0.840  18.216  1.00  0.00     0.051 A 
ATOM     15  C   UNL     1      -1.804   1.384  17.388  1.00  0.00     0.157 A 
ATOM     16  C   UNL     1      -1.334   3.064  19.078  1.00  0.00     0.062 A 
ATOM     17  C   UNL     1      -1.069   2.500  17.821  1.00  0.00     0.158 A 
BRANCH  15  18
ATOM     18  O   UNL     1      -1.566   0.802  16.144  1.00  0.00    -0.504 OA
ATOM     19  H   UNL     1      -0.718   0.282  15.947  1.00  0.00     0.293 HD
ENDBRANCH  15  18
BRANCH  17  20
ATOM     20  O   UNL     1      -0.079   3.044  17.005  1.00  0.00    -0.504 OA
ATOM     21  H   UNL     1      -0.278   3.348  16.059  1.00  0.00     0.293 HD
ENDBRANCH  17  20
ENDBRANCH   1  12
BRANCH   2  22
ATOM     22  O   UNL     1      -3.880   4.954  20.290  1.00  0.00    -0.502 OA
ATOM     23  H   UNL     1      -3.361   5.059  19.426  1.00  0.00     0.293 HD
ENDBRANCH   2  22
BRANCH   6  24
ATOM     24  O   UNL     1      -4.062   5.518  25.584  1.00  0.00    -0.507 OA
ATOM     25  H   UNL     1      -3.913   6.116  26.382  1.00  0.00     0.293 HD
ENDBRANCH   6  24
BRANCH   8  26
ATOM     26  O   UNL     1      -0.985   2.107  26.923  1.00  0.00    -0.508 OA
ATOM     27  H   UNL     1      -0.322   2.597  27.513  1.00  0.00     0.293 HD
ENDBRANCH   8  26
TORSDOF 6
ENDMDL
MODEL 5
REMARK VINA RESULT:    -2.996      2.703      3.155
REMARK INTER + INTRA:          -3.894
REMARK INTER:                  -3.569
REMARK INTRA:                  -0.325
REMARK UNBOUND:                -0.286
REMARK SMILES O=c1c(O)c(-c2ccc(O)c(O)c2)oc2cc(O)cc(O)c12
REMARK SMILES IDX 5 1 3 2 2 3 1 4 22 5 20 6 19 7 17 8 16 9 15 10 14 11 6 12
REMARK SMILES IDX 7 13 8 14 9 15 13 16 11 17 10 18 12 20 4 22 21 24 18 26
REMARK H PARENT 10 19 12 21 4 23 21 25 18 27
REMARK Flexibility Score: inf
ROOT
ATOM      1  C   UNL     1      -2.909   0.374  20.923  1.00  0.00     0.180 A 
ATOM      2  C   UNL     1      -3.811   1.205  21.611  1.00  0.00     0.208 A 
ATOM      3  C   UNL     1      -3.971   1.037  22.996  1.00  0.00     0.238 A 
ATOM      4  O   UNL     1      -4.739   1.819  23.614  1.00  0.00    -0.285 OA
ATOM      5  C   UNL     1      -3.239   0.031  23.672  1.00  0.00     0.111 A 
ATOM      6  C   UNL     1      -3.352  -0.254  25.066  1.00  0.00     0.134 A 
ATOM      7  C   UNL     1      -2.486  -1.183  25.654  1.00  0.00     0.093 A 
ATOM      8  C   UNL     1      -1.556  -1.885  24.888  1.00  0.00     0.123 A 
ATOM      9  C   UNL     1      -1.477  -1.658  23.513  1.00  0.00     0.094 A 
ATOM     10  C   UNL     1      -2.304  -0.710  22.905  1.00  0.00     0.146 A 
ATOM     11  O   UNL     1      -2.190  -0.516  21.597  1.00  0.00    -0.452 OA
ENDROOT
BRANCH   1  12
ATOM     12  C   UNL     1      -2.705   0.474  19.460  1.00  0.00     0.025 A 
ATOM     13  C   UNL     1      -3.433  -0.328  18.563  1.00  0.00     0.016 A 
ATOM     14  C   UNL     1      -3.207  -0.233  17.188  1.00  0.00     0.051 A 
ATOM     15  C   UNL     1      -2.244   0.649  16.687  1.00  0.00     0.157 A 
ATOM     16  C   UNL     1      -1.725   1.345  18.955  1.00  0.00     0.062 A 
ATOM     17  C   UNL     1      -1.497   1.441  17.575  1.00  0.00     0.158 A 
BRANCH  15  18
ATOM     18  O   UNL     1      -2.042   0.722  15.310  1.00  0.00    -0.504 OA
ATOM     19  H   UNL     1      -2.812   0.799  14.656  1.00  0.00     0.293 HD
ENDBRANCH  15  18
BRANCH  17  20
ATOM     20  O   UNL     1      -0.530   2.318  17.085  1.00  0.00    -0.504 OA
ATOM     21  H   UNL     1      -0.157   2.227  16.148  1.00  0.00     0.293 HD
ENDBRANCH  17  20
ENDBRANCH   1  12
BRANCH   2  22
ATOM     22  O   UNL     1      -4.506   2.206  20.927  1.00  0.00    -0.502 OA
ATOM     23  H   UNL     1      -4.409   2.351  19.929  1.00  0.00     0.293 HD
ENDBRANCH   2  22
BRANCH   6  24
ATOM     24  O   UNL     1      -4.310   0.324  25.906  1.00  0.00    -0.507 OA
ATOM     25  H   UNL     1      -4.770  -0.153  26.667  1.00  0.00     0.293 HD
ENDBRANCH   6  24
BRANCH   8  26
ATOM     26  O   UNL     1      -0.719  -2.814  25.504  1.00  0.00    -0.508 OA
ATOM     27  H   UNL     1      -0.839  -3.070  26.478  1.00  0.00     0.293 HD
ENDBRANCH   8  26
TORSDOF 6
ENDMDL
MODEL 6
REMARK VINA RESULT:    -2.992      3.687      4.195
REMARK INTER + INTRA:          -3.890
REMARK INTER:                  -3.571
REMARK INTRA:                  -0.319
REMARK UNBOUND:                -0.286
REMARK SMILES O=c1c(O)c(-c2ccc(O)c(O)c2)oc2cc(O)cc(O)c12
REMARK SMILES IDX 5 1 3 2 2 3 1 4 22 5 20 6 19 7 17 8 16 9 15 10 14 11 6 12
REMARK SMILES IDX 7 13 8 14 9 15 13 16 11 17 10 18 12 20 4 22 21 24 18 26
REMARK H PARENT 10 19 12 21 4 23 21 25 18 27
REMARK Flexibility Score: inf
ROOT
ATOM      1  C   UNL     1      -2.632  -0.695  20.940  1.00  0.00     0.180 A 
ATOM      2  C   UNL     1      -2.596  -2.093  21.083  1.00  0.00     0.208 A 
ATOM      3  C   UNL     1      -2.307  -2.641  22.343  1.00  0.00     0.238 A 
ATOM      4  O   UNL     1      -2.329  -3.892  22.478  1.00  0.00    -0.285 OA
ATOM      5  C   UNL     1      -2.043  -1.784  23.440  1.00  0.00     0.111 A 
ATOM      6  C   UNL     1      -1.700  -2.231  24.751  1.00  0.00     0.134 A 
ATOM      7  C   UNL     1      -1.587  -1.299  25.790  1.00  0.00     0.093 A 
ATOM      8  C   UNL     1      -1.741   0.066  25.553  1.00  0.00     0.123 A 
ATOM      9  C   UNL     1      -2.017   0.519  24.262  1.00  0.00     0.094 A 
ATOM     10  C   UNL     1      -2.171  -0.390  23.212  1.00  0.00     0.146 A 
ATOM     11  O   UNL     1      -2.445   0.080  22.001  1.00  0.00    -0.452 OA
ENDROOT
BRANCH   1  12
ATOM     12  C   UNL     1      -2.905  -0.044  19.639  1.00  0.00     0.025 A 
ATOM     13  C   UNL     1      -4.219   0.201  19.203  1.00  0.00     0.016 A 
ATOM     14  C   UNL     1      -4.453   0.795  17.961  1.00  0.00     0.051 A 
ATOM     15  C   UNL     1      -3.383   1.142  17.129  1.00  0.00     0.157 A 
ATOM     16  C   UNL     1      -1.834   0.287  18.792  1.00  0.00     0.062 A 
ATOM     17  C   UNL     1      -2.066   0.884  17.544  1.00  0.00     0.158 A 
BRANCH  15  18
ATOM     18  O   UNL     1      -3.648   1.735  15.895  1.00  0.00    -0.504 OA
ATOM     19  H   UNL     1      -4.199   1.271  15.183  1.00  0.00     0.293 HD
ENDBRANCH  15  18
BRANCH  17  20
ATOM     20  O   UNL     1      -0.995   1.219  16.718  1.00  0.00    -0.504 OA
ATOM     21  H   UNL     1      -0.434   0.510  16.262  1.00  0.00     0.293 HD
ENDBRANCH  17  20
ENDBRANCH   1  12
BRANCH   2  22
ATOM     22  O   UNL     1      -2.882  -2.919  19.993  1.00  0.00    -0.502 OA
ATOM     23  H   UNL     1      -2.952  -3.926  20.077  1.00  0.00     0.293 HD
ENDBRANCH   2  22
BRANCH   6  24
ATOM     24  O   UNL     1      -1.433  -3.564  25.078  1.00  0.00    -0.507 OA
ATOM     25  H   UNL     1      -1.158  -3.888  25.993  1.00  0.00     0.293 HD
ENDBRANCH   6  24
BRANCH   8  26
ATOM     26  O   UNL     1      -1.607   0.966  26.608  1.00  0.00    -0.508 OA
ATOM     27  H   UNL     1      -1.918   1.928  26.527  1.00  0.00     0.293 HD
ENDBRANCH   8  26
TORSDOF 6
ENDMDL
MODEL 7
REMARK VINA RESULT:    -2.986      1.602      7.123
REMARK INTER + INTRA:          -3.883
REMARK INTER:                  -3.560
REMARK INTRA:                  -0.323
REMARK UNBOUND:                -0.286
REMARK SMILES O=c1c(O)c(-c2ccc(O)c(O)c2)oc2cc(O)cc(O)c12
REMARK SMILES IDX 5 1 3 2 2 3 1 4 22 5 20 6 19 7 17 8 16 9 15 10 14 11 6 12
REMARK SMILES IDX 7 13 8 14 9 15 13 16 11 17 10 18 12 20 4 22 21 24 18 26
REMARK H PARENT 10 19 12 21 4 23 21 25 18 27
REMARK Flexibility Score: inf
ROOT
ATOM      1  C   UNL     1      -2.047   3.645  22.156  1.00  0.00     0.180 A 
ATOM      2  C   UNL     1      -1.723   4.982  21.869  1.00  0.00     0.208 A 
ATOM      3  C   UNL     1      -1.267   5.311  20.582  1.00  0.00     0.238 A 
ATOM      4  O   UNL     1      -1.030   6.518  20.316  1.00  0.00    -0.285 OA
ATOM      5  C   UNL     1      -1.126   4.297  19.604  1.00  0.00     0.111 A 
ATOM      6  C   UNL     1      -0.635   4.511  18.281  1.00  0.00     0.134 A 
ATOM      7  C   UNL     1      -0.661   3.459  17.357  1.00  0.00     0.093 A 
ATOM      8  C   UNL     1      -1.098   2.187  17.725  1.00  0.00     0.123 A 
ATOM      9  C   UNL     1      -1.524   1.952  19.033  1.00  0.00     0.094 A 
ATOM     10  C   UNL     1      -1.543   2.991  19.968  1.00  0.00     0.146 A 
ATOM     11  O   UNL     1      -1.967   2.729  21.198  1.00  0.00    -0.452 OA
ENDROOT
BRANCH   1  12
ATOM     12  C   UNL     1      -2.510   3.217  23.495  1.00  0.00     0.025 A 
ATOM     13  C   UNL     1      -3.876   3.197  23.827  1.00  0.00     0.016 A 
ATOM     14  C   UNL     1      -4.288   2.812  25.105  1.00  0.00     0.051 A 
ATOM     15  C   UNL     1      -3.346   2.455  26.074  1.00  0.00     0.157 A 
ATOM     16  C   UNL     1      -1.566   2.877  24.479  1.00  0.00     0.062 A 
ATOM     17  C   UNL     1      -1.977   2.490  25.762  1.00  0.00     0.158 A 
BRANCH  15  18
ATOM     18  O   UNL     1      -3.788   2.074  27.341  1.00  0.00    -0.504 OA
ATOM     19  H   UNL     1      -3.848   2.730  28.110  1.00  0.00     0.293 HD
ENDBRANCH  15  18
BRANCH  17  20
ATOM     20  O   UNL     1      -1.031   2.143  26.726  1.00  0.00    -0.504 OA
ATOM     21  H   UNL     1      -1.186   2.322  27.710  1.00  0.00     0.293 HD
ENDBRANCH  17  20
ENDBRANCH   1  12
BRANCH   2  22
ATOM     22  O   UNL     1      -1.891   5.971  22.843  1.00  0.00    -0.502 OA
ATOM     23  H   UNL     1      -2.046   5.752  23.820  1.00  0.00     0.293 HD
ENDBRANCH   2  22
BRANCH   6  24
ATOM     24  O   UNL     1      -0.090   5.719  17.836  1.00  0.00    -0.507 OA
ATOM     25  H   UNL     1       0.861   5.839  17.522  1.00  0.00     0.293 HD
ENDBRANCH   6  24
BRANCH   8  26
ATOM     26  O   UNL     1      -1.096   1.161  16.783  1.00  0.00    -0.508 OA
ATOM     27  H   UNL     1      -0.241   0.680  16.526  1.00  0.00     0.293 HD
ENDBRANCH   8  26
TORSDOF 6
ENDMDL
MODEL 8
REMARK VINA RESULT:    -2.940      8.080     10.464
REMARK INTER + INTRA:          -3.827
REMARK INTER:                  -3.503
REMARK INTRA:                  -0.324
REMARK UNBOUND:                -0.286
REMARK SMILES O=c1c(O)c(-c2ccc(O)c(O)c2)oc2cc(O)cc(O)c12
REMARK SMILES IDX 5 1 3 2 2 3 1 4 22 5 20 6 19 7 17 8 16 9 15 10 14 11 6 12
REMARK SMILES IDX 7 13 8 14 9 15 13 16 11 17 10 18 12 20 4 22 21 24 18 26
REMARK H PARENT 10 19 12 21 4 23 21 25 18 27
REMARK Flexibility Score: inf
ROOT
ATOM      1  C   UNL     1       4.786  -2.166  19.444  1.00  0.00     0.180 A 
ATOM      2  C   UNL     1       5.711  -2.178  18.386  1.00  0.00     0.208 A 
ATOM      3  C   UNL     1       6.860  -1.378  18.477  1.00  0.00     0.238 A 
ATOM      4  O   UNL     1       7.711  -1.435  17.551  1.00  0.00    -0.285 OA
ATOM      5  C   UNL     1       7.063  -0.562  19.617  1.00  0.00     0.111 A 
ATOM      6  C   UNL     1       8.172   0.318  19.796  1.00  0.00     0.134 A 
ATOM      7  C   UNL     1       8.338   0.979  21.019  1.00  0.00     0.093 A 
ATOM      8  C   UNL     1       7.403   0.842  22.045  1.00  0.00     0.123 A 
ATOM      9  C   UNL     1       6.283   0.031  21.858  1.00  0.00     0.094 A 
ATOM     10  C   UNL     1       6.109  -0.670  20.662  1.00  0.00     0.146 A 
ATOM     11  O   UNL     1       5.037  -1.441  20.528  1.00  0.00    -0.452 OA
ENDROOT
BRANCH   1  12
ATOM     12  C   UNL     1       3.539  -2.963  19.410  1.00  0.00     0.025 A 
ATOM     13  C   UNL     1       3.497  -4.279  19.901  1.00  0.00     0.016 A 
ATOM     14  C   UNL     1       2.316  -5.021  19.837  1.00  0.00     0.051 A 
ATOM     15  C   UNL     1       1.163  -4.468  19.271  1.00  0.00     0.157 A 
ATOM     16  C   UNL     1       2.384  -2.418  18.823  1.00  0.00     0.062 A 
ATOM     17  C   UNL     1       1.197  -3.161  18.758  1.00  0.00     0.158 A 
BRANCH  15  18
ATOM     18  O   UNL     1      -0.002  -5.232  19.222  1.00  0.00    -0.504 OA
ATOM     19  H   UNL     1      -0.234  -5.907  19.941  1.00  0.00     0.293 HD
ENDBRANCH  15  18
BRANCH  17  20
ATOM     20  O   UNL     1       0.054  -2.605  18.185  1.00  0.00    -0.504 OA
ATOM     21  H   UNL     1       0.110  -1.964  17.403  1.00  0.00     0.293 HD
ENDBRANCH  17  20
ENDBRANCH   1  12
BRANCH   2  22
ATOM     22  O   UNL     1       5.502  -3.008  17.280  1.00  0.00    -0.502 OA
ATOM     23  H   UNL     1       6.039  -2.920  16.426  1.00  0.00     0.293 HD
ENDBRANCH   2  22
BRANCH   6  24
ATOM     24  O   UNL     1       9.115   0.598  18.803  1.00  0.00    -0.507 OA
ATOM     25  H   UNL     1       9.548   1.498  18.659  1.00  0.00     0.293 HD
ENDBRANCH   6  24
BRANCH   8  26
ATOM     26  O   UNL     1       7.592   1.527  23.243  1.00  0.00    -0.508 OA
ATOM     27  H   UNL     1       8.496   1.551  23.703  1.00  0.00     0.293 HD
ENDBRANCH   8  26
TORSDOF 6
ENDMDL
MODEL 9
REMARK VINA RESULT:    -2.876      9.483     11.153
REMARK INTER + INTRA:          -3.750
REMARK INTER:                  -3.435
REMARK INTRA:                  -0.315
REMARK UNBOUND:                -0.286
REMARK SMILES O=c1c(O)c(-c2ccc(O)c(O)c2)oc2cc(O)cc(O)c12
REMARK SMILES IDX 5 1 3 2 2 3 1 4 22 5 20 6 19 7 17 8 16 9 15 10 14 11 6 12
REMARK SMILES IDX 7 13 8 14 9 15 13 16 11 17 10 18 12 20 4 22 21 24 18 26
REMARK H PARENT 10 19 12 21 4 23 21 25 18 27
REMARK Flexibility Score: inf
ROOT
ATOM      1  C   UNL     1       6.563  -2.573  24.078  1.00  0.00     0.180 A 
ATOM      2  C   UNL     1       7.915  -2.625  24.459  1.00  0.00     0.208 A 
ATOM      3  C   UNL     1       8.234  -2.834  25.810  1.00  0.00     0.238 A 
ATOM      4  O   UNL     1       9.446  -2.933  26.136  1.00  0.00    -0.285 OA
ATOM      5  C   UNL     1       7.198  -2.971  26.766  1.00  0.00     0.111 A 
ATOM      6  C   UNL     1       7.407  -3.146  28.167  1.00  0.00     0.134 A 
ATOM      7  C   UNL     1       6.312  -3.401  29.001  1.00  0.00     0.093 A 
ATOM      8  C   UNL     1       5.013  -3.424  28.497  1.00  0.00     0.123 A 
ATOM      9  C   UNL     1       4.792  -3.195  27.139  1.00  0.00     0.094 A 
ATOM     10  C   UNL     1       5.867  -2.973  26.275  1.00  0.00     0.146 A 
ATOM     11  O   UNL     1       5.616  -2.771  24.987  1.00  0.00    -0.452 OA
ENDROOT
BRANCH   1  12
ATOM     12  C   UNL     1       6.148  -2.332  22.678  1.00  0.00     0.025 A 
ATOM     13  C   UNL     1       5.873  -3.397  21.801  1.00  0.00     0.016 A 
ATOM     14  C   UNL     1       5.506  -3.145  20.477  1.00  0.00     0.051 A 
ATOM     15  C   UNL     1       5.420  -1.833  20.003  1.00  0.00     0.157 A 
ATOM     16  C   UNL     1       6.080  -1.015  22.192  1.00  0.00     0.062 A 
ATOM     17  C   UNL     1       5.712  -0.761  20.864  1.00  0.00     0.158 A 
BRANCH  15  18
ATOM     18  O   UNL     1       5.050  -1.613  18.677  1.00  0.00    -0.504 OA
ATOM     19  H   UNL     1       4.373  -0.906  18.418  1.00  0.00     0.293 HD
ENDBRANCH  15  18
BRANCH  17  20
ATOM     20  O   UNL     1       5.636   0.550  20.396  1.00  0.00    -0.504 OA
ATOM     21  H   UNL     1       4.948   0.830  19.709  1.00  0.00     0.293 HD
ENDBRANCH  17  20
ENDBRANCH   1  12
BRANCH   2  22
ATOM     22  O   UNL     1       8.921  -2.510  23.496  1.00  0.00    -0.502 OA
ATOM     23  H   UNL     1       9.897  -2.688  23.704  1.00  0.00     0.293 HD
ENDBRANCH   2  22
BRANCH   6  24
ATOM     24  O   UNL     1       8.656  -3.051  28.788  1.00  0.00    -0.507 OA
ATOM     25  H   UNL     1       8.854  -3.353  29.730  1.00  0.00     0.293 HD
ENDBRANCH   6  24
BRANCH   8  26
ATOM     26  O   UNL     1       3.946  -3.667  29.360  1.00  0.00    -0.508 OA
ATOM     27  H   UNL     1       3.383  -4.507  29.283  1.00  0.00     0.293 HD
ENDBRANCH   8  26
TORSDOF 6
ENDMDL
