MODEL 1
REMARK VINA RESULT:    -5.117      0.000      0.000
REMARK INTER + INTRA:          -6.513
REMARK INTER:                  -6.164
REMARK INTRA:                  -0.349
REMARK UNBOUND:                -0.349
REMARK SMILES Oc1cc(O)c2cc(O)c(-c3ccc(O)c(O)c3)[o+]c2c1.[Cl-]
REMARK SMILES IDX 10 1 19 2 20 3 21 4 2 5 3 6 4 7 6 8 7 9 8 10 11 11 12 12
REMARK SMILES IDX 13 13 14 14 18 15 16 16 15 17 17 19 9 21 1 23 5 25
REMARK H PARENT 15 18 17 20 9 22 1 24 5 26
REMARK Flexibility Score: inf
ROOT
ATOM      1  C   UNL     1      33.153  -4.598   0.983  1.00  0.00     0.402 A 
ATOM      2  O   UNL     1      33.727  -4.995  -0.150  1.00  0.00    -0.202 OA
ATOM      3  C   UNL     1      33.106  -5.735  -1.062  1.00  0.00     0.368 A 
ATOM      4  C   UNL     1      33.794  -6.106  -2.221  1.00  0.00     0.162 A 
ATOM      5  C   UNL     1      33.169  -6.884  -3.195  1.00  0.00     0.128 A 
ATOM      6  C   UNL     1      31.845  -7.298  -3.011  1.00  0.00     0.093 A 
ATOM      7  C   UNL     1      31.133  -6.940  -1.860  1.00  0.00     0.136 A 
ATOM      8  C   UNL     1      31.765  -6.146  -0.868  1.00  0.00     0.125 A 
ATOM      9  C   UNL     1      31.126  -5.729   0.310  1.00  0.00     0.078 A 
ATOM     10  C   UNL     1      31.812  -4.943   1.241  1.00  0.00     0.223 A 
ENDROOT
BRANCH   1  11
ATOM     11  C   UNL     1      33.953  -3.786   1.927  1.00  0.00     0.087 A 
ATOM     12  C   UNL     1      34.661  -4.425   2.957  1.00  0.00     0.022 A 
ATOM     13  C   UNL     1      35.408  -3.677   3.872  1.00  0.00     0.051 A 
ATOM     14  C   UNL     1      35.446  -2.283   3.781  1.00  0.00     0.157 A 
ATOM     15  C   UNL     1      33.976  -2.382   1.849  1.00  0.00     0.068 A 
ATOM     16  C   UNL     1      34.723  -1.630   2.768  1.00  0.00     0.158 A 
BRANCH  14  17
ATOM     17  O   UNL     1      36.201  -1.563   4.706  1.00  0.00    -0.504 OA
ATOM     18  H   UNL     1      35.946  -0.627   4.998  1.00  0.00     0.293 HD
ENDBRANCH  14  17
BRANCH  16  19
ATOM     19  O   UNL     1      34.746  -0.239   2.680  1.00  0.00    -0.504 OA
ATOM     20  H   UNL     1      34.075   0.269   2.116  1.00  0.00     0.293 HD
ENDBRANCH  16  19
ENDBRANCH   1  11
BRANCH  10  21
ATOM     21  O   UNL     1      31.163  -4.487   2.388  1.00  0.00    -0.500 OA
ATOM     22  H   UNL     1      30.986  -5.097   3.177  1.00  0.00     0.294 HD
ENDBRANCH  10  21
BRANCH   5  23
ATOM     23  O   UNL     1      33.872  -7.243  -4.343  1.00  0.00    -0.507 OA
ATOM     24  H   UNL     1      34.746  -6.794  -4.591  1.00  0.00     0.293 HD
ENDBRANCH   5  23
BRANCH   7  25
ATOM     25  O   UNL     1      29.816  -7.396  -1.749  1.00  0.00    -0.507 OA
ATOM     26  H   UNL     1      29.301  -7.448  -0.883  1.00  0.00     0.293 HD
ENDBRANCH   7  25
TORSDOF 6
ENDMDL
MODEL 2
REMARK VINA RESULT:    -5.081      1.584      2.346
REMARK INTER + INTRA:          -6.469
REMARK INTER:                  -6.158
REMARK INTRA:                  -0.311
REMARK UNBOUND:                -0.349
REMARK SMILES Oc1cc(O)c2cc(O)c(-c3ccc(O)c(O)c3)[o+]c2c1.[Cl-]
REMARK SMILES IDX 10 1 19 2 20 3 21 4 2 5 3 6 4 7 6 8 7 9 8 10 11 11 12 12
REMARK SMILES IDX 13 13 14 14 18 15 16 16 15 17 17 19 9 21 1 23 5 25
REMARK H PARENT 15 18 17 20 9 22 1 24 5 26
REMARK Flexibility Score: inf
ROOT
ATOM      1  C   UNL     1      32.496  -5.490   0.393  1.00  0.00     0.402 A 
ATOM      2  O   UNL     1      33.420  -5.824  -0.504  1.00  0.00    -0.202 OA
ATOM      3  C   UNL     1      33.129  -6.349  -1.691  1.00  0.00     0.368 A 
ATOM      4  C   UNL     1      34.171  -6.670  -2.565  1.00  0.00     0.162 A 
ATOM      5  C   UNL     1      33.897  -7.224  -3.815  1.00  0.00     0.128 A 
ATOM      6  C   UNL     1      32.571  -7.460  -4.197  1.00  0.00     0.093 A 
ATOM      7  C   UNL     1      31.509  -7.146  -3.339  1.00  0.00     0.136 A 
ATOM      8  C   UNL     1      31.785  -6.581  -2.067  1.00  0.00     0.125 A 
ATOM      9  C   UNL     1      30.785  -6.223  -1.149  1.00  0.00     0.078 A 
ATOM     10  C   UNL     1      31.133  -5.665   0.085  1.00  0.00     0.223 A 
ENDROOT
BRANCH   1  11
ATOM     11  C   UNL     1      32.946  -4.924   1.685  1.00  0.00     0.087 A 
ATOM     12  C   UNL     1      33.455  -3.616   1.724  1.00  0.00     0.022 A 
ATOM     13  C   UNL     1      33.903  -3.068   2.929  1.00  0.00     0.051 A 
ATOM     14  C   UNL     1      33.865  -3.821   4.106  1.00  0.00     0.157 A 
ATOM     15  C   UNL     1      32.927  -5.687   2.865  1.00  0.00     0.068 A 
ATOM     16  C   UNL     1      33.380  -5.139   4.075  1.00  0.00     0.158 A 
BRANCH  14  17
ATOM     17  O   UNL     1      34.318  -3.247   5.294  1.00  0.00    -0.504 OA
ATOM     18  H   UNL     1      34.781  -2.347   5.315  1.00  0.00     0.293 HD
ENDBRANCH  14  17
BRANCH  16  19
ATOM     19  O   UNL     1      33.352  -5.900   5.243  1.00  0.00    -0.504 OA
ATOM     20  H   UNL     1      33.998  -6.666   5.393  1.00  0.00     0.293 HD
ENDBRANCH  16  19
ENDBRANCH   1  11
BRANCH  10  21
ATOM     21  O   UNL     1      30.139  -5.263   0.978  1.00  0.00    -0.500 OA
ATOM     22  H   UNL     1      30.300  -4.529   1.657  1.00  0.00     0.294 HD
ENDBRANCH  10  21
BRANCH   5  23
ATOM     23  O   UNL     1      34.949  -7.538  -4.674  1.00  0.00    -0.507 OA
ATOM     24  H   UNL     1      34.793  -7.714  -5.660  1.00  0.00     0.293 HD
ENDBRANCH   5  23
BRANCH   7  25
ATOM     25  O   UNL     1      30.214  -7.416  -3.792  1.00  0.00    -0.507 OA
ATOM     26  H   UNL     1      29.701  -8.259  -3.584  1.00  0.00     0.293 HD
ENDBRANCH   7  25
TORSDOF 6
ENDMDL
MODEL 3
REMARK VINA RESULT:    -4.994      2.575      7.251
REMARK INTER + INTRA:          -6.365
REMARK INTER:                  -6.020
REMARK INTRA:                  -0.345
REMARK UNBOUND:                -0.349
REMARK SMILES Oc1cc(O)c2cc(O)c(-c3ccc(O)c(O)c3)[o+]c2c1.[Cl-]
REMARK SMILES IDX 10 1 19 2 20 3 21 4 2 5 3 6 4 7 6 8 7 9 8 10 11 11 12 12
REMARK SMILES IDX 13 13 14 14 18 15 16 16 15 17 17 19 9 21 1 23 5 25
REMARK H PARENT 15 18 17 20 9 22 1 24 5 26
REMARK Flexibility Score: inf
ROOT
ATOM      1  C   UNL     1      33.063  -6.229   1.697  1.00  0.00     0.402 A 
ATOM      2  O   UNL     1      32.678  -5.115   2.313  1.00  0.00    -0.202 OA
ATOM      3  C   UNL     1      32.926  -4.866   3.595  1.00  0.00     0.368 A 
ATOM      4  C   UNL     1      32.477  -3.666   4.154  1.00  0.00     0.162 A 
ATOM      5  C   UNL     1      32.720  -3.379   5.496  1.00  0.00     0.128 A 
ATOM      6  C   UNL     1      33.417  -4.297   6.290  1.00  0.00     0.093 A 
ATOM      7  C   UNL     1      33.878  -5.506   5.754  1.00  0.00     0.136 A 
ATOM      8  C   UNL     1      33.634  -5.801   4.387  1.00  0.00     0.125 A 
ATOM      9  C   UNL     1      34.069  -6.980   3.762  1.00  0.00     0.078 A 
ATOM     10  C   UNL     1      33.795  -7.199   2.409  1.00  0.00     0.223 A 
ENDROOT
BRANCH   1  11
ATOM     11  C   UNL     1      32.717  -6.396   0.267  1.00  0.00     0.087 A 
ATOM     12  C   UNL     1      33.619  -5.958  -0.716  1.00  0.00     0.022 A 
ATOM     13  C   UNL     1      33.304  -6.087  -2.071  1.00  0.00     0.051 A 
ATOM     14  C   UNL     1      32.083  -6.640  -2.464  1.00  0.00     0.157 A 
ATOM     15  C   UNL     1      31.479  -6.932  -0.129  1.00  0.00     0.068 A 
ATOM     16  C   UNL     1      31.162  -7.061  -1.490  1.00  0.00     0.158 A 
BRANCH  14  17
ATOM     17  O   UNL     1      31.797  -6.758  -3.824  1.00  0.00    -0.504 OA
ATOM     18  H   UNL     1      32.460  -6.484  -4.540  1.00  0.00     0.293 HD
ENDBRANCH  14  17
BRANCH  16  19
ATOM     19  O   UNL     1      29.935  -7.600  -1.875  1.00  0.00    -0.504 OA
ATOM     20  H   UNL     1      29.670  -7.672  -2.851  1.00  0.00     0.293 HD
ENDBRANCH  16  19
ENDBRANCH   1  11
BRANCH  10  21
ATOM     21  O   UNL     1      34.270  -8.347   1.775  1.00  0.00    -0.500 OA
ATOM     22  H   UNL     1      35.212  -8.688   1.927  1.00  0.00     0.294 HD
ENDBRANCH  10  21
BRANCH   5  23
ATOM     23  O   UNL     1      32.265  -2.177   6.036  1.00  0.00    -0.507 OA
ATOM     24  H   UNL     1      32.812  -1.660   6.714  1.00  0.00     0.293 HD
ENDBRANCH   5  23
BRANCH   7  25
ATOM     25  O   UNL     1      34.562  -6.372   6.612  1.00  0.00    -0.507 OA
ATOM     26  H   UNL     1      35.405  -6.131   7.112  1.00  0.00     0.293 HD
ENDBRANCH   7  25
TORSDOF 6
ENDMDL
MODEL 4
REMARK VINA RESULT:    -4.968      1.824      7.204
REMARK INTER + INTRA:          -6.333
REMARK INTER:                  -6.057
REMARK INTRA:                  -0.276
REMARK UNBOUND:                -0.349
REMARK SMILES Oc1cc(O)c2cc(O)c(-c3ccc(O)c(O)c3)[o+]c2c1.[Cl-]
REMARK SMILES IDX 10 1 19 2 20 3 21 4 2 5 3 6 4 7 6 8 7 9 8 10 11 11 12 12
REMARK SMILES IDX 13 13 14 14 18 15 16 16 15 17 17 19 9 21 1 23 5 25
REMARK H PARENT 15 18 17 20 9 22 1 24 5 26
REMARK Flexibility Score: inf
ROOT
ATOM      1  C   UNL     1      32.464  -6.658  -1.893  1.00  0.00     0.402 A 
ATOM      2  O   UNL     1      33.532  -6.075  -1.354  1.00  0.00    -0.202 OA
ATOM      3  C   UNL     1      33.494  -5.397  -0.211  1.00  0.00     0.368 A 
ATOM      4  C   UNL     1      34.669  -4.817   0.274  1.00  0.00     0.162 A 
ATOM      5  C   UNL     1      34.659  -4.098   1.469  1.00  0.00     0.128 A 
ATOM      6  C   UNL     1      33.467  -3.955   2.186  1.00  0.00     0.093 A 
ATOM      7  C   UNL     1      32.275  -4.526   1.721  1.00  0.00     0.136 A 
ATOM      8  C   UNL     1      32.282  -5.261   0.507  1.00  0.00     0.125 A 
ATOM      9  C   UNL     1      31.140  -5.879  -0.028  1.00  0.00     0.078 A 
ATOM     10  C   UNL     1      31.225  -6.591  -1.228  1.00  0.00     0.223 A 
ENDROOT
BRANCH   1  11
ATOM     11  C   UNL     1      32.631  -7.376  -3.178  1.00  0.00     0.087 A 
ATOM     12  C   UNL     1      32.661  -8.780  -3.183  1.00  0.00     0.022 A 
ATOM     13  C   UNL     1      32.837  -9.478  -4.381  1.00  0.00     0.051 A 
ATOM     14  C   UNL     1      33.001  -8.788  -5.585  1.00  0.00     0.157 A 
ATOM     15  C   UNL     1      32.817  -6.683  -4.386  1.00  0.00     0.068 A 
ATOM     16  C   UNL     1      32.996  -7.383  -5.589  1.00  0.00     0.158 A 
BRANCH  14  17
ATOM     17  O   UNL     1      33.173  -9.512  -6.764  1.00  0.00    -0.504 OA
ATOM     18  H   UNL     1      33.608 -10.426  -6.777  1.00  0.00     0.293 HD
ENDBRANCH  14  17
BRANCH  16  19
ATOM     19  O   UNL     1      33.173  -6.688  -6.785  1.00  0.00    -0.504 OA
ATOM     20  H   UNL     1      32.435  -6.118  -7.182  1.00  0.00     0.293 HD
ENDBRANCH  16  19
ENDBRANCH   1  11
BRANCH  10  21
ATOM     21  O   UNL     1      30.103  -7.247  -1.734  1.00  0.00    -0.500 OA
ATOM     22  H   UNL     1      29.800  -7.120  -2.693  1.00  0.00     0.294 HD
ENDBRANCH  10  21
BRANCH   5  23
ATOM     23  O   UNL     1      35.841  -3.527   1.937  1.00  0.00    -0.507 OA
ATOM     24  H   UNL     1      35.962  -3.284   2.913  1.00  0.00     0.293 HD
ENDBRANCH   5  23
BRANCH   7  25
ATOM     25  O   UNL     1      31.125  -4.335   2.493  1.00  0.00    -0.507 OA
ATOM     26  H   UNL     1      30.587  -3.482   2.513  1.00  0.00     0.293 HD
ENDBRANCH   7  25
TORSDOF 6
ENDMDL
MODEL 5
REMARK VINA RESULT:    -4.966      2.581      3.889
REMARK INTER + INTRA:          -6.332
REMARK INTER:                  -5.982
REMARK INTRA:                  -0.350
REMARK UNBOUND:                -0.349
REMARK SMILES Oc1cc(O)c2cc(O)c(-c3ccc(O)c(O)c3)[o+]c2c1.[Cl-]
REMARK SMILES IDX 10 1 19 2 20 3 21 4 2 5 3 6 4 7 6 8 7 9 8 10 11 11 12 12
REMARK SMILES IDX 13 13 14 14 18 15 16 16 15 17 17 19 9 21 1 23 5 25
REMARK H PARENT 15 18 17 20 9 22 1 24 5 26
REMARK Flexibility Score: inf
ROOT
ATOM      1  C   UNL     1      33.143  -6.163  -0.952  1.00  0.00     0.402 A 
ATOM      2  O   UNL     1      32.193  -6.911  -1.507  1.00  0.00    -0.202 OA
ATOM      3  C   UNL     1      32.048  -7.049  -2.822  1.00  0.00     0.368 A 
ATOM      4  C   UNL     1      31.016  -7.855  -3.310  1.00  0.00     0.162 A 
ATOM      5  C   UNL     1      30.838  -8.017  -4.684  1.00  0.00     0.128 A 
ATOM      6  C   UNL     1      31.697  -7.369  -5.579  1.00  0.00     0.093 A 
ATOM      7  C   UNL     1      32.739  -6.556  -5.115  1.00  0.00     0.136 A 
ATOM      8  C   UNL     1      32.924  -6.391  -3.718  1.00  0.00     0.125 A 
ATOM      9  C   UNL     1      33.948  -5.607  -3.162  1.00  0.00     0.078 A 
ATOM     10  C   UNL     1      34.071  -5.495  -1.774  1.00  0.00     0.223 A 
ENDROOT
BRANCH   1  11
ATOM     11  C   UNL     1      33.195  -6.079   0.525  1.00  0.00     0.087 A 
ATOM     12  C   UNL     1      33.955  -7.016   1.242  1.00  0.00     0.022 A 
ATOM     13  C   UNL     1      34.003  -6.968   2.638  1.00  0.00     0.051 A 
ATOM     14  C   UNL     1      33.283  -5.995   3.337  1.00  0.00     0.157 A 
ATOM     15  C   UNL     1      32.456  -5.113   1.231  1.00  0.00     0.068 A 
ATOM     16  C   UNL     1      32.501  -5.065   2.632  1.00  0.00     0.158 A 
BRANCH  14  17
ATOM     17  O   UNL     1      33.352  -5.970   4.730  1.00  0.00    -0.504 OA
ATOM     18  H   UNL     1      34.117  -5.527   5.224  1.00  0.00     0.293 HD
ENDBRANCH  14  17
BRANCH  16  19
ATOM     19  O   UNL     1      31.770  -4.101   3.324  1.00  0.00    -0.504 OA
ATOM     20  H   UNL     1      31.969  -3.112   3.227  1.00  0.00     0.293 HD
ENDBRANCH  16  19
ENDBRANCH   1  11
BRANCH  10  21
ATOM     21  O   UNL     1      35.118  -4.758  -1.221  1.00  0.00    -0.500 OA
ATOM     22  H   UNL     1      36.087  -4.989  -1.405  1.00  0.00     0.294 HD
ENDBRANCH  10  21
BRANCH   5  23
ATOM     23  O   UNL     1      29.804  -8.825  -5.152  1.00  0.00    -0.507 OA
ATOM     24  H   UNL     1      29.065  -8.453  -5.738  1.00  0.00     0.293 HD
ENDBRANCH   5  23
BRANCH   7  25
ATOM     25  O   UNL     1      33.550  -5.941  -6.072  1.00  0.00    -0.507 OA
ATOM     26  H   UNL     1      34.552  -6.050  -6.126  1.00  0.00     0.293 HD
ENDBRANCH   7  25
TORSDOF 6
ENDMDL
MODEL 6
REMARK VINA RESULT:    -4.932      6.607      9.179
REMARK INTER + INTRA:          -6.290
REMARK INTER:                  -5.990
REMARK INTRA:                  -0.301
REMARK UNBOUND:                -0.349
REMARK SMILES Oc1cc(O)c2cc(O)c(-c3ccc(O)c(O)c3)[o+]c2c1.[Cl-]
REMARK SMILES IDX 10 1 19 2 20 3 21 4 2 5 3 6 4 7 6 8 7 9 8 10 11 11 12 12
REMARK SMILES IDX 13 13 14 14 18 15 16 16 15 17 17 19 9 21 1 23 5 25
REMARK H PARENT 15 18 17 20 9 22 1 24 5 26
REMARK Flexibility Score: inf
ROOT
ATOM      1  C   UNL     1      35.885   0.187  -3.418  1.00  0.00     0.402 A 
ATOM      2  O   UNL     1      35.969   0.925  -2.314  1.00  0.00    -0.202 OA
ATOM      3  C   UNL     1      36.023   0.407  -1.092  1.00  0.00     0.368 A 
ATOM      4  C   UNL     1      36.107   1.265   0.008  1.00  0.00     0.162 A 
ATOM      5  C   UNL     1      36.163   0.750   1.303  1.00  0.00     0.128 A 
ATOM      6  C   UNL     1      36.133  -0.634   1.503  1.00  0.00     0.093 A 
ATOM      7  C   UNL     1      36.050  -1.516   0.418  1.00  0.00     0.136 A 
ATOM      8  C   UNL     1      35.995  -0.996  -0.901  1.00  0.00     0.125 A 
ATOM      9  C   UNL     1      35.924  -1.803  -2.047  1.00  0.00     0.078 A 
ATOM     10  C   UNL     1      35.878  -1.217  -3.316  1.00  0.00     0.223 A 
ENDROOT
BRANCH   1  11
ATOM     11  C   UNL     1      35.820   0.883  -4.723  1.00  0.00     0.087 A 
ATOM     12  C   UNL     1      36.962   1.535  -5.214  1.00  0.00     0.022 A 
ATOM     13  C   UNL     1      36.919   2.214  -6.435  1.00  0.00     0.051 A 
ATOM     14  C   UNL     1      35.734   2.266  -7.174  1.00  0.00     0.157 A 
ATOM     15  C   UNL     1      34.623   0.952  -5.458  1.00  0.00     0.068 A 
ATOM     16  C   UNL     1      34.578   1.636  -6.682  1.00  0.00     0.158 A 
BRANCH  14  17
ATOM     17  O   UNL     1      35.721   2.949  -8.389  1.00  0.00    -0.504 OA
ATOM     18  H   UNL     1      35.126   2.669  -9.159  1.00  0.00     0.293 HD
ENDBRANCH  14  17
BRANCH  16  19
ATOM     19  O   UNL     1      33.388   1.695  -7.408  1.00  0.00    -0.504 OA
ATOM     20  H   UNL     1      32.832   2.541  -7.446  1.00  0.00     0.293 HD
ENDBRANCH  16  19
ENDBRANCH   1  11
BRANCH  10  21
ATOM     21  O   UNL     1      35.858  -2.019  -4.457  1.00  0.00    -0.500 OA
ATOM     22  H   UNL     1      35.101  -2.668  -4.638  1.00  0.00     0.294 HD
ENDBRANCH  10  21
BRANCH   5  23
ATOM     23  O   UNL     1      36.246   1.622   2.386  1.00  0.00    -0.507 OA
ATOM     24  H   UNL     1      36.906   2.392   2.397  1.00  0.00     0.293 HD
ENDBRANCH   5  23
BRANCH   7  25
ATOM     25  O   UNL     1      36.022  -2.885   0.702  1.00  0.00    -0.507 OA
ATOM     26  H   UNL     1      36.102  -3.613   0.007  1.00  0.00     0.293 HD
ENDBRANCH   7  25
TORSDOF 6
ENDMDL
MODEL 7
REMARK VINA RESULT:    -4.852      2.616      3.210
REMARK INTER + INTRA:          -6.193
REMARK INTER:                  -5.909
REMARK INTRA:                  -0.284
REMARK UNBOUND:                -0.349
REMARK SMILES Oc1cc(O)c2cc(O)c(-c3ccc(O)c(O)c3)[o+]c2c1.[Cl-]
REMARK SMILES IDX 10 1 19 2 20 3 21 4 2 5 3 6 4 7 6 8 7 9 8 10 11 11 12 12
REMARK SMILES IDX 13 13 14 14 18 15 16 16 15 17 17 19 9 21 1 23 5 25
REMARK H PARENT 15 18 17 20 9 22 1 24 5 26
REMARK Flexibility Score: inf
ROOT
ATOM      1  C   UNL     1      33.099  -5.113   3.339  1.00  0.00     0.402 A 
ATOM      2  O   UNL     1      32.430  -4.915   2.207  1.00  0.00    -0.202 OA
ATOM      3  C   UNL     1      32.294  -5.845   1.267  1.00  0.00     0.368 A 
ATOM      4  C   UNL     1      31.574  -5.540   0.108  1.00  0.00     0.162 A 
ATOM      5  C   UNL     1      31.418  -6.495  -0.896  1.00  0.00     0.128 A 
ATOM      6  C   UNL     1      31.984  -7.765  -0.744  1.00  0.00     0.093 A 
ATOM      7  C   UNL     1      32.709  -8.096   0.408  1.00  0.00     0.136 A 
ATOM      8  C   UNL     1      32.869  -7.128   1.433  1.00  0.00     0.125 A 
ATOM      9  C   UNL     1      33.567  -7.374   2.625  1.00  0.00     0.078 A 
ATOM     10  C   UNL     1      33.679  -6.371   3.593  1.00  0.00     0.223 A 
ENDROOT
BRANCH   1  11
ATOM     11  C   UNL     1      33.189  -3.994   4.305  1.00  0.00     0.087 A 
ATOM     12  C   UNL     1      32.383  -4.009   5.454  1.00  0.00     0.022 A 
ATOM     13  C   UNL     1      32.437  -2.954   6.369  1.00  0.00     0.051 A 
ATOM     14  C   UNL     1      33.284  -1.865   6.144  1.00  0.00     0.157 A 
ATOM     15  C   UNL     1      34.026  -2.889   4.070  1.00  0.00     0.068 A 
ATOM     16  C   UNL     1      34.080  -1.829   4.987  1.00  0.00     0.158 A 
BRANCH  14  17
ATOM     17  O   UNL     1      33.319  -0.828   7.076  1.00  0.00    -0.504 OA
ATOM     18  H   UNL     1      34.171  -0.563   7.556  1.00  0.00     0.293 HD
ENDBRANCH  14  17
BRANCH  16  19
ATOM     19  O   UNL     1      34.917  -0.739   4.749  1.00  0.00    -0.504 OA
ATOM     20  H   UNL     1      34.891  -0.231   3.873  1.00  0.00     0.293 HD
ENDBRANCH  16  19
ENDBRANCH   1  11
BRANCH  10  21
ATOM     21  O   UNL     1      34.330  -6.630   4.799  1.00  0.00    -0.500 OA
ATOM     22  H   UNL     1      34.580  -5.886   5.439  1.00  0.00     0.294 HD
ENDBRANCH  10  21
BRANCH   5  23
ATOM     23  O   UNL     1      30.697  -6.173  -2.044  1.00  0.00    -0.507 OA
ATOM     24  H   UNL     1      30.508  -6.863  -2.762  1.00  0.00     0.293 HD
ENDBRANCH   5  23
BRANCH   7  25
ATOM     25  O   UNL     1      33.247  -9.384   0.483  1.00  0.00    -0.507 OA
ATOM     26  H   UNL     1      33.974  -9.735  -0.123  1.00  0.00     0.293 HD
ENDBRANCH   7  25
TORSDOF 6
ENDMDL
MODEL 8
REMARK VINA RESULT:    -4.778      2.839      7.009
REMARK INTER + INTRA:          -6.104
REMARK INTER:                  -5.756
REMARK INTRA:                  -0.349
REMARK UNBOUND:                -0.349
REMARK SMILES Oc1cc(O)c2cc(O)c(-c3ccc(O)c(O)c3)[o+]c2c1.[Cl-]
REMARK SMILES IDX 10 1 19 2 20 3 21 4 2 5 3 6 4 7 6 8 7 9 8 10 11 11 12 12
REMARK SMILES IDX 13 13 14 14 18 15 16 16 15 17 17 19 9 21 1 23 5 25
REMARK H PARENT 15 18 17 20 9 22 1 24 5 26
REMARK Flexibility Score: inf
ROOT
ATOM      1  C   UNL     1      32.921  -6.138   1.492  1.00  0.00     0.402 A 
ATOM      2  O   UNL     1      33.594  -7.094   2.127  1.00  0.00    -0.202 OA
ATOM      3  C   UNL     1      33.961  -7.004   3.402  1.00  0.00     0.368 A 
ATOM      4  C   UNL     1      34.668  -8.061   3.981  1.00  0.00     0.162 A 
ATOM      5  C   UNL     1      35.070  -7.993   5.315  1.00  0.00     0.128 A 
ATOM      6  C   UNL     1      34.763  -6.861   6.078  1.00  0.00     0.093 A 
ATOM      7  C   UNL     1      34.055  -5.789   5.522  1.00  0.00     0.136 A 
ATOM      8  C   UNL     1      33.644  -5.855   4.165  1.00  0.00     0.125 A 
ATOM      9  C   UNL     1      32.919  -4.835   3.528  1.00  0.00     0.078 A 
ATOM     10  C   UNL     1      32.544  -4.973   2.188  1.00  0.00     0.223 A 
ENDROOT
BRANCH   1  11
ATOM     11  C   UNL     1      32.578  -6.350   0.068  1.00  0.00     0.087 A 
ATOM     12  C   UNL     1      33.453  -5.886  -0.928  1.00  0.00     0.022 A 
ATOM     13  C   UNL     1      33.141  -6.059  -2.279  1.00  0.00     0.051 A 
ATOM     14  C   UNL     1      31.948  -6.681  -2.656  1.00  0.00     0.157 A 
ATOM     15  C   UNL     1      31.369  -6.958  -0.313  1.00  0.00     0.068 A 
ATOM     16  C   UNL     1      31.054  -7.129  -1.669  1.00  0.00     0.158 A 
BRANCH  14  17
ATOM     17  O   UNL     1      31.664  -6.840  -4.012  1.00  0.00    -0.504 OA
ATOM     18  H   UNL     1      31.682  -6.063  -4.661  1.00  0.00     0.293 HD
ENDBRANCH  14  17
BRANCH  16  19
ATOM     19  O   UNL     1      29.855  -7.738  -2.038  1.00  0.00    -0.504 OA
ATOM     20  H   UNL     1      29.070  -7.795  -1.400  1.00  0.00     0.293 HD
ENDBRANCH  16  19
ENDBRANCH   1  11
BRANCH  10  21
ATOM     21  O   UNL     1      31.782  -3.982   1.568  1.00  0.00    -0.500 OA
ATOM     22  H   UNL     1      30.822  -4.147   1.289  1.00  0.00     0.294 HD
ENDBRANCH  10  21
BRANCH   5  23
ATOM     23  O   UNL     1      35.774  -9.058   5.876  1.00  0.00    -0.507 OA
ATOM     24  H   UNL     1      36.615  -8.907   6.421  1.00  0.00     0.293 HD
ENDBRANCH   5  23
BRANCH   7  25
ATOM     25  O   UNL     1      33.792  -4.693   6.348  1.00  0.00    -0.507 OA
ATOM     26  H   UNL     1      34.226  -4.537   7.246  1.00  0.00     0.293 HD
ENDBRANCH   7  25
TORSDOF 6
ENDMDL
MODEL 9
REMARK VINA RESULT:    -4.776      2.336      3.426
REMARK INTER + INTRA:          -6.103
REMARK INTER:                  -5.796
REMARK INTRA:                  -0.307
REMARK UNBOUND:                -0.349
REMARK SMILES Oc1cc(O)c2cc(O)c(-c3ccc(O)c(O)c3)[o+]c2c1.[Cl-]
REMARK SMILES IDX 10 1 19 2 20 3 21 4 2 5 3 6 4 7 6 8 7 9 8 10 11 11 12 12
REMARK SMILES IDX 13 13 14 14 18 15 16 16 15 17 17 19 9 21 1 23 5 25
REMARK H PARENT 15 18 17 20 9 22 1 24 5 26
REMARK Flexibility Score: inf
ROOT
ATOM      1  C   UNL     1      33.479  -4.163   2.668  1.00  0.00     0.402 A 
ATOM      2  O   UNL     1      32.452  -4.769   2.079  1.00  0.00    -0.202 OA
ATOM      3  C   UNL     1      32.484  -5.205   0.824  1.00  0.00     0.368 A 
ATOM      4  C   UNL     1      31.352  -5.829   0.292  1.00  0.00     0.162 A 
ATOM      5  C   UNL     1      31.356  -6.294  -1.022  1.00  0.00     0.128 A 
ATOM      6  C   UNL     1      32.498  -6.137  -1.814  1.00  0.00     0.093 A 
ATOM      7  C   UNL     1      33.646  -5.516  -1.305  1.00  0.00     0.136 A 
ATOM      8  C   UNL     1      33.647  -5.043   0.033  1.00  0.00     0.125 A 
ATOM      9  C   UNL     1      34.754  -4.421   0.632  1.00  0.00     0.078 A 
ATOM     10  C   UNL     1      34.682  -3.985   1.958  1.00  0.00     0.223 A 
ENDROOT
BRANCH   1  11
ATOM     11  C   UNL     1      33.317  -3.711   4.069  1.00  0.00     0.087 A 
ATOM     12  C   UNL     1      33.279  -4.663   5.100  1.00  0.00     0.022 A 
ATOM     13  C   UNL     1      33.108  -4.262   6.428  1.00  0.00     0.051 A 
ATOM     14  C   UNL     1      32.957  -2.909   6.743  1.00  0.00     0.157 A 
ATOM     15  C   UNL     1      33.145  -2.352   4.386  1.00  0.00     0.068 A 
ATOM     16  C   UNL     1      32.970  -1.948   5.718  1.00  0.00     0.158 A 
BRANCH  14  17
ATOM     17  O   UNL     1      32.789  -2.538   8.077  1.00  0.00    -0.504 OA
ATOM     18  H   UNL     1      33.557  -2.537   8.737  1.00  0.00     0.293 HD
ENDBRANCH  14  17
BRANCH  16  19
ATOM     19  O   UNL     1      32.806  -0.598   6.025  1.00  0.00    -0.504 OA
ATOM     20  H   UNL     1      32.054  -0.050   5.624  1.00  0.00     0.293 HD
ENDBRANCH  16  19
ENDBRANCH   1  11
BRANCH  10  21
ATOM     21  O   UNL     1      35.798  -3.412   2.569  1.00  0.00    -0.500 OA
ATOM     22  H   UNL     1      36.463  -2.854   2.046  1.00  0.00     0.294 HD
ENDBRANCH  10  21
BRANCH   5  23
ATOM     23  O   UNL     1      30.217  -6.914  -1.535  1.00  0.00    -0.507 OA
ATOM     24  H   UNL     1      30.254  -7.847  -1.928  1.00  0.00     0.293 HD
ENDBRANCH   5  23
BRANCH   7  25
ATOM     25  O   UNL     1      34.745  -5.393  -2.160  1.00  0.00    -0.507 OA
ATOM     26  H   UNL     1      34.939  -6.012  -2.932  1.00  0.00     0.293 HD
ENDBRANCH   7  25
TORSDOF 6
ENDMDL
