MODEL 1
REMARK VINA RESULT:    -5.972      0.000      0.000
REMARK INTER + INTRA:          -7.614
REMARK INTER:                  -7.194
REMARK INTRA:                  -0.420
REMARK UNBOUND:                -0.420
REMARK SMILES O=c1c(O)c(-c2ccc(O)cc2O)oc2cc(O)cc(O)c12
REMARK SMILES IDX 5 1 3 2 2 3 1 4 22 5 20 6 19 7 17 8 16 9 15 10 14 11 6 12
REMARK SMILES IDX 8 13 7 14 9 15 11 16 12 17 10 18 13 20 4 22 21 24 18 26
REMARK H PARENT 10 19 13 21 4 23 21 25 18 27
REMARK Flexibility Score: inf
ROOT
ATOM      1  C   UNL     1      16.196  -6.789 -31.740  1.00  0.00     0.184 A 
ATOM      2  C   UNL     1      15.829  -5.527 -31.238  1.00  0.00     0.208 A 
ATOM      3  C   UNL     1      14.952  -5.461 -30.143  1.00  0.00     0.238 A 
ATOM      4  O   UNL     1      14.622  -4.336 -29.680  1.00  0.00    -0.285 OA
ATOM      5  C   UNL     1      14.450  -6.653 -29.582  1.00  0.00     0.111 A 
ATOM      6  C   UNL     1      13.561  -6.674 -28.481  1.00  0.00     0.134 A 
ATOM      7  C   UNL     1      13.099  -7.902 -27.983  1.00  0.00     0.093 A 
ATOM      8  C   UNL     1      13.508  -9.106 -28.566  1.00  0.00     0.123 A 
ATOM      9  C   UNL     1      14.385  -9.090 -29.652  1.00  0.00     0.094 A 
ATOM     10  C   UNL     1      14.858  -7.877 -30.161  1.00  0.00     0.146 A 
ATOM     11  O   UNL     1      15.695  -7.892 -31.193  1.00  0.00    -0.451 OA
ENDROOT
BRANCH   1  12
ATOM     12  C   UNL     1      17.131  -6.933 -32.881  1.00  0.00     0.063 A 
ATOM     13  C   UNL     1      17.553  -6.916 -35.278  1.00  0.00     0.047 A 
ATOM     14  C   UNL     1      16.667  -6.808 -34.203  1.00  0.00     0.020 A 
ATOM     15  C   UNL     1      18.916  -7.141 -35.048  1.00  0.00     0.119 A 
ATOM     16  C   UNL     1      19.388  -7.253 -33.738  1.00  0.00     0.093 A 
ATOM     17  C   UNL     1      18.505  -7.148 -32.652  1.00  0.00     0.130 A 
BRANCH  15  18
ATOM     18  O   UNL     1      19.808  -7.250 -36.112  1.00  0.00    -0.508 OA
ATOM     19  H   UNL     1      20.145  -6.432 -36.605  1.00  0.00     0.293 HD
ENDBRANCH  15  18
BRANCH  17  20
ATOM     20  O   UNL     1      18.990  -7.268 -31.349  1.00  0.00    -0.507 OA
ATOM     21  H   UNL     1      18.520  -6.832 -30.564  1.00  0.00     0.293 HD
ENDBRANCH  17  20
ENDBRANCH   1  12
BRANCH   2  22
ATOM     22  O   UNL     1      16.310  -4.362 -31.841  1.00  0.00    -0.502 OA
ATOM     23  H   UNL     1      15.764  -3.832 -32.510  1.00  0.00     0.293 HD
ENDBRANCH   2  22
BRANCH   6  24
ATOM     24  O   UNL     1      13.134  -5.489 -27.879  1.00  0.00    -0.507 OA
ATOM     25  H   UNL     1      12.401  -5.481 -27.179  1.00  0.00     0.293 HD
ENDBRANCH   6  24
BRANCH   8  26
ATOM     26  O   UNL     1      13.049 -10.326 -28.073  1.00  0.00    -0.508 OA
ATOM     27  H   UNL     1      12.519 -10.966 -28.654  1.00  0.00     0.293 HD
ENDBRANCH   8  26
TORSDOF 6
ENDMDL
MODEL 2
REMARK VINA RESULT:    -5.677      1.706      3.245
REMARK INTER + INTRA:          -7.259
REMARK INTER:                  -6.817
REMARK INTRA:                  -0.441
REMARK UNBOUND:                -0.420
REMARK SMILES O=c1c(O)c(-c2ccc(O)cc2O)oc2cc(O)cc(O)c12
REMARK SMILES IDX 5 1 3 2 2 3 1 4 22 5 20 6 19 7 17 8 16 9 15 10 14 11 6 12
REMARK SMILES IDX 8 13 7 14 9 15 11 16 12 17 10 18 13 20 4 22 21 24 18 26
REMARK H PARENT 10 19 13 21 4 23 21 25 18 27
REMARK Flexibility Score: inf
ROOT
ATOM      1  C   UNL     1      16.248  -6.435 -31.507  1.00  0.00     0.184 A 
ATOM      2  C   UNL     1      15.163  -7.183 -31.011  1.00  0.00     0.208 A 
ATOM      3  C   UNL     1      14.558  -6.785 -29.808  1.00  0.00     0.238 A 
ATOM      4  O   UNL     1      13.581  -7.443 -29.357  1.00  0.00    -0.285 OA
ATOM      5  C   UNL     1      15.055  -5.660 -29.118  1.00  0.00     0.111 A 
ATOM      6  C   UNL     1      14.506  -5.195 -27.899  1.00  0.00     0.134 A 
ATOM      7  C   UNL     1      15.061  -4.072 -27.269  1.00  0.00     0.093 A 
ATOM      8  C   UNL     1      16.155  -3.406 -27.834  1.00  0.00     0.123 A 
ATOM      9  C   UNL     1      16.701  -3.861 -29.035  1.00  0.00     0.094 A 
ATOM     10  C   UNL     1      16.160  -4.977 -29.680  1.00  0.00     0.146 A 
ATOM     11  O   UNL     1      16.696  -5.386 -30.824  1.00  0.00    -0.451 OA
ENDROOT
BRANCH   1  12
ATOM     12  C   UNL     1      16.921  -6.787 -32.778  1.00  0.00     0.063 A 
ATOM     13  C   UNL     1      16.884  -6.971 -35.206  1.00  0.00     0.047 A 
ATOM     14  C   UNL     1      16.240  -6.665 -34.003  1.00  0.00     0.020 A 
ATOM     15  C   UNL     1      18.219  -7.393 -35.202  1.00  0.00     0.119 A 
ATOM     16  C   UNL     1      18.907  -7.503 -33.992  1.00  0.00     0.093 A 
ATOM     17  C   UNL     1      18.268  -7.200 -32.780  1.00  0.00     0.130 A 
BRANCH  15  18
ATOM     18  O   UNL     1      18.870  -7.699 -36.394  1.00  0.00    -0.508 OA
ATOM     19  H   UNL     1      18.497  -7.408 -37.291  1.00  0.00     0.293 HD
ENDBRANCH  15  18
BRANCH  17  20
ATOM     20  O   UNL     1      18.968  -7.321 -31.577  1.00  0.00    -0.507 OA
ATOM     21  H   UNL     1      19.826  -7.855 -31.513  1.00  0.00     0.293 HD
ENDBRANCH  17  20
ENDBRANCH   1  12
BRANCH   2  22
ATOM     22  O   UNL     1      14.719  -8.317 -31.695  1.00  0.00    -0.502 OA
ATOM     23  H   UNL     1      14.542  -8.314 -32.692  1.00  0.00     0.293 HD
ENDBRANCH   2  22
BRANCH   6  24
ATOM     24  O   UNL     1      13.415  -5.838 -27.311  1.00  0.00    -0.507 OA
ATOM     25  H   UNL     1      13.360  -5.987 -26.310  1.00  0.00     0.293 HD
ENDBRANCH   6  24
BRANCH   8  26
ATOM     26  O   UNL     1      16.709  -2.291 -27.208  1.00  0.00    -0.508 OA
ATOM     27  H   UNL     1      17.704  -2.102 -27.246  1.00  0.00     0.293 HD
ENDBRANCH   8  26
TORSDOF 6
ENDMDL
MODEL 3
REMARK VINA RESULT:    -5.675      1.709      6.771
REMARK INTER + INTRA:          -7.257
REMARK INTER:                  -6.879
REMARK INTRA:                  -0.377
REMARK UNBOUND:                -0.420
REMARK SMILES O=c1c(O)c(-c2ccc(O)cc2O)oc2cc(O)cc(O)c12
REMARK SMILES IDX 5 1 3 2 2 3 1 4 22 5 20 6 19 7 17 8 16 9 15 10 14 11 6 12
REMARK SMILES IDX 8 13 7 14 9 15 11 16 12 17 10 18 13 20 4 22 21 24 18 26
REMARK H PARENT 10 19 13 21 4 23 21 25 18 27
REMARK Flexibility Score: inf
ROOT
ATOM      1  C   UNL     1      15.262  -7.513 -31.962  1.00  0.00     0.184 A 
ATOM      2  C   UNL     1      14.563  -7.175 -33.136  1.00  0.00     0.208 A 
ATOM      3  C   UNL     1      15.293  -6.858 -34.293  1.00  0.00     0.238 A 
ATOM      4  O   UNL     1      14.678  -6.561 -35.353  1.00  0.00    -0.285 OA
ATOM      5  C   UNL     1      16.703  -6.871 -34.252  1.00  0.00     0.111 A 
ATOM      6  C   UNL     1      17.512  -6.563 -35.371  1.00  0.00     0.134 A 
ATOM      7  C   UNL     1      18.909  -6.591 -35.248  1.00  0.00     0.093 A 
ATOM      8  C   UNL     1      19.511  -6.921 -34.028  1.00  0.00     0.123 A 
ATOM      9  C   UNL     1      18.717  -7.226 -32.922  1.00  0.00     0.094 A 
ATOM     10  C   UNL     1      17.323  -7.206 -33.025  1.00  0.00     0.146 A 
ATOM     11  O   UNL     1      16.592  -7.505 -31.957  1.00  0.00    -0.451 OA
ENDROOT
BRANCH   1  12
ATOM     12  C   UNL     1      14.556  -7.875 -30.711  1.00  0.00     0.063 A 
ATOM     13  C   UNL     1      13.743  -9.567 -29.161  1.00  0.00     0.047 A 
ATOM     14  C   UNL     1      14.385  -9.225 -30.354  1.00  0.00     0.020 A 
ATOM     15  C   UNL     1      13.272  -8.565 -28.303  1.00  0.00     0.119 A 
ATOM     16  C   UNL     1      13.450  -7.222 -28.642  1.00  0.00     0.093 A 
ATOM     17  C   UNL     1      14.091  -6.870 -29.840  1.00  0.00     0.130 A 
BRANCH  15  18
ATOM     18  O   UNL     1      12.632  -8.894 -27.111  1.00  0.00    -0.508 OA
ATOM     19  H   UNL     1      13.095  -9.442 -26.395  1.00  0.00     0.293 HD
ENDBRANCH  15  18
BRANCH  17  20
ATOM     20  O   UNL     1      14.256  -5.523 -30.169  1.00  0.00    -0.507 OA
ATOM     21  H   UNL     1      14.670  -4.864 -29.520  1.00  0.00     0.293 HD
ENDBRANCH  17  20
ENDBRANCH   1  12
BRANCH   2  22
ATOM     22  O   UNL     1      13.167  -7.130 -33.136  1.00  0.00    -0.502 OA
ATOM     23  H   UNL     1      12.638  -6.723 -33.898  1.00  0.00     0.293 HD
ENDBRANCH   2  22
BRANCH   6  24
ATOM     24  O   UNL     1      16.942  -6.229 -36.600  1.00  0.00    -0.507 OA
ATOM     25  H   UNL     1      17.501  -5.885 -37.372  1.00  0.00     0.293 HD
ENDBRANCH   6  24
BRANCH   8  26
ATOM     26  O   UNL     1      20.899  -6.948 -33.905  1.00  0.00    -0.508 OA
ATOM     27  H   UNL     1      21.467  -7.579 -34.459  1.00  0.00     0.293 HD
ENDBRANCH   8  26
TORSDOF 6
ENDMDL
MODEL 4
REMARK VINA RESULT:    -5.675      1.856      6.732
REMARK INTER + INTRA:          -7.257
REMARK INTER:                  -6.866
REMARK INTRA:                  -0.391
REMARK UNBOUND:                -0.420
REMARK SMILES O=c1c(O)c(-c2ccc(O)cc2O)oc2cc(O)cc(O)c12
REMARK SMILES IDX 5 1 3 2 2 3 1 4 22 5 20 6 19 7 17 8 16 9 15 10 14 11 6 12
REMARK SMILES IDX 8 13 7 14 9 15 11 16 12 17 10 18 13 20 4 22 21 24 18 26
REMARK H PARENT 10 19 13 21 4 23 21 25 18 27
REMARK Flexibility Score: inf
ROOT
ATOM      1  C   UNL     1      14.894  -7.231 -31.653  1.00  0.00     0.184 A 
ATOM      2  C   UNL     1      14.227  -7.022 -32.875  1.00  0.00     0.208 A 
ATOM      3  C   UNL     1      14.984  -6.912 -34.052  1.00  0.00     0.238 A 
ATOM      4  O   UNL     1      14.397  -6.733 -35.153  1.00  0.00    -0.285 OA
ATOM      5  C   UNL     1      16.390  -6.998 -33.985  1.00  0.00     0.111 A 
ATOM      6  C   UNL     1      17.226  -6.895 -35.122  1.00  0.00     0.134 A 
ATOM      7  C   UNL     1      18.618  -6.983 -34.973  1.00  0.00     0.093 A 
ATOM      8  C   UNL     1      19.189  -7.171 -33.709  1.00  0.00     0.123 A 
ATOM      9  C   UNL     1      18.368  -7.274 -32.585  1.00  0.00     0.094 A 
ATOM     10  C   UNL     1      16.979  -7.191 -32.713  1.00  0.00     0.146 A 
ATOM     11  O   UNL     1      16.222  -7.296 -31.626  1.00  0.00    -0.451 OA
ENDROOT
BRANCH   1  12
ATOM     12  C   UNL     1      14.157  -7.375 -30.376  1.00  0.00     0.063 A 
ATOM     13  C   UNL     1      12.691  -6.445 -28.670  1.00  0.00     0.047 A 
ATOM     14  C   UNL     1      13.408  -6.301 -29.860  1.00  0.00     0.020 A 
ATOM     15  C   UNL     1      12.703  -7.665 -27.984  1.00  0.00     0.119 A 
ATOM     16  C   UNL     1      13.432  -8.741 -28.496  1.00  0.00     0.093 A 
ATOM     17  C   UNL     1      14.157  -8.605 -29.689  1.00  0.00     0.130 A 
BRANCH  15  18
ATOM     18  O   UNL     1      11.991  -7.820 -26.797  1.00  0.00    -0.508 OA
ATOM     19  H   UNL     1      12.330  -7.433 -25.923  1.00  0.00     0.293 HD
ENDBRANCH  15  18
BRANCH  17  20
ATOM     20  O   UNL     1      14.886  -9.687 -30.185  1.00  0.00    -0.507 OA
ATOM     21  H   UNL     1      14.479 -10.612 -30.263  1.00  0.00     0.293 HD
ENDBRANCH  17  20
ENDBRANCH   1  12
BRANCH   2  22
ATOM     22  O   UNL     1      12.835  -6.901 -32.905  1.00  0.00    -0.502 OA
ATOM     23  H   UNL     1      12.251  -7.158 -32.118  1.00  0.00     0.293 HD
ENDBRANCH   2  22
BRANCH   6  24
ATOM     24  O   UNL     1      16.687  -6.705 -36.396  1.00  0.00    -0.507 OA
ATOM     25  H   UNL     1      15.688  -6.619 -36.544  1.00  0.00     0.293 HD
ENDBRANCH   6  24
BRANCH   8  26
ATOM     26  O   UNL     1      20.571  -7.258 -33.559  1.00  0.00    -0.508 OA
ATOM     27  H   UNL     1      21.170  -7.543 -34.327  1.00  0.00     0.293 HD
ENDBRANCH   8  26
TORSDOF 6
ENDMDL
MODEL 5
REMARK VINA RESULT:    -5.512      2.401      6.713
REMARK INTER + INTRA:          -7.060
REMARK INTER:                  -6.613
REMARK INTRA:                  -0.447
REMARK UNBOUND:                -0.420
REMARK SMILES O=c1c(O)c(-c2ccc(O)cc2O)oc2cc(O)cc(O)c12
REMARK SMILES IDX 5 1 3 2 2 3 1 4 22 5 20 6 19 7 17 8 16 9 15 10 14 11 6 12
REMARK SMILES IDX 8 13 7 14 9 15 11 16 12 17 10 18 13 20 4 22 21 24 18 26
REMARK H PARENT 10 19 13 21 4 23 21 25 18 27
REMARK Flexibility Score: inf
ROOT
ATOM      1  C   UNL     1      16.074  -6.450 -30.730  1.00  0.00     0.184 A 
ATOM      2  C   UNL     1      16.129  -6.611 -32.127  1.00  0.00     0.208 A 
ATOM      3  C   UNL     1      17.013  -5.812 -32.868  1.00  0.00     0.238 A 
ATOM      4  O   UNL     1      17.077  -5.952 -34.120  1.00  0.00    -0.285 OA
ATOM      5  C   UNL     1      17.813  -4.859 -32.204  1.00  0.00     0.111 A 
ATOM      6  C   UNL     1      18.727  -4.012 -32.876  1.00  0.00     0.134 A 
ATOM      7  C   UNL     1      19.483  -3.084 -32.145  1.00  0.00     0.093 A 
ATOM      8  C   UNL     1      19.341  -2.986 -30.756  1.00  0.00     0.123 A 
ATOM      9  C   UNL     1      18.442  -3.819 -30.089  1.00  0.00     0.094 A 
ATOM     10  C   UNL     1      17.681  -4.752 -30.799  1.00  0.00     0.146 A 
ATOM     11  O   UNL     1      16.836  -5.534 -30.138  1.00  0.00    -0.451 OA
ENDROOT
BRANCH   1  12
ATOM     12  C   UNL     1      15.178  -7.272 -29.884  1.00  0.00     0.063 A 
ATOM     13  C   UNL     1      14.576  -9.424 -28.918  1.00  0.00     0.047 A 
ATOM     14  C   UNL     1      15.405  -8.653 -29.737  1.00  0.00     0.020 A 
ATOM     15  C   UNL     1      13.516  -8.825 -28.227  1.00  0.00     0.119 A 
ATOM     16  C   UNL     1      13.291  -7.453 -28.356  1.00  0.00     0.093 A 
ATOM     17  C   UNL     1      14.117  -6.671 -29.178  1.00  0.00     0.130 A 
BRANCH  15  18
ATOM     18  O   UNL     1      12.683  -9.584 -27.407  1.00  0.00    -0.508 OA
ATOM     19  H   UNL     1      13.019 -10.419 -26.941  1.00  0.00     0.293 HD
ENDBRANCH  15  18
BRANCH  17  20
ATOM     20  O   UNL     1      13.876  -5.302 -29.302  1.00  0.00    -0.507 OA
ATOM     21  H   UNL     1      14.505  -4.613 -28.905  1.00  0.00     0.293 HD
ENDBRANCH  17  20
ENDBRANCH   1  12
BRANCH   2  22
ATOM     22  O   UNL     1      15.295  -7.535 -32.763  1.00  0.00    -0.502 OA
ATOM     23  H   UNL     1      15.194  -7.570 -33.770  1.00  0.00     0.293 HD
ENDBRANCH   2  22
BRANCH   6  24
ATOM     24  O   UNL     1      18.890  -4.086 -34.261  1.00  0.00    -0.507 OA
ATOM     25  H   UNL     1      19.379  -3.366 -34.779  1.00  0.00     0.293 HD
ENDBRANCH   6  24
BRANCH   8  26
ATOM     26  O   UNL     1      20.091  -2.064 -30.029  1.00  0.00    -0.508 OA
ATOM     27  H   UNL     1      21.070  -2.224 -29.821  1.00  0.00     0.293 HD
ENDBRANCH   8  26
TORSDOF 6
ENDMDL
MODEL 6
REMARK VINA RESULT:    -5.470      1.831      6.518
REMARK INTER + INTRA:          -7.009
REMARK INTER:                  -6.575
REMARK INTRA:                  -0.434
REMARK UNBOUND:                -0.420
REMARK SMILES O=c1c(O)c(-c2ccc(O)cc2O)oc2cc(O)cc(O)c12
REMARK SMILES IDX 5 1 3 2 2 3 1 4 22 5 20 6 19 7 17 8 16 9 15 10 14 11 6 12
REMARK SMILES IDX 8 13 7 14 9 15 11 16 12 17 10 18 13 20 4 22 21 24 18 26
REMARK H PARENT 10 19 13 21 4 23 21 25 18 27
REMARK Flexibility Score: inf
ROOT
ATOM      1  C   UNL     1      16.523  -6.692 -31.808  1.00  0.00     0.184 A 
ATOM      2  C   UNL     1      16.518  -5.320 -31.497  1.00  0.00     0.208 A 
ATOM      3  C   UNL     1      17.451  -4.478 -32.125  1.00  0.00     0.238 A 
ATOM      4  O   UNL     1      17.451  -3.245 -31.861  1.00  0.00    -0.285 OA
ATOM      5  C   UNL     1      18.376  -5.025 -33.038  1.00  0.00     0.111 A 
ATOM      6  C   UNL     1      19.350  -4.248 -33.711  1.00  0.00     0.134 A 
ATOM      7  C   UNL     1      20.241  -4.867 -34.600  1.00  0.00     0.093 A 
ATOM      8  C   UNL     1      20.178  -6.247 -34.827  1.00  0.00     0.123 A 
ATOM      9  C   UNL     1      19.220  -7.017 -34.165  1.00  0.00     0.094 A 
ATOM     10  C   UNL     1      18.321  -6.418 -33.278  1.00  0.00     0.146 A 
ATOM     11  O   UNL     1      17.417  -7.175 -32.665  1.00  0.00    -0.451 OA
ENDROOT
BRANCH   1  12
ATOM     12  C   UNL     1      15.556  -7.633 -31.196  1.00  0.00     0.063 A 
ATOM     13  C   UNL     1      14.818  -8.962 -29.294  1.00  0.00     0.047 A 
ATOM     14  C   UNL     1      15.744  -8.095 -29.881  1.00  0.00     0.020 A 
ATOM     15  C   UNL     1      13.686  -9.371 -30.009  1.00  0.00     0.119 A 
ATOM     16  C   UNL     1      13.483  -8.907 -31.311  1.00  0.00     0.093 A 
ATOM     17  C   UNL     1      14.410  -8.039 -31.909  1.00  0.00     0.130 A 
BRANCH  15  18
ATOM     18  O   UNL     1      12.756 -10.234 -29.435  1.00  0.00    -0.508 OA
ATOM     19  H   UNL     1      12.330 -10.983 -29.968  1.00  0.00     0.293 HD
ENDBRANCH  15  18
BRANCH  17  20
ATOM     20  O   UNL     1      14.197  -7.588 -33.213  1.00  0.00    -0.507 OA
ATOM     21  H   UNL     1      13.707  -6.722 -33.404  1.00  0.00     0.293 HD
ENDBRANCH  17  20
ENDBRANCH   1  12
BRANCH   2  22
ATOM     22  O   UNL     1      15.616  -4.813 -30.558  1.00  0.00    -0.502 OA
ATOM     23  H   UNL     1      14.760  -4.343 -30.828  1.00  0.00     0.293 HD
ENDBRANCH   2  22
BRANCH   6  24
ATOM     24  O   UNL     1      19.438  -2.871 -33.505  1.00  0.00    -0.507 OA
ATOM     25  H   UNL     1      18.710  -2.356 -33.023  1.00  0.00     0.293 HD
ENDBRANCH   6  24
BRANCH   8  26
ATOM     26  O   UNL     1      21.064  -6.863 -35.708  1.00  0.00    -0.508 OA
ATOM     27  H   UNL     1      21.825  -6.350 -36.138  1.00  0.00     0.293 HD
ENDBRANCH   8  26
TORSDOF 6
ENDMDL
MODEL 7
REMARK VINA RESULT:    -5.381      1.741      6.701
REMARK INTER + INTRA:          -6.902
REMARK INTER:                  -6.475
REMARK INTRA:                  -0.427
REMARK UNBOUND:                -0.420
REMARK SMILES O=c1c(O)c(-c2ccc(O)cc2O)oc2cc(O)cc(O)c12
REMARK SMILES IDX 5 1 3 2 2 3 1 4 22 5 20 6 19 7 17 8 16 9 15 10 14 11 6 12
REMARK SMILES IDX 8 13 7 14 9 15 11 16 12 17 10 18 13 20 4 22 21 24 18 26
REMARK H PARENT 10 19 13 21 4 23 21 25 18 27
REMARK Flexibility Score: inf
ROOT
ATOM      1  C   UNL     1      15.424  -7.577 -31.397  1.00  0.00     0.184 A 
ATOM      2  C   UNL     1      16.806  -7.325 -31.307  1.00  0.00     0.208 A 
ATOM      3  C   UNL     1      17.496  -6.909 -32.457  1.00  0.00     0.238 A 
ATOM      4  O   UNL     1      18.733  -6.673 -32.387  1.00  0.00    -0.285 OA
ATOM      5  C   UNL     1      16.798  -6.767 -33.674  1.00  0.00     0.111 A 
ATOM      6  C   UNL     1      17.418  -6.356 -34.878  1.00  0.00     0.134 A 
ATOM      7  C   UNL     1      16.656  -6.245 -36.050  1.00  0.00     0.093 A 
ATOM      8  C   UNL     1      15.288  -6.539 -36.041  1.00  0.00     0.123 A 
ATOM      9  C   UNL     1      14.672  -6.945 -34.856  1.00  0.00     0.094 A 
ATOM     10  C   UNL     1      15.413  -7.059 -33.677  1.00  0.00     0.146 A 
ATOM     11  O   UNL     1      14.800  -7.443 -32.563  1.00  0.00    -0.451 OA
ENDROOT
BRANCH   1  12
ATOM     12  C   UNL     1      14.631  -8.001 -30.220  1.00  0.00     0.063 A 
ATOM     13  C   UNL     1      13.913  -9.738 -28.672  1.00  0.00     0.047 A 
ATOM     14  C   UNL     1      14.640  -9.343 -29.799  1.00  0.00     0.020 A 
ATOM     15  C   UNL     1      13.176  -8.797 -27.945  1.00  0.00     0.119 A 
ATOM     16  C   UNL     1      13.171  -7.459 -28.347  1.00  0.00     0.093 A 
ATOM     17  C   UNL     1      13.896  -7.054 -29.478  1.00  0.00     0.130 A 
BRANCH  15  18
ATOM     18  O   UNL     1      12.448  -9.179 -26.820  1.00  0.00    -0.508 OA
ATOM     19  H   UNL     1      12.200 -10.148 -26.655  1.00  0.00     0.293 HD
ENDBRANCH  15  18
BRANCH  17  20
ATOM     20  O   UNL     1      13.878  -5.714 -29.871  1.00  0.00    -0.507 OA
ATOM     21  H   UNL     1      14.564  -5.051 -29.532  1.00  0.00     0.293 HD
ENDBRANCH  17  20
ENDBRANCH   1  12
BRANCH   2  22
ATOM     22  O   UNL     1      17.479  -7.514 -30.097  1.00  0.00    -0.502 OA
ATOM     23  H   UNL     1      17.339  -8.335 -29.522  1.00  0.00     0.293 HD
ENDBRANCH   2  22
BRANCH   6  24
ATOM     24  O   UNL     1      18.781  -6.058 -34.918  1.00  0.00    -0.507 OA
ATOM     25  H   UNL     1      19.429  -6.600 -35.477  1.00  0.00     0.293 HD
ENDBRANCH   6  24
BRANCH   8  26
ATOM     26  O   UNL     1      14.530  -6.430 -37.206  1.00  0.00    -0.508 OA
ATOM     27  H   UNL     1      14.662  -5.660 -37.853  1.00  0.00     0.293 HD
ENDBRANCH   8  26
TORSDOF 6
ENDMDL
MODEL 8
REMARK VINA RESULT:    -5.372      1.607      2.020
REMARK INTER + INTRA:          -6.892
REMARK INTER:                  -6.609
REMARK INTRA:                  -0.283
REMARK UNBOUND:                -0.420
REMARK SMILES O=c1c(O)c(-c2ccc(O)cc2O)oc2cc(O)cc(O)c12
REMARK SMILES IDX 5 1 3 2 2 3 1 4 22 5 20 6 19 7 17 8 16 9 15 10 14 11 6 12
REMARK SMILES IDX 8 13 7 14 9 15 11 16 12 17 10 18 13 20 4 22 21 24 18 26
REMARK H PARENT 10 19 13 21 4 23 21 25 18 27
REMARK Flexibility Score: inf
ROOT
ATOM      1  C   UNL     1      16.738  -5.902 -31.591  1.00  0.00     0.184 A 
ATOM      2  C   UNL     1      17.408  -4.885 -30.885  1.00  0.00     0.208 A 
ATOM      3  C   UNL     1      16.884  -4.454 -29.655  1.00  0.00     0.238 A 
ATOM      4  O   UNL     1      17.479  -3.549 -29.010  1.00  0.00    -0.285 OA
ATOM      5  C   UNL     1      15.696  -5.035 -29.164  1.00  0.00     0.111 A 
ATOM      6  C   UNL     1      15.100  -4.656 -27.937  1.00  0.00     0.134 A 
ATOM      7  C   UNL     1      13.914  -5.276 -27.519  1.00  0.00     0.093 A 
ATOM      8  C   UNL     1      13.312  -6.266 -28.304  1.00  0.00     0.123 A 
ATOM      9  C   UNL     1      13.896  -6.643 -29.515  1.00  0.00     0.094 A 
ATOM     10  C   UNL     1      15.080  -6.038 -29.948  1.00  0.00     0.146 A 
ATOM     11  O   UNL     1      15.615  -6.420 -31.102  1.00  0.00    -0.451 OA
ENDROOT
BRANCH   1  12
ATOM     12  C   UNL     1      17.245  -6.418 -32.884  1.00  0.00     0.063 A 
ATOM     13  C   UNL     1      17.052  -6.603 -35.303  1.00  0.00     0.047 A 
ATOM     14  C   UNL     1      16.560  -6.140 -34.080  1.00  0.00     0.020 A 
ATOM     15  C   UNL     1      18.242  -7.341 -35.349  1.00  0.00     0.119 A 
ATOM     16  C   UNL     1      18.937  -7.610 -34.168  1.00  0.00     0.093 A 
ATOM     17  C   UNL     1      18.448  -7.151 -32.935  1.00  0.00     0.130 A 
BRANCH  15  18
ATOM     18  O   UNL     1      18.742  -7.807 -36.563  1.00  0.00    -0.508 OA
ATOM     19  H   UNL     1      19.713  -7.670 -36.822  1.00  0.00     0.293 HD
ENDBRANCH  15  18
BRANCH  17  20
ATOM     20  O   UNL     1      19.150  -7.432 -31.762  1.00  0.00    -0.507 OA
ATOM     21  H   UNL     1      19.870  -6.812 -31.411  1.00  0.00     0.293 HD
ENDBRANCH  17  20
ENDBRANCH   1  12
BRANCH   2  22
ATOM     22  O   UNL     1      18.560  -4.300 -31.416  1.00  0.00    -0.502 OA
ATOM     23  H   UNL     1      19.146  -3.672 -30.879  1.00  0.00     0.293 HD
ENDBRANCH   2  22
BRANCH   6  24
ATOM     24  O   UNL     1      15.676  -3.672 -27.132  1.00  0.00    -0.507 OA
ATOM     25  H   UNL     1      16.339  -3.001 -27.503  1.00  0.00     0.293 HD
ENDBRANCH   6  24
BRANCH   8  26
ATOM     26  O   UNL     1      12.133  -6.882 -27.891  1.00  0.00    -0.508 OA
ATOM     27  H   UNL     1      11.975  -7.874 -28.032  1.00  0.00     0.293 HD
ENDBRANCH   8  26
TORSDOF 6
ENDMDL
MODEL 9
REMARK VINA RESULT:    -5.312      3.108      5.035
REMARK INTER + INTRA:          -6.819
REMARK INTER:                  -6.339
REMARK INTRA:                  -0.480
REMARK UNBOUND:                -0.420
REMARK SMILES O=c1c(O)c(-c2ccc(O)cc2O)oc2cc(O)cc(O)c12
REMARK SMILES IDX 5 1 3 2 2 3 1 4 22 5 20 6 19 7 17 8 16 9 15 10 14 11 6 12
REMARK SMILES IDX 8 13 7 14 9 15 11 16 12 17 10 18 13 20 4 22 21 24 18 26
REMARK H PARENT 10 19 13 21 4 23 21 25 18 27
REMARK Flexibility Score: inf
ROOT
ATOM      1  C   UNL     1      14.734  -7.693 -31.086  1.00  0.00     0.184 A 
ATOM      2  C   UNL     1      14.236  -8.600 -30.132  1.00  0.00     0.208 A 
ATOM      3  C   UNL     1      13.162  -9.433 -30.483  1.00  0.00     0.238 A 
ATOM      4  O   UNL     1      12.713 -10.255 -29.638  1.00  0.00    -0.285 OA
ATOM      5  C   UNL     1      12.598  -9.335 -31.771  1.00  0.00     0.111 A 
ATOM      6  C   UNL     1      11.513 -10.135 -32.203  1.00  0.00     0.134 A 
ATOM      7  C   UNL     1      11.001  -9.973 -33.499  1.00  0.00     0.093 A 
ATOM      8  C   UNL     1      11.554  -9.027 -34.370  1.00  0.00     0.123 A 
ATOM      9  C   UNL     1      12.624  -8.236 -33.948  1.00  0.00     0.094 A 
ATOM     10  C   UNL     1      13.149  -8.384 -32.661  1.00  0.00     0.146 A 
ATOM     11  O   UNL     1      14.170  -7.621 -32.288  1.00  0.00    -0.451 OA
ENDROOT
BRANCH   1  12
ATOM     12  C   UNL     1      15.876  -6.798 -30.790  1.00  0.00     0.063 A 
ATOM     13  C   UNL     1      18.271  -6.446 -30.537  1.00  0.00     0.047 A 
ATOM     14  C   UNL     1      17.191  -7.295 -30.790  1.00  0.00     0.020 A 
ATOM     15  C   UNL     1      18.053  -5.085 -30.292  1.00  0.00     0.119 A 
ATOM     16  C   UNL     1      16.751  -4.578 -30.304  1.00  0.00     0.093 A 
ATOM     17  C   UNL     1      15.661  -5.425 -30.554  1.00  0.00     0.130 A 
BRANCH  15  18
ATOM     18  O   UNL     1      19.122  -4.228 -30.040  1.00  0.00    -0.508 OA
ATOM     19  H   UNL     1      19.979  -4.563 -29.615  1.00  0.00     0.293 HD
ENDBRANCH  15  18
BRANCH  17  20
ATOM     20  O   UNL     1      14.365  -4.905 -30.556  1.00  0.00    -0.507 OA
ATOM     21  H   UNL     1      14.108  -4.121 -31.144  1.00  0.00     0.293 HD
ENDBRANCH  17  20
ENDBRANCH   1  12
BRANCH   2  22
ATOM     22  O   UNL     1      14.789  -8.647 -28.849  1.00  0.00    -0.502 OA
ATOM     23  H   UNL     1      15.772  -8.829 -28.690  1.00  0.00     0.293 HD
ENDBRANCH   2  22
BRANCH   6  24
ATOM     24  O   UNL     1      10.940 -11.087 -31.358  1.00  0.00    -0.507 OA
ATOM     25  H   UNL     1      10.622 -10.849 -30.425  1.00  0.00     0.293 HD
ENDBRANCH   6  24
BRANCH   8  26
ATOM     26  O   UNL     1      11.046  -8.864 -35.658  1.00  0.00    -0.508 OA
ATOM     27  H   UNL     1      11.185  -9.568 -36.374  1.00  0.00     0.293 HD
ENDBRANCH   8  26
TORSDOF 6
ENDMDL
