MODEL 1
REMARK VINA RESULT:     3.859      0.000      0.000
REMARK INTER + INTRA:           9.158
REMARK INTER:                  10.175
REMARK INTRA:                  -1.018
REMARK UNBOUND:                -1.018
REMARK SMILES CCCCCCCCCCCCCCCCCCCCCCCCCCCCCC(=O)[O-]
REMARK SMILES IDX 16 1 17 2 18 3 19 4 20 5 21 6 22 7 23 8 24 9 25 10 26 11
REMARK SMILES IDX 27 12 28 13 29 14 30 15 31 16 32 17 15 18 14 19 13 20 12 21
REMARK SMILES IDX 11 22 10 23 9 24 8 25 7 26 6 27 5 28 4 29 3 30 2 31 1 32
REMARK H PARENT
REMARK Flexibility Score: inf
ROOT
ATOM      1  C   UNL     1      40.532  33.610  67.120  1.00  0.00     0.000 C 
ENDROOT
BRANCH   1   2
ATOM      2  C   UNL     1      40.735  32.440  66.142  1.00  0.00     0.000 C 
BRANCH   2   3
ATOM      3  C   UNL     1      39.417  31.740  65.776  1.00  0.00     0.000 C 
BRANCH   3   4
ATOM      4  C   UNL     1      38.882  30.855  66.913  1.00  0.00     0.000 C 
BRANCH   4   5
ATOM      5  C   UNL     1      39.565  29.483  66.905  1.00  0.00     0.000 C 
BRANCH   5   6
ATOM      6  C   UNL     1      38.887  28.536  65.903  1.00  0.00     0.000 C 
BRANCH   6   7
ATOM      7  C   UNL     1      38.992  27.060  66.321  1.00  0.00     0.000 C 
BRANCH   7   8
ATOM      8  C   UNL     1      37.617  26.395  66.489  1.00  0.00     0.000 C 
BRANCH   8   9
ATOM      9  C   UNL     1      36.864  26.344  65.154  1.00  0.00     0.000 C 
BRANCH   9  10
ATOM     10  C   UNL     1      35.563  25.538  65.287  1.00  0.00     0.000 C 
BRANCH  10  11
ATOM     11  C   UNL     1      34.789  25.855  66.578  1.00  0.00     0.000 C 
BRANCH  11  12
ATOM     12  C   UNL     1      33.464  25.085  66.753  1.00  0.00     0.000 C 
BRANCH  12  13
ATOM     13  C   UNL     1      33.288  23.866  65.823  1.00  0.00     0.006 C 
BRANCH  13  14
ATOM     14  C   UNL     1      31.989  23.078  66.052  1.00  0.00     0.053 C 
BRANCH  14  15
ATOM     15  C   UNL     1      30.848  23.638  65.259  1.00  0.00     0.041 C 
ATOM     16  O   UNL     1      30.637  23.241  64.082  1.00  0.00    -0.550 OA
ATOM     17  O   UNL     1      30.008  24.589  65.826  1.00  0.00    -0.550 OA
ENDBRANCH  14  15
ENDBRANCH  13  14
ENDBRANCH  12  13
ENDBRANCH  11  12
ENDBRANCH  10  11
ENDBRANCH   9  10
ENDBRANCH   8   9
ENDBRANCH   7   8
ENDBRANCH   6   7
ENDBRANCH   5   6
ENDBRANCH   4   5
ENDBRANCH   3   4
ENDBRANCH   2   3
ENDBRANCH   1   2
BRANCH   1  18
ATOM     18  C   UNL     1      40.670  34.981  66.438  1.00  0.00     0.000 C 
BRANCH  18  19
ATOM     19  C   UNL     1      41.996  35.684  66.778  1.00  0.00     0.000 C 
BRANCH  19  20
ATOM     20  C   UNL     1      41.826  37.198  66.980  1.00  0.00     0.000 C 
BRANCH  20  21
ATOM     21  C   UNL     1      43.153  37.964  66.842  1.00  0.00     0.000 C 
BRANCH  21  22
ATOM     22  C   UNL     1      42.978  39.322  66.143  1.00  0.00     0.000 C 
BRANCH  22  23
ATOM     23  C   UNL     1      43.057  40.505  67.125  1.00  0.00     0.000 C 
BRANCH  23  24
ATOM     24  C   UNL     1      43.056  41.867  66.411  1.00  0.00    -0.000 C 
BRANCH  24  25
ATOM     25  C   UNL     1      42.000  42.830  66.981  1.00  0.00    -0.000 C 
BRANCH  25  26
ATOM     26  C   UNL     1      40.682  42.811  66.185  1.00  0.00    -0.000 C 
BRANCH  26  27
ATOM     27  C   UNL     1      39.992  41.436  66.091  1.00  0.00    -0.000 C 
BRANCH  27  28
ATOM     28  C   UNL     1      38.809  41.231  67.057  1.00  0.00    -0.000 C 
BRANCH  28  29
ATOM     29  C   UNL     1      37.802  42.398  67.113  1.00  0.00    -0.000 C 
BRANCH  29  30
ATOM     30  C   UNL     1      37.568  43.120  65.775  1.00  0.00    -0.000 C 
BRANCH  30  31
ATOM     31  C   UNL     1      36.814  42.257  64.754  1.00  0.00    -0.003 C 
ATOM     32  C   UNL     1      36.040  43.124  63.765  1.00  0.00     0.004 C 
ENDBRANCH  30  31
ENDBRANCH  29  30
ENDBRANCH  28  29
ENDBRANCH  27  28
ENDBRANCH  26  27
ENDBRANCH  25  26
ENDBRANCH  24  25
ENDBRANCH  23  24
ENDBRANCH  22  23
ENDBRANCH  21  22
ENDBRANCH  20  21
ENDBRANCH  19  20
ENDBRANCH  18  19
ENDBRANCH   1  18
TORSDOF 28
ENDMDL
MODEL 2
REMARK VINA RESULT:     3.981     11.105     17.681
REMARK INTER + INTRA:           9.480
REMARK INTER:                  11.136
REMARK INTRA:                  -1.656
REMARK UNBOUND:                -1.018
REMARK SMILES CCCCCCCCCCCCCCCCCCCCCCCCCCCCCC(=O)[O-]
REMARK SMILES IDX 16 1 17 2 18 3 19 4 20 5 21 6 22 7 23 8 24 9 25 10 26 11
REMARK SMILES IDX 27 12 28 13 29 14 30 15 31 16 32 17 15 18 14 19 13 20 12 21
REMARK SMILES IDX 11 22 10 23 9 24 8 25 7 26 6 27 5 28 4 29 3 30 2 31 1 32
REMARK H PARENT
REMARK Flexibility Score: inf
ROOT
ATOM      1  C   UNL     1      33.816  24.204  56.851  1.00  0.00     0.000 C 
ENDROOT
BRANCH   1   2
ATOM      2  C   UNL     1      34.968  23.210  57.079  1.00  0.00     0.000 C 
BRANCH   2   3
ATOM      3  C   UNL     1      35.876  23.067  55.847  1.00  0.00     0.000 C 
BRANCH   3   4
ATOM      4  C   UNL     1      37.118  23.969  55.921  1.00  0.00     0.000 C 
BRANCH   4   5
ATOM      5  C   UNL     1      38.363  23.227  55.422  1.00  0.00     0.000 C 
BRANCH   5   6
ATOM      6  C   UNL     1      38.716  23.646  53.987  1.00  0.00     0.000 C 
BRANCH   6   7
ATOM      7  C   UNL     1      37.884  22.899  52.932  1.00  0.00     0.000 C 
BRANCH   7   8
ATOM      8  C   UNL     1      37.437  23.811  51.778  1.00  0.00     0.000 C 
BRANCH   8   9
ATOM      9  C   UNL     1      35.924  23.710  51.551  1.00  0.00     0.000 C 
BRANCH   9  10
ATOM     10  C   UNL     1      35.577  23.893  50.066  1.00  0.00     0.000 C 
BRANCH  10  11
ATOM     11  C   UNL     1      36.287  22.876  49.154  1.00  0.00     0.000 C 
BRANCH  11  12
ATOM     12  C   UNL     1      37.077  23.491  47.980  1.00  0.00     0.000 C 
BRANCH  12  13
ATOM     13  C   UNL     1      38.522  22.976  47.822  1.00  0.00     0.006 C 
BRANCH  13  14
ATOM     14  C   UNL     1      39.394  23.816  46.876  1.00  0.00     0.053 C 
BRANCH  14  15
ATOM     15  C   UNL     1      40.822  23.861  47.323  1.00  0.00     0.041 C 
ATOM     16  O   UNL     1      41.328  22.880  47.931  1.00  0.00    -0.550 OA
ATOM     17  O   UNL     1      41.600  24.981  47.055  1.00  0.00    -0.550 OA
ENDBRANCH  14  15
ENDBRANCH  13  14
ENDBRANCH  12  13
ENDBRANCH  11  12
ENDBRANCH  10  11
ENDBRANCH   9  10
ENDBRANCH   8   9
ENDBRANCH   7   8
ENDBRANCH   6   7
ENDBRANCH   5   6
ENDBRANCH   4   5
ENDBRANCH   3   4
ENDBRANCH   2   3
ENDBRANCH   1   2
BRANCH   1  18
ATOM     18  C   UNL     1      32.655  23.999  57.839  1.00  0.00     0.000 C 
BRANCH  18  19
ATOM     19  C   UNL     1      32.966  22.938  58.909  1.00  0.00     0.000 C 
BRANCH  19  20
ATOM     20  C   UNL     1      33.123  23.543  60.312  1.00  0.00     0.000 C 
BRANCH  20  21
ATOM     21  C   UNL     1      31.810  24.136  60.851  1.00  0.00     0.000 C 
BRANCH  21  22
ATOM     22  C   UNL     1      31.525  23.717  62.302  1.00  0.00     0.000 C 
BRANCH  22  23
ATOM     23  C   UNL     1      30.328  24.469  62.909  1.00  0.00     0.000 C 
BRANCH  23  24
ATOM     24  C   UNL     1      29.675  23.702  64.071  1.00  0.00    -0.000 C 
BRANCH  24  25
ATOM     25  C   UNL     1      30.660  23.419  65.218  1.00  0.00    -0.000 C 
BRANCH  25  26
ATOM     26  C   UNL     1      31.478  24.658  65.624  1.00  0.00    -0.000 C 
BRANCH  26  27
ATOM     27  C   UNL     1      32.381  24.473  66.859  1.00  0.00    -0.000 C 
BRANCH  27  28
ATOM     28  C   UNL     1      33.894  24.472  66.568  1.00  0.00    -0.000 C 
BRANCH  28  29
ATOM     29  C   UNL     1      34.292  24.997  65.174  1.00  0.00    -0.000 C 
BRANCH  29  30
ATOM     30  C   UNL     1      35.383  26.082  65.176  1.00  0.00    -0.000 C 
BRANCH  30  31
ATOM     31  C   UNL     1      36.145  26.161  66.506  1.00  0.00    -0.003 C 
ATOM     32  C   UNL     1      37.163  27.299  66.490  1.00  0.00     0.004 C 
ENDBRANCH  30  31
ENDBRANCH  29  30
ENDBRANCH  28  29
ENDBRANCH  27  28
ENDBRANCH  26  27
ENDBRANCH  25  26
ENDBRANCH  24  25
ENDBRANCH  23  24
ENDBRANCH  22  23
ENDBRANCH  21  22
ENDBRANCH  20  21
ENDBRANCH  19  20
ENDBRANCH  18  19
ENDBRANCH   1  18
TORSDOF 28
ENDMDL
MODEL 3
REMARK VINA RESULT:     4.756      9.219     15.709
REMARK INTER + INTRA:          11.523
REMARK INTER:                  12.231
REMARK INTRA:                  -0.708
REMARK UNBOUND:                -1.018
REMARK SMILES CCCCCCCCCCCCCCCCCCCCCCCCCCCCCC(=O)[O-]
REMARK SMILES IDX 16 1 17 2 18 3 19 4 20 5 21 6 22 7 23 8 24 9 25 10 26 11
REMARK SMILES IDX 27 12 28 13 29 14 30 15 31 16 32 17 15 18 14 19 13 20 12 21
REMARK SMILES IDX 11 22 10 23 9 24 8 25 7 26 6 27 5 28 4 29 3 30 2 31 1 32
REMARK H PARENT
REMARK Flexibility Score: inf
ROOT
ATOM      1  C   UNL     1      34.233  23.962  56.722  1.00  0.00     0.000 C 
ENDROOT
BRANCH   1   2
ATOM      2  C   UNL     1      35.192  22.882  57.253  1.00  0.00     0.000 C 
BRANCH   2   3
ATOM      3  C   UNL     1      36.358  23.473  58.060  1.00  0.00     0.000 C 
BRANCH   3   4
ATOM      4  C   UNL     1      37.007  24.680  57.364  1.00  0.00     0.000 C 
BRANCH   4   5
ATOM      5  C   UNL     1      38.536  24.573  57.394  1.00  0.00     0.000 C 
BRANCH   5   6
ATOM      6  C   UNL     1      39.019  23.353  56.596  1.00  0.00     0.000 C 
BRANCH   6   7
ATOM      7  C   UNL     1      39.223  23.666  55.105  1.00  0.00     0.000 C 
BRANCH   7   8
ATOM      8  C   UNL     1      38.198  22.958  54.206  1.00  0.00     0.000 C 
BRANCH   8   9
ATOM      9  C   UNL     1      36.859  23.706  54.202  1.00  0.00     0.000 C 
BRANCH   9  10
ATOM     10  C   UNL     1      36.986  25.056  53.480  1.00  0.00     0.000 C 
BRANCH  10  11
ATOM     11  C   UNL     1      37.661  24.939  52.102  1.00  0.00     0.000 C 
BRANCH  11  12
ATOM     12  C   UNL     1      38.181  23.531  51.747  1.00  0.00     0.000 C 
BRANCH  12  13
ATOM     13  C   UNL     1      37.526  22.884  50.509  1.00  0.00     0.006 C 
BRANCH  13  14
ATOM     14  C   UNL     1      35.990  22.876  50.536  1.00  0.00     0.053 C 
BRANCH  14  15
ATOM     15  C   UNL     1      35.406  23.020  49.165  1.00  0.00     0.041 C 
ATOM     16  O   UNL     1      36.155  23.009  48.151  1.00  0.00    -0.550 OA
ATOM     17  O   UNL     1      34.032  23.152  49.004  1.00  0.00    -0.550 OA
ENDBRANCH  14  15
ENDBRANCH  13  14
ENDBRANCH  12  13
ENDBRANCH  11  12
ENDBRANCH  10  11
ENDBRANCH   9  10
ENDBRANCH   8   9
ENDBRANCH   7   8
ENDBRANCH   6   7
ENDBRANCH   5   6
ENDBRANCH   4   5
ENDBRANCH   3   4
ENDBRANCH   2   3
ENDBRANCH   1   2
BRANCH   1  18
ATOM     18  C   UNL     1      32.909  24.012  57.502  1.00  0.00     0.000 C 
BRANCH  18  19
ATOM     19  C   UNL     1      33.108  23.869  59.021  1.00  0.00     0.000 C 
BRANCH  19  20
ATOM     20  C   UNL     1      31.835  24.198  59.816  1.00  0.00     0.000 C 
BRANCH  20  21
ATOM     21  C   UNL     1      31.744  23.412  61.136  1.00  0.00     0.000 C 
BRANCH  21  22
ATOM     22  C   UNL     1      32.243  24.226  62.341  1.00  0.00     0.000 C 
BRANCH  22  23
ATOM     23  C   UNL     1      32.105  23.459  63.668  1.00  0.00     0.000 C 
BRANCH  23  24
ATOM     24  C   UNL     1      32.367  24.348  64.896  1.00  0.00    -0.000 C 
BRANCH  24  25
ATOM     25  C   UNL     1      33.415  23.746  65.847  1.00  0.00    -0.000 C 
BRANCH  25  26
ATOM     26  C   UNL     1      34.468  24.772  66.304  1.00  0.00    -0.000 C 
BRANCH  26  27
ATOM     27  C   UNL     1      35.190  25.522  65.168  1.00  0.00    -0.000 C 
BRANCH  27  28
ATOM     28  C   UNL     1      35.548  26.989  65.478  1.00  0.00    -0.000 C 
BRANCH  28  29
ATOM     29  C   UNL     1      36.946  27.205  66.093  1.00  0.00    -0.000 C 
BRANCH  29  30
ATOM     30  C   UNL     1      37.780  28.318  65.435  1.00  0.00    -0.000 C 
BRANCH  30  31
ATOM     31  C   UNL     1      38.780  28.966  66.403  1.00  0.00    -0.003 C 
ATOM     32  C   UNL     1      38.747  30.488  66.290  1.00  0.00     0.004 C 
ENDBRANCH  30  31
ENDBRANCH  29  30
ENDBRANCH  28  29
ENDBRANCH  27  28
ENDBRANCH  26  27
ENDBRANCH  25  26
ENDBRANCH  24  25
ENDBRANCH  23  24
ENDBRANCH  22  23
ENDBRANCH  21  22
ENDBRANCH  20  21
ENDBRANCH  19  20
ENDBRANCH  18  19
ENDBRANCH   1  18
TORSDOF 28
ENDMDL
MODEL 4
REMARK VINA RESULT:     4.892     10.239     16.734
REMARK INTER + INTRA:          11.881
REMARK INTER:                  13.404
REMARK INTRA:                  -1.523
REMARK UNBOUND:                -1.018
REMARK SMILES CCCCCCCCCCCCCCCCCCCCCCCCCCCCCC(=O)[O-]
REMARK SMILES IDX 16 1 17 2 18 3 19 4 20 5 21 6 22 7 23 8 24 9 25 10 26 11
REMARK SMILES IDX 27 12 28 13 29 14 30 15 31 16 32 17 15 18 14 19 13 20 12 21
REMARK SMILES IDX 11 22 10 23 9 24 8 25 7 26 6 27 5 28 4 29 3 30 2 31 1 32
REMARK H PARENT
REMARK Flexibility Score: inf
ROOT
ATOM      1  C   UNL     1      34.766  24.320  54.818  1.00  0.00     0.000 C 
ENDROOT
BRANCH   1   2
ATOM      2  C   UNL     1      33.406  24.183  55.523  1.00  0.00     0.000 C 
BRANCH   2   3
ATOM      3  C   UNL     1      33.426  24.733  56.958  1.00  0.00     0.000 C 
BRANCH   3   4
ATOM      4  C   UNL     1      33.370  23.622  58.019  1.00  0.00     0.000 C 
BRANCH   4   5
ATOM      5  C   UNL     1      32.365  23.971  59.123  1.00  0.00     0.000 C 
BRANCH   5   6
ATOM      6  C   UNL     1      32.490  23.002  60.308  1.00  0.00     0.000 C 
BRANCH   6   7
ATOM      7  C   UNL     1      31.518  23.337  61.450  1.00  0.00     0.000 C 
BRANCH   7   8
ATOM      8  C   UNL     1      31.911  24.617  62.205  1.00  0.00     0.000 C 
BRANCH   8   9
ATOM      9  C   UNL     1      31.609  24.486  63.703  1.00  0.00     0.000 C 
BRANCH   9  10
ATOM     10  C   UNL     1      32.628  23.566  64.391  1.00  0.00     0.000 C 
BRANCH  10  11
ATOM     11  C   UNL     1      33.255  24.197  65.647  1.00  0.00     0.000 C 
BRANCH  11  12
ATOM     12  C   UNL     1      34.063  25.488  65.396  1.00  0.00     0.000 C 
BRANCH  12  13
ATOM     13  C   UNL     1      35.595  25.311  65.394  1.00  0.00     0.006 C 
BRANCH  13  14
ATOM     14  C   UNL     1      36.376  26.556  64.947  1.00  0.00     0.053 C 
BRANCH  14  15
ATOM     15  C   UNL     1      37.299  27.051  66.017  1.00  0.00     0.041 C 
ATOM     16  O   UNL     1      38.200  26.299  66.477  1.00  0.00    -0.550 OA
ATOM     17  O   UNL     1      37.175  28.350  66.497  1.00  0.00    -0.550 OA
ENDBRANCH  14  15
ENDBRANCH  13  14
ENDBRANCH  12  13
ENDBRANCH  11  12
ENDBRANCH  10  11
ENDBRANCH   9  10
ENDBRANCH   8   9
ENDBRANCH   7   8
ENDBRANCH   6   7
ENDBRANCH   5   6
ENDBRANCH   4   5
ENDBRANCH   3   4
ENDBRANCH   2   3
ENDBRANCH   1   2
BRANCH   1  18
ATOM     18  C   UNL     1      35.945  24.321  55.805  1.00  0.00     0.000 C 
BRANCH  18  19
ATOM     19  C   UNL     1      36.576  22.929  55.980  1.00  0.00     0.000 C 
BRANCH  19  20
ATOM     20  C   UNL     1      37.733  22.927  56.991  1.00  0.00     0.000 C 
BRANCH  20  21
ATOM     21  C   UNL     1      38.665  24.139  56.823  1.00  0.00     0.000 C 
BRANCH  21  22
ATOM     22  C   UNL     1      39.917  23.809  55.994  1.00  0.00     0.000 C 
BRANCH  22  23
ATOM     23  C   UNL     1      39.580  23.062  54.691  1.00  0.00     0.000 C 
BRANCH  23  24
ATOM     24  C   UNL     1      38.609  23.846  53.793  1.00  0.00    -0.000 C 
BRANCH  24  25
ATOM     25  C   UNL     1      38.897  23.644  52.296  1.00  0.00    -0.000 C 
BRANCH  25  26
ATOM     26  C   UNL     1      37.777  22.878  51.569  1.00  0.00    -0.000 C 
BRANCH  26  27
ATOM     27  C   UNL     1      36.375  23.012  52.197  1.00  0.00    -0.000 C 
BRANCH  27  28
ATOM     28  C   UNL     1      35.204  22.957  51.198  1.00  0.00    -0.000 C 
BRANCH  28  29
ATOM     29  C   UNL     1      34.916  24.277  50.454  1.00  0.00    -0.000 C 
BRANCH  29  30
ATOM     30  C   UNL     1      35.103  24.217  48.928  1.00  0.00    -0.000 C 
BRANCH  30  31
ATOM     31  C   UNL     1      35.687  22.881  48.450  1.00  0.00    -0.003 C 
ATOM     32  C   UNL     1      36.666  23.089  47.298  1.00  0.00     0.004 C 
ENDBRANCH  30  31
ENDBRANCH  29  30
ENDBRANCH  28  29
ENDBRANCH  27  28
ENDBRANCH  26  27
ENDBRANCH  25  26
ENDBRANCH  24  25
ENDBRANCH  23  24
ENDBRANCH  22  23
ENDBRANCH  21  22
ENDBRANCH  20  21
ENDBRANCH  19  20
ENDBRANCH  18  19
ENDBRANCH   1  18
TORSDOF 28
ENDMDL
MODEL 5
REMARK VINA RESULT:     5.425      9.137     16.496
REMARK INTER + INTRA:          13.287
REMARK INTER:                  13.444
REMARK INTRA:                  -0.157
REMARK UNBOUND:                -1.018
REMARK SMILES CCCCCCCCCCCCCCCCCCCCCCCCCCCCCC(=O)[O-]
REMARK SMILES IDX 16 1 17 2 18 3 19 4 20 5 21 6 22 7 23 8 24 9 25 10 26 11
REMARK SMILES IDX 27 12 28 13 29 14 30 15 31 16 32 17 15 18 14 19 13 20 12 21
REMARK SMILES IDX 11 22 10 23 9 24 8 25 7 26 6 27 5 28 4 29 3 30 2 31 1 32
REMARK H PARENT
REMARK Flexibility Score: inf
ROOT
ATOM      1  C   UNL     1      31.694  23.585  59.740  1.00  0.00     0.000 C 
ENDROOT
BRANCH   1   2
ATOM      2  C   UNL     1      32.233  24.426  60.911  1.00  0.00     0.000 C 
BRANCH   2   3
ATOM      3  C   UNL     1      31.213  24.571  62.052  1.00  0.00     0.000 C 
BRANCH   3   4
ATOM      4  C   UNL     1      30.528  23.242  62.406  1.00  0.00     0.000 C 
BRANCH   4   5
ATOM      5  C   UNL     1      29.323  23.475  63.323  1.00  0.00     0.000 C 
BRANCH   5   6
ATOM      6  C   UNL     1      29.718  24.310  64.550  1.00  0.00     0.000 C 
BRANCH   6   7
ATOM      7  C   UNL     1      31.191  24.118  64.946  1.00  0.00     0.000 C 
BRANCH   7   8
ATOM      8  C   UNL     1      31.358  23.220  66.182  1.00  0.00     0.000 C 
BRANCH   8   9
ATOM      9  C   UNL     1      32.748  23.395  66.806  1.00  0.00     0.000 C 
BRANCH   9  10
ATOM     10  C   UNL     1      33.652  24.249  65.903  1.00  0.00     0.000 C 
BRANCH  10  11
ATOM     11  C   UNL     1      34.706  25.046  66.691  1.00  0.00     0.000 C 
BRANCH  11  12
ATOM     12  C   UNL     1      35.876  25.594  65.848  1.00  0.00     0.000 C 
BRANCH  12  13
ATOM     13  C   UNL     1      36.699  26.713  66.518  1.00  0.00     0.006 C 
BRANCH  13  14
ATOM     14  C   UNL     1      36.885  27.969  65.653  1.00  0.00     0.053 C 
BRANCH  14  15
ATOM     15  C   UNL     1      38.232  28.591  65.853  1.00  0.00     0.041 C 
ATOM     16  O   UNL     1      38.407  29.817  65.618  1.00  0.00    -0.550 OA
ATOM     17  O   UNL     1      39.293  27.821  66.314  1.00  0.00    -0.550 OA
ENDBRANCH  14  15
ENDBRANCH  13  14
ENDBRANCH  12  13
ENDBRANCH  11  12
ENDBRANCH  10  11
ENDBRANCH   9  10
ENDBRANCH   8   9
ENDBRANCH   7   8
ENDBRANCH   6   7
ENDBRANCH   5   6
ENDBRANCH   4   5
ENDBRANCH   3   4
ENDBRANCH   2   3
ENDBRANCH   1   2
BRANCH   1  18
ATOM     18  C   UNL     1      32.815  22.897  58.944  1.00  0.00     0.000 C 
BRANCH  18  19
ATOM     19  C   UNL     1      33.975  23.849  58.605  1.00  0.00     0.000 C 
BRANCH  19  20
ATOM     20  C   UNL     1      35.298  23.106  58.366  1.00  0.00     0.000 C 
BRANCH  20  21
ATOM     21  C   UNL     1      35.638  22.970  56.871  1.00  0.00     0.000 C 
BRANCH  21  22
ATOM     22  C   UNL     1      34.401  23.117  55.971  1.00  0.00     0.000 C 
BRANCH  22  23
ATOM     23  C   UNL     1      33.968  24.584  55.798  1.00  0.00     0.000 C 
BRANCH  23  24
ATOM     24  C   UNL     1      35.075  25.460  55.189  1.00  0.00    -0.000 C 
BRANCH  24  25
ATOM     25  C   UNL     1      35.637  24.875  53.882  1.00  0.00    -0.000 C 
BRANCH  25  26
ATOM     26  C   UNL     1      37.064  24.320  54.041  1.00  0.00    -0.000 C 
BRANCH  26  27
ATOM     27  C   UNL     1      37.899  24.274  52.746  1.00  0.00    -0.000 C 
BRANCH  27  28
ATOM     28  C   UNL     1      37.636  23.053  51.843  1.00  0.00    -0.000 C 
BRANCH  28  29
ATOM     29  C   UNL     1      36.202  22.948  51.286  1.00  0.00    -0.000 C 
BRANCH  29  30
ATOM     30  C   UNL     1      36.099  22.947  49.751  1.00  0.00    -0.000 C 
BRANCH  30  31
ATOM     31  C   UNL     1      37.469  22.878  49.061  1.00  0.00    -0.003 C 
ATOM     32  C   UNL     1      37.330  23.010  47.547  1.00  0.00     0.004 C 
ENDBRANCH  30  31
ENDBRANCH  29  30
ENDBRANCH  28  29
ENDBRANCH  27  28
ENDBRANCH  26  27
ENDBRANCH  25  26
ENDBRANCH  24  25
ENDBRANCH  23  24
ENDBRANCH  22  23
ENDBRANCH  21  22
ENDBRANCH  20  21
ENDBRANCH  19  20
ENDBRANCH  18  19
ENDBRANCH   1  18
TORSDOF 28
ENDMDL
MODEL 6
REMARK VINA RESULT:     6.585      1.582      2.107
REMARK INTER + INTRA:          16.346
REMARK INTER:                  17.237
REMARK INTRA:                  -0.891
REMARK UNBOUND:                -1.018
REMARK SMILES CCCCCCCCCCCCCCCCCCCCCCCCCCCCCC(=O)[O-]
REMARK SMILES IDX 16 1 17 2 18 3 19 4 20 5 21 6 22 7 23 8 24 9 25 10 26 11
REMARK SMILES IDX 27 12 28 13 29 14 30 15 31 16 32 17 15 18 14 19 13 20 12 21
REMARK SMILES IDX 11 22 10 23 9 24 8 25 7 26 6 27 5 28 4 29 3 30 2 31 1 32
REMARK H PARENT
REMARK Flexibility Score: inf
ROOT
ATOM      1  C   UNL     1      39.853  33.629  63.773  1.00  0.00     0.000 C 
ENDROOT
BRANCH   1   2
ATOM      2  C   UNL     1      40.490  32.271  64.118  1.00  0.00     0.000 C 
BRANCH   2   3
ATOM      3  C   UNL     1      39.748  31.541  65.249  1.00  0.00     0.000 C 
BRANCH   3   4
ATOM      4  C   UNL     1      39.436  30.077  64.903  1.00  0.00     0.000 C 
BRANCH   4   5
ATOM      5  C   UNL     1      39.264  29.239  66.175  1.00  0.00     0.000 C 
BRANCH   5   6
ATOM      6  C   UNL     1      38.382  28.010  65.910  1.00  0.00     0.000 C 
BRANCH   6   7
ATOM      7  C   UNL     1      36.911  28.381  65.659  1.00  0.00     0.000 C 
BRANCH   7   8
ATOM      8  C   UNL     1      35.951  27.216  65.945  1.00  0.00     0.000 C 
BRANCH   8   9
ATOM      9  C   UNL     1      35.619  26.449  64.659  1.00  0.00     0.000 C 
BRANCH   9  10
ATOM     10  C   UNL     1      35.307  24.976  64.963  1.00  0.00     0.000 C 
BRANCH  10  11
ATOM     11  C   UNL     1      34.285  24.801  66.100  1.00  0.00     0.000 C 
BRANCH  11  12
ATOM     12  C   UNL     1      33.140  23.811  65.803  1.00  0.00     0.000 C 
BRANCH  12  13
ATOM     13  C   UNL     1      32.703  23.738  64.325  1.00  0.00     0.006 C 
BRANCH  13  14
ATOM     14  C   UNL     1      31.230  23.355  64.117  1.00  0.00     0.053 C 
BRANCH  14  15
ATOM     15  C   UNL     1      30.384  23.727  65.295  1.00  0.00     0.041 C 
ATOM     16  O   UNL     1      30.300  22.954  66.286  1.00  0.00    -0.550 OA
ATOM     17  O   UNL     1      29.699  24.937  65.305  1.00  0.00    -0.550 OA
ENDBRANCH  14  15
ENDBRANCH  13  14
ENDBRANCH  12  13
ENDBRANCH  11  12
ENDBRANCH  10  11
ENDBRANCH   9  10
ENDBRANCH   8   9
ENDBRANCH   7   8
ENDBRANCH   6   7
ENDBRANCH   5   6
ENDBRANCH   4   5
ENDBRANCH   3   4
ENDBRANCH   2   3
ENDBRANCH   1   2
BRANCH   1  18
ATOM     18  C   UNL     1      40.642  34.815  64.352  1.00  0.00     0.000 C 
BRANCH  18  19
ATOM     19  C   UNL     1      40.347  36.138  63.623  1.00  0.00     0.000 C 
BRANCH  19  20
ATOM     20  C   UNL     1      40.075  37.298  64.593  1.00  0.00     0.000 C 
BRANCH  20  21
ATOM     21  C   UNL     1      40.484  36.967  66.039  1.00  0.00     0.000 C 
BRANCH  21  22
ATOM     22  C   UNL     1      41.166  38.151  66.743  1.00  0.00     0.000 C 
BRANCH  22  23
ATOM     23  C   UNL     1      42.657  38.272  66.382  1.00  0.00     0.000 C 
BRANCH  23  24
ATOM     24  C   UNL     1      43.123  39.733  66.272  1.00  0.00    -0.000 C 
BRANCH  24  25
ATOM     25  C   UNL     1      42.203  40.704  67.033  1.00  0.00    -0.000 C 
BRANCH  25  26
ATOM     26  C   UNL     1      41.197  41.420  66.113  1.00  0.00    -0.000 C 
BRANCH  26  27
ATOM     27  C   UNL     1      40.703  42.788  66.621  1.00  0.00    -0.000 C 
BRANCH  27  28
ATOM     28  C   UNL     1      39.243  42.812  67.117  1.00  0.00    -0.000 C 
BRANCH  28  29
ATOM     29  C   UNL     1      38.178  42.598  66.023  1.00  0.00    -0.000 C 
BRANCH  29  30
ATOM     30  C   UNL     1      38.463  41.436  65.056  1.00  0.00    -0.000 C 
BRANCH  30  31
ATOM     31  C   UNL     1      37.876  40.101  65.536  1.00  0.00    -0.003 C 
ATOM     32  C   UNL     1      36.742  40.326  66.533  1.00  0.00     0.004 C 
ENDBRANCH  30  31
ENDBRANCH  29  30
ENDBRANCH  28  29
ENDBRANCH  27  28
ENDBRANCH  26  27
ENDBRANCH  25  26
ENDBRANCH  24  25
ENDBRANCH  23  24
ENDBRANCH  22  23
ENDBRANCH  21  22
ENDBRANCH  20  21
ENDBRANCH  19  20
ENDBRANCH  18  19
ENDBRANCH   1  18
TORSDOF 28
ENDMDL
