MODEL 1
REMARK VINA RESULT:    -5.094      0.000      0.000
REMARK INTER + INTRA:         -11.528
REMARK INTER:                  -9.561
REMARK INTRA:                  -1.967
REMARK UNBOUND:                -1.967
REMARK SMILES CCCCCCCCC=CCCCCCCCC(=O)[O-]
REMARK SMILES IDX 10 1 9 2 11 3 12 4 13 5 14 6 15 7 16 8 17 9 18 10 19 11
REMARK SMILES IDX 20 12 8 13 7 14 6 15 5 16 4 17 3 18 2 19 1 20
REMARK H PARENT
REMARK Flexibility Score: inf
ROOT
ATOM      1  C   UNL     1      -4.996  22.725  48.762  1.00  0.00    -0.031 C 
ATOM      2  C   UNL     1      -5.105  21.924  47.692  1.00  0.00    -0.031 C 
ENDROOT
BRANCH   1   3
ATOM      3  C   UNL     1      -5.545  24.127  48.761  1.00  0.00     0.027 C 
BRANCH   3   4
ATOM      4  C   UNL     1      -5.440  24.773  50.150  1.00  0.00     0.004 C 
BRANCH   4   5
ATOM      5  C   UNL     1      -4.585  23.979  51.158  1.00  0.00     0.000 C 
BRANCH   5   6
ATOM      6  C   UNL     1      -3.478  24.792  51.856  1.00  0.00     0.000 C 
BRANCH   6   7
ATOM      7  C   UNL     1      -2.292  25.191  50.957  1.00  0.00     0.000 C 
BRANCH   7   8
ATOM      8  C   UNL     1      -1.764  24.071  50.043  1.00  0.00     0.006 C 
BRANCH   8   9
ATOM      9  C   UNL     1      -1.794  24.452  48.557  1.00  0.00     0.053 C 
BRANCH   9  10
ATOM     10  C   UNL     1      -1.447  23.270  47.710  1.00  0.00     0.041 C 
ATOM     11  O   UNL     1      -0.612  22.420  48.118  1.00  0.00    -0.550 OA
ATOM     12  O   UNL     1      -2.011  23.128  46.447  1.00  0.00    -0.550 OA
ENDBRANCH   9  10
ENDBRANCH   8   9
ENDBRANCH   7   8
ENDBRANCH   6   7
ENDBRANCH   5   6
ENDBRANCH   4   5
ENDBRANCH   3   4
ENDBRANCH   1   3
BRANCH   2  13
ATOM     13  C   UNL     1      -4.610  20.504  47.719  1.00  0.00     0.027 C 
BRANCH  13  14
ATOM     14  C   UNL     1      -3.472  20.340  48.733  1.00  0.00     0.004 C 
BRANCH  14  15
ATOM     15  C   UNL     1      -3.327  18.877  49.165  1.00  0.00     0.000 C 
BRANCH  15  16
ATOM     16  C   UNL     1      -3.927  17.930  48.114  1.00  0.00     0.000 C 
BRANCH  16  17
ATOM     17  C   UNL     1      -2.839  17.241  47.264  1.00  0.00    -0.000 C 
BRANCH  17  18
ATOM     18  C   UNL     1      -2.753  17.776  45.825  1.00  0.00    -0.000 C 
BRANCH  18  19
ATOM     19  C   UNL     1      -3.028  16.697  44.769  1.00  0.00    -0.003 C 
ATOM     20  C   UNL     1      -1.738  16.262  44.079  1.00  0.00     0.004 C 
ENDBRANCH  18  19
ENDBRANCH  17  18
ENDBRANCH  16  17
ENDBRANCH  15  16
ENDBRANCH  14  15
ENDBRANCH  13  14
ENDBRANCH   2  13
TORSDOF 15
ENDMDL
MODEL 2
REMARK VINA RESULT:    -5.042      2.170      6.565
REMARK INTER + INTRA:         -11.431
REMARK INTER:                  -9.399
REMARK INTRA:                  -2.032
REMARK UNBOUND:                -1.967
REMARK SMILES CCCCCCCCC=CCCCCCCCC(=O)[O-]
REMARK SMILES IDX 10 1 9 2 11 3 12 4 13 5 14 6 15 7 16 8 17 9 18 10 19 11
REMARK SMILES IDX 20 12 8 13 7 14 6 15 5 16 4 17 3 18 2 19 1 20
REMARK H PARENT
REMARK Flexibility Score: inf
ROOT
ATOM      1  C   UNL     1      -4.739  22.452  47.503  1.00  0.00    -0.031 C 
ATOM      2  C   UNL     1      -5.358  23.090  48.508  1.00  0.00    -0.031 C 
ENDROOT
BRANCH   1   3
ATOM      3  C   UNL     1      -4.756  20.952  47.388  1.00  0.00     0.027 C 
BRANCH   3   4
ATOM      4  C   UNL     1      -3.971  20.291  48.532  1.00  0.00     0.004 C 
BRANCH   4   5
ATOM      5  C   UNL     1      -4.039  18.750  48.542  1.00  0.00     0.000 C 
BRANCH   5   6
ATOM      6  C   UNL     1      -2.867  18.052  49.259  1.00  0.00     0.000 C 
BRANCH   6   7
ATOM      7  C   UNL     1      -2.080  17.045  48.397  1.00  0.00     0.000 C 
BRANCH   7   8
ATOM      8  C   UNL     1      -1.354  17.655  47.186  1.00  0.00     0.006 C 
BRANCH   8   9
ATOM      9  C   UNL     1      -1.434  16.768  45.935  1.00  0.00     0.053 C 
BRANCH   9  10
ATOM     10  C   UNL     1      -2.639  17.120  45.124  1.00  0.00     0.041 C 
ATOM     11  O   UNL     1      -3.184  16.254  44.390  1.00  0.00    -0.550 OA
ATOM     12  O   UNL     1      -3.136  18.417  45.140  1.00  0.00    -0.550 OA
ENDBRANCH   9  10
ENDBRANCH   8   9
ENDBRANCH   7   8
ENDBRANCH   6   7
ENDBRANCH   5   6
ENDBRANCH   4   5
ENDBRANCH   3   4
ENDBRANCH   1   3
BRANCH   2  13
ATOM     13  C   UNL     1      -5.391  24.591  48.584  1.00  0.00     0.027 C 
BRANCH  13  14
ATOM     14  C   UNL     1      -5.503  25.063  50.039  1.00  0.00     0.004 C 
BRANCH  14  15
ATOM     15  C   UNL     1      -4.874  24.044  50.997  1.00  0.00     0.000 C 
BRANCH  15  16
ATOM     16  C   UNL     1      -3.732  24.679  51.805  1.00  0.00     0.000 C 
BRANCH  16  17
ATOM     17  C   UNL     1      -2.351  24.126  51.393  1.00  0.00    -0.000 C 
BRANCH  17  18
ATOM     18  C   UNL     1      -1.689  24.915  50.250  1.00  0.00    -0.000 C 
BRANCH  18  19
ATOM     19  C   UNL     1      -1.657  24.137  48.928  1.00  0.00    -0.003 C 
ATOM     20  C   UNL     1      -1.383  22.655  49.169  1.00  0.00     0.004 C 
ENDBRANCH  18  19
ENDBRANCH  17  18
ENDBRANCH  16  17
ENDBRANCH  15  16
ENDBRANCH  14  15
ENDBRANCH  13  14
ENDBRANCH   2  13
TORSDOF 15
ENDMDL
MODEL 3
REMARK VINA RESULT:    -5.000      2.774      7.970
REMARK INTER + INTRA:         -11.351
REMARK INTER:                 -10.369
REMARK INTRA:                  -0.983
REMARK UNBOUND:                -1.967
REMARK SMILES CCCCCCCCC=CCCCCCCCC(=O)[O-]
REMARK SMILES IDX 10 1 9 2 11 3 12 4 13 5 14 6 15 7 16 8 17 9 18 10 19 11
REMARK SMILES IDX 20 12 8 13 7 14 6 15 5 16 4 17 3 18 2 19 1 20
REMARK H PARENT
REMARK Flexibility Score: inf
ROOT
ATOM      1  C   UNL     1      -5.487  22.423  47.704  1.00  0.00    -0.031 C 
ATOM      2  C   UNL     1      -5.074  23.299  48.631  1.00  0.00    -0.031 C 
ENDROOT
BRANCH   1   3
ATOM      3  C   UNL     1      -4.676  21.205  47.350  1.00  0.00     0.027 C 
BRANCH   3   4
ATOM      4  C   UNL     1      -4.042  20.569  48.596  1.00  0.00     0.004 C 
BRANCH   4   5
ATOM      5  C   UNL     1      -4.092  19.027  48.617  1.00  0.00     0.000 C 
BRANCH   5   6
ATOM      6  C   UNL     1      -3.383  18.337  47.435  1.00  0.00     0.000 C 
BRANCH   6   7
ATOM      7  C   UNL     1      -1.962  18.851  47.133  1.00  0.00     0.000 C 
BRANCH   7   8
ATOM      8  C   UNL     1      -0.878  17.761  47.067  1.00  0.00     0.006 C 
BRANCH   8   9
ATOM      9  C   UNL     1      -1.398  16.438  46.490  1.00  0.00     0.053 C 
BRANCH   9  10
ATOM     10  C   UNL     1      -0.971  16.287  45.065  1.00  0.00     0.041 C 
ATOM     11  O   UNL     1       0.245  16.126  44.781  1.00  0.00    -0.550 OA
ATOM     12  O   UNL     1      -1.910  16.372  44.044  1.00  0.00    -0.550 OA
ENDBRANCH   9  10
ENDBRANCH   8   9
ENDBRANCH   7   8
ENDBRANCH   6   7
ENDBRANCH   5   6
ENDBRANCH   4   5
ENDBRANCH   3   4
ENDBRANCH   1   3
BRANCH   2  13
ATOM     13  C   UNL     1      -5.917  24.481  49.026  1.00  0.00     0.027 C 
BRANCH  13  14
ATOM     14  C   UNL     1      -5.464  25.050  50.376  1.00  0.00     0.004 C 
BRANCH  14  15
ATOM     15  C   UNL     1      -4.575  24.049  51.124  1.00  0.00     0.000 C 
BRANCH  15  16
ATOM     16  C   UNL     1      -3.478  24.774  51.919  1.00  0.00     0.000 C 
BRANCH  16  17
ATOM     17  C   UNL     1      -3.936  26.164  52.409  1.00  0.00    -0.000 C 
BRANCH  17  18
ATOM     18  C   UNL     1      -3.497  26.484  53.847  1.00  0.00    -0.000 C 
BRANCH  18  19
ATOM     19  C   UNL     1      -2.308  27.452  53.907  1.00  0.00    -0.003 C 
ATOM     20  C   UNL     1      -2.238  28.314  52.649  1.00  0.00     0.004 C 
ENDBRANCH  18  19
ENDBRANCH  17  18
ENDBRANCH  16  17
ENDBRANCH  15  16
ENDBRANCH  14  15
ENDBRANCH  13  14
ENDBRANCH   2  13
TORSDOF 15
ENDMDL
MODEL 4
REMARK VINA RESULT:    -4.995      3.912      4.971
REMARK INTER + INTRA:         -11.343
REMARK INTER:                 -10.438
REMARK INTRA:                  -0.904
REMARK UNBOUND:                -1.967
REMARK SMILES CCCCCCCCC=CCCCCCCCC(=O)[O-]
REMARK SMILES IDX 10 1 9 2 11 3 12 4 13 5 14 6 15 7 16 8 17 9 18 10 19 11
REMARK SMILES IDX 20 12 8 13 7 14 6 15 5 16 4 17 3 18 2 19 1 20
REMARK H PARENT
REMARK Flexibility Score: inf
ROOT
ATOM      1  C   UNL     1      -5.056  23.169  48.677  1.00  0.00    -0.031 C 
ATOM      2  C   UNL     1      -5.293  22.329  47.659  1.00  0.00    -0.031 C 
ENDROOT
BRANCH   1   3
ATOM      3  C   UNL     1      -5.639  24.556  48.711  1.00  0.00     0.027 C 
BRANCH   3   4
ATOM      4  C   UNL     1      -5.892  25.025  50.152  1.00  0.00     0.004 C 
BRANCH   4   5
ATOM      5  C   UNL     1      -5.935  26.558  50.322  1.00  0.00     0.000 C 
BRANCH   5   6
ATOM      6  C   UNL     1      -6.895  27.292  49.366  1.00  0.00     0.000 C 
BRANCH   6   7
ATOM      7  C   UNL     1      -6.216  28.236  48.354  1.00  0.00     0.000 C 
BRANCH   7   8
ATOM      8  C   UNL     1      -7.178  28.972  47.405  1.00  0.00     0.006 C 
BRANCH   8   9
ATOM      9  C   UNL     1      -7.919  28.022  46.454  1.00  0.00     0.053 C 
BRANCH   9  10
ATOM     10  C   UNL     1      -9.398  28.206  46.582  1.00  0.00     0.041 C 
ATOM     11  O   UNL     1     -10.043  28.801  45.679  1.00  0.00    -0.550 OA
ATOM     12  O   UNL     1     -10.059  27.763  47.721  1.00  0.00    -0.550 OA
ENDBRANCH   9  10
ENDBRANCH   8   9
ENDBRANCH   7   8
ENDBRANCH   6   7
ENDBRANCH   5   6
ENDBRANCH   4   5
ENDBRANCH   3   4
ENDBRANCH   1   3
BRANCH   2  13
ATOM     13  C   UNL     1      -4.758  20.923  47.659  1.00  0.00     0.027 C 
BRANCH  13  14
ATOM     14  C   UNL     1      -3.826  20.691  48.855  1.00  0.00     0.004 C 
BRANCH  14  15
ATOM     15  C   UNL     1      -3.291  19.254  48.864  1.00  0.00     0.000 C 
BRANCH  15  16
ATOM     16  C   UNL     1      -4.109  18.356  47.923  1.00  0.00     0.000 C 
BRANCH  16  17
ATOM     17  C   UNL     1      -3.217  17.369  47.141  1.00  0.00    -0.000 C 
BRANCH  17  18
ATOM     18  C   UNL     1      -3.029  17.749  45.662  1.00  0.00    -0.000 C 
BRANCH  18  19
ATOM     19  C   UNL     1      -3.167  16.549  44.716  1.00  0.00    -0.003 C 
ATOM     20  C   UNL     1      -1.841  16.239  44.026  1.00  0.00     0.004 C 
ENDBRANCH  18  19
ENDBRANCH  17  18
ENDBRANCH  16  17
ENDBRANCH  15  16
ENDBRANCH  14  15
ENDBRANCH  13  14
ENDBRANCH   2  13
TORSDOF 15
ENDMDL
MODEL 5
REMARK VINA RESULT:    -4.986      3.030      6.971
REMARK INTER + INTRA:         -11.325
REMARK INTER:                  -9.355
REMARK INTRA:                  -1.970
REMARK UNBOUND:                -1.967
REMARK SMILES CCCCCCCCC=CCCCCCCCC(=O)[O-]
REMARK SMILES IDX 10 1 9 2 11 3 12 4 13 5 14 6 15 7 16 8 17 9 18 10 19 11
REMARK SMILES IDX 20 12 8 13 7 14 6 15 5 16 4 17 3 18 2 19 1 20
REMARK H PARENT
REMARK Flexibility Score: inf
ROOT
ATOM      1  C   UNL     1      -5.260  24.957  49.739  1.00  0.00    -0.031 C 
ATOM      2  C   UNL     1      -6.552  25.268  49.922  1.00  0.00    -0.031 C 
ENDROOT
BRANCH   1   3
ATOM      3  C   UNL     1      -4.647  23.727  50.353  1.00  0.00     0.027 C 
BRANCH   3   4
ATOM      4  C   UNL     1      -4.033  22.811  49.285  1.00  0.00     0.004 C 
BRANCH   4   5
ATOM      5  C   UNL     1      -5.011  22.392  48.169  1.00  0.00     0.000 C 
BRANCH   5   6
ATOM      6  C   UNL     1      -4.853  20.940  47.675  1.00  0.00     0.000 C 
BRANCH   6   7
ATOM      7  C   UNL     1      -3.928  20.054  48.532  1.00  0.00     0.000 C 
BRANCH   7   8
ATOM      8  C   UNL     1      -4.276  18.556  48.528  1.00  0.00     0.006 C 
BRANCH   8   9
ATOM      9  C   UNL     1      -3.625  17.797  47.363  1.00  0.00     0.053 C 
BRANCH   9  10
ATOM     10  C   UNL     1      -2.683  16.758  47.881  1.00  0.00     0.041 C 
ATOM     11  O   UNL     1      -2.869  16.241  49.014  1.00  0.00    -0.550 OA
ATOM     12  O   UNL     1      -1.570  16.393  47.133  1.00  0.00    -0.550 OA
ENDBRANCH   9  10
ENDBRANCH   8   9
ENDBRANCH   7   8
ENDBRANCH   6   7
ENDBRANCH   5   6
ENDBRANCH   4   5
ENDBRANCH   3   4
ENDBRANCH   1   3
BRANCH   2  13
ATOM     13  C   UNL     1      -7.176  26.463  49.257  1.00  0.00     0.027 C 
BRANCH  13  14
ATOM     14  C   UNL     1      -6.228  27.668  49.296  1.00  0.00     0.004 C 
BRANCH  14  15
ATOM     15  C   UNL     1      -6.146  28.348  47.924  1.00  0.00     0.000 C 
BRANCH  15  16
ATOM     16  C   UNL     1      -6.824  27.492  46.843  1.00  0.00     0.000 C 
BRANCH  16  17
ATOM     17  C   UNL     1      -5.817  26.976  45.793  1.00  0.00    -0.000 C 
BRANCH  17  18
ATOM     18  C   UNL     1      -5.246  25.587  46.120  1.00  0.00    -0.000 C 
BRANCH  18  19
ATOM     19  C   UNL     1      -3.748  25.621  46.455  1.00  0.00    -0.003 C 
ATOM     20  C   UNL     1      -3.009  24.466  45.785  1.00  0.00     0.004 C 
ENDBRANCH  18  19
ENDBRANCH  17  18
ENDBRANCH  16  17
ENDBRANCH  15  16
ENDBRANCH  14  15
ENDBRANCH  13  14
ENDBRANCH   2  13
TORSDOF 15
ENDMDL
MODEL 6
REMARK VINA RESULT:    -4.967      2.564      7.260
REMARK INTER + INTRA:         -11.290
REMARK INTER:                  -9.649
REMARK INTRA:                  -1.641
REMARK UNBOUND:                -1.967
REMARK SMILES CCCCCCCCC=CCCCCCCCC(=O)[O-]
REMARK SMILES IDX 10 1 9 2 11 3 12 4 13 5 14 6 15 7 16 8 17 9 18 10 19 11
REMARK SMILES IDX 20 12 8 13 7 14 6 15 5 16 4 17 3 18 2 19 1 20
REMARK H PARENT
REMARK Flexibility Score: inf
ROOT
ATOM      1  C   UNL     1      -4.385  23.080  49.240  1.00  0.00    -0.031 C 
ATOM      2  C   UNL     1      -4.861  23.729  50.314  1.00  0.00    -0.031 C 
ENDROOT
BRANCH   1   3
ATOM      3  C   UNL     1      -5.269  22.725  48.075  1.00  0.00     0.027 C 
BRANCH   3   4
ATOM      4  C   UNL     1      -4.996  21.298  47.576  1.00  0.00     0.004 C 
BRANCH   4   5
ATOM      5  C   UNL     1      -4.030  20.488  48.465  1.00  0.00     0.000 C 
BRANCH   5   6
ATOM      6  C   UNL     1      -4.313  18.974  48.524  1.00  0.00     0.000 C 
BRANCH   6   7
ATOM      7  C   UNL     1      -3.099  18.094  48.879  1.00  0.00     0.000 C 
BRANCH   7   8
ATOM      8  C   UNL     1      -2.805  16.959  47.883  1.00  0.00     0.006 C 
BRANCH   8   9
ATOM      9  C   UNL     1      -3.137  17.338  46.433  1.00  0.00     0.053 C 
BRANCH   9  10
ATOM     10  C   UNL     1      -2.000  16.984  45.529  1.00  0.00     0.041 C 
ATOM     11  O   UNL     1      -0.817  17.013  45.958  1.00  0.00    -0.550 OA
ATOM     12  O   UNL     1      -2.242  16.667  44.198  1.00  0.00    -0.550 OA
ENDBRANCH   9  10
ENDBRANCH   8   9
ENDBRANCH   7   8
ENDBRANCH   6   7
ENDBRANCH   5   6
ENDBRANCH   4   5
ENDBRANCH   3   4
ENDBRANCH   1   3
BRANCH   2  13
ATOM     13  C   UNL     1      -3.962  24.135  51.448  1.00  0.00     0.027 C 
BRANCH  13  14
ATOM     14  C   UNL     1      -3.313  25.497  51.172  1.00  0.00     0.004 C 
BRANCH  14  15
ATOM     15  C   UNL     1      -4.269  26.643  51.526  1.00  0.00     0.000 C 
BRANCH  15  16
ATOM     16  C   UNL     1      -4.794  27.333  50.258  1.00  0.00     0.000 C 
BRANCH  16  17
ATOM     17  C   UNL     1      -6.274  26.990  49.980  1.00  0.00    -0.000 C 
BRANCH  17  18
ATOM     18  C   UNL     1      -6.570  26.700  48.499  1.00  0.00    -0.000 C 
BRANCH  18  19
ATOM     19  C   UNL     1      -5.305  26.400  47.685  1.00  0.00    -0.003 C 
ATOM     20  C   UNL     1      -5.637  26.195  46.209  1.00  0.00     0.004 C 
ENDBRANCH  18  19
ENDBRANCH  17  18
ENDBRANCH  16  17
ENDBRANCH  15  16
ENDBRANCH  14  15
ENDBRANCH  13  14
ENDBRANCH   2  13
TORSDOF 15
ENDMDL
MODEL 7
REMARK VINA RESULT:    -4.934      2.571      3.455
REMARK INTER + INTRA:         -11.227
REMARK INTER:                  -9.818
REMARK INTRA:                  -1.410
REMARK UNBOUND:                -1.967
REMARK SMILES CCCCCCCCC=CCCCCCCCC(=O)[O-]
REMARK SMILES IDX 10 1 9 2 11 3 12 4 13 5 14 6 15 7 16 8 17 9 18 10 19 11
REMARK SMILES IDX 20 12 8 13 7 14 6 15 5 16 4 17 3 18 2 19 1 20
REMARK H PARENT
REMARK Flexibility Score: inf
ROOT
ATOM      1  C   UNL     1      -4.433  23.280  46.837  1.00  0.00    -0.031 C 
ATOM      2  C   UNL     1      -5.228  22.369  47.418  1.00  0.00    -0.031 C 
ENDROOT
BRANCH   1   3
ATOM      3  C   UNL     1      -4.877  24.704  46.633  1.00  0.00     0.027 C 
BRANCH   3   4
ATOM      4  C   UNL     1      -4.786  25.514  47.935  1.00  0.00     0.004 C 
BRANCH   4   5
ATOM      5  C   UNL     1      -6.077  25.506  48.779  1.00  0.00     0.000 C 
BRANCH   5   6
ATOM      6  C   UNL     1      -5.889  25.091  50.252  1.00  0.00     0.000 C 
BRANCH   6   7
ATOM      7  C   UNL     1      -4.797  24.032  50.499  1.00  0.00     0.000 C 
BRANCH   7   8
ATOM      8  C   UNL     1      -3.772  24.399  51.587  1.00  0.00     0.006 C 
BRANCH   8   9
ATOM      9  C   UNL     1      -3.970  25.817  52.138  1.00  0.00     0.053 C 
BRANCH   9  10
ATOM     10  C   UNL     1      -3.042  26.065  53.284  1.00  0.00     0.041 C 
ATOM     11  O   UNL     1      -3.299  26.968  54.124  1.00  0.00    -0.550 OA
ATOM     12  O   UNL     1      -1.868  25.332  53.401  1.00  0.00    -0.550 OA
ENDBRANCH   9  10
ENDBRANCH   8   9
ENDBRANCH   7   8
ENDBRANCH   6   7
ENDBRANCH   5   6
ENDBRANCH   4   5
ENDBRANCH   3   4
ENDBRANCH   1   3
BRANCH   2  13
ATOM     13  C   UNL     1      -4.758  20.964  47.674  1.00  0.00     0.027 C 
BRANCH  13  14
ATOM     14  C   UNL     1      -3.863  20.905  48.918  1.00  0.00     0.004 C 
BRANCH  14  15
ATOM     15  C   UNL     1      -3.076  19.590  48.967  1.00  0.00     0.000 C 
BRANCH  15  16
ATOM     16  C   UNL     1      -3.958  18.404  48.546  1.00  0.00     0.000 C 
BRANCH  16  17
ATOM     17  C   UNL     1      -3.178  17.073  48.537  1.00  0.00    -0.000 C 
BRANCH  17  18
ATOM     18  C   UNL     1      -2.564  16.729  47.170  1.00  0.00    -0.000 C 
BRANCH  18  19
ATOM     19  C   UNL     1      -3.183  17.534  46.019  1.00  0.00    -0.003 C 
ATOM     20  C   UNL     1      -3.292  16.688  44.753  1.00  0.00     0.004 C 
ENDBRANCH  18  19
ENDBRANCH  17  18
ENDBRANCH  16  17
ENDBRANCH  15  16
ENDBRANCH  14  15
ENDBRANCH  13  14
ENDBRANCH   2  13
TORSDOF 15
ENDMDL
MODEL 8
REMARK VINA RESULT:    -4.931      2.170      2.956
REMARK INTER + INTRA:         -11.223
REMARK INTER:                  -9.452
REMARK INTRA:                  -1.771
REMARK UNBOUND:                -1.967
REMARK SMILES CCCCCCCCC=CCCCCCCCC(=O)[O-]
REMARK SMILES IDX 10 1 9 2 11 3 12 4 13 5 14 6 15 7 16 8 17 9 18 10 19 11
REMARK SMILES IDX 20 12 8 13 7 14 6 15 5 16 4 17 3 18 2 19 1 20
REMARK H PARENT
REMARK Flexibility Score: inf
ROOT
ATOM      1  C   UNL     1      -4.580  21.442  47.788  1.00  0.00    -0.031 C 
ATOM      2  C   UNL     1      -3.984  20.943  48.881  1.00  0.00    -0.031 C 
ENDROOT
BRANCH   1   3
ATOM      3  C   UNL     1      -5.552  22.588  47.870  1.00  0.00     0.027 C 
BRANCH   3   4
ATOM      4  C   UNL     1      -4.893  23.915  47.462  1.00  0.00     0.004 C 
BRANCH   4   5
ATOM      5  C   UNL     1      -5.500  25.160  48.140  1.00  0.00     0.000 C 
BRANCH   5   6
ATOM      6  C   UNL     1      -6.068  24.920  49.553  1.00  0.00     0.000 C 
BRANCH   6   7
ATOM      7  C   UNL     1      -5.073  25.153  50.707  1.00  0.00     0.000 C 
BRANCH   7   8
ATOM      8  C   UNL     1      -4.340  23.892  51.198  1.00  0.00     0.006 C 
BRANCH   8   9
ATOM      9  C   UNL     1      -2.859  23.871  50.798  1.00  0.00     0.053 C 
BRANCH   9  10
ATOM     10  C   UNL     1      -2.003  24.308  51.944  1.00  0.00     0.041 C 
ATOM     11  O   UNL     1      -1.779  25.532  52.136  1.00  0.00    -0.550 OA
ATOM     12  O   UNL     1      -1.413  23.361  52.772  1.00  0.00    -0.550 OA
ENDBRANCH   9  10
ENDBRANCH   8   9
ENDBRANCH   7   8
ENDBRANCH   6   7
ENDBRANCH   5   6
ENDBRANCH   4   5
ENDBRANCH   3   4
ENDBRANCH   1   3
BRANCH   2  13
ATOM     13  C   UNL     1      -2.968  19.838  48.787  1.00  0.00     0.027 C 
BRANCH  13  14
ATOM     14  C   UNL     1      -1.781  20.258  47.912  1.00  0.00     0.004 C 
BRANCH  14  15
ATOM     15  C   UNL     1      -1.487  19.202  46.839  1.00  0.00     0.000 C 
BRANCH  15  16
ATOM     16  C   UNL     1      -1.421  17.796  47.455  1.00  0.00     0.000 C 
BRANCH  16  17
ATOM     17  C   UNL     1      -2.571  16.892  46.964  1.00  0.00    -0.000 C 
BRANCH  17  18
ATOM     18  C   UNL     1      -3.205  17.365  45.645  1.00  0.00    -0.000 C 
BRANCH  18  19
ATOM     19  C   UNL     1      -3.025  16.358  44.501  1.00  0.00    -0.003 C 
ATOM     20  C   UNL     1      -1.561  16.263  44.078  1.00  0.00     0.004 C 
ENDBRANCH  18  19
ENDBRANCH  17  18
ENDBRANCH  16  17
ENDBRANCH  15  16
ENDBRANCH  14  15
ENDBRANCH  13  14
ENDBRANCH   2  13
TORSDOF 15
ENDMDL
MODEL 9
REMARK VINA RESULT:    -4.909      2.970      4.704
REMARK INTER + INTRA:         -11.181
REMARK INTER:                  -9.065
REMARK INTRA:                  -2.115
REMARK UNBOUND:                -1.967
REMARK SMILES CCCCCCCCC=CCCCCCCCC(=O)[O-]
REMARK SMILES IDX 10 1 9 2 11 3 12 4 13 5 14 6 15 7 16 8 17 9 18 10 19 11
REMARK SMILES IDX 20 12 8 13 7 14 6 15 5 16 4 17 3 18 2 19 1 20
REMARK H PARENT
REMARK Flexibility Score: inf
ROOT
ATOM      1  C   UNL     1      -4.424  20.855  48.441  1.00  0.00    -0.031 C 
ATOM      2  C   UNL     1      -4.400  19.550  48.133  1.00  0.00    -0.031 C 
ENDROOT
BRANCH   1   3
ATOM      3  C   UNL     1      -5.290  21.830  47.689  1.00  0.00     0.027 C 
BRANCH   3   4
ATOM      4  C   UNL     1      -5.054  23.273  48.160  1.00  0.00     0.004 C 
BRANCH   4   5
ATOM      5  C   UNL     1      -4.539  23.392  49.609  1.00  0.00     0.000 C 
BRANCH   5   6
ATOM      6  C   UNL     1      -5.193  24.511  50.442  1.00  0.00     0.000 C 
BRANCH   6   7
ATOM      7  C   UNL     1      -6.457  25.137  49.820  1.00  0.00     0.000 C 
BRANCH   7   8
ATOM      8  C   UNL     1      -6.507  26.674  49.859  1.00  0.00     0.006 C 
BRANCH   8   9
ATOM      9  C   UNL     1      -5.898  27.322  48.609  1.00  0.00     0.053 C 
BRANCH   9  10
ATOM     10  C   UNL     1      -6.971  27.680  47.632  1.00  0.00     0.041 C 
ATOM     11  O   UNL     1      -6.669  28.088  46.479  1.00  0.00    -0.550 OA
ATOM     12  O   UNL     1      -8.307  27.609  48.008  1.00  0.00    -0.550 OA
ENDBRANCH   9  10
ENDBRANCH   8   9
ENDBRANCH   7   8
ENDBRANCH   6   7
ENDBRANCH   5   6
ENDBRANCH   4   5
ENDBRANCH   3   4
ENDBRANCH   1   3
BRANCH   2  13
ATOM     13  C   UNL     1      -3.581  18.570  48.926  1.00  0.00     0.027 C 
BRANCH  13  14
ATOM     14  C   UNL     1      -2.922  17.536  48.005  1.00  0.00     0.004 C 
BRANCH  14  15
ATOM     15  C   UNL     1      -2.078  18.222  46.923  1.00  0.00     0.000 C 
BRANCH  15  16
ATOM     16  C   UNL     1      -0.657  18.508  47.433  1.00  0.00     0.000 C 
BRANCH  16  17
ATOM     17  C   UNL     1      -0.212  19.955  47.132  1.00  0.00    -0.000 C 
BRANCH  17  18
ATOM     18  C   UNL     1      -1.327  20.829  46.534  1.00  0.00    -0.000 C 
BRANCH  18  19
ATOM     19  C   UNL     1      -1.390  22.229  47.161  1.00  0.00    -0.003 C 
ATOM     20  C   UNL     1      -1.057  22.179  48.650  1.00  0.00     0.004 C 
ENDBRANCH  18  19
ENDBRANCH  17  18
ENDBRANCH  16  17
ENDBRANCH  15  16
ENDBRANCH  14  15
ENDBRANCH  13  14
ENDBRANCH   2  13
TORSDOF 15
ENDMDL
