MODEL 1
REMARK VINA RESULT:    -5.085      0.000      0.000
REMARK INTER + INTRA:         -10.438
REMARK INTER:                  -9.841
REMARK INTRA:                  -0.597
REMARK UNBOUND:                -0.597
REMARK SMILES CCCCCCCCCCCCCCCCCC(=O)[O-]
REMARK SMILES IDX 10 1 11 2 12 3 13 4 14 5 15 6 16 7 17 8 18 9 19 10 20 11
REMARK SMILES IDX 9 12 8 13 7 14 6 15 5 16 4 17 3 18 2 19 1 20
REMARK H PARENT
REMARK Flexibility Score: inf
ROOT
ATOM      1  C   UNL     1       0.353  -1.654   0.287  1.00  0.00     0.000 C 
ENDROOT
BRANCH   1   2
ATOM      2  C   UNL     1       0.798  -0.717   1.428  1.00  0.00     0.000 C 
BRANCH   2   3
ATOM      3  C   UNL     1       0.456   0.773   1.225  1.00  0.00     0.000 C 
BRANCH   3   4
ATOM      4  C   UNL     1      -0.410   1.075  -0.009  1.00  0.00     0.000 C 
BRANCH   4   5
ATOM      5  C   UNL     1      -1.641   1.937   0.324  1.00  0.00     0.000 C 
BRANCH   5   6
ATOM      6  C   UNL     1      -2.216   2.647  -0.912  1.00  0.00     0.000 C 
BRANCH   6   7
ATOM      7  C   UNL     1      -1.155   3.453  -1.677  1.00  0.00     0.006 C 
BRANCH   7   8
ATOM      8  C   UNL     1      -0.680   2.692  -2.918  1.00  0.00     0.053 C 
BRANCH   8   9
ATOM      9  C   UNL     1       0.622   3.247  -3.406  1.00  0.00     0.041 C 
ATOM     10  O   UNL     1       1.098   4.291  -2.887  1.00  0.00    -0.550 OA
ATOM     11  O   UNL     1       1.281   2.643  -4.468  1.00  0.00    -0.550 OA
ENDBRANCH   8   9
ENDBRANCH   7   8
ENDBRANCH   6   7
ENDBRANCH   5   6
ENDBRANCH   4   5
ENDBRANCH   3   4
ENDBRANCH   2   3
ENDBRANCH   1   2
BRANCH   1  12
ATOM     12  C   UNL     1       1.098  -2.999   0.222  1.00  0.00     0.000 C 
BRANCH  12  13
ATOM     13  C   UNL     1       0.679  -3.856  -0.981  1.00  0.00    -0.000 C 
BRANCH  13  14
ATOM     14  C   UNL     1       0.450  -5.314  -0.563  1.00  0.00    -0.000 C 
BRANCH  14  15
ATOM     15  C   UNL     1      -0.103  -6.143  -1.733  1.00  0.00    -0.000 C 
BRANCH  15  16
ATOM     16  C   UNL     1      -0.545  -7.555  -1.309  1.00  0.00    -0.000 C 
BRANCH  16  17
ATOM     17  C   UNL     1       0.564  -8.420  -0.684  1.00  0.00    -0.000 C 
BRANCH  17  18
ATOM     18  C   UNL     1       0.011  -9.596   0.140  1.00  0.00    -0.000 C 
BRANCH  18  19
ATOM     19  C   UNL     1      -1.504  -9.779  -0.040  1.00  0.00    -0.003 C 
ATOM     20  C   UNL     1      -2.272  -9.663   1.277  1.00  0.00     0.004 C 
ENDBRANCH  18  19
ENDBRANCH  17  18
ENDBRANCH  16  17
ENDBRANCH  15  16
ENDBRANCH  14  15
ENDBRANCH  13  14
ENDBRANCH  12  13
ENDBRANCH   1  12
TORSDOF 16
ENDMDL
MODEL 2
REMARK VINA RESULT:    -5.043      2.019      3.140
REMARK INTER + INTRA:         -10.358
REMARK INTER:                  -9.666
REMARK INTRA:                  -0.692
REMARK UNBOUND:                -0.597
REMARK SMILES CCCCCCCCCCCCCCCCCC(=O)[O-]
REMARK SMILES IDX 10 1 11 2 12 3 13 4 14 5 15 6 16 7 17 8 18 9 19 10 20 11
REMARK SMILES IDX 9 12 8 13 7 14 6 15 5 16 4 17 3 18 2 19 1 20
REMARK H PARENT
REMARK Flexibility Score: inf
ROOT
ATOM      1  C   UNL     1       1.161  -3.184  -0.014  1.00  0.00     0.000 C 
ENDROOT
BRANCH   1   2
ATOM      2  C   UNL     1       0.341  -1.891   0.164  1.00  0.00     0.000 C 
BRANCH   2   3
ATOM      3  C   UNL     1       0.826  -0.955   1.289  1.00  0.00     0.000 C 
BRANCH   3   4
ATOM      4  C   UNL     1       0.460   0.527   1.100  1.00  0.00     0.000 C 
BRANCH   4   5
ATOM      5  C   UNL     1      -0.381   0.777  -0.164  1.00  0.00     0.000 C 
BRANCH   5   6
ATOM      6  C   UNL     1      -1.319   1.986  -0.020  1.00  0.00     0.000 C 
BRANCH   6   7
ATOM      7  C   UNL     1      -1.120   3.023  -1.136  1.00  0.00     0.006 C 
BRANCH   7   8
ATOM      8  C   UNL     1      -0.700   2.346  -2.444  1.00  0.00     0.053 C 
BRANCH   8   9
ATOM      9  C   UNL     1       0.481   3.046  -3.040  1.00  0.00     0.041 C 
ATOM     10  O   UNL     1       0.849   4.162  -2.588  1.00  0.00    -0.550 OA
ATOM     11  O   UNL     1       1.140   2.493  -4.130  1.00  0.00    -0.550 OA
ENDBRANCH   8   9
ENDBRANCH   7   8
ENDBRANCH   6   7
ENDBRANCH   5   6
ENDBRANCH   4   5
ENDBRANCH   3   4
ENDBRANCH   2   3
ENDBRANCH   1   2
BRANCH   1  12
ATOM     12  C   UNL     1       0.721  -4.078  -1.187  1.00  0.00     0.000 C 
BRANCH  12  13
ATOM     13  C   UNL     1       0.009  -5.359  -0.728  1.00  0.00    -0.000 C 
BRANCH  13  14
ATOM     14  C   UNL     1       0.192  -6.485  -1.753  1.00  0.00    -0.000 C 
BRANCH  14  15
ATOM     15  C   UNL     1       0.169  -7.861  -1.070  1.00  0.00    -0.000 C 
BRANCH  15  16
ATOM     16  C   UNL     1       1.405  -8.715  -1.404  1.00  0.00    -0.000 C 
BRANCH  16  17
ATOM     17  C   UNL     1       1.569  -9.060  -2.896  1.00  0.00    -0.000 C 
BRANCH  17  18
ATOM     18  C   UNL     1       3.034  -9.321  -3.290  1.00  0.00    -0.000 C 
BRANCH  18  19
ATOM     19  C   UNL     1       3.452  -8.544  -4.547  1.00  0.00    -0.003 C 
ATOM     20  C   UNL     1       4.922  -8.128  -4.521  1.00  0.00     0.004 C 
ENDBRANCH  18  19
ENDBRANCH  17  18
ENDBRANCH  16  17
ENDBRANCH  15  16
ENDBRANCH  14  15
ENDBRANCH  13  14
ENDBRANCH  12  13
ENDBRANCH   1  12
TORSDOF 16
ENDMDL
MODEL 3
REMARK VINA RESULT:    -4.987      4.655     10.282
REMARK INTER + INTRA:         -10.249
REMARK INTER:                  -9.388
REMARK INTRA:                  -0.861
REMARK UNBOUND:                -0.597
REMARK SMILES CCCCCCCCCCCCCCCCCC(=O)[O-]
REMARK SMILES IDX 10 1 11 2 12 3 13 4 14 5 15 6 16 7 17 8 18 9 19 10 20 11
REMARK SMILES IDX 9 12 8 13 7 14 6 15 5 16 4 17 3 18 2 19 1 20
REMARK H PARENT
REMARK Flexibility Score: inf
ROOT
ATOM      1  C   UNL     1       0.355  -1.983  -0.203  1.00  0.00     0.000 C 
ENDROOT
BRANCH   1   2
ATOM      2  C   UNL     1       0.746  -3.458  -0.421  1.00  0.00     0.000 C 
BRANCH   2   3
ATOM      3  C   UNL     1       0.736  -3.931  -1.888  1.00  0.00     0.000 C 
BRANCH   3   4
ATOM      4  C   UNL     1       0.008  -5.264  -2.134  1.00  0.00     0.000 C 
BRANCH   4   5
ATOM      5  C   UNL     1       0.197  -6.265  -0.982  1.00  0.00     0.000 C 
BRANCH   5   6
ATOM      6  C   UNL     1      -0.699  -7.507  -1.126  1.00  0.00     0.000 C 
BRANCH   6   7
ATOM      7  C   UNL     1       0.109  -8.810  -1.212  1.00  0.00     0.006 C 
BRANCH   7   8
ATOM      8  C   UNL     1      -0.726 -10.004  -0.741  1.00  0.00     0.053 C 
BRANCH   8   9
ATOM      9  C   UNL     1      -0.961  -9.929   0.736  1.00  0.00     0.041 C 
ATOM     10  O   UNL     1      -0.011 -10.125   1.538  1.00  0.00    -0.550 OA
ATOM     11  O   UNL     1      -2.240  -9.696   1.225  1.00  0.00    -0.550 OA
ENDBRANCH   8   9
ENDBRANCH   7   8
ENDBRANCH   6   7
ENDBRANCH   5   6
ENDBRANCH   4   5
ENDBRANCH   3   4
ENDBRANCH   2   3
ENDBRANCH   1   2
BRANCH   1  12
ATOM     12  C   UNL     1       0.823  -1.376   1.132  1.00  0.00     0.000 C 
BRANCH  12  13
ATOM     13  C   UNL     1       0.625   0.145   1.198  1.00  0.00    -0.000 C 
BRANCH  13  14
ATOM     14  C   UNL     1      -0.163   0.649  -0.018  1.00  0.00    -0.000 C 
BRANCH  14  15
ATOM     15  C   UNL     1      -1.005   1.883   0.343  1.00  0.00    -0.000 C 
BRANCH  15  16
ATOM     16  C   UNL     1      -1.861   2.387  -0.832  1.00  0.00    -0.000 C 
BRANCH  16  17
ATOM     17  C   UNL     1      -1.133   2.443  -2.187  1.00  0.00    -0.000 C 
BRANCH  17  18
ATOM     18  C   UNL     1      -0.139   3.614  -2.282  1.00  0.00    -0.000 C 
BRANCH  18  19
ATOM     19  C   UNL     1       0.641   3.617  -3.605  1.00  0.00    -0.003 C 
ATOM     20  C   UNL     1       1.013   2.210  -4.073  1.00  0.00     0.004 C 
ENDBRANCH  18  19
ENDBRANCH  17  18
ENDBRANCH  16  17
ENDBRANCH  15  16
ENDBRANCH  14  15
ENDBRANCH  13  14
ENDBRANCH  12  13
ENDBRANCH   1  12
TORSDOF 16
ENDMDL
MODEL 4
REMARK VINA RESULT:    -4.962      1.304      1.891
REMARK INTER + INTRA:         -10.201
REMARK INTER:                  -9.268
REMARK INTRA:                  -0.933
REMARK UNBOUND:                -0.597
REMARK SMILES CCCCCCCCCCCCCCCCCC(=O)[O-]
REMARK SMILES IDX 10 1 11 2 12 3 13 4 14 5 15 6 16 7 17 8 18 9 19 10 20 11
REMARK SMILES IDX 9 12 8 13 7 14 6 15 5 16 4 17 3 18 2 19 1 20
REMARK H PARENT
REMARK Flexibility Score: inf
ROOT
ATOM      1  C   UNL     1       0.276  -2.178   0.036  1.00  0.00     0.000 C 
ENDROOT
BRANCH   1   2
ATOM      2  C   UNL     1       0.994  -1.567   1.256  1.00  0.00     0.000 C 
BRANCH   2   3
ATOM      3  C   UNL     1       0.710  -0.072   1.504  1.00  0.00     0.000 C 
BRANCH   3   4
ATOM      4  C   UNL     1       0.251   0.714   0.264  1.00  0.00     0.000 C 
BRANCH   4   5
ATOM      5  C   UNL     1      -0.775   1.809   0.600  1.00  0.00     0.000 C 
BRANCH   5   6
ATOM      6  C   UNL     1      -1.881   1.927  -0.461  1.00  0.00     0.000 C 
BRANCH   6   7
ATOM      7  C   UNL     1      -1.593   3.026  -1.495  1.00  0.00     0.006 C 
BRANCH   7   8
ATOM      8  C   UNL     1      -0.905   2.446  -2.734  1.00  0.00     0.053 C 
BRANCH   8   9
ATOM      9  C   UNL     1       0.444   3.066  -2.923  1.00  0.00     0.041 C 
ATOM     10  O   UNL     1       0.781   4.068  -2.239  1.00  0.00    -0.550 OA
ATOM     11  O   UNL     1       1.307   2.572  -3.892  1.00  0.00    -0.550 OA
ENDBRANCH   8   9
ENDBRANCH   7   8
ENDBRANCH   6   7
ENDBRANCH   5   6
ENDBRANCH   4   5
ENDBRANCH   3   4
ENDBRANCH   2   3
ENDBRANCH   1   2
BRANCH   1  12
ATOM     12  C   UNL     1       0.915  -3.463  -0.519  1.00  0.00     0.000 C 
BRANCH  12  13
ATOM     13  C   UNL     1       0.737  -3.612  -2.037  1.00  0.00    -0.000 C 
BRANCH  13  14
ATOM     14  C   UNL     1       0.359  -5.052  -2.406  1.00  0.00    -0.000 C 
BRANCH  14  15
ATOM     15  C   UNL     1       0.031  -5.875  -1.151  1.00  0.00    -0.000 C 
BRANCH  15  16
ATOM     16  C   UNL     1      -0.031  -7.387  -1.427  1.00  0.00    -0.000 C 
BRANCH  16  17
ATOM     17  C   UNL     1       1.011  -8.228  -0.668  1.00  0.00    -0.000 C 
BRANCH  17  18
ATOM     18  C   UNL     1       0.971  -9.718  -1.051  1.00  0.00    -0.000 C 
BRANCH  18  19
ATOM     19  C   UNL     1       1.427  -9.965  -2.497  1.00  0.00    -0.003 C 
ATOM     20  C   UNL     1       2.703  -9.201  -2.852  1.00  0.00     0.004 C 
ENDBRANCH  18  19
ENDBRANCH  17  18
ENDBRANCH  16  17
ENDBRANCH  15  16
ENDBRANCH  14  15
ENDBRANCH  13  14
ENDBRANCH  12  13
ENDBRANCH   1  12
TORSDOF 16
ENDMDL
MODEL 5
REMARK VINA RESULT:    -4.891      2.221      3.764
REMARK INTER + INTRA:         -10.063
REMARK INTER:                  -9.272
REMARK INTRA:                  -0.791
REMARK UNBOUND:                -0.597
REMARK SMILES CCCCCCCCCCCCCCCCCC(=O)[O-]
REMARK SMILES IDX 10 1 11 2 12 3 13 4 14 5 15 6 16 7 17 8 18 9 19 10 20 11
REMARK SMILES IDX 9 12 8 13 7 14 6 15 5 16 4 17 3 18 2 19 1 20
REMARK H PARENT
REMARK Flexibility Score: inf
ROOT
ATOM      1  C   UNL     1       0.833  -3.758  -1.808  1.00  0.00     0.000 C 
ENDROOT
BRANCH   1   2
ATOM      2  C   UNL     1       0.815  -3.321  -0.329  1.00  0.00     0.000 C 
BRANCH   2   3
ATOM      3  C   UNL     1       0.256  -1.908  -0.068  1.00  0.00     0.000 C 
BRANCH   3   4
ATOM      4  C   UNL     1       0.862  -1.187   1.148  1.00  0.00     0.000 C 
BRANCH   4   5
ATOM      5  C   UNL     1       0.480   0.302   1.208  1.00  0.00     0.000 C 
BRANCH   5   6
ATOM      6  C   UNL     1      -0.339   0.751  -0.013  1.00  0.00     0.000 C 
BRANCH   6   7
ATOM      7  C   UNL     1      -1.031   2.105   0.206  1.00  0.00     0.006 C 
BRANCH   7   8
ATOM      8  C   UNL     1      -1.677   2.606  -1.090  1.00  0.00     0.053 C 
BRANCH   8   9
ATOM      9  C   UNL     1      -0.626   3.016  -2.074  1.00  0.00     0.041 C 
ATOM     10  O   UNL     1      -0.757   2.732  -3.294  1.00  0.00    -0.550 OA
ATOM     11  O   UNL     1       0.521   3.664  -1.637  1.00  0.00    -0.550 OA
ENDBRANCH   8   9
ENDBRANCH   7   8
ENDBRANCH   6   7
ENDBRANCH   5   6
ENDBRANCH   4   5
ENDBRANCH   3   4
ENDBRANCH   2   3
ENDBRANCH   1   2
BRANCH   1  12
ATOM     12  C   UNL     1       0.052  -5.048  -2.114  1.00  0.00     0.000 C 
BRANCH  12  13
ATOM     13  C   UNL     1       0.117  -6.071  -0.970  1.00  0.00    -0.000 C 
BRANCH  13  14
ATOM     14  C   UNL     1      -0.053  -7.500  -1.502  1.00  0.00    -0.000 C 
BRANCH  14  15
ATOM     15  C   UNL     1       0.690  -8.510  -0.615  1.00  0.00    -0.000 C 
BRANCH  15  16
ATOM     16  C   UNL     1       1.910  -9.137  -1.314  1.00  0.00    -0.000 C 
BRANCH  16  17
ATOM     17  C   UNL     1       1.993  -8.875  -2.829  1.00  0.00    -0.000 C 
BRANCH  17  18
ATOM     18  C   UNL     1       3.050  -9.748  -3.529  1.00  0.00    -0.000 C 
BRANCH  18  19
ATOM     19  C   UNL     1       3.612  -9.088  -4.796  1.00  0.00    -0.003 C 
ATOM     20  C   UNL     1       4.828  -8.207  -4.512  1.00  0.00     0.004 C 
ENDBRANCH  18  19
ENDBRANCH  17  18
ENDBRANCH  16  17
ENDBRANCH  15  16
ENDBRANCH  14  15
ENDBRANCH  13  14
ENDBRANCH  12  13
ENDBRANCH   1  12
TORSDOF 16
ENDMDL
MODEL 6
REMARK VINA RESULT:    -4.809      0.822      1.079
REMARK INTER + INTRA:          -9.905
REMARK INTER:                  -9.030
REMARK INTRA:                  -0.875
REMARK UNBOUND:                -0.597
REMARK SMILES CCCCCCCCCCCCCCCCCC(=O)[O-]
REMARK SMILES IDX 10 1 11 2 12 3 13 4 14 5 15 6 16 7 17 8 18 9 19 10 20 11
REMARK SMILES IDX 9 12 8 13 7 14 6 15 5 16 4 17 3 18 2 19 1 20
REMARK H PARENT
REMARK Flexibility Score: inf
ROOT
ATOM      1  C   UNL     1       0.378  -2.248  -0.066  1.00  0.00     0.000 C 
ENDROOT
BRANCH   1   2
ATOM      2  C   UNL     1       0.762  -1.533   1.246  1.00  0.00     0.000 C 
BRANCH   2   3
ATOM      3  C   UNL     1       0.966  -0.009   1.128  1.00  0.00     0.000 C 
BRANCH   3   4
ATOM      4  C   UNL     1      -0.332   0.814   1.059  1.00  0.00     0.000 C 
BRANCH   4   5
ATOM      5  C   UNL     1      -0.287   1.905  -0.025  1.00  0.00     0.000 C 
BRANCH   5   6
ATOM      6  C   UNL     1      -1.635   2.079  -0.743  1.00  0.00     0.000 C 
BRANCH   6   7
ATOM      7  C   UNL     1      -1.472   2.492  -2.214  1.00  0.00     0.006 C 
BRANCH   7   8
ATOM      8  C   UNL     1      -0.381   3.556  -2.365  1.00  0.00     0.053 C 
BRANCH   8   9
ATOM      9  C   UNL     1       0.596   3.158  -3.427  1.00  0.00     0.041 C 
ATOM     10  O   UNL     1       0.615   1.975  -3.857  1.00  0.00    -0.550 OA
ATOM     11  O   UNL     1       1.521   4.079  -3.901  1.00  0.00    -0.550 OA
ENDBRANCH   8   9
ENDBRANCH   7   8
ENDBRANCH   6   7
ENDBRANCH   5   6
ENDBRANCH   4   5
ENDBRANCH   3   4
ENDBRANCH   2   3
ENDBRANCH   1   2
BRANCH   1  12
ATOM     12  C   UNL     1       1.134  -3.561  -0.335  1.00  0.00     0.000 C 
BRANCH  12  13
ATOM     13  C   UNL     1       0.341  -4.535  -1.218  1.00  0.00    -0.000 C 
BRANCH  13  14
ATOM     14  C   UNL     1       0.322  -5.940  -0.603  1.00  0.00    -0.000 C 
BRANCH  14  15
ATOM     15  C   UNL     1      -0.124  -6.987  -1.635  1.00  0.00    -0.000 C 
BRANCH  15  16
ATOM     16  C   UNL     1       0.667  -8.303  -1.531  1.00  0.00    -0.000 C 
BRANCH  16  17
ATOM     17  C   UNL     1       1.016  -8.738  -0.096  1.00  0.00    -0.000 C 
BRANCH  17  18
ATOM     18  C   UNL     1       0.319 -10.046   0.318  1.00  0.00    -0.000 C 
BRANCH  18  19
ATOM     19  C   UNL     1      -1.151 -10.093  -0.123  1.00  0.00    -0.003 C 
ATOM     20  C   UNL     1      -2.090  -9.426   0.883  1.00  0.00     0.004 C 
ENDBRANCH  18  19
ENDBRANCH  17  18
ENDBRANCH  16  17
ENDBRANCH  15  16
ENDBRANCH  14  15
ENDBRANCH  13  14
ENDBRANCH  12  13
ENDBRANCH   1  12
TORSDOF 16
ENDMDL
MODEL 7
REMARK VINA RESULT:    -4.799      4.235      9.953
REMARK INTER + INTRA:          -9.885
REMARK INTER:                  -8.925
REMARK INTRA:                  -0.960
REMARK UNBOUND:                -0.597
REMARK SMILES CCCCCCCCCCCCCCCCCC(=O)[O-]
REMARK SMILES IDX 10 1 11 2 12 3 13 4 14 5 15 6 16 7 17 8 18 9 19 10 20 11
REMARK SMILES IDX 9 12 8 13 7 14 6 15 5 16 4 17 3 18 2 19 1 20
REMARK H PARENT
REMARK Flexibility Score: inf
ROOT
ATOM      1  C   UNL     1       0.246  -2.098   0.017  1.00  0.00     0.000 C 
ENDROOT
BRANCH   1   2
ATOM      2  C   UNL     1       0.856  -3.462  -0.365  1.00  0.00     0.000 C 
BRANCH   2   3
ATOM      3  C   UNL     1       0.762  -3.828  -1.859  1.00  0.00     0.000 C 
BRANCH   3   4
ATOM      4  C   UNL     1       0.012  -5.138  -2.158  1.00  0.00     0.000 C 
BRANCH   4   5
ATOM      5  C   UNL     1       0.320  -6.246  -1.137  1.00  0.00     0.000 C 
BRANCH   5   6
ATOM      6  C   UNL     1      -0.740  -7.359  -1.136  1.00  0.00     0.000 C 
BRANCH   6   7
ATOM      7  C   UNL     1      -0.138  -8.748  -1.399  1.00  0.00     0.006 C 
BRANCH   7   8
ATOM      8  C   UNL     1       1.392  -8.688  -1.413  1.00  0.00     0.053 C 
BRANCH   8   9
ATOM      9  C   UNL     1       1.928  -9.282  -2.678  1.00  0.00     0.041 C 
ATOM     10  O   UNL     1       1.176  -9.960  -3.427  1.00  0.00    -0.550 OA
ATOM     11  O   UNL     1       3.270  -9.132  -3.002  1.00  0.00    -0.550 OA
ENDBRANCH   8   9
ENDBRANCH   7   8
ENDBRANCH   6   7
ENDBRANCH   5   6
ENDBRANCH   4   5
ENDBRANCH   3   4
ENDBRANCH   2   3
ENDBRANCH   1   2
BRANCH   1  12
ATOM     12  C   UNL     1       0.924  -1.392   1.205  1.00  0.00     0.000 C 
BRANCH  12  13
ATOM     13  C   UNL     1       0.698   0.127   1.204  1.00  0.00    -0.000 C 
BRANCH  13  14
ATOM     14  C   UNL     1      -0.081   0.565  -0.042  1.00  0.00    -0.000 C 
BRANCH  14  15
ATOM     15  C   UNL     1      -0.905   1.830   0.239  1.00  0.00    -0.000 C 
BRANCH  15  16
ATOM     16  C   UNL     1      -1.587   2.392  -1.022  1.00  0.00    -0.000 C 
BRANCH  16  17
ATOM     17  C   UNL     1      -1.115   3.796  -1.442  1.00  0.00    -0.000 C 
BRANCH  17  18
ATOM     18  C   UNL     1       0.102   3.760  -2.383  1.00  0.00    -0.000 C 
BRANCH  18  19
ATOM     19  C   UNL     1       0.108   2.521  -3.289  1.00  0.00    -0.003 C 
ATOM     20  C   UNL     1       0.936   2.723  -4.559  1.00  0.00     0.004 C 
ENDBRANCH  18  19
ENDBRANCH  17  18
ENDBRANCH  16  17
ENDBRANCH  15  16
ENDBRANCH  14  15
ENDBRANCH  13  14
ENDBRANCH  12  13
ENDBRANCH   1  12
TORSDOF 16
ENDMDL
MODEL 8
REMARK VINA RESULT:    -4.693      4.068      9.954
REMARK INTER + INTRA:          -9.680
REMARK INTER:                  -8.934
REMARK INTRA:                  -0.746
REMARK UNBOUND:                -0.597
REMARK SMILES CCCCCCCCCCCCCCCCCC(=O)[O-]
REMARK SMILES IDX 10 1 11 2 12 3 13 4 14 5 15 6 16 7 17 8 18 9 19 10 20 11
REMARK SMILES IDX 9 12 8 13 7 14 6 15 5 16 4 17 3 18 2 19 1 20
REMARK H PARENT
REMARK Flexibility Score: inf
ROOT
ATOM      1  C   UNL     1       1.040  -3.276  -0.003  1.00  0.00     0.000 C 
ENDROOT
BRANCH   1   2
ATOM      2  C   UNL     1       0.544  -4.177  -1.151  1.00  0.00     0.000 C 
BRANCH   2   3
ATOM      3  C   UNL     1       0.037  -5.569  -0.722  1.00  0.00     0.000 C 
BRANCH   3   4
ATOM      4  C   UNL     1       0.127  -6.654  -1.808  1.00  0.00     0.000 C 
BRANCH   4   5
ATOM      5  C   UNL     1       0.065  -8.079  -1.232  1.00  0.00     0.000 C 
BRANCH   5   6
ATOM      6  C   UNL     1       1.335  -8.892  -1.529  1.00  0.00     0.000 C 
BRANCH   6   7
ATOM      7  C   UNL     1       1.864  -8.663  -2.952  1.00  0.00     0.006 C 
BRANCH   7   8
ATOM      8  C   UNL     1       3.322  -9.117  -3.075  1.00  0.00     0.053 C 
BRANCH   8   9
ATOM      9  C   UNL     1       3.875  -8.746  -4.415  1.00  0.00     0.041 C 
ATOM     10  O   UNL     1       4.946  -8.089  -4.497  1.00  0.00    -0.550 OA
ATOM     11  O   UNL     1       3.181  -9.079  -5.571  1.00  0.00    -0.550 OA
ENDBRANCH   8   9
ENDBRANCH   7   8
ENDBRANCH   6   7
ENDBRANCH   5   6
ENDBRANCH   4   5
ENDBRANCH   3   4
ENDBRANCH   2   3
ENDBRANCH   1   2
BRANCH   1  12
ATOM     12  C   UNL     1       0.381  -1.887   0.064  1.00  0.00     0.000 C 
BRANCH  12  13
ATOM     13  C   UNL     1       0.862  -1.055   1.262  1.00  0.00    -0.000 C 
BRANCH  13  14
ATOM     14  C   UNL     1       0.515   0.427   1.075  1.00  0.00    -0.000 C 
BRANCH  14  15
ATOM     15  C   UNL     1      -0.396   0.631  -0.145  1.00  0.00    -0.000 C 
BRANCH  15  16
ATOM     16  C   UNL     1      -1.242   1.913  -0.053  1.00  0.00    -0.000 C 
BRANCH  16  17
ATOM     17  C   UNL     1      -1.857   2.381  -1.384  1.00  0.00    -0.000 C 
BRANCH  17  18
ATOM     18  C   UNL     1      -1.034   1.943  -2.608  1.00  0.00    -0.000 C 
BRANCH  18  19
ATOM     19  C   UNL     1      -0.018   3.007  -3.045  1.00  0.00    -0.003 C 
ATOM     20  C   UNL     1       0.843   2.552  -4.224  1.00  0.00     0.004 C 
ENDBRANCH  18  19
ENDBRANCH  17  18
ENDBRANCH  16  17
ENDBRANCH  15  16
ENDBRANCH  14  15
ENDBRANCH  13  14
ENDBRANCH  12  13
ENDBRANCH   1  12
TORSDOF 16
ENDMDL
MODEL 9
REMARK VINA RESULT:    -4.667      4.811      8.363
REMARK INTER + INTRA:          -9.629
REMARK INTER:                  -8.162
REMARK INTRA:                  -1.468
REMARK UNBOUND:                -0.597
REMARK SMILES CCCCCCCCCCCCCCCCCC(=O)[O-]
REMARK SMILES IDX 10 1 11 2 12 3 13 4 14 5 15 6 16 7 17 8 18 9 19 10 20 11
REMARK SMILES IDX 9 12 8 13 7 14 6 15 5 16 4 17 3 18 2 19 1 20
REMARK H PARENT
REMARK Flexibility Score: inf
ROOT
ATOM      1  C   UNL     1       1.767  -8.845  -0.803  1.00  0.00     0.000 C 
ENDROOT
BRANCH   1   2
ATOM      2  C   UNL     1       1.212 -10.125  -0.146  1.00  0.00     0.000 C 
BRANCH   2   3
ATOM      3  C   UNL     1      -0.174  -9.978   0.512  1.00  0.00     0.000 C 
BRANCH   3   4
ATOM      4  C   UNL     1      -1.322  -9.661  -0.462  1.00  0.00     0.000 C 
BRANCH   4   5
ATOM      5  C   UNL     1      -1.814  -8.208  -0.349  1.00  0.00     0.000 C 
BRANCH   5   6
ATOM      6  C   UNL     1      -1.321  -7.326  -1.508  1.00  0.00     0.000 C 
BRANCH   6   7
ATOM      7  C   UNL     1      -0.429  -6.170  -1.031  1.00  0.00     0.006 C 
BRANCH   7   8
ATOM      8  C   UNL     1       0.030  -5.310  -2.213  1.00  0.00     0.053 C 
BRANCH   8   9
ATOM      9  C   UNL     1       0.642  -4.033  -1.725  1.00  0.00     0.041 C 
ATOM     10  O   UNL     1       1.041  -3.169  -2.549  1.00  0.00    -0.550 OA
ATOM     11  O   UNL     1       0.820  -3.823  -0.364  1.00  0.00    -0.550 OA
ENDBRANCH   8   9
ENDBRANCH   7   8
ENDBRANCH   6   7
ENDBRANCH   5   6
ENDBRANCH   4   5
ENDBRANCH   3   4
ENDBRANCH   2   3
ENDBRANCH   1   2
BRANCH   1  12
ATOM     12  C   UNL     1       1.722  -8.832  -2.341  1.00  0.00     0.000 C 
BRANCH  12  13
ATOM     13  C   UNL     1       2.631  -9.895  -2.974  1.00  0.00    -0.000 C 
BRANCH  13  14
ATOM     14  C   UNL     1       3.983  -9.292  -3.375  1.00  0.00    -0.000 C 
BRANCH  14  15
ATOM     15  C   UNL     1       4.539  -9.974  -4.635  1.00  0.00    -0.000 C 
BRANCH  15  16
ATOM     16  C   UNL     1       4.895  -8.972  -5.748  1.00  0.00    -0.000 C 
BRANCH  16  17
ATOM     17  C   UNL     1       4.032  -9.082  -7.018  1.00  0.00    -0.000 C 
BRANCH  17  18
ATOM     18  C   UNL     1       3.185  -7.824  -7.275  1.00  0.00    -0.000 C 
BRANCH  18  19
ATOM     19  C   UNL     1       2.662  -7.192  -5.976  1.00  0.00    -0.003 C 
ATOM     20  C   UNL     1       2.043  -5.812  -6.199  1.00  0.00     0.004 C 
ENDBRANCH  18  19
ENDBRANCH  17  18
ENDBRANCH  16  17
ENDBRANCH  15  16
ENDBRANCH  14  15
ENDBRANCH  13  14
ENDBRANCH  12  13
ENDBRANCH   1  12
TORSDOF 16
ENDMDL
