MODEL 1
REMARK VINA RESULT:    -3.482      0.000      0.000
REMARK INTER + INTRA:         -12.646
REMARK INTER:                  -9.182
REMARK INTRA:                  -3.465
REMARK UNBOUND:                -3.465
REMARK SMILES CCCCCCCCCCCCCCCCCCCCCCCCCCCCCC(=O)[O-]
REMARK SMILES IDX 16 1 17 2 18 3 19 4 20 5 21 6 22 7 23 8 24 9 25 10 26 11
REMARK SMILES IDX 27 12 28 13 29 14 30 15 31 16 32 17 15 18 14 19 13 20 12 21
REMARK SMILES IDX 11 22 10 23 9 24 8 25 7 26 6 27 5 28 4 29 3 30 2 31 1 32
REMARK H PARENT
REMARK Flexibility Score: inf
ROOT
ATOM      1  C   UNL     1      -7.224  -2.548 -23.593  1.00  0.00     0.000 C 
ENDROOT
BRANCH   1   2
ATOM      2  C   UNL     1      -7.523  -2.721 -25.090  1.00  0.00     0.000 C 
BRANCH   2   3
ATOM      3  C   UNL     1      -7.719  -4.194 -25.496  1.00  0.00     0.000 C 
BRANCH   3   4
ATOM      4  C   UNL     1      -6.417  -4.954 -25.815  1.00  0.00     0.000 C 
BRANCH   4   5
ATOM      5  C   UNL     1      -6.127  -5.027 -27.325  1.00  0.00     0.000 C 
BRANCH   5   6
ATOM      6  C   UNL     1      -6.627  -6.342 -27.960  1.00  0.00     0.000 C 
BRANCH   6   7
ATOM      7  C   UNL     1      -6.292  -7.601 -27.141  1.00  0.00     0.000 C 
BRANCH   7   8
ATOM      8  C   UNL     1      -7.496  -8.537 -26.956  1.00  0.00     0.000 C 
BRANCH   8   9
ATOM      9  C   UNL     1      -8.438  -8.074 -25.833  1.00  0.00     0.000 C 
BRANCH   9  10
ATOM     10  C   UNL     1      -9.906  -8.014 -26.282  1.00  0.00     0.000 C 
BRANCH  10  11
ATOM     11  C   UNL     1     -10.092  -8.739 -27.624  1.00  0.00     0.000 C 
BRANCH  11  12
ATOM     12  C   UNL     1     -11.421  -9.506 -27.702  1.00  0.00     0.000 C 
BRANCH  12  13
ATOM     13  C   UNL     1     -11.224 -11.031 -27.636  1.00  0.00     0.006 C 
BRANCH  13  14
ATOM     14  C   UNL     1      -9.742 -11.425 -27.686  1.00  0.00     0.053 C 
BRANCH  14  15
ATOM     15  C   UNL     1      -9.326 -12.165 -26.452  1.00  0.00     0.041 C 
ATOM     16  O   UNL     1      -9.005 -11.534 -25.412  1.00  0.00    -0.550 OA
ATOM     17  O   UNL     1      -9.321 -13.554 -26.443  1.00  0.00    -0.550 OA
ENDBRANCH  14  15
ENDBRANCH  13  14
ENDBRANCH  12  13
ENDBRANCH  11  12
ENDBRANCH  10  11
ENDBRANCH   9  10
ENDBRANCH   8   9
ENDBRANCH   7   8
ENDBRANCH   6   7
ENDBRANCH   5   6
ENDBRANCH   4   5
ENDBRANCH   3   4
ENDBRANCH   2   3
ENDBRANCH   1   2
BRANCH   1  18
ATOM     18  C   UNL     1      -5.754  -2.168 -23.359  1.00  0.00     0.000 C 
BRANCH  18  19
ATOM     19  C   UNL     1      -5.506  -0.657 -23.487  1.00  0.00     0.000 C 
BRANCH  19  20
ATOM     20  C   UNL     1      -6.430   0.175 -22.580  1.00  0.00     0.000 C 
BRANCH  20  21
ATOM     21  C   UNL     1      -5.730   1.410 -21.985  1.00  0.00     0.000 C 
BRANCH  21  22
ATOM     22  C   UNL     1      -6.200   2.761 -22.554  1.00  0.00     0.000 C 
BRANCH  22  23
ATOM     23  C   UNL     1      -5.038   3.660 -23.000  1.00  0.00     0.000 C 
BRANCH  23  24
ATOM     24  C   UNL     1      -5.005   3.802 -24.526  1.00  0.00    -0.000 C 
BRANCH  24  25
ATOM     25  C   UNL     1      -4.969   2.426 -25.208  1.00  0.00    -0.000 C 
BRANCH  25  26
ATOM     26  C   UNL     1      -5.965   2.309 -26.377  1.00  0.00    -0.000 C 
BRANCH  26  27
ATOM     27  C   UNL     1      -7.451   2.281 -25.969  1.00  0.00    -0.000 C 
BRANCH  27  28
ATOM     28  C   UNL     1      -8.367   2.981 -26.988  1.00  0.00    -0.000 C 
BRANCH  28  29
ATOM     29  C   UNL     1      -9.596   2.133 -27.354  1.00  0.00    -0.000 C 
BRANCH  29  30
ATOM     30  C   UNL     1      -9.385   0.635 -27.071  1.00  0.00    -0.000 C 
BRANCH  30  31
ATOM     31  C   UNL     1     -10.492   0.041 -26.187  1.00  0.00    -0.003 C 
ATOM     32  C   UNL     1     -10.068  -0.117 -24.727  1.00  0.00     0.004 C 
ENDBRANCH  30  31
ENDBRANCH  29  30
ENDBRANCH  28  29
ENDBRANCH  27  28
ENDBRANCH  26  27
ENDBRANCH  25  26
ENDBRANCH  24  25
ENDBRANCH  23  24
ENDBRANCH  22  23
ENDBRANCH  21  22
ENDBRANCH  20  21
ENDBRANCH  19  20
ENDBRANCH  18  19
ENDBRANCH   1  18
TORSDOF 28
ENDMDL
MODEL 2
REMARK VINA RESULT:    -3.212      4.173     12.243
REMARK INTER + INTRA:         -11.934
REMARK INTER:                  -8.794
REMARK INTRA:                  -3.139
REMARK UNBOUND:                -3.465
REMARK SMILES CCCCCCCCCCCCCCCCCCCCCCCCCCCCCC(=O)[O-]
REMARK SMILES IDX 16 1 17 2 18 3 19 4 20 5 21 6 22 7 23 8 24 9 25 10 26 11
REMARK SMILES IDX 27 12 28 13 29 14 30 15 31 16 32 17 15 18 14 19 13 20 12 21
REMARK SMILES IDX 11 22 10 23 9 24 8 25 7 26 6 27 5 28 4 29 3 30 2 31 1 32
REMARK H PARENT
REMARK Flexibility Score: inf
ROOT
ATOM      1  C   UNL     1      -8.720  -8.921 -25.964  1.00  0.00     0.000 C 
ENDROOT
BRANCH   1   2
ATOM      2  C   UNL     1      -8.537  -8.677 -27.469  1.00  0.00     0.000 C 
BRANCH   2   3
ATOM      3  C   UNL     1      -7.062  -8.737 -27.911  1.00  0.00     0.000 C 
BRANCH   3   4
ATOM      4  C   UNL     1      -6.076  -9.174 -26.810  1.00  0.00     0.000 C 
BRANCH   4   5
ATOM      5  C   UNL     1      -5.140  -8.036 -26.366  1.00  0.00     0.000 C 
BRANCH   5   6
ATOM      6  C   UNL     1      -5.577  -6.663 -26.920  1.00  0.00     0.000 C 
BRANCH   6   7
ATOM      7  C   UNL     1      -6.053  -5.674 -25.841  1.00  0.00     0.000 C 
BRANCH   7   8
ATOM      8  C   UNL     1      -7.569  -5.427 -25.877  1.00  0.00     0.000 C 
BRANCH   8   9
ATOM      9  C   UNL     1      -7.958  -4.050 -25.314  1.00  0.00     0.000 C 
BRANCH   9  10
ATOM     10  C   UNL     1      -8.597  -3.140 -26.373  1.00  0.00     0.000 C 
BRANCH  10  11
ATOM     11  C   UNL     1      -7.800  -1.835 -26.518  1.00  0.00     0.000 C 
BRANCH  11  12
ATOM     12  C   UNL     1      -6.361  -1.959 -25.994  1.00  0.00     0.000 C 
BRANCH  12  13
ATOM     13  C   UNL     1      -5.847  -0.649 -25.370  1.00  0.00     0.006 C 
BRANCH  13  14
ATOM     14  C   UNL     1      -4.983  -0.901 -24.127  1.00  0.00     0.053 C 
BRANCH  14  15
ATOM     15  C   UNL     1      -5.794  -1.444 -22.992  1.00  0.00     0.041 C 
ATOM     16  O   UNL     1      -5.696  -2.655 -22.664  1.00  0.00    -0.550 OA
ATOM     17  O   UNL     1      -6.639  -0.605 -22.277  1.00  0.00    -0.550 OA
ENDBRANCH  14  15
ENDBRANCH  13  14
ENDBRANCH  12  13
ENDBRANCH  11  12
ENDBRANCH  10  11
ENDBRANCH   9  10
ENDBRANCH   8   9
ENDBRANCH   7   8
ENDBRANCH   6   7
ENDBRANCH   5   6
ENDBRANCH   4   5
ENDBRANCH   3   4
ENDBRANCH   2   3
ENDBRANCH   1   2
BRANCH   1  18
ATOM     18  C   UNL     1     -10.132  -9.439 -25.651  1.00  0.00     0.000 C 
BRANCH  18  19
ATOM     19  C   UNL     1     -10.892  -9.881 -26.912  1.00  0.00     0.000 C 
BRANCH  19  20
ATOM     20  C   UNL     1     -11.322 -11.358 -26.859  1.00  0.00     0.000 C 
BRANCH  20  21
ATOM     21  C   UNL     1     -10.631 -12.221 -27.930  1.00  0.00     0.000 C 
BRANCH  21  22
ATOM     22  C   UNL     1      -9.104 -12.345 -27.780  1.00  0.00     0.000 C 
BRANCH  22  23
ATOM     23  C   UNL     1      -8.673 -12.768 -26.368  1.00  0.00     0.000 C 
BRANCH  23  24
ATOM     24  C   UNL     1      -7.271 -13.387 -26.381  1.00  0.00    -0.000 C 
BRANCH  24  25
ATOM     25  C   UNL     1      -7.167 -14.540 -25.373  1.00  0.00    -0.000 C 
BRANCH  25  26
ATOM     26  C   UNL     1      -5.885 -14.479 -24.520  1.00  0.00    -0.000 C 
BRANCH  26  27
ATOM     27  C   UNL     1      -6.105 -14.607 -23.001  1.00  0.00    -0.000 C 
BRANCH  27  28
ATOM     28  C   UNL     1      -7.574 -14.411 -22.588  1.00  0.00    -0.000 C 
BRANCH  28  29
ATOM     29  C   UNL     1      -7.720 -13.960 -21.125  1.00  0.00    -0.000 C 
BRANCH  29  30
ATOM     30  C   UNL     1      -9.012 -14.484 -20.473  1.00  0.00    -0.000 C 
BRANCH  30  31
ATOM     31  C   UNL     1      -9.029 -14.277 -18.950  1.00  0.00    -0.003 C 
ATOM     32  C   UNL     1      -7.981 -13.272 -18.474  1.00  0.00     0.004 C 
ENDBRANCH  30  31
ENDBRANCH  29  30
ENDBRANCH  28  29
ENDBRANCH  27  28
ENDBRANCH  26  27
ENDBRANCH  25  26
ENDBRANCH  24  25
ENDBRANCH  23  24
ENDBRANCH  22  23
ENDBRANCH  21  22
ENDBRANCH  20  21
ENDBRANCH  19  20
ENDBRANCH  18  19
ENDBRANCH   1  18
TORSDOF 28
ENDMDL
MODEL 3
REMARK VINA RESULT:    -3.059      3.320     10.799
REMARK INTER + INTRA:         -11.531
REMARK INTER:                  -7.918
REMARK INTRA:                  -3.612
REMARK UNBOUND:                -3.465
REMARK SMILES CCCCCCCCCCCCCCCCCCCCCCCCCCCCCC(=O)[O-]
REMARK SMILES IDX 16 1 17 2 18 3 19 4 20 5 21 6 22 7 23 8 24 9 25 10 26 11
REMARK SMILES IDX 27 12 28 13 29 14 30 15 31 16 32 17 15 18 14 19 13 20 12 21
REMARK SMILES IDX 11 22 10 23 9 24 8 25 7 26 6 27 5 28 4 29 3 30 2 31 1 32
REMARK H PARENT
REMARK Flexibility Score: inf
ROOT
ATOM      1  C   UNL     1      -6.212  -1.929 -26.345  1.00  0.00     0.000 C 
ENDROOT
BRANCH   1   2
ATOM      2  C   UNL     1      -7.552  -2.588 -25.985  1.00  0.00     0.000 C 
BRANCH   2   3
ATOM      3  C   UNL     1      -7.844  -2.564 -24.472  1.00  0.00     0.000 C 
BRANCH   3   4
ATOM      4  C   UNL     1      -8.002  -1.155 -23.868  1.00  0.00     0.000 C 
BRANCH   4   5
ATOM      5  C   UNL     1      -7.016  -0.888 -22.717  1.00  0.00     0.000 C 
BRANCH   5   6
ATOM      6  C   UNL     1      -5.573  -0.664 -23.217  1.00  0.00     0.000 C 
BRANCH   6   7
ATOM      7  C   UNL     1      -4.950   0.667 -22.760  1.00  0.00     0.000 C 
BRANCH   7   8
ATOM      8  C   UNL     1      -5.985   1.657 -22.201  1.00  0.00     0.000 C 
BRANCH   8   9
ATOM      9  C   UNL     1      -6.287   2.808 -23.174  1.00  0.00     0.000 C 
BRANCH   9  10
ATOM     10  C   UNL     1      -7.446   2.485 -24.128  1.00  0.00     0.000 C 
BRANCH  10  11
ATOM     11  C   UNL     1      -6.915   2.104 -25.518  1.00  0.00     0.000 C 
BRANCH  11  12
ATOM     12  C   UNL     1      -7.517   2.967 -26.638  1.00  0.00     0.000 C 
BRANCH  12  13
ATOM     13  C   UNL     1      -8.173   2.120 -27.743  1.00  0.00     0.006 C 
BRANCH  13  14
ATOM     14  C   UNL     1      -8.551   0.717 -27.250  1.00  0.00     0.053 C 
BRANCH  14  15
ATOM     15  C   UNL     1     -10.036   0.545 -27.162  1.00  0.00     0.041 C 
ATOM     16  O   UNL     1     -10.525  -0.456 -26.575  1.00  0.00    -0.550 OA
ATOM     17  O   UNL     1     -10.881   1.505 -27.705  1.00  0.00    -0.550 OA
ENDBRANCH  14  15
ENDBRANCH  13  14
ENDBRANCH  12  13
ENDBRANCH  11  12
ENDBRANCH  10  11
ENDBRANCH   9  10
ENDBRANCH   8   9
ENDBRANCH   7   8
ENDBRANCH   6   7
ENDBRANCH   5   6
ENDBRANCH   4   5
ENDBRANCH   3   4
ENDBRANCH   2   3
ENDBRANCH   1   2
BRANCH   1  18
ATOM     18  C   UNL     1      -5.122  -2.983 -26.591  1.00  0.00     0.000 C 
BRANCH  18  19
ATOM     19  C   UNL     1      -5.388  -3.828 -27.845  1.00  0.00     0.000 C 
BRANCH  19  20
ATOM     20  C   UNL     1      -5.253  -5.339 -27.583  1.00  0.00     0.000 C 
BRANCH  20  21
ATOM     21  C   UNL     1      -5.896  -5.775 -26.254  1.00  0.00     0.000 C 
BRANCH  21  22
ATOM     22  C   UNL     1      -7.336  -6.304 -26.371  1.00  0.00     0.000 C 
BRANCH  22  23
ATOM     23  C   UNL     1      -7.563  -7.603 -25.584  1.00  0.00     0.000 C 
BRANCH  23  24
ATOM     24  C   UNL     1      -8.335  -8.628 -26.422  1.00  0.00    -0.000 C 
BRANCH  24  25
ATOM     25  C   UNL     1      -9.795  -8.734 -25.959  1.00  0.00    -0.000 C 
BRANCH  25  26
ATOM     26  C   UNL     1     -10.756  -9.145 -27.090  1.00  0.00    -0.000 C 
BRANCH  26  27
ATOM     27  C   UNL     1     -11.431 -10.518 -26.906  1.00  0.00    -0.000 C 
BRANCH  27  28
ATOM     28  C   UNL     1     -11.156 -11.484 -28.073  1.00  0.00    -0.000 C 
BRANCH  28  29
ATOM     29  C   UNL     1      -9.693 -11.952 -28.118  1.00  0.00    -0.000 C 
BRANCH  29  30
ATOM     30  C   UNL     1      -9.247 -12.621 -26.805  1.00  0.00    -0.000 C 
BRANCH  30  31
ATOM     31  C   UNL     1      -7.719 -12.731 -26.690  1.00  0.00    -0.003 C 
ATOM     32  C   UNL     1      -6.980 -11.846 -27.693  1.00  0.00     0.004 C 
ENDBRANCH  30  31
ENDBRANCH  29  30
ENDBRANCH  28  29
ENDBRANCH  27  28
ENDBRANCH  26  27
ENDBRANCH  25  26
ENDBRANCH  24  25
ENDBRANCH  23  24
ENDBRANCH  22  23
ENDBRANCH  21  22
ENDBRANCH  20  21
ENDBRANCH  19  20
ENDBRANCH  18  19
ENDBRANCH   1  18
TORSDOF 28
ENDMDL
MODEL 4
REMARK VINA RESULT:    -2.912      4.442     12.508
REMARK INTER + INTRA:         -11.145
REMARK INTER:                  -8.418
REMARK INTRA:                  -2.727
REMARK UNBOUND:                -3.465
REMARK SMILES CCCCCCCCCCCCCCCCCCCCCCCCCCCCCC(=O)[O-]
REMARK SMILES IDX 16 1 17 2 18 3 19 4 20 5 21 6 22 7 23 8 24 9 25 10 26 11
REMARK SMILES IDX 27 12 28 13 29 14 30 15 31 16 32 17 15 18 14 19 13 20 12 21
REMARK SMILES IDX 11 22 10 23 9 24 8 25 7 26 6 27 5 28 4 29 3 30 2 31 1 32
REMARK H PARENT
REMARK Flexibility Score: inf
ROOT
ATOM      1  C   UNL     1      -9.851  -9.254 -25.470  1.00  0.00     0.000 C 
ENDROOT
BRANCH   1   2
ATOM      2  C   UNL     1      -9.782  -8.006 -26.361  1.00  0.00     0.000 C 
BRANCH   2   3
ATOM      3  C   UNL     1      -8.563  -8.008 -27.303  1.00  0.00     0.000 C 
BRANCH   3   4
ATOM      4  C   UNL     1      -7.213  -8.278 -26.610  1.00  0.00     0.000 C 
BRANCH   4   5
ATOM      5  C   UNL     1      -6.811  -7.156 -25.636  1.00  0.00     0.000 C 
BRANCH   5   6
ATOM      6  C   UNL     1      -6.762  -5.772 -26.317  1.00  0.00     0.000 C 
BRANCH   6   7
ATOM      7  C   UNL     1      -7.791  -4.767 -25.772  1.00  0.00     0.000 C 
BRANCH   7   8
ATOM      8  C   UNL     1      -7.198  -3.370 -25.527  1.00  0.00     0.000 C 
BRANCH   8   9
ATOM      9  C   UNL     1      -7.120  -3.015 -24.034  1.00  0.00     0.000 C 
BRANCH   9  10
ATOM     10  C   UNL     1      -6.226  -1.796 -23.765  1.00  0.00     0.000 C 
BRANCH  10  11
ATOM     11  C   UNL     1      -6.423  -0.728 -24.851  1.00  0.00     0.000 C 
BRANCH  11  12
ATOM     12  C   UNL     1      -6.977   0.591 -24.290  1.00  0.00     0.000 C 
BRANCH  12  13
ATOM     13  C   UNL     1      -8.361   0.940 -24.866  1.00  0.00     0.006 C 
BRANCH  13  14
ATOM     14  C   UNL     1      -9.049  -0.279 -25.494  1.00  0.00     0.053 C 
BRANCH  14  15
ATOM     15  C   UNL     1     -10.446   0.039 -25.929  1.00  0.00     0.041 C 
ATOM     16  O   UNL     1     -11.399  -0.035 -25.110  1.00  0.00    -0.550 OA
ATOM     17  O   UNL     1     -10.693   0.447 -27.234  1.00  0.00    -0.550 OA
ENDBRANCH  14  15
ENDBRANCH  13  14
ENDBRANCH  12  13
ENDBRANCH  11  12
ENDBRANCH  10  11
ENDBRANCH   9  10
ENDBRANCH   8   9
ENDBRANCH   7   8
ENDBRANCH   6   7
ENDBRANCH   5   6
ENDBRANCH   4   5
ENDBRANCH   3   4
ENDBRANCH   2   3
ENDBRANCH   1   2
BRANCH   1  18
ATOM     18  C   UNL     1     -10.390 -10.465 -26.248  1.00  0.00     0.000 C 
BRANCH  18  19
ATOM     19  C   UNL     1      -9.363 -11.603 -26.356  1.00  0.00     0.000 C 
BRANCH  19  20
ATOM     20  C   UNL     1      -9.076 -12.007 -27.813  1.00  0.00     0.000 C 
BRANCH  20  21
ATOM     21  C   UNL     1      -7.663 -12.588 -28.005  1.00  0.00     0.000 C 
BRANCH  21  22
ATOM     22  C   UNL     1      -6.533 -11.786 -27.334  1.00  0.00     0.000 C 
BRANCH  22  23
ATOM     23  C   UNL     1      -5.204 -12.552 -27.283  1.00  0.00     0.000 C 
BRANCH  23  24
ATOM     24  C   UNL     1      -5.439 -14.051 -27.065  1.00  0.00    -0.000 C 
BRANCH  24  25
ATOM     25  C   UNL     1      -5.547 -14.381 -25.569  1.00  0.00    -0.000 C 
BRANCH  25  26
ATOM     26  C   UNL     1      -6.906 -15.000 -25.188  1.00  0.00    -0.000 C 
BRANCH  26  27
ATOM     27  C   UNL     1      -7.640 -14.300 -24.029  1.00  0.00    -0.000 C 
BRANCH  27  28
ATOM     28  C   UNL     1      -6.972 -14.537 -22.663  1.00  0.00    -0.000 C 
BRANCH  28  29
ATOM     29  C   UNL     1      -7.617 -13.710 -21.539  1.00  0.00    -0.000 C 
BRANCH  29  30
ATOM     30  C   UNL     1      -7.620 -14.449 -20.189  1.00  0.00    -0.000 C 
BRANCH  30  31
ATOM     31  C   UNL     1      -8.665 -13.890 -19.213  1.00  0.00    -0.003 C 
ATOM     32  C   UNL     1      -9.936 -14.736 -19.151  1.00  0.00     0.004 C 
ENDBRANCH  30  31
ENDBRANCH  29  30
ENDBRANCH  28  29
ENDBRANCH  27  28
ENDBRANCH  26  27
ENDBRANCH  25  26
ENDBRANCH  24  25
ENDBRANCH  23  24
ENDBRANCH  22  23
ENDBRANCH  21  22
ENDBRANCH  20  21
ENDBRANCH  19  20
ENDBRANCH  18  19
ENDBRANCH   1  18
TORSDOF 28
ENDMDL
MODEL 5
REMARK VINA RESULT:    -2.628      4.709     12.368
REMARK INTER + INTRA:         -10.395
REMARK INTER:                  -7.956
REMARK INTRA:                  -2.439
REMARK UNBOUND:                -3.465
REMARK SMILES CCCCCCCCCCCCCCCCCCCCCCCCCCCCCC(=O)[O-]
REMARK SMILES IDX 16 1 17 2 18 3 19 4 20 5 21 6 22 7 23 8 24 9 25 10 26 11
REMARK SMILES IDX 27 12 28 13 29 14 30 15 31 16 32 17 15 18 14 19 13 20 12 21
REMARK SMILES IDX 11 22 10 23 9 24 8 25 7 26 6 27 5 28 4 29 3 30 2 31 1 32
REMARK H PARENT
REMARK Flexibility Score: inf
ROOT
ATOM      1  C   UNL     1      -9.686  -9.541 -25.655  1.00  0.00     0.000 C 
ENDROOT
BRANCH   1   2
ATOM      2  C   UNL     1     -10.116  -8.390 -26.577  1.00  0.00     0.000 C 
BRANCH   2   3
ATOM      3  C   UNL     1      -8.975  -7.890 -27.484  1.00  0.00     0.000 C 
BRANCH   3   4
ATOM      4  C   UNL     1      -7.564  -8.329 -27.046  1.00  0.00     0.000 C 
BRANCH   4   5
ATOM      5  C   UNL     1      -6.937  -7.373 -26.016  1.00  0.00     0.000 C 
BRANCH   5   6
ATOM      6  C   UNL     1      -5.590  -6.791 -26.494  1.00  0.00     0.000 C 
BRANCH   6   7
ATOM      7  C   UNL     1      -5.670  -6.041 -27.835  1.00  0.00     0.000 C 
BRANCH   7   8
ATOM      8  C   UNL     1      -4.875  -4.726 -27.839  1.00  0.00     0.000 C 
BRANCH   8   9
ATOM      9  C   UNL     1      -5.762  -3.499 -27.573  1.00  0.00     0.000 C 
BRANCH   9  10
ATOM     10  C   UNL     1      -7.256  -3.850 -27.531  1.00  0.00     0.000 C 
BRANCH  10  11
ATOM     11  C   UNL     1      -8.058  -2.729 -26.852  1.00  0.00     0.000 C 
BRANCH  11  12
ATOM     12  C   UNL     1      -8.613  -3.147 -25.481  1.00  0.00     0.000 C 
BRANCH  12  13
ATOM     13  C   UNL     1      -7.543  -3.099 -24.375  1.00  0.00     0.006 C 
BRANCH  13  14
ATOM     14  C   UNL     1      -7.627  -1.811 -23.546  1.00  0.00     0.053 C 
BRANCH  14  15
ATOM     15  C   UNL     1      -6.291  -1.423 -22.993  1.00  0.00     0.041 C 
ATOM     16  O   UNL     1      -6.080  -0.241 -22.613  1.00  0.00    -0.550 OA
ATOM     17  O   UNL     1      -5.286  -2.374 -22.870  1.00  0.00    -0.550 OA
ENDBRANCH  14  15
ENDBRANCH  13  14
ENDBRANCH  12  13
ENDBRANCH  11  12
ENDBRANCH  10  11
ENDBRANCH   9  10
ENDBRANCH   8   9
ENDBRANCH   7   8
ENDBRANCH   6   7
ENDBRANCH   5   6
ENDBRANCH   4   5
ENDBRANCH   3   4
ENDBRANCH   2   3
ENDBRANCH   1   2
BRANCH   1  18
ATOM     18  C   UNL     1      -9.960 -10.906 -26.306  1.00  0.00     0.000 C 
BRANCH  18  19
ATOM     19  C   UNL     1      -8.987 -11.995 -25.827  1.00  0.00     0.000 C 
BRANCH  19  20
ATOM     20  C   UNL     1      -8.488 -12.891 -26.974  1.00  0.00     0.000 C 
BRANCH  20  21
ATOM     21  C   UNL     1      -7.361 -13.846 -26.541  1.00  0.00     0.000 C 
BRANCH  21  22
ATOM     22  C   UNL     1      -5.948 -13.235 -26.560  1.00  0.00     0.000 C 
BRANCH  22  23
ATOM     23  C   UNL     1      -4.945 -14.021 -25.704  1.00  0.00     0.000 C 
BRANCH  23  24
ATOM     24  C   UNL     1      -5.665 -14.891 -24.668  1.00  0.00    -0.000 C 
BRANCH  24  25
ATOM     25  C   UNL     1      -5.019 -14.749 -23.282  1.00  0.00    -0.000 C 
BRANCH  25  26
ATOM     26  C   UNL     1      -6.052 -14.587 -22.151  1.00  0.00    -0.000 C 
BRANCH  26  27
ATOM     27  C   UNL     1      -7.423 -14.040 -22.592  1.00  0.00    -0.000 C 
BRANCH  27  28
ATOM     28  C   UNL     1      -8.308 -13.611 -21.408  1.00  0.00    -0.000 C 
BRANCH  28  29
ATOM     29  C   UNL     1      -8.702 -14.794 -20.508  1.00  0.00    -0.000 C 
BRANCH  29  30
ATOM     30  C   UNL     1      -9.124 -14.347 -19.097  1.00  0.00    -0.000 C 
BRANCH  30  31
ATOM     31  C   UNL     1      -8.150 -13.327 -18.486  1.00  0.00    -0.003 C 
ATOM     32  C   UNL     1      -6.786 -13.932 -18.154  1.00  0.00     0.004 C 
ENDBRANCH  30  31
ENDBRANCH  29  30
ENDBRANCH  28  29
ENDBRANCH  27  28
ENDBRANCH  26  27
ENDBRANCH  25  26
ENDBRANCH  24  25
ENDBRANCH  23  24
ENDBRANCH  22  23
ENDBRANCH  21  22
ENDBRANCH  20  21
ENDBRANCH  19  20
ENDBRANCH  18  19
ENDBRANCH   1  18
TORSDOF 28
ENDMDL
MODEL 6
REMARK VINA RESULT:    -2.573      5.447     13.072
REMARK INTER + INTRA:         -10.250
REMARK INTER:                  -8.259
REMARK INTRA:                  -1.991
REMARK UNBOUND:                -3.465
REMARK SMILES CCCCCCCCCCCCCCCCCCCCCCCCCCCCCC(=O)[O-]
REMARK SMILES IDX 16 1 17 2 18 3 19 4 20 5 21 6 22 7 23 8 24 9 25 10 26 11
REMARK SMILES IDX 27 12 28 13 29 14 30 15 31 16 32 17 15 18 14 19 13 20 12 21
REMARK SMILES IDX 11 22 10 23 9 24 8 25 7 26 6 27 5 28 4 29 3 30 2 31 1 32
REMARK H PARENT
REMARK Flexibility Score: inf
ROOT
ATOM      1  C   UNL     1      -9.387 -10.009 -25.661  1.00  0.00     0.000 C 
ENDROOT
BRANCH   1   2
ATOM      2  C   UNL     1     -10.118  -8.785 -26.233  1.00  0.00     0.000 C 
BRANCH   2   3
ATOM      3  C   UNL     1      -9.189  -7.853 -27.034  1.00  0.00     0.000 C 
BRANCH   3   4
ATOM      4  C   UNL     1      -7.685  -8.048 -26.758  1.00  0.00     0.000 C 
BRANCH   4   5
ATOM      5  C   UNL     1      -7.184  -7.204 -25.572  1.00  0.00     0.000 C 
BRANCH   5   6
ATOM      6  C   UNL     1      -5.902  -6.414 -25.911  1.00  0.00     0.000 C 
BRANCH   6   7
ATOM      7  C   UNL     1      -6.153  -5.122 -26.707  1.00  0.00     0.000 C 
BRANCH   7   8
ATOM      8  C   UNL     1      -5.960  -3.849 -25.867  1.00  0.00     0.000 C 
BRANCH   8   9
ATOM      9  C   UNL     1      -7.283  -3.313 -25.295  1.00  0.00     0.000 C 
BRANCH   9  10
ATOM     10  C   UNL     1      -7.102  -2.644 -23.924  1.00  0.00     0.000 C 
BRANCH  10  11
ATOM     11  C   UNL     1      -8.102  -1.491 -23.747  1.00  0.00     0.000 C 
BRANCH  11  12
ATOM     12  C   UNL     1      -8.705  -1.022 -25.081  1.00  0.00     0.000 C 
BRANCH  12  13
ATOM     13  C   UNL     1      -9.225   0.426 -25.014  1.00  0.00     0.006 C 
BRANCH  13  14
ATOM     14  C   UNL     1      -8.535   1.335 -26.039  1.00  0.00     0.053 C 
BRANCH  14  15
ATOM     15  C   UNL     1      -7.619   2.318 -25.378  1.00  0.00     0.041 C 
ATOM     16  O   UNL     1      -7.742   2.574 -24.151  1.00  0.00    -0.550 OA
ATOM     17  O   UNL     1      -6.610   2.931 -26.110  1.00  0.00    -0.550 OA
ENDBRANCH  14  15
ENDBRANCH  13  14
ENDBRANCH  12  13
ENDBRANCH  11  12
ENDBRANCH  10  11
ENDBRANCH   9  10
ENDBRANCH   8   9
ENDBRANCH   7   8
ENDBRANCH   6   7
ENDBRANCH   5   6
ENDBRANCH   4   5
ENDBRANCH   3   4
ENDBRANCH   2   3
ENDBRANCH   1   2
BRANCH   1  18
ATOM     18  C   UNL     1      -9.557 -11.235 -26.571  1.00  0.00     0.000 C 
BRANCH  18  19
ATOM     19  C   UNL     1      -8.958 -12.512 -25.962  1.00  0.00     0.000 C 
BRANCH  19  20
ATOM     20  C   UNL     1      -8.292 -13.416 -27.014  1.00  0.00     0.000 C 
BRANCH  20  21
ATOM     21  C   UNL     1      -7.235 -14.358 -26.411  1.00  0.00     0.000 C 
BRANCH  21  22
ATOM     22  C   UNL     1      -5.776 -13.903 -26.599  1.00  0.00     0.000 C 
BRANCH  22  23
ATOM     23  C   UNL     1      -4.891 -14.214 -25.384  1.00  0.00     0.000 C 
BRANCH  23  24
ATOM     24  C   UNL     1      -5.736 -14.669 -24.188  1.00  0.00    -0.000 C 
BRANCH  24  25
ATOM     25  C   UNL     1      -4.948 -14.541 -22.875  1.00  0.00    -0.000 C 
BRANCH  25  26
ATOM     26  C   UNL     1      -5.788 -13.953 -21.726  1.00  0.00    -0.000 C 
BRANCH  26  27
ATOM     27  C   UNL     1      -7.218 -14.514 -21.609  1.00  0.00    -0.000 C 
BRANCH  27  28
ATOM     28  C   UNL     1      -8.204 -13.516 -20.975  1.00  0.00    -0.000 C 
BRANCH  28  29
ATOM     29  C   UNL     1      -8.837 -14.055 -19.681  1.00  0.00    -0.000 C 
BRANCH  29  30
ATOM     30  C   UNL     1      -7.818 -14.779 -18.784  1.00  0.00    -0.000 C 
BRANCH  30  31
ATOM     31  C   UNL     1      -7.066 -13.818 -17.850  1.00  0.00    -0.003 C 
ATOM     32  C   UNL     1      -5.547 -13.941 -17.966  1.00  0.00     0.004 C 
ENDBRANCH  30  31
ENDBRANCH  29  30
ENDBRANCH  28  29
ENDBRANCH  27  28
ENDBRANCH  26  27
ENDBRANCH  25  26
ENDBRANCH  24  25
ENDBRANCH  23  24
ENDBRANCH  22  23
ENDBRANCH  21  22
ENDBRANCH  20  21
ENDBRANCH  19  20
ENDBRANCH  18  19
ENDBRANCH   1  18
TORSDOF 28
ENDMDL
MODEL 7
REMARK VINA RESULT:    -2.561      1.602      3.123
REMARK INTER + INTRA:         -10.217
REMARK INTER:                  -7.041
REMARK INTRA:                  -3.176
REMARK UNBOUND:                -3.465
REMARK SMILES CCCCCCCCCCCCCCCCCCCCCCCCCCCCCC(=O)[O-]
REMARK SMILES IDX 16 1 17 2 18 3 19 4 20 5 21 6 22 7 23 8 24 9 25 10 26 11
REMARK SMILES IDX 27 12 28 13 29 14 30 15 31 16 32 17 15 18 14 19 13 20 12 21
REMARK SMILES IDX 11 22 10 23 9 24 8 25 7 26 6 27 5 28 4 29 3 30 2 31 1 32
REMARK H PARENT
REMARK Flexibility Score: inf
ROOT
ATOM      1  C   UNL     1      -6.894  -0.579 -24.052  1.00  0.00     0.000 C 
ENDROOT
BRANCH   1   2
ATOM      2  C   UNL     1      -7.411  -1.971 -23.661  1.00  0.00     0.000 C 
BRANCH   2   3
ATOM      3  C   UNL     1      -6.314  -2.871 -23.062  1.00  0.00     0.000 C 
BRANCH   3   4
ATOM      4  C   UNL     1      -5.328  -3.459 -24.091  1.00  0.00     0.000 C 
BRANCH   4   5
ATOM      5  C   UNL     1      -6.020  -3.893 -25.395  1.00  0.00     0.000 C 
BRANCH   5   6
ATOM      6  C   UNL     1      -5.013  -4.349 -26.473  1.00  0.00     0.000 C 
BRANCH   6   7
ATOM      7  C   UNL     1      -5.147  -5.829 -26.871  1.00  0.00     0.000 C 
BRANCH   7   8
ATOM      8  C   UNL     1      -6.164  -6.060 -28.000  1.00  0.00     0.000 C 
BRANCH   8   9
ATOM      9  C   UNL     1      -7.217  -7.121 -27.639  1.00  0.00     0.000 C 
BRANCH   9  10
ATOM     10  C   UNL     1      -8.623  -6.525 -27.481  1.00  0.00     0.000 C 
BRANCH  10  11
ATOM     11  C   UNL     1      -9.640  -7.620 -27.126  1.00  0.00     0.000 C 
BRANCH  11  12
ATOM     12  C   UNL     1      -9.362  -8.264 -25.759  1.00  0.00     0.000 C 
BRANCH  12  13
ATOM     13  C   UNL     1     -10.149  -9.571 -25.554  1.00  0.00     0.006 C 
BRANCH  13  14
ATOM     14  C   UNL     1     -10.126 -10.461 -26.803  1.00  0.00     0.053 C 
BRANCH  14  15
ATOM     15  C   UNL     1      -9.647 -11.844 -26.487  1.00  0.00     0.041 C 
ATOM     16  O   UNL     1     -10.226 -12.846 -26.983  1.00  0.00    -0.550 OA
ATOM     17  O   UNL     1      -8.542 -12.026 -25.664  1.00  0.00    -0.550 OA
ENDBRANCH  14  15
ENDBRANCH  13  14
ENDBRANCH  12  13
ENDBRANCH  11  12
ENDBRANCH  10  11
ENDBRANCH   9  10
ENDBRANCH   8   9
ENDBRANCH   7   8
ENDBRANCH   6   7
ENDBRANCH   5   6
ENDBRANCH   4   5
ENDBRANCH   3   4
ENDBRANCH   2   3
ENDBRANCH   1   2
BRANCH   1  18
ATOM     18  C   UNL     1      -6.602   0.275 -22.808  1.00  0.00     0.000 C 
BRANCH  18  19
ATOM     19  C   UNL     1      -6.582   1.781 -23.116  1.00  0.00     0.000 C 
BRANCH  19  20
ATOM     20  C   UNL     1      -6.782   2.084 -24.612  1.00  0.00     0.000 C 
BRANCH  20  21
ATOM     21  C   UNL     1      -5.458   2.358 -25.348  1.00  0.00     0.000 C 
BRANCH  21  22
ATOM     22  C   UNL     1      -4.875   1.152 -26.107  1.00  0.00     0.000 C 
BRANCH  22  23
ATOM     23  C   UNL     1      -5.151   1.205 -27.617  1.00  0.00     0.000 C 
BRANCH  23  24
ATOM     24  C   UNL     1      -6.425   0.431 -27.973  1.00  0.00    -0.000 C 
BRANCH  24  25
ATOM     25  C   UNL     1      -6.221  -1.080 -27.796  1.00  0.00    -0.000 C 
BRANCH  25  26
ATOM     26  C   UNL     1      -7.486  -1.899 -28.119  1.00  0.00    -0.000 C 
BRANCH  26  27
ATOM     27  C   UNL     1      -8.525  -1.969 -26.984  1.00  0.00    -0.000 C 
BRANCH  27  28
ATOM     28  C   UNL     1      -9.967  -2.125 -27.499  1.00  0.00    -0.000 C 
BRANCH  28  29
ATOM     29  C   UNL     1     -10.529  -0.819 -28.083  1.00  0.00    -0.000 C 
BRANCH  29  30
ATOM     30  C   UNL     1     -10.955   0.180 -26.991  1.00  0.00    -0.000 C 
BRANCH  30  31
ATOM     31  C   UNL     1      -9.756   0.774 -26.236  1.00  0.00    -0.003 C 
ATOM     32  C   UNL     1      -9.097   1.934 -26.983  1.00  0.00     0.004 C 
ENDBRANCH  30  31
ENDBRANCH  29  30
ENDBRANCH  28  29
ENDBRANCH  27  28
ENDBRANCH  26  27
ENDBRANCH  25  26
ENDBRANCH  24  25
ENDBRANCH  23  24
ENDBRANCH  22  23
ENDBRANCH  21  22
ENDBRANCH  20  21
ENDBRANCH  19  20
ENDBRANCH  18  19
ENDBRANCH   1  18
TORSDOF 28
ENDMDL
MODEL 8
REMARK VINA RESULT:    -2.559      2.788     10.237
REMARK INTER + INTRA:         -10.214
REMARK INTER:                  -7.696
REMARK INTRA:                  -2.518
REMARK UNBOUND:                -3.465
REMARK SMILES CCCCCCCCCCCCCCCCCCCCCCCCCCCCCC(=O)[O-]
REMARK SMILES IDX 16 1 17 2 18 3 19 4 20 5 21 6 22 7 23 8 24 9 25 10 26 11
REMARK SMILES IDX 27 12 28 13 29 14 30 15 31 16 32 17 15 18 14 19 13 20 12 21
REMARK SMILES IDX 11 22 10 23 9 24 8 25 7 26 6 27 5 28 4 29 3 30 2 31 1 32
REMARK H PARENT
REMARK Flexibility Score: inf
ROOT
ATOM      1  C   UNL     1      -7.396  -0.902 -23.771  1.00  0.00     0.000 C 
ENDROOT
BRANCH   1   2
ATOM      2  C   UNL     1      -6.238  -0.441 -22.872  1.00  0.00     0.000 C 
BRANCH   2   3
ATOM      3  C   UNL     1      -6.338   1.045 -22.481  1.00  0.00     0.000 C 
BRANCH   3   4
ATOM      4  C   UNL     1      -5.150   1.576 -21.655  1.00  0.00     0.000 C 
BRANCH   4   5
ATOM      5  C   UNL     1      -4.959   3.097 -21.797  1.00  0.00     0.000 C 
BRANCH   5   6
ATOM      6  C   UNL     1      -5.642   3.661 -23.061  1.00  0.00     0.000 C 
BRANCH   6   7
ATOM      7  C   UNL     1      -4.906   4.857 -23.690  1.00  0.00     0.000 C 
BRANCH   7   8
ATOM      8  C   UNL     1      -4.875   4.806 -25.226  1.00  0.00     0.000 C 
BRANCH   8   9
ATOM      9  C   UNL     1      -5.173   3.401 -25.776  1.00  0.00     0.000 C 
BRANCH   9  10
ATOM     10  C   UNL     1      -6.400   3.379 -26.700  1.00  0.00     0.000 C 
BRANCH  10  11
ATOM     11  C   UNL     1      -7.016   1.973 -26.750  1.00  0.00     0.000 C 
BRANCH  11  12
ATOM     12  C   UNL     1      -8.334   1.876 -25.967  1.00  0.00     0.000 C 
BRANCH  12  13
ATOM     13  C   UNL     1      -9.393   1.034 -26.700  1.00  0.00     0.006 C 
BRANCH  13  14
ATOM     14  C   UNL     1      -8.865  -0.356 -27.080  1.00  0.00     0.053 C 
BRANCH  14  15
ATOM     15  C   UNL     1      -9.980  -1.299 -27.408  1.00  0.00     0.041 C 
ATOM     16  O   UNL     1     -11.110  -0.855 -27.742  1.00  0.00    -0.550 OA
ATOM     17  O   UNL     1      -9.764  -2.671 -27.373  1.00  0.00    -0.550 OA
ENDBRANCH  14  15
ENDBRANCH  13  14
ENDBRANCH  12  13
ENDBRANCH  11  12
ENDBRANCH  10  11
ENDBRANCH   9  10
ENDBRANCH   8   9
ENDBRANCH   7   8
ENDBRANCH   6   7
ENDBRANCH   5   6
ENDBRANCH   4   5
ENDBRANCH   3   4
ENDBRANCH   2   3
ENDBRANCH   1   2
BRANCH   1  18
ATOM     18  C   UNL     1      -7.677  -2.401 -23.591  1.00  0.00     0.000 C 
BRANCH  18  19
ATOM     19  C   UNL     1      -7.802  -3.144 -24.930  1.00  0.00     0.000 C 
BRANCH  19  20
ATOM     20  C   UNL     1      -6.541  -3.954 -25.280  1.00  0.00     0.000 C 
BRANCH  20  21
ATOM     21  C   UNL     1      -6.252  -3.989 -26.791  1.00  0.00     0.000 C 
BRANCH  21  22
ATOM     22  C   UNL     1      -5.603  -5.289 -27.299  1.00  0.00     0.000 C 
BRANCH  22  23
ATOM     23  C   UNL     1      -5.533  -6.384 -26.224  1.00  0.00     0.000 C 
BRANCH  23  24
ATOM     24  C   UNL     1      -5.162  -7.738 -26.839  1.00  0.00    -0.000 C 
BRANCH  24  25
ATOM     25  C   UNL     1      -6.012  -8.031 -28.084  1.00  0.00    -0.000 C 
BRANCH  25  26
ATOM     26  C   UNL     1      -7.288  -8.833 -27.764  1.00  0.00    -0.000 C 
BRANCH  26  27
ATOM     27  C   UNL     1      -8.496  -7.988 -27.316  1.00  0.00    -0.000 C 
BRANCH  27  28
ATOM     28  C   UNL     1      -9.802  -8.382 -28.026  1.00  0.00    -0.000 C 
BRANCH  28  29
ATOM     29  C   UNL     1     -10.233  -9.824 -27.711  1.00  0.00    -0.000 C 
BRANCH  29  30
ATOM     30  C   UNL     1     -11.742 -10.047 -27.916  1.00  0.00    -0.000 C 
BRANCH  30  31
ATOM     31  C   UNL     1     -12.243 -11.338 -27.248  1.00  0.00    -0.003 C 
ATOM     32  C   UNL     1     -11.111 -12.301 -26.890  1.00  0.00     0.004 C 
ENDBRANCH  30  31
ENDBRANCH  29  30
ENDBRANCH  28  29
ENDBRANCH  27  28
ENDBRANCH  26  27
ENDBRANCH  25  26
ENDBRANCH  24  25
ENDBRANCH  23  24
ENDBRANCH  22  23
ENDBRANCH  21  22
ENDBRANCH  20  21
ENDBRANCH  19  20
ENDBRANCH  18  19
ENDBRANCH   1  18
TORSDOF 28
ENDMDL
MODEL 9
REMARK VINA RESULT:    -2.521      1.642      2.604
REMARK INTER + INTRA:         -10.112
REMARK INTER:                  -7.160
REMARK INTRA:                  -2.952
REMARK UNBOUND:                -3.465
REMARK SMILES CCCCCCCCCCCCCCCCCCCCCCCCCCCCCC(=O)[O-]
REMARK SMILES IDX 16 1 17 2 18 3 19 4 20 5 21 6 22 7 23 8 24 9 25 10 26 11
REMARK SMILES IDX 27 12 28 13 29 14 30 15 31 16 32 17 15 18 14 19 13 20 12 21
REMARK SMILES IDX 11 22 10 23 9 24 8 25 7 26 6 27 5 28 4 29 3 30 2 31 1 32
REMARK H PARENT
REMARK Flexibility Score: inf
ROOT
ATOM      1  C   UNL     1      -7.846  -2.639 -24.294  1.00  0.00     0.000 C 
ENDROOT
BRANCH   1   2
ATOM      2  C   UNL     1      -7.910  -3.915 -25.146  1.00  0.00     0.000 C 
BRANCH   2   3
ATOM      3  C   UNL     1      -6.870  -3.929 -26.283  1.00  0.00     0.000 C 
BRANCH   3   4
ATOM      4  C   UNL     1      -7.401  -4.442 -27.636  1.00  0.00     0.000 C 
BRANCH   4   5
ATOM      5  C   UNL     1      -7.362  -5.977 -27.747  1.00  0.00     0.000 C 
BRANCH   5   6
ATOM      6  C   UNL     1      -8.661  -6.638 -27.240  1.00  0.00     0.000 C 
BRANCH   6   7
ATOM      7  C   UNL     1      -8.914  -8.044 -27.812  1.00  0.00     0.000 C 
BRANCH   7   8
ATOM      8  C   UNL     1      -7.641  -8.901 -27.888  1.00  0.00     0.000 C 
BRANCH   8   9
ATOM      9  C   UNL     1      -7.945 -10.393 -28.102  1.00  0.00     0.000 C 
BRANCH   9  10
ATOM     10  C   UNL     1      -6.859 -11.306 -27.515  1.00  0.00     0.000 C 
BRANCH  10  11
ATOM     11  C   UNL     1      -7.473 -12.612 -26.990  1.00  0.00     0.000 C 
BRANCH  11  12
ATOM     12  C   UNL     1      -8.691 -13.064 -27.812  1.00  0.00     0.000 C 
BRANCH  12  13
ATOM     13  C   UNL     1      -9.931 -13.314 -26.934  1.00  0.00     0.006 C 
BRANCH  13  14
ATOM     14  C   UNL     1     -11.222 -12.831 -27.608  1.00  0.00     0.053 C 
BRANCH  14  15
ATOM     15  C   UNL     1     -11.618 -11.469 -27.128  1.00  0.00     0.041 C 
ATOM     16  O   UNL     1     -12.596 -10.872 -27.648  1.00  0.00    -0.550 OA
ATOM     17  O   UNL     1     -10.924 -10.870 -26.084  1.00  0.00    -0.550 OA
ENDBRANCH  14  15
ENDBRANCH  13  14
ENDBRANCH  12  13
ENDBRANCH  11  12
ENDBRANCH  10  11
ENDBRANCH   9  10
ENDBRANCH   8   9
ENDBRANCH   7   8
ENDBRANCH   6   7
ENDBRANCH   5   6
ENDBRANCH   4   5
ENDBRANCH   3   4
ENDBRANCH   2   3
ENDBRANCH   1   2
BRANCH   1  18
ATOM     18  C   UNL     1      -6.452  -1.996 -24.358  1.00  0.00     0.000 C 
BRANCH  18  19
ATOM     19  C   UNL     1      -5.927  -1.585 -22.974  1.00  0.00     0.000 C 
BRANCH  19  20
ATOM     20  C   UNL     1      -5.334  -0.165 -22.961  1.00  0.00     0.000 C 
BRANCH  20  21
ATOM     21  C   UNL     1      -6.369   0.912 -22.590  1.00  0.00     0.000 C 
BRANCH  21  22
ATOM     22  C   UNL     1      -5.967   2.353 -22.955  1.00  0.00     0.000 C 
BRANCH  22  23
ATOM     23  C   UNL     1      -5.482   2.490 -24.405  1.00  0.00     0.000 C 
BRANCH  23  24
ATOM     24  C   UNL     1      -6.620   2.221 -25.396  1.00  0.00    -0.000 C 
BRANCH  24  25
ATOM     25  C   UNL     1      -6.165   2.472 -26.841  1.00  0.00    -0.000 C 
BRANCH  25  26
ATOM     26  C   UNL     1      -6.211   1.203 -27.714  1.00  0.00    -0.000 C 
BRANCH  26  27
ATOM     27  C   UNL     1      -7.027   0.036 -27.126  1.00  0.00    -0.000 C 
BRANCH  27  28
ATOM     28  C   UNL     1      -8.118  -0.476 -28.084  1.00  0.00    -0.000 C 
BRANCH  28  29
ATOM     29  C   UNL     1      -9.266  -1.182 -27.345  1.00  0.00    -0.000 C 
BRANCH  29  30
ATOM     30  C   UNL     1     -10.083  -0.218 -26.466  1.00  0.00    -0.000 C 
BRANCH  30  31
ATOM     31  C   UNL     1     -10.029   1.231 -26.973  1.00  0.00    -0.003 C 
ATOM     32  C   UNL     1     -11.003   1.497 -28.121  1.00  0.00     0.004 C 
ENDBRANCH  30  31
ENDBRANCH  29  30
ENDBRANCH  28  29
ENDBRANCH  27  28
ENDBRANCH  26  27
ENDBRANCH  25  26
ENDBRANCH  24  25
ENDBRANCH  23  24
ENDBRANCH  22  23
ENDBRANCH  21  22
ENDBRANCH  20  21
ENDBRANCH  19  20
ENDBRANCH  18  19
ENDBRANCH   1  18
TORSDOF 28
ENDMDL
