MODEL 1
REMARK VINA RESULT:    -5.707      0.000      0.000
REMARK INTER + INTRA:         -14.914
REMARK INTER:                 -12.379
REMARK INTRA:                  -2.535
REMARK UNBOUND:                -2.535
REMARK SMILES CCCCCCCCCCCCCCCCCCCCCC(=O)[O-]
REMARK SMILES IDX 12 1 11 2 10 3 9 4 8 5 7 6 6 7 5 8 4 9 3 10 2 11 1 12 13 13
REMARK SMILES IDX 14 14 15 15 16 16 17 17 18 18 19 19 20 20 21 21 22 22 23 23
REMARK SMILES IDX 24 24
REMARK H PARENT
REMARK Flexibility Score: inf
ROOT
ATOM      1  C   UNL     1      14.807  22.891  17.206  1.00  0.00     0.000 C 
ENDROOT
BRANCH   1   2
ATOM      2  C   UNL     1      14.028  22.596  15.910  1.00  0.00     0.000 C 
BRANCH   2   3
ATOM      3  C   UNL     1      14.886  22.265  14.672  1.00  0.00     0.000 C 
BRANCH   3   4
ATOM      4  C   UNL     1      14.475  20.973  13.936  1.00  0.00    -0.000 C 
BRANCH   4   5
ATOM      5  C   UNL     1      15.063  20.853  12.510  1.00  0.00    -0.000 C 
BRANCH   5   6
ATOM      6  C   UNL     1      16.217  21.836  12.231  1.00  0.00    -0.000 C 
BRANCH   6   7
ATOM      7  C   UNL     1      17.535  21.162  11.808  1.00  0.00    -0.000 C 
BRANCH   7   8
ATOM      8  C   UNL     1      17.395  20.295  10.549  1.00  0.00    -0.000 C 
BRANCH   8   9
ATOM      9  C   UNL     1      17.977  21.010   9.320  1.00  0.00    -0.000 C 
BRANCH   9  10
ATOM     10  C   UNL     1      18.650  20.043   8.328  1.00  0.00    -0.000 C 
BRANCH  10  11
ATOM     11  C   UNL     1      19.475  20.725   7.219  1.00  0.00    -0.003 C 
ATOM     12  C   UNL     1      20.653  19.875   6.741  1.00  0.00     0.004 C 
ENDBRANCH  10  11
ENDBRANCH   9  10
ENDBRANCH   8   9
ENDBRANCH   7   8
ENDBRANCH   6   7
ENDBRANCH   5   6
ENDBRANCH   4   5
ENDBRANCH   3   4
ENDBRANCH   2   3
ENDBRANCH   1   2
BRANCH   1  13
ATOM     13  C   UNL     1      13.962  22.820  18.494  1.00  0.00     0.000 C 
BRANCH  13  14
ATOM     14  C   UNL     1      14.489  21.802  19.528  1.00  0.00     0.000 C 
BRANCH  14  15
ATOM     15  C   UNL     1      14.467  20.342  19.037  1.00  0.00     0.000 C 
BRANCH  15  16
ATOM     16  C   UNL     1      15.746  19.545  19.371  1.00  0.00     0.000 C 
BRANCH  16  17
ATOM     17  C   UNL     1      16.883  19.742  18.353  1.00  0.00     0.000 C 
BRANCH  17  18
ATOM     18  C   UNL     1      16.389  19.674  16.899  1.00  0.00     0.000 C 
BRANCH  18  19
ATOM     19  C   UNL     1      17.524  20.002  15.919  1.00  0.00     0.000 C 
BRANCH  19  20
ATOM     20  C   UNL     1      17.593  19.022  14.737  1.00  0.00     0.006 C 
BRANCH  20  21
ATOM     21  C   UNL     1      19.024  18.810  14.224  1.00  0.00     0.053 C 
BRANCH  21  22
ATOM     22  C   UNL     1      19.903  18.277  15.312  1.00  0.00     0.041 C 
ATOM     23  O   UNL     1      19.733  17.109  15.750  1.00  0.00    -0.550 OA
ATOM     24  O   UNL     1      20.927  19.064  15.828  1.00  0.00    -0.550 OA
ENDBRANCH  21  22
ENDBRANCH  20  21
ENDBRANCH  19  20
ENDBRANCH  18  19
ENDBRANCH  17  18
ENDBRANCH  16  17
ENDBRANCH  15  16
ENDBRANCH  14  15
ENDBRANCH  13  14
ENDBRANCH   1  13
TORSDOF 20
ENDMDL
MODEL 2
REMARK VINA RESULT:    -5.670      2.896      6.805
REMARK INTER + INTRA:         -14.834
REMARK INTER:                 -12.792
REMARK INTRA:                  -2.042
REMARK UNBOUND:                -2.535
REMARK SMILES CCCCCCCCCCCCCCCCCCCCCC(=O)[O-]
REMARK SMILES IDX 12 1 11 2 10 3 9 4 8 5 7 6 6 7 5 8 4 9 3 10 2 11 1 12 13 13
REMARK SMILES IDX 14 14 15 15 16 16 17 17 18 18 19 19 20 20 21 21 22 22 23 23
REMARK SMILES IDX 24 24
REMARK H PARENT
REMARK Flexibility Score: inf
ROOT
ATOM      1  C   UNL     1      15.117  22.555  16.925  1.00  0.00     0.000 C 
ENDROOT
BRANCH   1   2
ATOM      2  C   UNL     1      14.045  22.560  18.031  1.00  0.00     0.000 C 
BRANCH   2   3
ATOM      3  C   UNL     1      14.524  22.130  19.433  1.00  0.00     0.000 C 
BRANCH   3   4
ATOM      4  C   UNL     1      14.384  20.621  19.721  1.00  0.00    -0.000 C 
BRANCH   4   5
ATOM      5  C   UNL     1      15.721  19.927  20.077  1.00  0.00    -0.000 C 
BRANCH   5   6
ATOM      6  C   UNL     1      16.511  19.439  18.846  1.00  0.00    -0.000 C 
BRANCH   6   7
ATOM      7  C   UNL     1      15.797  18.348  18.028  1.00  0.00    -0.000 C 
BRANCH   7   8
ATOM      8  C   UNL     1      16.477  18.055  16.684  1.00  0.00    -0.000 C 
BRANCH   8   9
ATOM      9  C   UNL     1      17.655  19.010  16.442  1.00  0.00    -0.000 C 
BRANCH   9  10
ATOM     10  C   UNL     1      17.697  19.557  15.002  1.00  0.00    -0.000 C 
BRANCH  10  11
ATOM     11  C   UNL     1      18.694  18.844  14.069  1.00  0.00    -0.003 C 
ATOM     12  C   UNL     1      19.800  18.106  14.825  1.00  0.00     0.004 C 
ENDBRANCH  10  11
ENDBRANCH   9  10
ENDBRANCH   8   9
ENDBRANCH   7   8
ENDBRANCH   6   7
ENDBRANCH   5   6
ENDBRANCH   4   5
ENDBRANCH   3   4
ENDBRANCH   2   3
ENDBRANCH   1   2
BRANCH   1  13
ATOM     13  C   UNL     1      14.876  21.526  15.802  1.00  0.00     0.000 C 
BRANCH  13  14
ATOM     14  C   UNL     1      14.693  22.161  14.406  1.00  0.00     0.000 C 
BRANCH  14  15
ATOM     15  C   UNL     1      14.857  21.167  13.240  1.00  0.00     0.000 C 
BRANCH  15  16
ATOM     16  C   UNL     1      15.785  21.666  12.112  1.00  0.00     0.000 C 
BRANCH  16  17
ATOM     17  C   UNL     1      16.722  20.580  11.553  1.00  0.00     0.000 C 
BRANCH  17  18
ATOM     18  C   UNL     1      17.667  21.121  10.468  1.00  0.00     0.000 C 
BRANCH  18  19
ATOM     19  C   UNL     1      17.662  20.210   9.233  1.00  0.00     0.000 C 
BRANCH  19  20
ATOM     20  C   UNL     1      18.466  20.793   8.059  1.00  0.00     0.006 C 
BRANCH  20  21
ATOM     21  C   UNL     1      19.468  19.791   7.470  1.00  0.00     0.053 C 
BRANCH  21  22
ATOM     22  C   UNL     1      20.613  20.504   6.822  1.00  0.00     0.041 C 
ATOM     23  O   UNL     1      21.633  19.864   6.453  1.00  0.00    -0.550 OA
ATOM     24  O   UNL     1      20.546  21.876   6.606  1.00  0.00    -0.550 OA
ENDBRANCH  21  22
ENDBRANCH  20  21
ENDBRANCH  19  20
ENDBRANCH  18  19
ENDBRANCH  17  18
ENDBRANCH  16  17
ENDBRANCH  15  16
ENDBRANCH  14  15
ENDBRANCH  13  14
ENDBRANCH   1  13
TORSDOF 20
ENDMDL
MODEL 3
REMARK VINA RESULT:    -5.636      9.251     15.150
REMARK INTER + INTRA:         -14.760
REMARK INTER:                 -12.516
REMARK INTRA:                  -2.244
REMARK UNBOUND:                -2.535
REMARK SMILES CCCCCCCCCCCCCCCCCCCCCC(=O)[O-]
REMARK SMILES IDX 12 1 11 2 10 3 9 4 8 5 7 6 6 7 5 8 4 9 3 10 2 11 1 12 13 13
REMARK SMILES IDX 14 14 15 15 16 16 17 17 18 18 19 19 20 20 21 21 22 22 23 23
REMARK SMILES IDX 24 24
REMARK H PARENT
REMARK Flexibility Score: inf
ROOT
ATOM      1  C   UNL     1      30.798  16.905   6.349  1.00  0.00     0.000 C 
ENDROOT
BRANCH   1   2
ATOM      2  C   UNL     1      31.291  17.704   7.570  1.00  0.00     0.000 C 
BRANCH   2   3
ATOM      3  C   UNL     1      31.578  19.200   7.321  1.00  0.00     0.000 C 
BRANCH   3   4
ATOM      4  C   UNL     1      30.376  20.132   7.575  1.00  0.00    -0.000 C 
BRANCH   4   5
ATOM      5  C   UNL     1      29.519  19.726   8.798  1.00  0.00    -0.000 C 
BRANCH   5   6
ATOM      6  C   UNL     1      29.983  20.367  10.120  1.00  0.00    -0.000 C 
BRANCH   6   7
ATOM      7  C   UNL     1      30.396  19.355  11.204  1.00  0.00    -0.000 C 
BRANCH   7   8
ATOM      8  C   UNL     1      31.833  19.554  11.705  1.00  0.00    -0.000 C 
BRANCH   8   9
ATOM      9  C   UNL     1      32.839  19.458  10.549  1.00  0.00    -0.000 C 
BRANCH   9  10
ATOM     10  C   UNL     1      33.958  20.513  10.639  1.00  0.00    -0.000 C 
BRANCH  10  11
ATOM     11  C   UNL     1      33.547  21.930  10.197  1.00  0.00    -0.003 C 
ATOM     12  C   UNL     1      33.373  22.059   8.683  1.00  0.00     0.004 C 
ENDBRANCH  10  11
ENDBRANCH   9  10
ENDBRANCH   8   9
ENDBRANCH   7   8
ENDBRANCH   6   7
ENDBRANCH   5   6
ENDBRANCH   4   5
ENDBRANCH   3   4
ENDBRANCH   2   3
ENDBRANCH   1   2
BRANCH   1  13
ATOM     13  C   UNL     1      29.277  16.658   6.314  1.00  0.00     0.000 C 
BRANCH  13  14
ATOM     14  C   UNL     1      28.526  17.548   5.299  1.00  0.00     0.000 C 
BRANCH  14  15
ATOM     15  C   UNL     1      27.454  18.455   5.935  1.00  0.00     0.000 C 
BRANCH  15  16
ATOM     16  C   UNL     1      26.069  17.790   6.077  1.00  0.00     0.000 C 
BRANCH  16  17
ATOM     17  C   UNL     1      24.907  18.659   5.564  1.00  0.00     0.000 C 
BRANCH  17  18
ATOM     18  C   UNL     1      23.708  17.820   5.095  1.00  0.00     0.000 C 
BRANCH  18  19
ATOM     19  C   UNL     1      22.540  17.933   6.084  1.00  0.00     0.000 C 
BRANCH  19  20
ATOM     20  C   UNL     1      21.951  19.352   6.150  1.00  0.00     0.006 C 
BRANCH  20  21
ATOM     21  C   UNL     1      20.536  19.379   6.745  1.00  0.00     0.053 C 
BRANCH  21  22
ATOM     22  C   UNL     1      20.092  20.787   6.993  1.00  0.00     0.041 C 
ATOM     23  O   UNL     1      20.772  21.753   6.558  1.00  0.00    -0.550 OA
ATOM     24  O   UNL     1      18.914  21.033   7.690  1.00  0.00    -0.550 OA
ENDBRANCH  21  22
ENDBRANCH  20  21
ENDBRANCH  19  20
ENDBRANCH  18  19
ENDBRANCH  17  18
ENDBRANCH  16  17
ENDBRANCH  15  16
ENDBRANCH  14  15
ENDBRANCH  13  14
ENDBRANCH   1  13
TORSDOF 20
ENDMDL
MODEL 4
REMARK VINA RESULT:    -5.628     10.099     15.039
REMARK INTER + INTRA:         -14.744
REMARK INTER:                 -12.088
REMARK INTRA:                  -2.656
REMARK UNBOUND:                -2.535
REMARK SMILES CCCCCCCCCCCCCCCCCCCCCC(=O)[O-]
REMARK SMILES IDX 12 1 11 2 10 3 9 4 8 5 7 6 6 7 5 8 4 9 3 10 2 11 1 12 13 13
REMARK SMILES IDX 14 14 15 15 16 16 17 17 18 18 19 19 20 20 21 21 22 22 23 23
REMARK SMILES IDX 24 24
REMARK H PARENT
REMARK Flexibility Score: inf
ROOT
ATOM      1  C   UNL     1      27.931  17.948   5.793  1.00  0.00     0.000 C 
ENDROOT
BRANCH   1   2
ATOM      2  C   UNL     1      29.310  17.268   5.875  1.00  0.00     0.000 C 
BRANCH   2   3
ATOM      3  C   UNL     1      30.521  18.161   5.533  1.00  0.00     0.000 C 
BRANCH   3   4
ATOM      4  C   UNL     1      31.556  18.295   6.667  1.00  0.00    -0.000 C 
BRANCH   4   5
ATOM      5  C   UNL     1      31.512  17.138   7.693  1.00  0.00    -0.000 C 
BRANCH   5   6
ATOM      6  C   UNL     1      32.810  16.986   8.511  1.00  0.00    -0.000 C 
BRANCH   6   7
ATOM      7  C   UNL     1      33.278  18.281   9.201  1.00  0.00    -0.000 C 
BRANCH   7   8
ATOM      8  C   UNL     1      32.329  18.755  10.310  1.00  0.00    -0.000 C 
BRANCH   8   9
ATOM      9  C   UNL     1      33.061  19.659  11.313  1.00  0.00    -0.000 C 
BRANCH   9  10
ATOM     10  C   UNL     1      33.702  20.893  10.650  1.00  0.00    -0.000 C 
BRANCH  10  11
ATOM     11  C   UNL     1      32.700  21.940  10.128  1.00  0.00    -0.003 C 
ATOM     12  C   UNL     1      32.765  22.127   8.612  1.00  0.00     0.004 C 
ENDBRANCH  10  11
ENDBRANCH   9  10
ENDBRANCH   8   9
ENDBRANCH   7   8
ENDBRANCH   6   7
ENDBRANCH   5   6
ENDBRANCH   4   5
ENDBRANCH   3   4
ENDBRANCH   2   3
ENDBRANCH   1   2
BRANCH   1  13
ATOM     13  C   UNL     1      27.418  18.524   7.129  1.00  0.00     0.000 C 
BRANCH  13  14
ATOM     14  C   UNL     1      28.155  19.806   7.577  1.00  0.00     0.000 C 
BRANCH  14  15
ATOM     15  C   UNL     1      28.964  19.640   8.877  1.00  0.00     0.000 C 
BRANCH  15  16
ATOM     16  C   UNL     1      29.352  20.973   9.552  1.00  0.00     0.000 C 
BRANCH  16  17
ATOM     17  C   UNL     1      29.041  21.020  11.059  1.00  0.00     0.000 C 
BRANCH  17  18
ATOM     18  C   UNL     1      29.284  19.669  11.751  1.00  0.00     0.000 C 
BRANCH  18  19
ATOM     19  C   UNL     1      28.623  19.636  13.136  1.00  0.00     0.000 C 
BRANCH  19  20
ATOM     20  C   UNL     1      28.031  20.995  13.546  1.00  0.00     0.006 C 
BRANCH  20  21
ATOM     21  C   UNL     1      26.737  20.857  14.359  1.00  0.00     0.053 C 
BRANCH  21  22
ATOM     22  C   UNL     1      26.090  22.192  14.557  1.00  0.00     0.041 C 
ATOM     23  O   UNL     1      24.845  22.321  14.413  1.00  0.00    -0.550 OA
ATOM     24  O   UNL     1      26.858  23.292  14.920  1.00  0.00    -0.550 OA
ENDBRANCH  21  22
ENDBRANCH  20  21
ENDBRANCH  19  20
ENDBRANCH  18  19
ENDBRANCH  17  18
ENDBRANCH  16  17
ENDBRANCH  15  16
ENDBRANCH  14  15
ENDBRANCH  13  14
ENDBRANCH   1  13
TORSDOF 20
ENDMDL
MODEL 5
REMARK VINA RESULT:    -5.591      1.234      2.018
REMARK INTER + INTRA:         -14.663
REMARK INTER:                 -12.697
REMARK INTRA:                  -1.967
REMARK UNBOUND:                -2.535
REMARK SMILES CCCCCCCCCCCCCCCCCCCCCC(=O)[O-]
REMARK SMILES IDX 12 1 11 2 10 3 9 4 8 5 7 6 6 7 5 8 4 9 3 10 2 11 1 12 13 13
REMARK SMILES IDX 14 14 15 15 16 16 17 17 18 18 19 19 20 20 21 21 22 22 23 23
REMARK SMILES IDX 24 24
REMARK H PARENT
REMARK Flexibility Score: inf
ROOT
ATOM      1  C   UNL     1      15.690  22.114  16.407  1.00  0.00     0.000 C 
ENDROOT
BRANCH   1   2
ATOM      2  C   UNL     1      15.465  22.304  14.896  1.00  0.00     0.000 C 
BRANCH   2   3
ATOM      3  C   UNL     1      14.639  21.204  14.196  1.00  0.00     0.000 C 
BRANCH   3   4
ATOM      4  C   UNL     1      14.993  20.988  12.711  1.00  0.00    -0.000 C 
BRANCH   4   5
ATOM      5  C   UNL     1      16.511  21.047  12.416  1.00  0.00    -0.000 C 
BRANCH   5   6
ATOM      6  C   UNL     1      16.961  20.092  11.292  1.00  0.00    -0.000 C 
BRANCH   6   7
ATOM      7  C   UNL     1      17.740  20.778  10.154  1.00  0.00    -0.000 C 
BRANCH   7   8
ATOM      8  C   UNL     1      17.885  19.901   8.903  1.00  0.00    -0.000 C 
BRANCH   8   9
ATOM      9  C   UNL     1      18.654  20.639   7.798  1.00  0.00    -0.000 C 
BRANCH   9  10
ATOM     10  C   UNL     1      19.835  19.823   7.241  1.00  0.00    -0.000 C 
BRANCH  10  11
ATOM     11  C   UNL     1      21.035  20.663   6.766  1.00  0.00    -0.003 C 
ATOM     12  C   UNL     1      20.677  22.127   6.506  1.00  0.00     0.004 C 
ENDBRANCH  10  11
ENDBRANCH   9  10
ENDBRANCH   8   9
ENDBRANCH   7   8
ENDBRANCH   6   7
ENDBRANCH   5   6
ENDBRANCH   4   5
ENDBRANCH   3   4
ENDBRANCH   2   3
ENDBRANCH   1   2
BRANCH   1  13
ATOM     13  C   UNL     1      14.973  23.148  17.298  1.00  0.00     0.000 C 
BRANCH  13  14
ATOM     14  C   UNL     1      13.992  22.521  18.313  1.00  0.00     0.000 C 
BRANCH  14  15
ATOM     15  C   UNL     1      13.875  20.988  18.205  1.00  0.00     0.000 C 
BRANCH  15  16
ATOM     16  C   UNL     1      14.181  20.239  19.520  1.00  0.00     0.000 C 
BRANCH  16  17
ATOM     17  C   UNL     1      15.647  20.355  19.974  1.00  0.00     0.000 C 
BRANCH  17  18
ATOM     18  C   UNL     1      16.628  19.759  18.952  1.00  0.00     0.000 C 
BRANCH  18  19
ATOM     19  C   UNL     1      16.277  18.296  18.645  1.00  0.00     0.000 C 
BRANCH  19  20
ATOM     20  C   UNL     1      17.001  17.759  17.400  1.00  0.00     0.006 C 
BRANCH  20  21
ATOM     21  C   UNL     1      16.807  18.653  16.168  1.00  0.00     0.053 C 
BRANCH  21  22
ATOM     22  C   UNL     1      18.125  19.138  15.651  1.00  0.00     0.041 C 
ATOM     23  O   UNL     1      18.398  19.047  14.425  1.00  0.00    -0.550 OA
ATOM     24  O   UNL     1      19.046  19.711  16.520  1.00  0.00    -0.550 OA
ENDBRANCH  21  22
ENDBRANCH  20  21
ENDBRANCH  19  20
ENDBRANCH  18  19
ENDBRANCH  17  18
ENDBRANCH  16  17
ENDBRANCH  15  16
ENDBRANCH  14  15
ENDBRANCH  13  14
ENDBRANCH   1  13
TORSDOF 20
ENDMDL
MODEL 6
REMARK VINA RESULT:    -5.577      2.904      7.604
REMARK INTER + INTRA:         -14.633
REMARK INTER:                 -12.747
REMARK INTRA:                  -1.886
REMARK UNBOUND:                -2.535
REMARK SMILES CCCCCCCCCCCCCCCCCCCCCC(=O)[O-]
REMARK SMILES IDX 12 1 11 2 10 3 9 4 8 5 7 6 6 7 5 8 4 9 3 10 2 11 1 12 13 13
REMARK SMILES IDX 14 14 15 15 16 16 17 17 18 18 19 19 20 20 21 21 22 22 23 23
REMARK SMILES IDX 24 24
REMARK H PARENT
REMARK Flexibility Score: inf
ROOT
ATOM      1  C   UNL     1      18.118  17.345  16.766  1.00  0.00     0.000 C 
ENDROOT
BRANCH   1   2
ATOM      2  C   UNL     1      16.844  17.670  17.569  1.00  0.00     0.000 C 
BRANCH   2   3
ATOM      3  C   UNL     1      16.835  19.034  18.291  1.00  0.00     0.000 C 
BRANCH   3   4
ATOM      4  C   UNL     1      15.800  19.147  19.429  1.00  0.00    -0.000 C 
BRANCH   4   5
ATOM      5  C   UNL     1      15.986  20.401  20.317  1.00  0.00    -0.000 C 
BRANCH   5   6
ATOM      6  C   UNL     1      14.728  21.289  20.405  1.00  0.00    -0.000 C 
BRANCH   6   7
ATOM      7  C   UNL     1      14.040  21.546  19.052  1.00  0.00    -0.000 C 
BRANCH   7   8
ATOM      8  C   UNL     1      14.543  22.812  18.346  1.00  0.00    -0.000 C 
BRANCH   8   9
ATOM      9  C   UNL     1      14.451  22.665  16.820  1.00  0.00    -0.000 C 
BRANCH   9  10
ATOM     10  C   UNL     1      14.558  21.202  16.351  1.00  0.00    -0.000 C 
BRANCH  10  11
ATOM     11  C   UNL     1      15.080  21.020  14.914  1.00  0.00    -0.003 C 
ATOM     12  C   UNL     1      14.844  22.246  14.030  1.00  0.00     0.004 C 
ENDBRANCH  10  11
ENDBRANCH   9  10
ENDBRANCH   8   9
ENDBRANCH   7   8
ENDBRANCH   6   7
ENDBRANCH   5   6
ENDBRANCH   4   5
ENDBRANCH   3   4
ENDBRANCH   2   3
ENDBRANCH   1   2
BRANCH   1  13
ATOM     13  C   UNL     1      19.125  18.508  16.662  1.00  0.00     0.000 C 
BRANCH  13  14
ATOM     14  C   UNL     1      19.474  18.899  15.209  1.00  0.00     0.000 C 
BRANCH  14  15
ATOM     15  C   UNL     1      18.310  19.551  14.439  1.00  0.00     0.000 C 
BRANCH  15  16
ATOM     16  C   UNL     1      18.517  19.607  12.911  1.00  0.00     0.000 C 
BRANCH  16  17
ATOM     17  C   UNL     1      17.465  20.453  12.172  1.00  0.00     0.000 C 
BRANCH  17  18
ATOM     18  C   UNL     1      17.178  19.927  10.756  1.00  0.00     0.000 C 
BRANCH  18  19
ATOM     19  C   UNL     1      17.936  20.747   9.703  1.00  0.00     0.000 C 
BRANCH  19  20
ATOM     20  C   UNL     1      18.289  19.928   8.451  1.00  0.00     0.006 C 
BRANCH  20  21
ATOM     21  C   UNL     1      18.656  20.810   7.249  1.00  0.00     0.053 C 
BRANCH  21  22
ATOM     22  C   UNL     1      20.097  20.638   6.885  1.00  0.00     0.041 C 
ATOM     23  O   UNL     1      20.586  19.485   6.755  1.00  0.00    -0.550 OA
ATOM     24  O   UNL     1      20.898  21.754   6.667  1.00  0.00    -0.550 OA
ENDBRANCH  21  22
ENDBRANCH  20  21
ENDBRANCH  19  20
ENDBRANCH  18  19
ENDBRANCH  17  18
ENDBRANCH  16  17
ENDBRANCH  15  16
ENDBRANCH  14  15
ENDBRANCH  13  14
ENDBRANCH   1  13
TORSDOF 20
ENDMDL
MODEL 7
REMARK VINA RESULT:    -5.538      4.616      9.452
REMARK INTER + INTRA:         -14.549
REMARK INTER:                 -13.826
REMARK INTRA:                  -0.722
REMARK UNBOUND:                -2.535
REMARK SMILES CCCCCCCCCCCCCCCCCCCCCC(=O)[O-]
REMARK SMILES IDX 12 1 11 2 10 3 9 4 8 5 7 6 6 7 5 8 4 9 3 10 2 11 1 12 13 13
REMARK SMILES IDX 14 14 15 15 16 16 17 17 18 18 19 19 20 20 21 21 22 22 23 23
REMARK SMILES IDX 24 24
REMARK H PARENT
REMARK Flexibility Score: inf
ROOT
ATOM      1  C   UNL     1      20.211  20.769   7.107  1.00  0.00     0.000 C 
ENDROOT
BRANCH   1   2
ATOM      2  C   UNL     1      20.586  19.309   6.789  1.00  0.00     0.000 C 
BRANCH   2   3
ATOM      3  C   UNL     1      21.974  19.096   6.151  1.00  0.00     0.000 C 
BRANCH   3   4
ATOM      4  C   UNL     1      22.398  17.619   6.022  1.00  0.00    -0.000 C 
BRANCH   4   5
ATOM      5  C   UNL     1      23.670  17.407   5.167  1.00  0.00    -0.000 C 
BRANCH   5   6
ATOM      6  C   UNL     1      24.727  18.514   5.344  1.00  0.00    -0.000 C 
BRANCH   6   7
ATOM      7  C   UNL     1      26.025  18.046   6.027  1.00  0.00    -0.000 C 
BRANCH   7   8
ATOM      8  C   UNL     1      26.980  19.197   6.371  1.00  0.00    -0.000 C 
BRANCH   8   9
ATOM      9  C   UNL     1      27.999  18.769   7.437  1.00  0.00    -0.000 C 
BRANCH   9  10
ATOM     10  C   UNL     1      29.419  18.584   6.868  1.00  0.00    -0.000 C 
BRANCH  10  11
ATOM     11  C   UNL     1      29.549  17.481   5.802  1.00  0.00    -0.003 C 
ATOM     12  C   UNL     1      30.488  16.349   6.222  1.00  0.00     0.004 C 
ENDBRANCH  10  11
ENDBRANCH   9  10
ENDBRANCH   8   9
ENDBRANCH   7   8
ENDBRANCH   6   7
ENDBRANCH   5   6
ENDBRANCH   4   5
ENDBRANCH   3   4
ENDBRANCH   2   3
ENDBRANCH   1   2
BRANCH   1  13
ATOM     13  C   UNL     1      18.733  20.984   7.488  1.00  0.00     0.000 C 
BRANCH  13  14
ATOM     14  C   UNL     1      18.280  20.159   8.712  1.00  0.00     0.000 C 
BRANCH  14  15
ATOM     15  C   UNL     1      17.949  21.011   9.953  1.00  0.00     0.000 C 
BRANCH  15  16
ATOM     16  C   UNL     1      16.893  20.382  10.886  1.00  0.00     0.000 C 
BRANCH  16  17
ATOM     17  C   UNL     1      15.784  21.360  11.317  1.00  0.00     0.000 C 
BRANCH  17  18
ATOM     18  C   UNL     1      15.316  21.118  12.761  1.00  0.00     0.000 C 
BRANCH  18  19
ATOM     19  C   UNL     1      15.328  22.424  13.567  1.00  0.00     0.000 C 
BRANCH  19  20
ATOM     20  C   UNL     1      14.953  22.216  15.043  1.00  0.00     0.006 C 
BRANCH  20  21
ATOM     21  C   UNL     1      16.103  21.626  15.870  1.00  0.00     0.053 C 
BRANCH  21  22
ATOM     22  C   UNL     1      15.778  20.234  16.313  1.00  0.00     0.041 C 
ATOM     23  O   UNL     1      14.895  20.036  17.189  1.00  0.00    -0.550 OA
ATOM     24  O   UNL     1      16.437  19.150  15.742  1.00  0.00    -0.550 OA
ENDBRANCH  21  22
ENDBRANCH  20  21
ENDBRANCH  19  20
ENDBRANCH  18  19
ENDBRANCH  17  18
ENDBRANCH  16  17
ENDBRANCH  15  16
ENDBRANCH  14  15
ENDBRANCH  13  14
ENDBRANCH   1  13
TORSDOF 20
ENDMDL
MODEL 8
REMARK VINA RESULT:    -5.499      3.181      7.710
REMARK INTER + INTRA:         -14.462
REMARK INTER:                 -12.679
REMARK INTRA:                  -1.783
REMARK UNBOUND:                -2.535
REMARK SMILES CCCCCCCCCCCCCCCCCCCCCC(=O)[O-]
REMARK SMILES IDX 12 1 11 2 10 3 9 4 8 5 7 6 6 7 5 8 4 9 3 10 2 11 1 12 13 13
REMARK SMILES IDX 14 14 15 15 16 16 17 17 18 18 19 19 20 20 21 21 22 22 23 23
REMARK SMILES IDX 24 24
REMARK H PARENT
REMARK Flexibility Score: inf
ROOT
ATOM      1  C   UNL     1      15.383  22.553  13.439  1.00  0.00     0.000 C 
ENDROOT
BRANCH   1   2
ATOM      2  C   UNL     1      14.467  22.089  14.587  1.00  0.00     0.000 C 
BRANCH   2   3
ATOM      3  C   UNL     1      14.961  22.410  16.012  1.00  0.00     0.000 C 
BRANCH   3   4
ATOM      4  C   UNL     1      15.998  21.414  16.569  1.00  0.00    -0.000 C 
BRANCH   4   5
ATOM      5  C   UNL     1      15.387  20.068  17.027  1.00  0.00    -0.000 C 
BRANCH   5   6
ATOM      6  C   UNL     1      15.907  19.586  18.396  1.00  0.00    -0.000 C 
BRANCH   6   7
ATOM      7  C   UNL     1      16.659  18.243  18.350  1.00  0.00    -0.000 C 
BRANCH   7   8
ATOM      8  C   UNL     1      16.848  17.701  16.927  1.00  0.00    -0.000 C 
BRANCH   8   9
ATOM      9  C   UNL     1      18.331  17.708  16.527  1.00  0.00    -0.000 C 
BRANCH   9  10
ATOM     10  C   UNL     1      18.848  19.114  16.168  1.00  0.00    -0.000 C 
BRANCH  10  11
ATOM     11  C   UNL     1      18.686  19.505  14.687  1.00  0.00    -0.003 C 
ATOM     12  C   UNL     1      19.111  18.395  13.725  1.00  0.00     0.004 C 
ENDBRANCH  10  11
ENDBRANCH   9  10
ENDBRANCH   8   9
ENDBRANCH   7   8
ENDBRANCH   6   7
ENDBRANCH   5   6
ENDBRANCH   4   5
ENDBRANCH   3   4
ENDBRANCH   2   3
ENDBRANCH   1   2
BRANCH   1  13
ATOM     13  C   UNL     1      16.245  21.438  12.814  1.00  0.00     0.000 C 
BRANCH  13  14
ATOM     14  C   UNL     1      16.107  21.331  11.280  1.00  0.00     0.000 C 
BRANCH  14  15
ATOM     15  C   UNL     1      17.444  21.121  10.544  1.00  0.00     0.000 C 
BRANCH  15  16
ATOM     16  C   UNL     1      17.615  19.712   9.937  1.00  0.00     0.000 C 
BRANCH  16  17
ATOM     17  C   UNL     1      18.107  19.719   8.479  1.00  0.00     0.000 C 
BRANCH  17  18
ATOM     18  C   UNL     1      18.766  21.051   8.088  1.00  0.00     0.000 C 
BRANCH  18  19
ATOM     19  C   UNL     1      19.705  20.866   6.888  1.00  0.00     0.000 C 
BRANCH  19  20
ATOM     20  C   UNL     1      20.426  19.508   6.899  1.00  0.00     0.006 C 
BRANCH  20  21
ATOM     21  C   UNL     1      21.758  19.537   6.138  1.00  0.00     0.053 C 
BRANCH  21  22
ATOM     22  C   UNL     1      22.336  18.161   6.025  1.00  0.00     0.041 C 
ATOM     23  O   UNL     1      21.732  17.177   6.528  1.00  0.00    -0.550 OA
ATOM     24  O   UNL     1      23.532  17.961   5.345  1.00  0.00    -0.550 OA
ENDBRANCH  21  22
ENDBRANCH  20  21
ENDBRANCH  19  20
ENDBRANCH  18  19
ENDBRANCH  17  18
ENDBRANCH  16  17
ENDBRANCH  15  16
ENDBRANCH  14  15
ENDBRANCH  13  14
ENDBRANCH   1  13
TORSDOF 20
ENDMDL
MODEL 9
REMARK VINA RESULT:    -5.445      5.063     10.377
REMARK INTER + INTRA:         -14.346
REMARK INTER:                 -13.305
REMARK INTRA:                  -1.041
REMARK UNBOUND:                -2.535
REMARK SMILES CCCCCCCCCCCCCCCCCCCCCC(=O)[O-]
REMARK SMILES IDX 12 1 11 2 10 3 9 4 8 5 7 6 6 7 5 8 4 9 3 10 2 11 1 12 13 13
REMARK SMILES IDX 14 14 15 15 16 16 17 17 18 18 19 19 20 20 21 21 22 22 23 23
REMARK SMILES IDX 24 24
REMARK H PARENT
REMARK Flexibility Score: inf
ROOT
ATOM      1  C   UNL     1      20.809  19.323   6.559  1.00  0.00     0.000 C 
ENDROOT
BRANCH   1   2
ATOM      2  C   UNL     1      22.296  19.150   6.195  1.00  0.00     0.000 C 
BRANCH   2   3
ATOM      3  C   UNL     1      22.658  17.846   5.454  1.00  0.00     0.000 C 
BRANCH   3   4
ATOM      4  C   UNL     1      24.168  17.646   5.214  1.00  0.00    -0.000 C 
BRANCH   4   5
ATOM      5  C   UNL     1      25.049  18.769   5.812  1.00  0.00    -0.000 C 
BRANCH   5   6
ATOM      6  C   UNL     1      26.549  18.619   5.488  1.00  0.00    -0.000 C 
BRANCH   6   7
ATOM      7  C   UNL     1      27.263  17.521   6.297  1.00  0.00    -0.000 C 
BRANCH   7   8
ATOM      8  C   UNL     1      28.632  17.136   5.720  1.00  0.00    -0.000 C 
BRANCH   8   9
ATOM      9  C   UNL     1      29.758  17.448   6.717  1.00  0.00    -0.000 C 
BRANCH   9  10
ATOM     10  C   UNL     1      30.070  18.953   6.817  1.00  0.00    -0.000 C 
BRANCH  10  11
ATOM     11  C   UNL     1      29.960  19.543   8.235  1.00  0.00    -0.003 C 
ATOM     12  C   UNL     1      28.555  20.051   8.565  1.00  0.00     0.004 C 
ENDBRANCH  10  11
ENDBRANCH   9  10
ENDBRANCH   8   9
ENDBRANCH   7   8
ENDBRANCH   6   7
ENDBRANCH   5   6
ENDBRANCH   4   5
ENDBRANCH   3   4
ENDBRANCH   2   3
ENDBRANCH   1   2
BRANCH   1  13
ATOM     13  C   UNL     1      20.392  20.772   6.884  1.00  0.00     0.000 C 
BRANCH  13  14
ATOM     14  C   UNL     1      18.895  20.925   7.231  1.00  0.00     0.000 C 
BRANCH  14  15
ATOM     15  C   UNL     1      18.423  20.015   8.381  1.00  0.00     0.000 C 
BRANCH  15  16
ATOM     16  C   UNL     1      17.977  20.778   9.646  1.00  0.00     0.000 C 
BRANCH  16  17
ATOM     17  C   UNL     1      17.229  19.903  10.669  1.00  0.00     0.000 C 
BRANCH  17  18
ATOM     18  C   UNL     1      17.101  20.582  12.041  1.00  0.00     0.000 C 
BRANCH  18  19
ATOM     19  C   UNL     1      15.913  21.554  12.063  1.00  0.00     0.000 C 
BRANCH  19  20
ATOM     20  C   UNL     1      14.963  21.307  13.247  1.00  0.00     0.006 C 
BRANCH  20  21
ATOM     21  C   UNL     1      15.155  22.321  14.383  1.00  0.00     0.053 C 
BRANCH  21  22
ATOM     22  C   UNL     1      15.679  21.647  15.613  1.00  0.00     0.041 C 
ATOM     23  O   UNL     1      15.101  21.809  16.720  1.00  0.00    -0.550 OA
ATOM     24  O   UNL     1      16.795  20.822  15.533  1.00  0.00    -0.550 OA
ENDBRANCH  21  22
ENDBRANCH  20  21
ENDBRANCH  19  20
ENDBRANCH  18  19
ENDBRANCH  17  18
ENDBRANCH  16  17
ENDBRANCH  15  16
ENDBRANCH  14  15
ENDBRANCH  13  14
ENDBRANCH   1  13
TORSDOF 20
ENDMDL
