MODEL 1
REMARK VINA RESULT:    -6.647      0.000      0.000
REMARK INTER + INTRA:         -19.732
REMARK INTER:                 -17.528
REMARK INTRA:                  -2.203
REMARK UNBOUND:                -2.203
REMARK SMILES CCCCCCCCCCCCCCCCCCCCCCCCCCCCCC(=O)[O-]
REMARK SMILES IDX 16 1 17 2 18 3 19 4 20 5 21 6 22 7 23 8 24 9 25 10 26 11
REMARK SMILES IDX 27 12 28 13 29 14 30 15 31 16 32 17 15 18 14 19 13 20 12 21
REMARK SMILES IDX 11 22 10 23 9 24 8 25 7 26 6 27 5 28 4 29 3 30 2 31 1 32
REMARK H PARENT
REMARK Flexibility Score: inf
ROOT
ATOM      1  C   UNL     1      17.398  -0.743  11.118  1.00  0.00     0.000 C 
ENDROOT
BRANCH   1   2
ATOM      2  C   UNL     1      17.367  -1.362   9.713  1.00  0.00     0.000 C 
BRANCH   2   3
ATOM      3  C   UNL     1      18.092  -0.463   8.698  1.00  0.00     0.000 C 
BRANCH   3   4
ATOM      4  C   UNL     1      18.867  -1.261   7.637  1.00  0.00     0.000 C 
BRANCH   4   5
ATOM      5  C   UNL     1      20.249  -0.688   7.262  1.00  0.00     0.000 C 
BRANCH   5   6
ATOM      6  C   UNL     1      20.918  -1.388   6.061  1.00  0.00     0.000 C 
BRANCH   6   7
ATOM      7  C   UNL     1      21.875  -2.516   6.485  1.00  0.00     0.000 C 
BRANCH   7   8
ATOM      8  C   UNL     1      22.805  -2.970   5.350  1.00  0.00     0.000 C 
BRANCH   8   9
ATOM      9  C   UNL     1      24.182  -2.288   5.398  1.00  0.00     0.000 C 
BRANCH   9  10
ATOM     10  C   UNL     1      25.095  -2.977   6.425  1.00  0.00     0.000 C 
BRANCH  10  11
ATOM     11  C   UNL     1      26.579  -2.604   6.252  1.00  0.00     0.000 C 
BRANCH  11  12
ATOM     12  C   UNL     1      27.572  -3.744   6.551  1.00  0.00     0.000 C 
BRANCH  12  13
ATOM     13  C   UNL     1      28.865  -3.646   5.719  1.00  0.00     0.006 C 
BRANCH  13  14
ATOM     14  C   UNL     1      29.917  -2.748   6.385  1.00  0.00     0.053 C 
BRANCH  14  15
ATOM     15  C   UNL     1      30.526  -3.396   7.591  1.00  0.00     0.041 C 
ATOM     16  O   UNL     1      30.819  -4.622   7.572  1.00  0.00    -0.550 OA
ATOM     17  O   UNL     1      30.775  -2.644   8.733  1.00  0.00    -0.550 OA
ENDBRANCH  14  15
ENDBRANCH  13  14
ENDBRANCH  12  13
ENDBRANCH  11  12
ENDBRANCH  10  11
ENDBRANCH   9  10
ENDBRANCH   8   9
ENDBRANCH   7   8
ENDBRANCH   6   7
ENDBRANCH   5   6
ENDBRANCH   4   5
ENDBRANCH   3   4
ENDBRANCH   2   3
ENDBRANCH   1   2
BRANCH   1  18
ATOM     18  C   UNL     1      16.929   0.726  11.126  1.00  0.00     0.000 C 
BRANCH  18  19
ATOM     19  C   UNL     1      15.510   0.928  11.692  1.00  0.00     0.000 C 
BRANCH  19  20
ATOM     20  C   UNL     1      15.463   1.737  13.006  1.00  0.00     0.000 C 
BRANCH  20  21
ATOM     21  C   UNL     1      14.354   1.291  13.981  1.00  0.00     0.000 C 
BRANCH  21  22
ATOM     22  C   UNL     1      14.804   0.325  15.099  1.00  0.00     0.000 C 
BRANCH  22  23
ATOM     23  C   UNL     1      15.337  -1.039  14.625  1.00  0.00     0.000 C 
BRANCH  23  24
ATOM     24  C   UNL     1      16.400  -1.627  15.570  1.00  0.00    -0.000 C 
BRANCH  24  25
ATOM     25  C   UNL     1      17.782  -0.982  15.386  1.00  0.00    -0.000 C 
BRANCH  25  26
ATOM     26  C   UNL     1      18.487  -0.687  16.719  1.00  0.00    -0.000 C 
BRANCH  26  27
ATOM     27  C   UNL     1      17.516  -0.048  17.724  1.00  0.00    -0.000 C 
BRANCH  27  28
ATOM     28  C   UNL     1      17.247  -0.945  18.942  1.00  0.00    -0.000 C 
BRANCH  28  29
ATOM     29  C   UNL     1      15.806  -0.827  19.462  1.00  0.00    -0.000 C 
BRANCH  29  30
ATOM     30  C   UNL     1      15.004   0.185  18.632  1.00  0.00    -0.000 C 
BRANCH  30  31
ATOM     31  C   UNL     1      13.524  -0.202  18.494  1.00  0.00    -0.003 C 
ATOM     32  C   UNL     1      13.147  -1.413  19.347  1.00  0.00     0.004 C 
ENDBRANCH  30  31
ENDBRANCH  29  30
ENDBRANCH  28  29
ENDBRANCH  27  28
ENDBRANCH  26  27
ENDBRANCH  25  26
ENDBRANCH  24  25
ENDBRANCH  23  24
ENDBRANCH  22  23
ENDBRANCH  21  22
ENDBRANCH  20  21
ENDBRANCH  19  20
ENDBRANCH  18  19
ENDBRANCH   1  18
TORSDOF 28
ENDMDL
MODEL 2
REMARK VINA RESULT:    -6.632      1.167      2.413
REMARK INTER + INTRA:         -19.691
REMARK INTER:                 -17.754
REMARK INTRA:                  -1.937
REMARK UNBOUND:                -2.203
REMARK SMILES CCCCCCCCCCCCCCCCCCCCCCCCCCCCCC(=O)[O-]
REMARK SMILES IDX 16 1 17 2 18 3 19 4 20 5 21 6 22 7 23 8 24 9 25 10 26 11
REMARK SMILES IDX 27 12 28 13 29 14 30 15 31 16 32 17 15 18 14 19 13 20 12 21
REMARK SMILES IDX 11 22 10 23 9 24 8 25 7 26 6 27 5 28 4 29 3 30 2 31 1 32
REMARK H PARENT
REMARK Flexibility Score: inf
ROOT
ATOM      1  C   UNL     1      17.646  -1.006  10.340  1.00  0.00     0.000 C 
ENDROOT
BRANCH   1   2
ATOM      2  C   UNL     1      17.735  -1.259   8.828  1.00  0.00     0.000 C 
BRANCH   2   3
ATOM      3  C   UNL     1      18.132   0.022   8.077  1.00  0.00     0.000 C 
BRANCH   3   4
ATOM      4  C   UNL     1      19.110  -0.241   6.920  1.00  0.00     0.000 C 
BRANCH   4   5
ATOM      5  C   UNL     1      20.296  -1.168   7.258  1.00  0.00     0.000 C 
BRANCH   5   6
ATOM      6  C   UNL     1      21.107  -1.629   6.029  1.00  0.00     0.000 C 
BRANCH   6   7
ATOM      7  C   UNL     1      21.947  -2.888   6.309  1.00  0.00     0.000 C 
BRANCH   7   8
ATOM      8  C   UNL     1      23.111  -3.062   5.321  1.00  0.00     0.000 C 
BRANCH   8   9
ATOM      9  C   UNL     1      24.322  -2.181   5.665  1.00  0.00     0.000 C 
BRANCH   9  10
ATOM     10  C   UNL     1      25.522  -3.044   6.088  1.00  0.00     0.000 C 
BRANCH  10  11
ATOM     11  C   UNL     1      26.728  -2.208   6.551  1.00  0.00     0.000 C 
BRANCH  11  12
ATOM     12  C   UNL     1      27.942  -3.029   7.027  1.00  0.00     0.000 C 
BRANCH  12  13
ATOM     13  C   UNL     1      28.293  -4.187   6.074  1.00  0.00     0.006 C 
BRANCH  13  14
ATOM     14  C   UNL     1      29.644  -4.829   6.415  1.00  0.00     0.053 C 
BRANCH  14  15
ATOM     15  C   UNL     1      30.758  -3.827   6.415  1.00  0.00     0.041 C 
ATOM     16  O   UNL     1      30.818  -2.944   5.518  1.00  0.00    -0.550 OA
ATOM     17  O   UNL     1      31.728  -3.867   7.411  1.00  0.00    -0.550 OA
ENDBRANCH  14  15
ENDBRANCH  13  14
ENDBRANCH  12  13
ENDBRANCH  11  12
ENDBRANCH  10  11
ENDBRANCH   9  10
ENDBRANCH   8   9
ENDBRANCH   7   8
ENDBRANCH   6   7
ENDBRANCH   5   6
ENDBRANCH   4   5
ENDBRANCH   3   4
ENDBRANCH   2   3
ENDBRANCH   1   2
BRANCH   1  18
ATOM     18  C   UNL     1      16.850   0.271  10.679  1.00  0.00     0.000 C 
BRANCH  18  19
ATOM     19  C   UNL     1      16.521   0.427  12.176  1.00  0.00     0.000 C 
BRANCH  19  20
ATOM     20  C   UNL     1      15.152   1.083  12.457  1.00  0.00     0.000 C 
BRANCH  20  21
ATOM     21  C   UNL     1      14.385   0.457  13.640  1.00  0.00     0.000 C 
BRANCH  21  22
ATOM     22  C   UNL     1      14.382   1.288  14.942  1.00  0.00     0.000 C 
BRANCH  22  23
ATOM     23  C   UNL     1      12.997   1.724  15.450  1.00  0.00     0.000 C 
BRANCH  23  24
ATOM     24  C   UNL     1      12.946   1.894  16.978  1.00  0.00    -0.000 C 
BRANCH  24  25
ATOM     25  C   UNL     1      14.006   1.054  17.706  1.00  0.00    -0.000 C 
BRANCH  25  26
ATOM     26  C   UNL     1      13.448  -0.266  18.261  1.00  0.00    -0.000 C 
BRANCH  26  27
ATOM     27  C   UNL     1      14.031  -0.566  19.651  1.00  0.00    -0.000 C 
BRANCH  27  28
ATOM     28  C   UNL     1      15.566  -0.617  19.652  1.00  0.00    -0.000 C 
BRANCH  28  29
ATOM     29  C   UNL     1      16.124  -1.806  18.856  1.00  0.00    -0.000 C 
BRANCH  29  30
ATOM     30  C   UNL     1      17.407  -1.413  18.110  1.00  0.00    -0.000 C 
BRANCH  30  31
ATOM     31  C   UNL     1      17.167  -1.154  16.615  1.00  0.00    -0.003 C 
ATOM     32  C   UNL     1      15.921  -1.863  16.084  1.00  0.00     0.004 C 
ENDBRANCH  30  31
ENDBRANCH  29  30
ENDBRANCH  28  29
ENDBRANCH  27  28
ENDBRANCH  26  27
ENDBRANCH  25  26
ENDBRANCH  24  25
ENDBRANCH  23  24
ENDBRANCH  22  23
ENDBRANCH  21  22
ENDBRANCH  20  21
ENDBRANCH  19  20
ENDBRANCH  18  19
ENDBRANCH   1  18
TORSDOF 28
ENDMDL
MODEL 3
REMARK VINA RESULT:    -6.548      5.734      7.101
REMARK INTER + INTRA:         -19.469
REMARK INTER:                 -15.374
REMARK INTRA:                  -4.095
REMARK UNBOUND:                -2.203
REMARK SMILES CCCCCCCCCCCCCCCCCCCCCCCCCCCCCC(=O)[O-]
REMARK SMILES IDX 16 1 17 2 18 3 19 4 20 5 21 6 22 7 23 8 24 9 25 10 26 11
REMARK SMILES IDX 27 12 28 13 29 14 30 15 31 16 32 17 15 18 14 19 13 20 12 21
REMARK SMILES IDX 11 22 10 23 9 24 8 25 7 26 6 27 5 28 4 29 3 30 2 31 1 32
REMARK H PARENT
REMARK Flexibility Score: inf
ROOT
ATOM      1  C   UNL     1      17.548  -1.315  12.542  1.00  0.00     0.000 C 
ENDROOT
BRANCH   1   2
ATOM      2  C   UNL     1      18.508  -1.415  13.737  1.00  0.00     0.000 C 
BRANCH   2   3
ATOM      3  C   UNL     1      18.786  -2.882  14.100  1.00  0.00     0.000 C 
BRANCH   3   4
ATOM      4  C   UNL     1      19.484  -3.041  15.462  1.00  0.00     0.000 C 
BRANCH   4   5
ATOM      5  C   UNL     1      20.385  -1.862  15.881  1.00  0.00     0.000 C 
BRANCH   5   6
ATOM      6  C   UNL     1      21.828  -2.269  16.246  1.00  0.00     0.000 C 
BRANCH   6   7
ATOM      7  C   UNL     1      22.119  -3.753  15.960  1.00  0.00     0.000 C 
BRANCH   7   8
ATOM      8  C   UNL     1      23.620  -4.053  15.828  1.00  0.00     0.000 C 
BRANCH   8   9
ATOM      9  C   UNL     1      24.482  -2.781  15.785  1.00  0.00     0.000 C 
BRANCH   9  10
ATOM     10  C   UNL     1      25.746  -3.007  14.939  1.00  0.00     0.000 C 
BRANCH  10  11
ATOM     11  C   UNL     1      26.905  -3.619  15.746  1.00  0.00     0.000 C 
BRANCH  11  12
ATOM     12  C   UNL     1      27.076  -3.049  17.168  1.00  0.00     0.000 C 
BRANCH  12  13
ATOM     13  C   UNL     1      27.205  -4.146  18.241  1.00  0.00     0.006 C 
BRANCH  13  14
ATOM     14  C   UNL     1      26.563  -5.468  17.801  1.00  0.00     0.053 C 
BRANCH  14  15
ATOM     15  C   UNL     1      27.524  -6.615  17.884  1.00  0.00     0.041 C 
ATOM     16  O   UNL     1      28.762  -6.400  17.971  1.00  0.00    -0.550 OA
ATOM     17  O   UNL     1      27.049  -7.921  17.871  1.00  0.00    -0.550 OA
ENDBRANCH  14  15
ENDBRANCH  13  14
ENDBRANCH  12  13
ENDBRANCH  11  12
ENDBRANCH  10  11
ENDBRANCH   9  10
ENDBRANCH   8   9
ENDBRANCH   7   8
ENDBRANCH   6   7
ENDBRANCH   5   6
ENDBRANCH   4   5
ENDBRANCH   3   4
ENDBRANCH   2   3
ENDBRANCH   1   2
BRANCH   1  18
ATOM     18  C   UNL     1      17.674   0.030  11.798  1.00  0.00     0.000 C 
BRANCH  18  19
ATOM     19  C   UNL     1      16.380   0.479  11.092  1.00  0.00     0.000 C 
BRANCH  19  20
ATOM     20  C   UNL     1      15.127   0.455  11.995  1.00  0.00     0.000 C 
BRANCH  20  21
ATOM     21  C   UNL     1      15.087   1.584  13.046  1.00  0.00     0.000 C 
BRANCH  21  22
ATOM     22  C   UNL     1      14.730   1.140  14.481  1.00  0.00     0.000 C 
BRANCH  22  23
ATOM     23  C   UNL     1      15.856   0.437  15.260  1.00  0.00     0.000 C 
BRANCH  23  24
ATOM     24  C   UNL     1      15.487  -0.995  15.684  1.00  0.00    -0.000 C 
BRANCH  24  25
ATOM     25  C   UNL     1      16.348  -1.512  16.847  1.00  0.00    -0.000 C 
BRANCH  25  26
ATOM     26  C   UNL     1      16.841  -0.390  17.773  1.00  0.00    -0.000 C 
BRANCH  26  27
ATOM     27  C   UNL     1      16.627  -0.763  19.248  1.00  0.00    -0.000 C 
BRANCH  27  28
ATOM     28  C   UNL     1      15.318  -1.534  19.481  1.00  0.00    -0.000 C 
BRANCH  28  29
ATOM     29  C   UNL     1      14.118  -0.609  19.732  1.00  0.00    -0.000 C 
BRANCH  29  30
ATOM     30  C   UNL     1      13.182  -0.582  18.515  1.00  0.00    -0.000 C 
BRANCH  30  31
ATOM     31  C   UNL     1      13.122   0.799  17.844  1.00  0.00    -0.003 C 
ATOM     32  C   UNL     1      13.772   1.895  18.688  1.00  0.00     0.004 C 
ENDBRANCH  30  31
ENDBRANCH  29  30
ENDBRANCH  28  29
ENDBRANCH  27  28
ENDBRANCH  26  27
ENDBRANCH  25  26
ENDBRANCH  24  25
ENDBRANCH  23  24
ENDBRANCH  22  23
ENDBRANCH  21  22
ENDBRANCH  20  21
ENDBRANCH  19  20
ENDBRANCH  18  19
ENDBRANCH   1  18
TORSDOF 28
ENDMDL
MODEL 4
REMARK VINA RESULT:    -6.527      5.993      8.477
REMARK INTER + INTRA:         -19.414
REMARK INTER:                 -15.613
REMARK INTRA:                  -3.801
REMARK UNBOUND:                -2.203
REMARK SMILES CCCCCCCCCCCCCCCCCCCCCCCCCCCCCC(=O)[O-]
REMARK SMILES IDX 16 1 17 2 18 3 19 4 20 5 21 6 22 7 23 8 24 9 25 10 26 11
REMARK SMILES IDX 27 12 28 13 29 14 30 15 31 16 32 17 15 18 14 19 13 20 12 21
REMARK SMILES IDX 11 22 10 23 9 24 8 25 7 26 6 27 5 28 4 29 3 30 2 31 1 32
REMARK H PARENT
REMARK Flexibility Score: inf
ROOT
ATOM      1  C   UNL     1      17.723  -0.166  17.294  1.00  0.00     0.000 C 
ENDROOT
BRANCH   1   2
ATOM      2  C   UNL     1      17.241  -1.020  16.112  1.00  0.00     0.000 C 
BRANCH   2   3
ATOM      3  C   UNL     1      18.426  -1.516  15.270  1.00  0.00     0.000 C 
BRANCH   3   4
ATOM      4  C   UNL     1      19.781  -0.990  15.772  1.00  0.00     0.000 C 
BRANCH   4   5
ATOM      5  C   UNL     1      20.779  -2.072  16.231  1.00  0.00     0.000 C 
BRANCH   5   6
ATOM      6  C   UNL     1      20.456  -3.489  15.715  1.00  0.00     0.000 C 
BRANCH   6   7
ATOM      7  C   UNL     1      21.712  -4.363  15.546  1.00  0.00     0.000 C 
BRANCH   7   8
ATOM      8  C   UNL     1      22.960  -3.747  16.196  1.00  0.00     0.000 C 
BRANCH   8   9
ATOM      9  C   UNL     1      24.251  -4.061  15.424  1.00  0.00     0.000 C 
BRANCH   9  10
ATOM     10  C   UNL     1      25.471  -3.443  16.128  1.00  0.00     0.000 C 
BRANCH  10  11
ATOM     11  C   UNL     1      26.310  -2.548  15.198  1.00  0.00     0.000 C 
BRANCH  11  12
ATOM     12  C   UNL     1      26.099  -1.035  15.393  1.00  0.00     0.000 C 
BRANCH  12  13
ATOM     13  C   UNL     1      24.624  -0.612  15.255  1.00  0.00     0.006 C 
BRANCH  13  14
ATOM     14  C   UNL     1      24.001  -0.232  16.604  1.00  0.00     0.053 C 
BRANCH  14  15
ATOM     15  C   UNL     1      23.478   1.173  16.605  1.00  0.00     0.041 C 
ATOM     16  O   UNL     1      24.102   2.081  17.216  1.00  0.00    -0.550 OA
ATOM     17  O   UNL     1      22.304   1.477  15.926  1.00  0.00    -0.550 OA
ENDBRANCH  14  15
ENDBRANCH  13  14
ENDBRANCH  12  13
ENDBRANCH  11  12
ENDBRANCH  10  11
ENDBRANCH   9  10
ENDBRANCH   8   9
ENDBRANCH   7   8
ENDBRANCH   6   7
ENDBRANCH   5   6
ENDBRANCH   4   5
ENDBRANCH   3   4
ENDBRANCH   2   3
ENDBRANCH   1   2
BRANCH   1  18
ATOM     18  C   UNL     1      17.392  -0.806  18.658  1.00  0.00     0.000 C 
BRANCH  18  19
ATOM     19  C   UNL     1      16.574  -2.107  18.558  1.00  0.00     0.000 C 
BRANCH  19  20
ATOM     20  C   UNL     1      15.156  -2.009  19.162  1.00  0.00     0.000 C 
BRANCH  20  21
ATOM     21  C   UNL     1      14.076  -1.550  18.161  1.00  0.00     0.000 C 
BRANCH  21  22
ATOM     22  C   UNL     1      13.233  -0.335  18.607  1.00  0.00     0.000 C 
BRANCH  22  23
ATOM     23  C   UNL     1      14.018   0.966  18.852  1.00  0.00     0.000 C 
BRANCH  23  24
ATOM     24  C   UNL     1      14.343   1.721  17.551  1.00  0.00    -0.000 C 
BRANCH  24  25
ATOM     25  C   UNL     1      13.087   2.090  16.747  1.00  0.00    -0.000 C 
BRANCH  25  26
ATOM     26  C   UNL     1      13.136   1.590  15.296  1.00  0.00    -0.000 C 
BRANCH  26  27
ATOM     27  C   UNL     1      14.278   0.581  15.102  1.00  0.00    -0.000 C 
BRANCH  27  28
ATOM     28  C   UNL     1      14.482   0.189  13.630  1.00  0.00    -0.000 C 
BRANCH  28  29
ATOM     29  C   UNL     1      15.581   1.011  12.941  1.00  0.00    -0.000 C 
BRANCH  29  30
ATOM     30  C   UNL     1      15.537   0.819  11.418  1.00  0.00    -0.000 C 
BRANCH  30  31
ATOM     31  C   UNL     1      16.765   0.069  10.880  1.00  0.00    -0.003 C 
ATOM     32  C   UNL     1      17.615  -0.547  11.991  1.00  0.00     0.004 C 
ENDBRANCH  30  31
ENDBRANCH  29  30
ENDBRANCH  28  29
ENDBRANCH  27  28
ENDBRANCH  26  27
ENDBRANCH  25  26
ENDBRANCH  24  25
ENDBRANCH  23  24
ENDBRANCH  22  23
ENDBRANCH  21  22
ENDBRANCH  20  21
ENDBRANCH  19  20
ENDBRANCH  18  19
ENDBRANCH   1  18
TORSDOF 28
ENDMDL
MODEL 5
REMARK VINA RESULT:    -6.502      3.504      6.667
REMARK INTER + INTRA:         -19.348
REMARK INTER:                 -16.018
REMARK INTRA:                  -3.331
REMARK UNBOUND:                -2.203
REMARK SMILES CCCCCCCCCCCCCCCCCCCCCCCCCCCCCC(=O)[O-]
REMARK SMILES IDX 16 1 17 2 18 3 19 4 20 5 21 6 22 7 23 8 24 9 25 10 26 11
REMARK SMILES IDX 27 12 28 13 29 14 30 15 31 16 32 17 15 18 14 19 13 20 12 21
REMARK SMILES IDX 11 22 10 23 9 24 8 25 7 26 6 27 5 28 4 29 3 30 2 31 1 32
REMARK H PARENT
REMARK Flexibility Score: inf
ROOT
ATOM      1  C   UNL     1      13.704   1.099  16.124  1.00  0.00     0.000 C 
ENDROOT
BRANCH   1   2
ATOM      2  C   UNL     1      14.964   1.514  15.350  1.00  0.00     0.000 C 
BRANCH   2   3
ATOM      3  C   UNL     1      15.132   0.672  14.075  1.00  0.00     0.000 C 
BRANCH   3   4
ATOM      4  C   UNL     1      15.090   1.516  12.790  1.00  0.00     0.000 C 
BRANCH   4   5
ATOM      5  C   UNL     1      15.577   0.799  11.515  1.00  0.00     0.000 C 
BRANCH   5   6
ATOM      6  C   UNL     1      17.106   0.838  11.313  1.00  0.00     0.000 C 
BRANCH   6   7
ATOM      7  C   UNL     1      17.711  -0.558  11.078  1.00  0.00     0.000 C 
BRANCH   7   8
ATOM      8  C   UNL     1      16.915  -1.392  10.063  1.00  0.00     0.000 C 
BRANCH   8   9
ATOM      9  C   UNL     1      17.644  -1.554   8.720  1.00  0.00     0.000 C 
BRANCH   9  10
ATOM     10  C   UNL     1      18.492  -0.310   8.406  1.00  0.00     0.000 C 
BRANCH  10  11
ATOM     11  C   UNL     1      18.468   0.070   6.914  1.00  0.00     0.000 C 
BRANCH  11  12
ATOM     12  C   UNL     1      19.719  -0.349   6.119  1.00  0.00     0.000 C 
BRANCH  12  13
ATOM     13  C   UNL     1      20.734  -1.137   6.970  1.00  0.00     0.006 C 
BRANCH  13  14
ATOM     14  C   UNL     1      20.952  -2.561   6.442  1.00  0.00     0.053 C 
BRANCH  14  15
ATOM     15  C   UNL     1      22.331  -2.750   5.887  1.00  0.00     0.041 C 
ATOM     16  O   UNL     1      23.032  -1.750   5.578  1.00  0.00    -0.550 OA
ATOM     17  O   UNL     1      22.841  -4.032   5.715  1.00  0.00    -0.550 OA
ENDBRANCH  14  15
ENDBRANCH  13  14
ENDBRANCH  12  13
ENDBRANCH  11  12
ENDBRANCH  10  11
ENDBRANCH   9  10
ENDBRANCH   8   9
ENDBRANCH   7   8
ENDBRANCH   6   7
ENDBRANCH   5   6
ENDBRANCH   4   5
ENDBRANCH   3   4
ENDBRANCH   2   3
ENDBRANCH   1   2
BRANCH   1  18
ATOM     18  C   UNL     1      13.122   2.254  16.963  1.00  0.00     0.000 C 
BRANCH  18  19
ATOM     19  C   UNL     1      13.235   2.042  18.485  1.00  0.00     0.000 C 
BRANCH  19  20
ATOM     20  C   UNL     1      14.398   1.119  18.910  1.00  0.00     0.000 C 
BRANCH  20  21
ATOM     21  C   UNL     1      14.040   0.138  20.045  1.00  0.00     0.000 C 
BRANCH  21  22
ATOM     22  C   UNL     1      13.255  -1.120  19.611  1.00  0.00     0.000 C 
BRANCH  22  23
ATOM     23  C   UNL     1      13.534  -1.618  18.182  1.00  0.00     0.000 C 
BRANCH  23  24
ATOM     24  C   UNL     1      14.042  -3.069  18.142  1.00  0.00    -0.000 C 
BRANCH  24  25
ATOM     25  C   UNL     1      15.555  -3.164  17.896  1.00  0.00    -0.000 C 
BRANCH  25  26
ATOM     26  C   UNL     1      16.384  -2.441  18.969  1.00  0.00    -0.000 C 
BRANCH  26  27
ATOM     27  C   UNL     1      17.370  -1.453  18.326  1.00  0.00    -0.000 C 
BRANCH  27  28
ATOM     28  C   UNL     1      17.013  -1.120  16.870  1.00  0.00    -0.000 C 
BRANCH  28  29
ATOM     29  C   UNL     1      18.248  -0.836  16.003  1.00  0.00    -0.000 C 
BRANCH  29  30
ATOM     30  C   UNL     1      18.078  -1.424  14.594  1.00  0.00    -0.000 C 
BRANCH  30  31
ATOM     31  C   UNL     1      18.918  -2.691  14.375  1.00  0.00    -0.003 C 
ATOM     32  C   UNL     1      19.826  -3.011  15.562  1.00  0.00     0.004 C 
ENDBRANCH  30  31
ENDBRANCH  29  30
ENDBRANCH  28  29
ENDBRANCH  27  28
ENDBRANCH  26  27
ENDBRANCH  25  26
ENDBRANCH  24  25
ENDBRANCH  23  24
ENDBRANCH  22  23
ENDBRANCH  21  22
ENDBRANCH  20  21
ENDBRANCH  19  20
ENDBRANCH  18  19
ENDBRANCH   1  18
TORSDOF 28
ENDMDL
MODEL 6
REMARK VINA RESULT:    -6.501      1.695      5.038
REMARK INTER + INTRA:         -19.345
REMARK INTER:                 -17.299
REMARK INTRA:                  -2.046
REMARK UNBOUND:                -2.203
REMARK SMILES CCCCCCCCCCCCCCCCCCCCCCCCCCCCCC(=O)[O-]
REMARK SMILES IDX 16 1 17 2 18 3 19 4 20 5 21 6 22 7 23 8 24 9 25 10 26 11
REMARK SMILES IDX 27 12 28 13 29 14 30 15 31 16 32 17 15 18 14 19 13 20 12 21
REMARK SMILES IDX 11 22 10 23 9 24 8 25 7 26 6 27 5 28 4 29 3 30 2 31 1 32
REMARK H PARENT
REMARK Flexibility Score: inf
ROOT
ATOM      1  C   UNL     1      21.126  -1.477   6.121  1.00  0.00     0.000 C 
ENDROOT
BRANCH   1   2
ATOM      2  C   UNL     1      21.846  -2.834   6.109  1.00  0.00     0.000 C 
BRANCH   2   3
ATOM      3  C   UNL     1      23.122  -2.774   5.255  1.00  0.00     0.000 C 
BRANCH   3   4
ATOM      4  C   UNL     1      24.407  -2.915   6.087  1.00  0.00     0.000 C 
BRANCH   4   5
ATOM      5  C   UNL     1      25.488  -1.850   5.815  1.00  0.00     0.000 C 
BRANCH   5   6
ATOM      6  C   UNL     1      26.846  -2.140   6.487  1.00  0.00     0.000 C 
BRANCH   6   7
ATOM      7  C   UNL     1      27.146  -3.646   6.597  1.00  0.00     0.000 C 
BRANCH   7   8
ATOM      8  C   UNL     1      28.321  -4.088   5.713  1.00  0.00     0.000 C 
BRANCH   8   9
ATOM      9  C   UNL     1      29.587  -3.245   5.938  1.00  0.00     0.000 C 
BRANCH   9  10
ATOM     10  C   UNL     1      30.749  -4.126   6.424  1.00  0.00     0.000 C 
BRANCH  10  11
ATOM     11  C   UNL     1      31.381  -3.617   7.733  1.00  0.00     0.000 C 
BRANCH  11  12
ATOM     12  C   UNL     1      31.048  -2.155   8.086  1.00  0.00     0.000 C 
BRANCH  12  13
ATOM     13  C   UNL     1      30.225  -2.024   9.382  1.00  0.00     0.006 C 
BRANCH  13  14
ATOM     14  C   UNL     1      29.024  -1.085   9.213  1.00  0.00     0.053 C 
BRANCH  14  15
ATOM     15  C   UNL     1      29.205   0.199   9.964  1.00  0.00     0.041 C 
ATOM     16  O   UNL     1      30.344   0.730  10.048  1.00  0.00    -0.550 OA
ATOM     17  O   UNL     1      28.112   0.811  10.567  1.00  0.00    -0.550 OA
ENDBRANCH  14  15
ENDBRANCH  13  14
ENDBRANCH  12  13
ENDBRANCH  11  12
ENDBRANCH  10  11
ENDBRANCH   9  10
ENDBRANCH   8   9
ENDBRANCH   7   8
ENDBRANCH   6   7
ENDBRANCH   5   6
ENDBRANCH   4   5
ENDBRANCH   3   4
ENDBRANCH   2   3
ENDBRANCH   1   2
BRANCH   1  18
ATOM     18  C   UNL     1      20.095  -1.367   7.263  1.00  0.00     0.000 C 
BRANCH  18  19
ATOM     19  C   UNL     1      19.024  -0.283   7.039  1.00  0.00     0.000 C 
BRANCH  19  20
ATOM     20  C   UNL     1      18.122  -0.023   8.265  1.00  0.00     0.000 C 
BRANCH  20  21
ATOM     21  C   UNL     1      17.728  -1.298   9.039  1.00  0.00     0.000 C 
BRANCH  21  22
ATOM     22  C   UNL     1      17.194  -1.067  10.470  1.00  0.00     0.000 C 
BRANCH  22  23
ATOM     23  C   UNL     1      16.938   0.401  10.855  1.00  0.00     0.000 C 
BRANCH  23  24
ATOM     24  C   UNL     1      15.501   0.648  11.348  1.00  0.00    -0.000 C 
BRANCH  24  25
ATOM     25  C   UNL     1      15.437   1.636  12.522  1.00  0.00    -0.000 C 
BRANCH  25  26
ATOM     26  C   UNL     1      14.648   1.090  13.723  1.00  0.00    -0.000 C 
BRANCH  26  27
ATOM     27  C   UNL     1      15.586   0.410  14.731  1.00  0.00    -0.000 C 
BRANCH  27  28
ATOM     28  C   UNL     1      15.619  -1.118  14.576  1.00  0.00    -0.000 C 
BRANCH  28  29
ATOM     29  C   UNL     1      15.983  -1.842  15.880  1.00  0.00    -0.000 C 
BRANCH  29  30
ATOM     30  C   UNL     1      15.803  -0.915  17.091  1.00  0.00    -0.000 C 
BRANCH  30  31
ATOM     31  C   UNL     1      14.588  -1.294  17.952  1.00  0.00    -0.003 C 
ATOM     32  C   UNL     1      13.883  -0.076  18.549  1.00  0.00     0.004 C 
ENDBRANCH  30  31
ENDBRANCH  29  30
ENDBRANCH  28  29
ENDBRANCH  27  28
ENDBRANCH  26  27
ENDBRANCH  25  26
ENDBRANCH  24  25
ENDBRANCH  23  24
ENDBRANCH  22  23
ENDBRANCH  21  22
ENDBRANCH  20  21
ENDBRANCH  19  20
ENDBRANCH  18  19
ENDBRANCH   1  18
TORSDOF 28
ENDMDL
MODEL 7
REMARK VINA RESULT:    -6.489      6.015     11.763
REMARK INTER + INTRA:         -19.315
REMARK INTER:                 -15.387
REMARK INTRA:                  -3.928
REMARK UNBOUND:                -2.203
REMARK SMILES CCCCCCCCCCCCCCCCCCCCCCCCCCCCCC(=O)[O-]
REMARK SMILES IDX 16 1 17 2 18 3 19 4 20 5 21 6 22 7 23 8 24 9 25 10 26 11
REMARK SMILES IDX 27 12 28 13 29 14 30 15 31 16 32 17 15 18 14 19 13 20 12 21
REMARK SMILES IDX 11 22 10 23 9 24 8 25 7 26 6 27 5 28 4 29 3 30 2 31 1 32
REMARK H PARENT
REMARK Flexibility Score: inf
ROOT
ATOM      1  C   UNL     1      16.095  -2.056  15.632  1.00  0.00     0.000 C 
ENDROOT
BRANCH   1   2
ATOM      2  C   UNL     1      15.881  -2.401  17.113  1.00  0.00     0.000 C 
BRANCH   2   3
ATOM      3  C   UNL     1      17.078  -1.950  17.964  1.00  0.00     0.000 C 
BRANCH   3   4
ATOM      4  C   UNL     1      16.738  -0.783  18.907  1.00  0.00     0.000 C 
BRANCH   4   5
ATOM      5  C   UNL     1      15.535  -1.022  19.841  1.00  0.00     0.000 C 
BRANCH   5   6
ATOM      6  C   UNL     1      14.439   0.060  19.750  1.00  0.00     0.000 C 
BRANCH   6   7
ATOM      7  C   UNL     1      13.269  -0.352  18.839  1.00  0.00     0.000 C 
BRANCH   7   8
ATOM      8  C   UNL     1      13.356   0.268  17.436  1.00  0.00     0.000 C 
BRANCH   8   9
ATOM      9  C   UNL     1      14.226   1.535  17.396  1.00  0.00     0.000 C 
BRANCH   9  10
ATOM     10  C   UNL     1      15.116   1.545  16.143  1.00  0.00     0.000 C 
BRANCH  10  11
ATOM     11  C   UNL     1      14.307   1.563  14.833  1.00  0.00     0.000 C 
BRANCH  11  12
ATOM     12  C   UNL     1      15.154   1.646  13.549  1.00  0.00     0.000 C 
BRANCH  12  13
ATOM     13  C   UNL     1      15.219   0.310  12.786  1.00  0.00     0.006 C 
BRANCH  13  14
ATOM     14  C   UNL     1      15.551   0.506  11.301  1.00  0.00     0.053 C 
BRANCH  14  15
ATOM     15  C   UNL     1      16.971   0.143  10.990  1.00  0.00     0.041 C 
ATOM     16  O   UNL     1      17.886   0.396  11.818  1.00  0.00    -0.550 OA
ATOM     17  O   UNL     1      17.282  -0.479   9.786  1.00  0.00    -0.550 OA
ENDBRANCH  14  15
ENDBRANCH  13  14
ENDBRANCH  12  13
ENDBRANCH  11  12
ENDBRANCH  10  11
ENDBRANCH   9  10
ENDBRANCH   8   9
ENDBRANCH   7   8
ENDBRANCH   6   7
ENDBRANCH   5   6
ENDBRANCH   4   5
ENDBRANCH   3   4
ENDBRANCH   2   3
ENDBRANCH   1   2
BRANCH   1  18
ATOM     18  C   UNL     1      17.327  -1.155  15.409  1.00  0.00     0.000 C 
BRANCH  18  19
ATOM     19  C   UNL     1      18.310  -1.687  14.349  1.00  0.00     0.000 C 
BRANCH  19  20
ATOM     20  C   UNL     1      19.188  -2.861  14.835  1.00  0.00     0.000 C 
BRANCH  20  21
ATOM     21  C   UNL     1      20.115  -2.508  16.016  1.00  0.00     0.000 C 
BRANCH  21  22
ATOM     22  C   UNL     1      20.810  -1.132  15.924  1.00  0.00     0.000 C 
BRANCH  22  23
ATOM     23  C   UNL     1      22.315  -1.124  16.249  1.00  0.00     0.000 C 
BRANCH  23  24
ATOM     24  C   UNL     1      22.922  -2.536  16.306  1.00  0.00    -0.000 C 
BRANCH  24  25
ATOM     25  C   UNL     1      24.435  -2.523  16.571  1.00  0.00    -0.000 C 
BRANCH  25  26
ATOM     26  C   UNL     1      25.175  -3.679  15.880  1.00  0.00    -0.000 C 
BRANCH  26  27
ATOM     27  C   UNL     1      26.030  -3.163  14.713  1.00  0.00    -0.000 C 
BRANCH  27  28
ATOM     28  C   UNL     1      27.023  -2.071  15.142  1.00  0.00    -0.000 C 
BRANCH  28  29
ATOM     29  C   UNL     1      26.842  -0.761  14.362  1.00  0.00    -0.000 C 
BRANCH  29  30
ATOM     30  C   UNL     1      26.709   0.433  15.318  1.00  0.00    -0.000 C 
BRANCH  30  31
ATOM     31  C   UNL     1      25.273   0.975  15.393  1.00  0.00    -0.003 C 
ATOM     32  C   UNL     1      24.818   1.625  14.087  1.00  0.00     0.004 C 
ENDBRANCH  30  31
ENDBRANCH  29  30
ENDBRANCH  28  29
ENDBRANCH  27  28
ENDBRANCH  26  27
ENDBRANCH  25  26
ENDBRANCH  24  25
ENDBRANCH  23  24
ENDBRANCH  22  23
ENDBRANCH  21  22
ENDBRANCH  20  21
ENDBRANCH  19  20
ENDBRANCH  18  19
ENDBRANCH   1  18
TORSDOF 28
ENDMDL
MODEL 8
REMARK VINA RESULT:    -6.486      4.426     14.002
REMARK INTER + INTRA:         -19.307
REMARK INTER:                 -17.408
REMARK INTRA:                  -1.898
REMARK UNBOUND:                -2.203
REMARK SMILES CCCCCCCCCCCCCCCCCCCCCCCCCCCCCC(=O)[O-]
REMARK SMILES IDX 16 1 17 2 18 3 19 4 20 5 21 6 22 7 23 8 24 9 25 10 26 11
REMARK SMILES IDX 27 12 28 13 29 14 30 15 31 16 32 17 15 18 14 19 13 20 12 21
REMARK SMILES IDX 11 22 10 23 9 24 8 25 7 26 6 27 5 28 4 29 3 30 2 31 1 32
REMARK H PARENT
REMARK Flexibility Score: inf
ROOT
ATOM      1  C   UNL     1      24.111  -2.133   5.578  1.00  0.00     0.000 C 
ENDROOT
BRANCH   1   2
ATOM      2  C   UNL     1      22.826  -2.951   5.380  1.00  0.00     0.000 C 
BRANCH   2   3
ATOM      3  C   UNL     1      21.802  -2.647   6.485  1.00  0.00     0.000 C 
BRANCH   3   4
ATOM      4  C   UNL     1      20.916  -1.431   6.163  1.00  0.00     0.000 C 
BRANCH   4   5
ATOM      5  C   UNL     1      20.240  -0.769   7.380  1.00  0.00     0.000 C 
BRANCH   5   6
ATOM      6  C   UNL     1      18.702  -0.694   7.285  1.00  0.00     0.000 C 
BRANCH   6   7
ATOM      7  C   UNL     1      18.050  -0.178   8.581  1.00  0.00     0.000 C 
BRANCH   7   8
ATOM      8  C   UNL     1      17.404  -1.298   9.412  1.00  0.00     0.000 C 
BRANCH   8   9
ATOM      9  C   UNL     1      17.319  -0.957  10.908  1.00  0.00     0.000 C 
BRANCH   9  10
ATOM     10  C   UNL     1      17.016   0.537  11.111  1.00  0.00     0.000 C 
BRANCH  10  11
ATOM     11  C   UNL     1      15.529   0.813  11.400  1.00  0.00     0.000 C 
BRANCH  11  12
ATOM     12  C   UNL     1      15.228   1.306  12.828  1.00  0.00     0.000 C 
BRANCH  12  13
ATOM     13  C   UNL     1      14.376   0.311  13.639  1.00  0.00     0.006 C 
BRANCH  13  14
ATOM     14  C   UNL     1      14.894   0.139  15.073  1.00  0.00     0.053 C 
BRANCH  14  15
ATOM     15  C   UNL     1      16.073  -0.784  15.137  1.00  0.00     0.041 C 
ATOM     16  O   UNL     1      16.194  -1.717  14.299  1.00  0.00    -0.550 OA
ATOM     17  O   UNL     1      17.039  -0.610  16.122  1.00  0.00    -0.550 OA
ENDBRANCH  14  15
ENDBRANCH  13  14
ENDBRANCH  12  13
ENDBRANCH  11  12
ENDBRANCH  10  11
ENDBRANCH   9  10
ENDBRANCH   8   9
ENDBRANCH   7   8
ENDBRANCH   6   7
ENDBRANCH   5   6
ENDBRANCH   4   5
ENDBRANCH   3   4
ENDBRANCH   2   3
ENDBRANCH   1   2
BRANCH   1  18
ATOM     18  C   UNL     1      25.272  -2.984   6.130  1.00  0.00     0.000 C 
BRANCH  18  19
ATOM     19  C   UNL     1      26.529  -2.171   6.492  1.00  0.00     0.000 C 
BRANCH  19  20
ATOM     20  C   UNL     1      27.725  -3.030   6.956  1.00  0.00     0.000 C 
BRANCH  20  21
ATOM     21  C   UNL     1      28.526  -3.670   5.803  1.00  0.00     0.000 C 
BRANCH  21  22
ATOM     22  C   UNL     1      29.600  -4.695   6.231  1.00  0.00     0.000 C 
BRANCH  22  23
ATOM     23  C   UNL     1      30.458  -4.292   7.443  1.00  0.00     0.000 C 
BRANCH  23  24
ATOM     24  C   UNL     1      31.906  -3.938   7.059  1.00  0.00    -0.000 C 
BRANCH  24  25
ATOM     25  C   UNL     1      32.614  -3.089   8.127  1.00  0.00    -0.000 C 
BRANCH  25  26
ATOM     26  C   UNL     1      32.014  -3.269   9.530  1.00  0.00    -0.000 C 
BRANCH  26  27
ATOM     27  C   UNL     1      32.849  -2.524  10.583  1.00  0.00    -0.000 C 
BRANCH  27  28
ATOM     28  C   UNL     1      32.067  -1.396  11.272  1.00  0.00    -0.000 C 
BRANCH  28  29
ATOM     29  C   UNL     1      32.033  -0.102  10.446  1.00  0.00    -0.000 C 
BRANCH  29  30
ATOM     30  C   UNL     1      30.598   0.430  10.316  1.00  0.00    -0.000 C 
BRANCH  30  31
ATOM     31  C   UNL     1      29.540  -0.664  10.529  1.00  0.00    -0.003 C 
ATOM     32  C   UNL     1      28.336  -0.510   9.601  1.00  0.00     0.004 C 
ENDBRANCH  30  31
ENDBRANCH  29  30
ENDBRANCH  28  29
ENDBRANCH  27  28
ENDBRANCH  26  27
ENDBRANCH  25  26
ENDBRANCH  24  25
ENDBRANCH  23  24
ENDBRANCH  22  23
ENDBRANCH  21  22
ENDBRANCH  20  21
ENDBRANCH  19  20
ENDBRANCH  18  19
ENDBRANCH   1  18
TORSDOF 28
ENDMDL
MODEL 9
REMARK VINA RESULT:    -6.416      5.416      6.808
REMARK INTER + INTRA:         -19.122
REMARK INTER:                 -15.756
REMARK INTRA:                  -3.367
REMARK UNBOUND:                -2.203
REMARK SMILES CCCCCCCCCCCCCCCCCCCCCCCCCCCCCC(=O)[O-]
REMARK SMILES IDX 16 1 17 2 18 3 19 4 20 5 21 6 22 7 23 8 24 9 25 10 26 11
REMARK SMILES IDX 27 12 28 13 29 14 30 15 31 16 32 17 15 18 14 19 13 20 12 21
REMARK SMILES IDX 11 22 10 23 9 24 8 25 7 26 6 27 5 28 4 29 3 30 2 31 1 32
REMARK H PARENT
REMARK Flexibility Score: inf
ROOT
ATOM      1  C   UNL     1      17.548  -1.386  12.591  1.00  0.00     0.000 C 
ENDROOT
BRANCH   1   2
ATOM      2  C   UNL     1      18.451  -1.426  13.833  1.00  0.00     0.000 C 
BRANCH   2   3
ATOM      3  C   UNL     1      18.846  -2.869  14.183  1.00  0.00     0.000 C 
BRANCH   3   4
ATOM      4  C   UNL     1      19.612  -2.975  15.512  1.00  0.00     0.000 C 
BRANCH   4   5
ATOM      5  C   UNL     1      20.464  -1.744  15.880  1.00  0.00     0.000 C 
BRANCH   5   6
ATOM      6  C   UNL     1      21.934  -2.070  16.216  1.00  0.00     0.000 C 
BRANCH   6   7
ATOM      7  C   UNL     1      22.227  -3.581  16.207  1.00  0.00     0.000 C 
BRANCH   7   8
ATOM      8  C   UNL     1      23.723  -3.902  16.337  1.00  0.00     0.000 C 
BRANCH   8   9
ATOM      9  C   UNL     1      24.584  -3.161  15.300  1.00  0.00     0.000 C 
BRANCH   9  10
ATOM     10  C   UNL     1      26.080  -3.373  15.583  1.00  0.00     0.000 C 
BRANCH  10  11
ATOM     11  C   UNL     1      26.689  -2.262  16.458  1.00  0.00     0.000 C 
BRANCH  11  12
ATOM     12  C   UNL     1      26.768  -0.879  15.785  1.00  0.00     0.000 C 
BRANCH  12  13
ATOM     13  C   UNL     1      27.092  -0.961  14.281  1.00  0.00     0.006 C 
BRANCH  13  14
ATOM     14  C   UNL     1      27.458   0.407  13.691  1.00  0.00     0.053 C 
BRANCH  14  15
ATOM     15  C   UNL     1      26.633   1.512  14.278  1.00  0.00     0.041 C 
ATOM     16  O   UNL     1      25.420   1.635  13.960  1.00  0.00    -0.550 OA
ATOM     17  O   UNL     1      27.205   2.401  15.181  1.00  0.00    -0.550 OA
ENDBRANCH  14  15
ENDBRANCH  13  14
ENDBRANCH  12  13
ENDBRANCH  11  12
ENDBRANCH  10  11
ENDBRANCH   9  10
ENDBRANCH   8   9
ENDBRANCH   7   8
ENDBRANCH   6   7
ENDBRANCH   5   6
ENDBRANCH   4   5
ENDBRANCH   3   4
ENDBRANCH   2   3
ENDBRANCH   1   2
BRANCH   1  18
ATOM     18  C   UNL     1      17.713  -0.081  11.785  1.00  0.00     0.000 C 
BRANCH  18  19
ATOM     19  C   UNL     1      16.432   0.373  11.059  1.00  0.00     0.000 C 
BRANCH  19  20
ATOM     20  C   UNL     1      15.199   0.508  11.979  1.00  0.00     0.000 C 
BRANCH  20  21
ATOM     21  C   UNL     1      15.387   1.503  13.143  1.00  0.00     0.000 C 
BRANCH  21  22
ATOM     22  C   UNL     1      15.230   0.905  14.558  1.00  0.00     0.000 C 
BRANCH  22  23
ATOM     23  C   UNL     1      14.140   1.548  15.434  1.00  0.00     0.000 C 
BRANCH  23  24
ATOM     24  C   UNL     1      14.694   2.136  16.743  1.00  0.00    -0.000 C 
BRANCH  24  25
ATOM     25  C   UNL     1      13.850   1.758  17.971  1.00  0.00    -0.000 C 
BRANCH  25  26
ATOM     26  C   UNL     1      13.300   0.325  17.901  1.00  0.00    -0.000 C 
BRANCH  26  27
ATOM     27  C   UNL     1      13.652  -0.460  19.174  1.00  0.00    -0.000 C 
BRANCH  27  28
ATOM     28  C   UNL     1      15.049  -0.118  19.716  1.00  0.00    -0.000 C 
BRANCH  28  29
ATOM     29  C   UNL     1      16.027  -1.298  19.627  1.00  0.00    -0.000 C 
BRANCH  29  30
ATOM     30  C   UNL     1      17.221  -0.955  18.725  1.00  0.00    -0.000 C 
BRANCH  30  31
ATOM     31  C   UNL     1      16.821  -0.785  17.251  1.00  0.00    -0.003 C 
ATOM     32  C   UNL     1      16.142  -2.028  16.676  1.00  0.00     0.004 C 
ENDBRANCH  30  31
ENDBRANCH  29  30
ENDBRANCH  28  29
ENDBRANCH  27  28
ENDBRANCH  26  27
ENDBRANCH  25  26
ENDBRANCH  24  25
ENDBRANCH  23  24
ENDBRANCH  22  23
ENDBRANCH  21  22
ENDBRANCH  20  21
ENDBRANCH  19  20
ENDBRANCH  18  19
ENDBRANCH   1  18
TORSDOF 28
ENDMDL
