MODEL 1
REMARK VINA RESULT:    -5.766      0.000      0.000
REMARK INTER + INTRA:          -5.934
REMARK INTER:                  -5.934
REMARK INTRA:                   0.000
REMARK UNBOUND:                 0.000
REMARK SMILES O=c1ccc2ccc(O)cc2o1
REMARK SMILES IDX 6 1 7 2 8 3 10 4 11 5 5 6 4 7 3 8 2 9 1 10 12 11 9 12
REMARK H PARENT 9 13
REMARK Flexibility Score: inf
ROOT
ATOM      1  C   UNL     1      60.434  38.274  38.460  1.00  0.00     0.016 A 
ATOM      2  C   UNL     1      61.600  39.038  38.582  1.00  0.00     0.047 A 
ATOM      3  C   UNL     1      61.894  40.034  37.643  1.00  0.00     0.119 A 
ATOM      4  C   UNL     1      61.019  40.268  36.572  1.00  0.00     0.094 A 
ATOM      5  C   UNL     1      59.851  39.507  36.442  1.00  0.00     0.142 A 
ATOM      6  C   UNL     1      59.557  38.504  37.392  1.00  0.00     0.018 A 
ATOM      7  C   UNL     1      58.382  37.761  37.235  1.00  0.00     0.019 A 
ATOM      8  C   UNL     1      57.543  38.030  36.154  1.00  0.00     0.094 A 
ATOM      9  C   UNL     1      57.899  39.039  35.252  1.00  0.00     0.336 A 
ATOM     10  O   UNL     1      57.153  39.296  34.271  1.00  0.00    -0.246 OA
ATOM     11  O   UNL     1      59.022  39.730  35.425  1.00  0.00    -0.423 OA
ENDROOT
BRANCH   3  12
ATOM     12  O   UNL     1      63.059  40.784  37.782  1.00  0.00    -0.508 OA
ATOM     13  H   UNL     1      63.030  41.777  37.988  1.00  0.00     0.293 HD
ENDBRANCH   3  12
TORSDOF 1
ENDMDL
MODEL 2
REMARK VINA RESULT:    -5.689     19.285     20.526
REMARK INTER + INTRA:          -5.855
REMARK INTER:                  -5.855
REMARK INTRA:                   0.000
REMARK UNBOUND:                 0.000
REMARK SMILES O=c1ccc2ccc(O)cc2o1
REMARK SMILES IDX 6 1 7 2 8 3 10 4 11 5 5 6 4 7 3 8 2 9 1 10 12 11 9 12
REMARK H PARENT 9 13
REMARK Flexibility Score: inf
ROOT
ATOM      1  C   UNL     1      45.748  36.260  49.701  1.00  0.00     0.016 A 
ATOM      2  C   UNL     1      44.587  36.913  50.128  1.00  0.00     0.047 A 
ATOM      3  C   UNL     1      44.405  37.223  51.481  1.00  0.00     0.119 A 
ATOM      4  C   UNL     1      45.391  36.876  52.417  1.00  0.00     0.094 A 
ATOM      5  C   UNL     1      46.556  36.221  51.999  1.00  0.00     0.142 A 
ATOM      6  C   UNL     1      46.735  35.911  50.633  1.00  0.00     0.018 A 
ATOM      7  C   UNL     1      47.910  35.257  50.246  1.00  0.00     0.019 A 
ATOM      8  C   UNL     1      48.861  34.932  51.213  1.00  0.00     0.094 A 
ATOM      9  C   UNL     1      48.615  35.270  52.549  1.00  0.00     0.336 A 
ATOM     10  O   UNL     1      49.462  34.985  53.435  1.00  0.00    -0.246 OA
ATOM     11  O   UNL     1      47.489  35.893  52.889  1.00  0.00    -0.423 OA
ENDROOT
BRANCH   3  12
ATOM     12  O   UNL     1      43.243  37.874  51.886  1.00  0.00    -0.508 OA
ATOM     13  H   UNL     1      42.343  37.408  51.874  1.00  0.00     0.293 HD
ENDBRANCH   3  12
TORSDOF 1
ENDMDL
MODEL 3
REMARK VINA RESULT:    -5.652      1.739      2.568
REMARK INTER + INTRA:          -5.817
REMARK INTER:                  -5.817
REMARK INTRA:                   0.000
REMARK UNBOUND:                 0.000
REMARK SMILES O=c1ccc2ccc(O)cc2o1
REMARK SMILES IDX 6 1 7 2 8 3 10 4 11 5 5 6 4 7 3 8 2 9 1 10 12 11 9 12
REMARK H PARENT 9 13
REMARK Flexibility Score: inf
ROOT
ATOM      1  C   UNL     1      60.177  40.029  36.344  1.00  0.00     0.016 A 
ATOM      2  C   UNL     1      60.829  39.476  37.451  1.00  0.00     0.047 A 
ATOM      3  C   UNL     1      60.312  38.338  38.082  1.00  0.00     0.119 A 
ATOM      4  C   UNL     1      59.132  37.748  37.604  1.00  0.00     0.094 A 
ATOM      5  C   UNL     1      58.472  38.295  36.497  1.00  0.00     0.142 A 
ATOM      6  C   UNL     1      58.998  39.443  35.864  1.00  0.00     0.018 A 
ATOM      7  C   UNL     1      58.317  39.966  34.759  1.00  0.00     0.019 A 
ATOM      8  C   UNL     1      57.148  39.345  34.321  1.00  0.00     0.094 A 
ATOM      9  C   UNL     1      56.686  38.211  34.999  1.00  0.00     0.336 A 
ATOM     10  O   UNL     1      55.633  37.637  34.617  1.00  0.00    -0.246 OA
ATOM     11  O   UNL     1      57.354  37.734  36.046  1.00  0.00    -0.423 OA
ENDROOT
BRANCH   3  12
ATOM     12  O   UNL     1      60.976  37.803  39.183  1.00  0.00    -0.508 OA
ATOM     13  H   UNL     1      61.085  38.328  40.044  1.00  0.00     0.293 HD
ENDBRANCH   3  12
TORSDOF 1
ENDMDL
MODEL 4
REMARK VINA RESULT:    -5.606      2.228      2.825
REMARK INTER + INTRA:          -5.770
REMARK INTER:                  -5.770
REMARK INTRA:                   0.000
REMARK UNBOUND:                 0.000
REMARK SMILES O=c1ccc2ccc(O)cc2o1
REMARK SMILES IDX 6 1 7 2 8 3 10 4 11 5 5 6 4 7 3 8 2 9 1 10 12 11 9 12
REMARK H PARENT 9 13
REMARK Flexibility Score: inf
ROOT
ATOM      1  C   UNL     1      60.383  36.887  35.616  1.00  0.00     0.016 A 
ATOM      2  C   UNL     1      60.921  37.132  36.883  1.00  0.00     0.047 A 
ATOM      3  C   UNL     1      60.133  37.710  37.887  1.00  0.00     0.119 A 
ATOM      4  C   UNL     1      58.798  38.047  37.621  1.00  0.00     0.094 A 
ATOM      5  C   UNL     1      58.251  37.806  36.355  1.00  0.00     0.142 A 
ATOM      6  C   UNL     1      59.049  37.223  35.346  1.00  0.00     0.018 A 
ATOM      7  C   UNL     1      58.475  36.994  34.091  1.00  0.00     0.019 A 
ATOM      8  C   UNL     1      57.143  37.346  33.875  1.00  0.00     0.094 A 
ATOM      9  C   UNL     1      56.414  37.921  34.922  1.00  0.00     0.336 A 
ATOM     10  O   UNL     1      55.210  38.245  34.745  1.00  0.00    -0.246 OA
ATOM     11  O   UNL     1      56.984  38.127  36.106  1.00  0.00    -0.423 OA
ENDROOT
BRANCH   3  12
ATOM     12  O   UNL     1      60.687  37.945  39.143  1.00  0.00    -0.508 OA
ATOM     13  H   UNL     1      60.566  37.290  39.907  1.00  0.00     0.293 HD
ENDBRANCH   3  12
TORSDOF 1
ENDMDL
MODEL 5
REMARK VINA RESULT:    -5.565      0.827      4.227
REMARK INTER + INTRA:          -5.728
REMARK INTER:                  -5.728
REMARK INTRA:                   0.000
REMARK UNBOUND:                 0.000
REMARK SMILES O=c1ccc2ccc(O)cc2o1
REMARK SMILES IDX 6 1 7 2 8 3 10 4 11 5 5 6 4 7 3 8 2 9 1 10 12 11 9 12
REMARK H PARENT 9 13
REMARK Flexibility Score: inf
ROOT
ATOM      1  C   UNL     1      58.387  37.630  37.188  1.00  0.00     0.016 A 
ATOM      2  C   UNL     1      57.532  37.964  36.133  1.00  0.00     0.047 A 
ATOM      3  C   UNL     1      57.806  39.073  35.323  1.00  0.00     0.119 A 
ATOM      4  C   UNL     1      58.943  39.856  35.570  1.00  0.00     0.094 A 
ATOM      5  C   UNL     1      59.805  39.530  36.624  1.00  0.00     0.142 A 
ATOM      6  C   UNL     1      59.525  38.409  37.438  1.00  0.00     0.018 A 
ATOM      7  C   UNL     1      60.405  38.108  38.483  1.00  0.00     0.019 A 
ATOM      8  C   UNL     1      61.523  38.916  38.689  1.00  0.00     0.094 A 
ATOM      9  C   UNL     1      61.736  40.010  37.843  1.00  0.00     0.336 A 
ATOM     10  O   UNL     1      62.739  40.750  38.014  1.00  0.00    -0.246 OA
ATOM     11  O   UNL     1      60.883  40.274  36.856  1.00  0.00    -0.423 OA
ENDROOT
BRANCH   3  12
ATOM     12  O   UNL     1      56.942  39.389  34.278  1.00  0.00    -0.508 OA
ATOM     13  H   UNL     1      56.805  38.761  33.494  1.00  0.00     0.293 HD
ENDBRANCH   3  12
TORSDOF 1
ENDMDL
MODEL 6
REMARK VINA RESULT:    -5.532      1.846      4.955
REMARK INTER + INTRA:          -5.693
REMARK INTER:                  -5.693
REMARK INTRA:                   0.000
REMARK UNBOUND:                 0.000
REMARK SMILES O=c1ccc2ccc(O)cc2o1
REMARK SMILES IDX 6 1 7 2 8 3 10 4 11 5 5 6 4 7 3 8 2 9 1 10 12 11 9 12
REMARK H PARENT 9 13
REMARK Flexibility Score: inf
ROOT
ATOM      1  C   UNL     1      58.081  40.044  34.689  1.00  0.00     0.016 A 
ATOM      2  C   UNL     1      56.904  39.439  34.237  1.00  0.00     0.047 A 
ATOM      3  C   UNL     1      56.421  38.279  34.856  1.00  0.00     0.119 A 
ATOM      4  C   UNL     1      57.120  37.720  35.936  1.00  0.00     0.094 A 
ATOM      5  C   UNL     1      58.300  38.318  36.395  1.00  0.00     0.142 A 
ATOM      6  C   UNL     1      58.783  39.488  35.767  1.00  0.00     0.018 A 
ATOM      7  C   UNL     1      59.964  40.063  36.248  1.00  0.00     0.019 A 
ATOM      8  C   UNL     1      60.624  39.470  37.324  1.00  0.00     0.094 A 
ATOM      9  C   UNL     1      60.086  38.312  37.896  1.00  0.00     0.336 A 
ATOM     10  O   UNL     1      60.668  37.763  38.867  1.00  0.00    -0.246 OA
ATOM     11  O   UNL     1      58.961  37.785  37.418  1.00  0.00    -0.423 OA
ENDROOT
BRANCH   3  12
ATOM     12  O   UNL     1      55.247  37.692  34.392  1.00  0.00    -0.508 OA
ATOM     13  H   UNL     1      54.352  38.161  34.470  1.00  0.00     0.293 HD
ENDBRANCH   3  12
TORSDOF 1
ENDMDL
MODEL 7
REMARK VINA RESULT:    -5.490     11.122     12.272
REMARK INTER + INTRA:          -5.650
REMARK INTER:                  -5.650
REMARK INTRA:                   0.000
REMARK UNBOUND:                 0.000
REMARK SMILES O=c1ccc2ccc(O)cc2o1
REMARK SMILES IDX 6 1 7 2 8 3 10 4 11 5 5 6 4 7 3 8 2 9 1 10 12 11 9 12
REMARK H PARENT 9 13
REMARK Flexibility Score: inf
ROOT
ATOM      1  C   UNL     1      53.705  35.885  45.840  1.00  0.00     0.016 A 
ATOM      2  C   UNL     1      52.950  36.455  46.870  1.00  0.00     0.047 A 
ATOM      3  C   UNL     1      51.566  36.248  46.932  1.00  0.00     0.119 A 
ATOM      4  C   UNL     1      50.932  35.464  45.956  1.00  0.00     0.094 A 
ATOM      5  C   UNL     1      51.680  34.890  44.921  1.00  0.00     0.142 A 
ATOM      6  C   UNL     1      53.075  35.102  44.863  1.00  0.00     0.018 A 
ATOM      7  C   UNL     1      53.795  34.515  43.817  1.00  0.00     0.019 A 
ATOM      8  C   UNL     1      53.120  33.745  42.871  1.00  0.00     0.094 A 
ATOM      9  C   UNL     1      51.736  33.579  42.992  1.00  0.00     0.336 A 
ATOM     10  O   UNL     1      51.110  32.886  42.148  1.00  0.00    -0.246 OA
ATOM     11  O   UNL     1      51.075  34.148  43.997  1.00  0.00    -0.423 OA
ENDROOT
BRANCH   3  12
ATOM     12  O   UNL     1      50.832  36.824  47.965  1.00  0.00    -0.508 OA
ATOM     13  H   UNL     1      50.073  37.470  47.780  1.00  0.00     0.293 HD
ENDBRANCH   3  12
TORSDOF 1
ENDMDL
MODEL 8
REMARK VINA RESULT:    -5.406      2.121      2.709
REMARK INTER + INTRA:          -5.564
REMARK INTER:                  -5.564
REMARK INTRA:                   0.000
REMARK UNBOUND:                 0.000
REMARK SMILES O=c1ccc2ccc(O)cc2o1
REMARK SMILES IDX 6 1 7 2 8 3 10 4 11 5 5 6 4 7 3 8 2 9 1 10 12 11 9 12
REMARK H PARENT 9 13
REMARK Flexibility Score: inf
ROOT
ATOM      1  C   UNL     1      60.219  37.915  35.039  1.00  0.00     0.016 A 
ATOM      2  C   UNL     1      61.450  38.576  34.974  1.00  0.00     0.047 A 
ATOM      3  C   UNL     1      61.895  39.350  36.052  1.00  0.00     0.119 A 
ATOM      4  C   UNL     1      61.105  39.466  37.205  1.00  0.00     0.094 A 
ATOM      5  C   UNL     1      59.871  38.808  37.279  1.00  0.00     0.142 A 
ATOM      6  C   UNL     1      59.425  38.028  36.189  1.00  0.00     0.018 A 
ATOM      7  C   UNL     1      58.189  37.382  36.293  1.00  0.00     0.019 A 
ATOM      8  C   UNL     1      57.438  37.527  37.459  1.00  0.00     0.094 A 
ATOM      9  C   UNL     1      57.943  38.317  38.498  1.00  0.00     0.336 A 
ATOM     10  O   UNL     1      57.280  38.459  39.558  1.00  0.00    -0.246 OA
ATOM     11  O   UNL     1      59.123  38.920  38.373  1.00  0.00    -0.423 OA
ENDROOT
BRANCH   3  12
ATOM     12  O   UNL     1      63.124  40.000  35.968  1.00  0.00    -0.508 OA
ATOM     13  H   UNL     1      63.764  40.029  36.753  1.00  0.00     0.293 HD
ENDBRANCH   3  12
TORSDOF 1
ENDMDL
MODEL 9
REMARK VINA RESULT:    -5.388      8.552      9.607
REMARK INTER + INTRA:          -5.546
REMARK INTER:                  -5.546
REMARK INTRA:                   0.000
REMARK UNBOUND:                 0.000
REMARK SMILES O=c1ccc2ccc(O)cc2o1
REMARK SMILES IDX 6 1 7 2 8 3 10 4 11 5 5 6 4 7 3 8 2 9 1 10 12 11 9 12
REMARK H PARENT 9 13
REMARK Flexibility Score: inf
ROOT
ATOM      1  C   UNL     1      52.240  39.488  44.077  1.00  0.00     0.016 A 
ATOM      2  C   UNL     1      52.604  40.572  43.271  1.00  0.00     0.047 A 
ATOM      3  C   UNL     1      53.332  40.365  42.093  1.00  0.00     0.119 A 
ATOM      4  C   UNL     1      53.700  39.064  41.717  1.00  0.00     0.094 A 
ATOM      5  C   UNL     1      53.340  37.974  42.518  1.00  0.00     0.142 A 
ATOM      6  C   UNL     1      52.606  38.187  43.706  1.00  0.00     0.018 A 
ATOM      7  C   UNL     1      52.261  37.078  44.485  1.00  0.00     0.019 A 
ATOM      8  C   UNL     1      52.649  35.805  44.070  1.00  0.00     0.094 A 
ATOM      9  C   UNL     1      53.376  35.669  42.882  1.00  0.00     0.336 A 
ATOM     10  O   UNL     1      53.735  34.528  42.492  1.00  0.00    -0.246 OA
ATOM     11  O   UNL     1      53.691  36.742  42.160  1.00  0.00    -0.423 OA
ENDROOT
BRANCH   3  12
ATOM     12  O   UNL     1      53.684  41.457  41.304  1.00  0.00    -0.508 OA
ATOM     13  H   UNL     1      54.593  41.898  41.385  1.00  0.00     0.293 HD
ENDBRANCH   3  12
TORSDOF 1
ENDMDL
