MODEL 1
REMARK VINA RESULT:     3.170      0.000      0.000
REMARK INTER + INTRA:           5.802
REMARK INTER:                   7.987
REMARK INTRA:                  -2.186
REMARK UNBOUND:                -2.186
REMARK SMILES CCCCCCCCCCCCCCCCCCCCCCCCCCCC(=O)[O-]
REMARK SMILES IDX 15 1 16 2 17 3 18 4 19 5 20 6 21 7 22 8 23 9 24 10 25 11
REMARK SMILES IDX 26 12 27 13 28 14 29 15 30 16 14 17 13 18 12 19 11 20 10 21
REMARK SMILES IDX 9 22 8 23 7 24 6 25 5 26 4 27 3 28 2 29 1 30
REMARK H PARENT
REMARK Flexibility Score: inf
ROOT
ATOM      1  C   UNL     1       0.321  -5.813   3.608  1.00  0.00     0.000 C 
ENDROOT
BRANCH   1   2
ATOM      2  C   UNL     1       1.213  -6.549   2.583  1.00  0.00     0.000 C 
BRANCH   2   3
ATOM      3  C   UNL     1       0.674  -6.513   1.136  1.00  0.00     0.000 C 
BRANCH   3   4
ATOM      4  C   UNL     1       0.885  -5.176   0.392  1.00  0.00     0.000 C 
BRANCH   4   5
ATOM      5  C   UNL     1       0.078  -5.007  -0.913  1.00  0.00     0.000 C 
BRANCH   5   6
ATOM      6  C   UNL     1       0.767  -4.169  -2.005  1.00  0.00     0.000 C 
BRANCH   6   7
ATOM      7  C   UNL     1       0.168  -2.758  -2.145  1.00  0.00     0.000 C 
BRANCH   7   8
ATOM      8  C   UNL     1       0.982  -1.872  -3.104  1.00  0.00     0.000 C 
BRANCH   8   9
ATOM      9  C   UNL     1       0.122  -1.292  -4.241  1.00  0.00     0.000 C 
BRANCH   9  10
ATOM     10  C   UNL     1       0.764  -1.490  -5.625  1.00  0.00     0.000 C 
BRANCH  10  11
ATOM     11  C   UNL     1       0.378  -0.374  -6.614  1.00  0.00     0.000 C 
BRANCH  11  12
ATOM     12  C   UNL     1       1.087   0.961  -6.312  1.00  0.00     0.006 C 
BRANCH  12  13
ATOM     13  C   UNL     1       0.204   2.197  -6.546  1.00  0.00     0.053 C 
BRANCH  13  14
ATOM     14  C   UNL     1       0.191   3.123  -5.368  1.00  0.00     0.041 C 
ATOM     15  O   UNL     1      -0.692   4.016  -5.275  1.00  0.00    -0.550 OA
ATOM     16  O   UNL     1       1.150   2.994  -4.372  1.00  0.00    -0.550 OA
ENDBRANCH  13  14
ENDBRANCH  12  13
ENDBRANCH  11  12
ENDBRANCH  10  11
ENDBRANCH   9  10
ENDBRANCH   8   9
ENDBRANCH   7   8
ENDBRANCH   6   7
ENDBRANCH   5   6
ENDBRANCH   4   5
ENDBRANCH   3   4
ENDBRANCH   2   3
ENDBRANCH   1   2
BRANCH   1  17
ATOM     17  C   UNL     1      -0.014  -6.651   4.860  1.00  0.00     0.000 C 
BRANCH  17  18
ATOM     18  C   UNL     1      -1.408  -7.302   4.853  1.00  0.00     0.000 C 
BRANCH  18  19
ATOM     19  C   UNL     1      -1.349  -8.834   4.714  1.00  0.00     0.000 C 
BRANCH  19  20
ATOM     20  C   UNL     1      -1.218  -9.287   3.245  1.00  0.00     0.000 C 
BRANCH  20  21
ATOM     21  C   UNL     1      -2.254 -10.343   2.824  1.00  0.00     0.000 C 
BRANCH  21  22
ATOM     22  C   UNL     1      -3.576 -10.231   3.600  1.00  0.00    -0.000 C 
BRANCH  22  23
ATOM     23  C   UNL     1      -4.808 -10.450   2.699  1.00  0.00    -0.000 C 
BRANCH  23  24
ATOM     24  C   UNL     1      -4.889  -9.488   1.497  1.00  0.00    -0.000 C 
BRANCH  24  25
ATOM     25  C   UNL     1      -6.196  -8.671   1.427  1.00  0.00    -0.000 C 
BRANCH  25  26
ATOM     26  C   UNL     1      -7.031  -8.785   2.716  1.00  0.00    -0.000 C 
BRANCH  26  27
ATOM     27  C   UNL     1      -6.969  -7.511   3.579  1.00  0.00    -0.000 C 
BRANCH  27  28
ATOM     28  C   UNL     1      -5.596  -7.230   4.214  1.00  0.00    -0.000 C 
BRANCH  28  29
ATOM     29  C   UNL     1      -4.748  -6.254   3.385  1.00  0.00    -0.003 C 
ATOM     30  C   UNL     1      -5.200  -4.813   3.602  1.00  0.00     0.004 C 
ENDBRANCH  28  29
ENDBRANCH  27  28
ENDBRANCH  26  27
ENDBRANCH  25  26
ENDBRANCH  24  25
ENDBRANCH  23  24
ENDBRANCH  22  23
ENDBRANCH  21  22
ENDBRANCH  20  21
ENDBRANCH  19  20
ENDBRANCH  18  19
ENDBRANCH  17  18
ENDBRANCH   1  17
TORSDOF 26
ENDMDL
MODEL 2
REMARK VINA RESULT:     3.443      3.685     11.331
REMARK INTER + INTRA:           6.492
REMARK INTER:                   8.341
REMARK INTRA:                  -1.850
REMARK UNBOUND:                -2.186
REMARK SMILES CCCCCCCCCCCCCCCCCCCCCCCCCCCC(=O)[O-]
REMARK SMILES IDX 15 1 16 2 17 3 18 4 19 5 20 6 21 7 22 8 23 9 24 10 25 11
REMARK SMILES IDX 26 12 27 13 28 14 29 15 30 16 14 17 13 18 12 19 11 20 10 21
REMARK SMILES IDX 9 22 8 23 7 24 6 25 5 26 4 27 3 28 2 29 1 30
REMARK H PARENT
REMARK Flexibility Score: inf
ROOT
ATOM      1  C   UNL     1       0.708  -7.091   4.062  1.00  0.00     0.000 C 
ENDROOT
BRANCH   1   2
ATOM      2  C   UNL     1      -0.689  -6.803   4.657  1.00  0.00     0.000 C 
BRANCH   2   3
ATOM      3  C   UNL     1      -1.799  -7.748   4.150  1.00  0.00     0.000 C 
BRANCH   3   4
ATOM      4  C   UNL     1      -2.190  -8.881   5.125  1.00  0.00     0.000 C 
BRANCH   4   5
ATOM      5  C   UNL     1      -2.601 -10.214   4.464  1.00  0.00     0.000 C 
BRANCH   5   6
ATOM      6  C   UNL     1      -2.657 -10.193   2.926  1.00  0.00     0.000 C 
BRANCH   6   7
ATOM      7  C   UNL     1      -4.062 -10.498   2.374  1.00  0.00     0.000 C 
BRANCH   7   8
ATOM      8  C   UNL     1      -4.736  -9.252   1.774  1.00  0.00     0.000 C 
BRANCH   8   9
ATOM      9  C   UNL     1      -6.272  -9.336   1.816  1.00  0.00     0.000 C 
BRANCH   9  10
ATOM     10  C   UNL     1      -6.778 -10.390   2.815  1.00  0.00     0.000 C 
BRANCH  10  11
ATOM     11  C   UNL     1      -6.748  -9.880   4.268  1.00  0.00     0.000 C 
BRANCH  11  12
ATOM     12  C   UNL     1      -7.107  -8.386   4.382  1.00  0.00     0.006 C 
BRANCH  12  13
ATOM     13  C   UNL     1      -5.924  -7.495   4.795  1.00  0.00     0.053 C 
BRANCH  13  14
ATOM     14  C   UNL     1      -5.976  -6.142   4.155  1.00  0.00     0.041 C 
ATOM     15  O   UNL     1      -6.971  -5.392   4.340  1.00  0.00    -0.550 OA
ATOM     16  O   UNL     1      -4.923  -5.706   3.360  1.00  0.00    -0.550 OA
ENDBRANCH  13  14
ENDBRANCH  12  13
ENDBRANCH  11  12
ENDBRANCH  10  11
ENDBRANCH   9  10
ENDBRANCH   8   9
ENDBRANCH   7   8
ENDBRANCH   6   7
ENDBRANCH   5   6
ENDBRANCH   4   5
ENDBRANCH   3   4
ENDBRANCH   2   3
ENDBRANCH   1   2
BRANCH   1  17
ATOM     17  C   UNL     1       1.124  -6.115   2.942  1.00  0.00     0.000 C 
BRANCH  17  18
ATOM     18  C   UNL     1       0.588  -6.464   1.543  1.00  0.00     0.000 C 
BRANCH  18  19
ATOM     19  C   UNL     1       1.041  -5.463   0.465  1.00  0.00     0.000 C 
BRANCH  19  20
ATOM     20  C   UNL     1      -0.013  -5.273  -0.645  1.00  0.00     0.000 C 
BRANCH  20  21
ATOM     21  C   UNL     1       0.539  -4.625  -1.925  1.00  0.00     0.000 C 
BRANCH  21  22
ATOM     22  C   UNL     1       0.279  -3.112  -1.994  1.00  0.00    -0.000 C 
BRANCH  22  23
ATOM     23  C   UNL     1       1.198  -2.401  -3.006  1.00  0.00    -0.000 C 
BRANCH  23  24
ATOM     24  C   UNL     1       0.482  -1.351  -3.880  1.00  0.00    -0.000 C 
BRANCH  24  25
ATOM     25  C   UNL     1       0.973  -1.302  -5.341  1.00  0.00    -0.000 C 
BRANCH  25  26
ATOM     26  C   UNL     1       0.206  -0.268  -6.186  1.00  0.00    -0.000 C 
BRANCH  26  27
ATOM     27  C   UNL     1       1.004   1.031  -6.405  1.00  0.00    -0.000 C 
BRANCH  27  28
ATOM     28  C   UNL     1       0.785   2.109  -5.329  1.00  0.00    -0.000 C 
BRANCH  28  29
ATOM     29  C   UNL     1       0.187   3.403  -5.898  1.00  0.00    -0.003 C 
ATOM     30  C   UNL     1      -1.309   3.488  -5.611  1.00  0.00     0.004 C 
ENDBRANCH  28  29
ENDBRANCH  27  28
ENDBRANCH  26  27
ENDBRANCH  25  26
ENDBRANCH  24  25
ENDBRANCH  23  24
ENDBRANCH  22  23
ENDBRANCH  21  22
ENDBRANCH  20  21
ENDBRANCH  19  20
ENDBRANCH  18  19
ENDBRANCH  17  18
ENDBRANCH   1  17
TORSDOF 26
ENDMDL
MODEL 3
REMARK VINA RESULT:     3.735      4.080     11.684
REMARK INTER + INTRA:           7.226
REMARK INTER:                   9.077
REMARK INTRA:                  -1.852
REMARK UNBOUND:                -2.186
REMARK SMILES CCCCCCCCCCCCCCCCCCCCCCCCCCCC(=O)[O-]
REMARK SMILES IDX 15 1 16 2 17 3 18 4 19 5 20 6 21 7 22 8 23 9 24 10 25 11
REMARK SMILES IDX 26 12 27 13 28 14 29 15 30 16 14 17 13 18 12 19 11 20 10 21
REMARK SMILES IDX 9 22 8 23 7 24 6 25 5 26 4 27 3 28 2 29 1 30
REMARK H PARENT
REMARK Flexibility Score: inf
ROOT
ATOM      1  C   UNL     1       0.768  -6.996   1.599  1.00  0.00     0.000 C 
ENDROOT
BRANCH   1   2
ATOM      2  C   UNL     1       1.115  -5.879   2.610  1.00  0.00     0.000 C 
BRANCH   2   3
ATOM      3  C   UNL     1       0.324  -5.957   3.933  1.00  0.00     0.000 C 
BRANCH   3   4
ATOM      4  C   UNL     1       0.588  -7.220   4.781  1.00  0.00     0.000 C 
BRANCH   4   5
ATOM      5  C   UNL     1      -0.606  -8.188   4.923  1.00  0.00     0.000 C 
BRANCH   5   6
ATOM      6  C   UNL     1      -0.808  -9.155   3.743  1.00  0.00     0.000 C 
BRANCH   6   7
ATOM      7  C   UNL     1      -2.236  -9.109   3.168  1.00  0.00     0.000 C 
BRANCH   7   8
ATOM      8  C   UNL     1      -3.077  -7.978   3.787  1.00  0.00     0.000 C 
BRANCH   8   9
ATOM      9  C   UNL     1      -4.224  -8.511   4.665  1.00  0.00     0.000 C 
BRANCH   9  10
ATOM     10  C   UNL     1      -5.591  -7.926   4.269  1.00  0.00     0.000 C 
BRANCH  10  11
ATOM     11  C   UNL     1      -5.679  -7.614   2.764  1.00  0.00     0.000 C 
BRANCH  11  12
ATOM     12  C   UNL     1      -6.761  -8.446   2.046  1.00  0.00     0.006 C 
BRANCH  12  13
ATOM     13  C   UNL     1      -6.240  -9.771   1.468  1.00  0.00     0.053 C 
BRANCH  13  14
ATOM     14  C   UNL     1      -6.111  -9.733  -0.024  1.00  0.00     0.041 C 
ATOM     15  O   UNL     1      -6.500  -8.722  -0.667  1.00  0.00    -0.550 OA
ATOM     16  O   UNL     1      -5.555 -10.809  -0.703  1.00  0.00    -0.550 OA
ENDBRANCH  13  14
ENDBRANCH  12  13
ENDBRANCH  11  12
ENDBRANCH  10  11
ENDBRANCH   9  10
ENDBRANCH   8   9
ENDBRANCH   7   8
ENDBRANCH   6   7
ENDBRANCH   5   6
ENDBRANCH   4   5
ENDBRANCH   3   4
ENDBRANCH   2   3
ENDBRANCH   1   2
BRANCH   1  17
ATOM     17  C   UNL     1       0.393  -6.475   0.196  1.00  0.00     0.000 C 
BRANCH  17  18
ATOM     18  C   UNL     1       0.740  -4.999  -0.064  1.00  0.00     0.000 C 
BRANCH  18  19
ATOM     19  C   UNL     1       0.109  -4.458  -1.360  1.00  0.00     0.000 C 
BRANCH  19  20
ATOM     20  C   UNL     1       1.022  -3.447  -2.084  1.00  0.00     0.000 C 
BRANCH  20  21
ATOM     21  C   UNL     1       0.258  -2.377  -2.880  1.00  0.00     0.000 C 
BRANCH  21  22
ATOM     22  C   UNL     1       1.127  -1.684  -3.942  1.00  0.00    -0.000 C 
BRANCH  22  23
ATOM     23  C   UNL     1       0.418  -1.581  -5.307  1.00  0.00    -0.000 C 
BRANCH  23  24
ATOM     24  C   UNL     1       1.033  -0.534  -6.260  1.00  0.00    -0.000 C 
BRANCH  24  25
ATOM     25  C   UNL     1       0.138   0.698  -6.508  1.00  0.00    -0.000 C 
BRANCH  25  26
ATOM     26  C   UNL     1       0.887   2.025  -6.280  1.00  0.00    -0.000 C 
BRANCH  26  27
ATOM     27  C   UNL     1       0.400   2.775  -5.026  1.00  0.00    -0.000 C 
BRANCH  27  28
ATOM     28  C   UNL     1      -0.180   4.173  -5.299  1.00  0.00    -0.000 C 
BRANCH  28  29
ATOM     29  C   UNL     1      -1.291   4.159  -6.359  1.00  0.00    -0.003 C 
ATOM     30  C   UNL     1      -2.651   3.886  -5.724  1.00  0.00     0.004 C 
ENDBRANCH  28  29
ENDBRANCH  27  28
ENDBRANCH  26  27
ENDBRANCH  25  26
ENDBRANCH  24  25
ENDBRANCH  23  24
ENDBRANCH  22  23
ENDBRANCH  21  22
ENDBRANCH  20  21
ENDBRANCH  19  20
ENDBRANCH  18  19
ENDBRANCH  17  18
ENDBRANCH   1  17
TORSDOF 26
ENDMDL
MODEL 4
REMARK VINA RESULT:     3.849      1.332      2.518
REMARK INTER + INTRA:           7.513
REMARK INTER:                   9.228
REMARK INTRA:                  -1.715
REMARK UNBOUND:                -2.186
REMARK SMILES CCCCCCCCCCCCCCCCCCCCCCCCCCCC(=O)[O-]
REMARK SMILES IDX 15 1 16 2 17 3 18 4 19 5 20 6 21 7 22 8 23 9 24 10 25 11
REMARK SMILES IDX 26 12 27 13 28 14 29 15 30 16 14 17 13 18 12 19 11 20 10 21
REMARK SMILES IDX 9 22 8 23 7 24 6 25 5 26 4 27 3 28 2 29 1 30
REMARK H PARENT
REMARK Flexibility Score: inf
ROOT
ATOM      1  C   UNL     1       1.147  -6.141   2.496  1.00  0.00     0.000 C 
ENDROOT
BRANCH   1   2
ATOM      2  C   UNL     1       0.869  -6.265   0.981  1.00  0.00     0.000 C 
BRANCH   2   3
ATOM      3  C   UNL     1       0.671  -4.913   0.262  1.00  0.00     0.000 C 
BRANCH   3   4
ATOM      4  C   UNL     1       0.224  -5.014  -1.213  1.00  0.00     0.000 C 
BRANCH   4   5
ATOM      5  C   UNL     1       0.030  -3.669  -1.943  1.00  0.00     0.000 C 
BRANCH   5   6
ATOM      6  C   UNL     1       1.273  -3.138  -2.680  1.00  0.00     0.000 C 
BRANCH   6   7
ATOM      7  C   UNL     1       1.157  -1.649  -3.055  1.00  0.00     0.000 C 
BRANCH   7   8
ATOM      8  C   UNL     1       0.171  -1.415  -4.213  1.00  0.00     0.000 C 
BRANCH   8   9
ATOM      9  C   UNL     1       0.867  -1.409  -5.586  1.00  0.00     0.000 C 
BRANCH   9  10
ATOM     10  C   UNL     1       0.212  -0.430  -6.575  1.00  0.00     0.000 C 
BRANCH  10  11
ATOM     11  C   UNL     1       0.815   0.983  -6.485  1.00  0.00     0.000 C 
BRANCH  11  12
ATOM     12  C   UNL     1       0.327   1.762  -5.248  1.00  0.00     0.006 C 
BRANCH  12  13
ATOM     13  C   UNL     1       0.787   3.228  -5.218  1.00  0.00     0.053 C 
BRANCH  13  14
ATOM     14  C   UNL     1      -0.336   4.185  -5.476  1.00  0.00     0.041 C 
ATOM     15  O   UNL     1      -0.132   5.428  -5.430  1.00  0.00    -0.550 OA
ATOM     16  O   UNL     1      -1.605   3.706  -5.775  1.00  0.00    -0.550 OA
ENDBRANCH  13  14
ENDBRANCH  12  13
ENDBRANCH  11  12
ENDBRANCH  10  11
ENDBRANCH   9  10
ENDBRANCH   8   9
ENDBRANCH   7   8
ENDBRANCH   6   7
ENDBRANCH   5   6
ENDBRANCH   4   5
ENDBRANCH   3   4
ENDBRANCH   2   3
ENDBRANCH   1   2
BRANCH   1  17
ATOM     17  C   UNL     1       0.618  -7.328   3.327  1.00  0.00     0.000 C 
BRANCH  17  18
ATOM     18  C   UNL     1       0.392  -7.028   4.819  1.00  0.00     0.000 C 
BRANCH  18  19
ATOM     19  C   UNL     1      -1.042  -6.562   5.123  1.00  0.00     0.000 C 
BRANCH  19  20
ATOM     20  C   UNL     1      -2.107  -7.542   4.589  1.00  0.00     0.000 C 
BRANCH  20  21
ATOM     21  C   UNL     1      -1.938  -8.983   5.095  1.00  0.00     0.000 C 
BRANCH  21  22
ATOM     22  C   UNL     1      -1.730  -9.999   3.961  1.00  0.00    -0.000 C 
BRANCH  22  23
ATOM     23  C   UNL     1      -3.040 -10.698   3.548  1.00  0.00    -0.000 C 
BRANCH  23  24
ATOM     24  C   UNL     1      -4.136 -10.678   4.634  1.00  0.00    -0.000 C 
BRANCH  24  25
ATOM     25  C   UNL     1      -5.493 -10.124   4.155  1.00  0.00    -0.000 C 
BRANCH  25  26
ATOM     26  C   UNL     1      -5.398  -8.660   3.684  1.00  0.00    -0.000 C 
BRANCH  26  27
ATOM     27  C   UNL     1      -6.068  -8.430   2.317  1.00  0.00    -0.000 C 
BRANCH  27  28
ATOM     28  C   UNL     1      -5.264  -8.947   1.112  1.00  0.00    -0.000 C 
BRANCH  28  29
ATOM     29  C   UNL     1      -5.987 -10.070   0.353  1.00  0.00    -0.003 C 
ATOM     30  C   UNL     1      -6.748  -9.518  -0.848  1.00  0.00     0.004 C 
ENDBRANCH  28  29
ENDBRANCH  27  28
ENDBRANCH  26  27
ENDBRANCH  25  26
ENDBRANCH  24  25
ENDBRANCH  23  24
ENDBRANCH  22  23
ENDBRANCH  21  22
ENDBRANCH  20  21
ENDBRANCH  19  20
ENDBRANCH  18  19
ENDBRANCH  17  18
ENDBRANCH   1  17
TORSDOF 26
ENDMDL
MODEL 5
REMARK VINA RESULT:     4.120      1.254      1.801
REMARK INTER + INTRA:           8.196
REMARK INTER:                   9.904
REMARK INTRA:                  -1.708
REMARK UNBOUND:                -2.186
REMARK SMILES CCCCCCCCCCCCCCCCCCCCCCCCCCCC(=O)[O-]
REMARK SMILES IDX 15 1 16 2 17 3 18 4 19 5 20 6 21 7 22 8 23 9 24 10 25 11
REMARK SMILES IDX 26 12 27 13 28 14 29 15 30 16 14 17 13 18 12 19 11 20 10 21
REMARK SMILES IDX 9 22 8 23 7 24 6 25 5 26 4 27 3 28 2 29 1 30
REMARK H PARENT
REMARK Flexibility Score: inf
ROOT
ATOM      1  C   UNL     1      -0.421  -6.178   3.880  1.00  0.00     0.000 C 
ENDROOT
BRANCH   1   2
ATOM      2  C   UNL     1       1.092  -6.338   3.606  1.00  0.00     0.000 C 
BRANCH   2   3
ATOM      3  C   UNL     1       1.619  -5.471   2.442  1.00  0.00     0.000 C 
BRANCH   3   4
ATOM      4  C   UNL     1       0.983  -5.766   1.066  1.00  0.00     0.000 C 
BRANCH   4   5
ATOM      5  C   UNL     1       0.958  -4.580   0.078  1.00  0.00     0.000 C 
BRANCH   5   6
ATOM      6  C   UNL     1       0.254  -4.860  -1.262  1.00  0.00     0.000 C 
BRANCH   6   7
ATOM      7  C   UNL     1      -0.145  -3.574  -2.009  1.00  0.00     0.000 C 
BRANCH   7   8
ATOM      8  C   UNL     1       1.075  -2.713  -2.382  1.00  0.00     0.000 C 
BRANCH   8   9
ATOM      9  C   UNL     1       0.819  -1.833  -3.618  1.00  0.00     0.000 C 
BRANCH   9  10
ATOM     10  C   UNL     1      -0.225  -0.734  -3.354  1.00  0.00     0.000 C 
BRANCH  10  11
ATOM     11  C   UNL     1       0.360   0.450  -2.564  1.00  0.00     0.000 C 
BRANCH  11  12
ATOM     12  C   UNL     1       0.098   1.809  -3.244  1.00  0.00     0.006 C 
BRANCH  12  13
ATOM     13  C   UNL     1       1.108   2.151  -4.351  1.00  0.00     0.053 C 
BRANCH  13  14
ATOM     14  C   UNL     1       0.453   2.751  -5.557  1.00  0.00     0.041 C 
ATOM     15  O   UNL     1       0.062   3.948  -5.536  1.00  0.00    -0.550 OA
ATOM     16  O   UNL     1       0.282   1.991  -6.707  1.00  0.00    -0.550 OA
ENDBRANCH  13  14
ENDBRANCH  12  13
ENDBRANCH  11  12
ENDBRANCH  10  11
ENDBRANCH   9  10
ENDBRANCH   8   9
ENDBRANCH   7   8
ENDBRANCH   6   7
ENDBRANCH   5   6
ENDBRANCH   4   5
ENDBRANCH   3   4
ENDBRANCH   2   3
ENDBRANCH   1   2
BRANCH   1  17
ATOM     17  C   UNL     1      -0.915  -6.942   5.125  1.00  0.00     0.000 C 
BRANCH  17  18
ATOM     18  C   UNL     1      -1.084  -8.459   4.933  1.00  0.00     0.000 C 
BRANCH  18  19
ATOM     19  C   UNL     1      -0.792  -8.913   3.492  1.00  0.00     0.000 C 
BRANCH  19  20
ATOM     20  C   UNL     1      -0.736 -10.449   3.356  1.00  0.00     0.000 C 
BRANCH  20  21
ATOM     21  C   UNL     1      -1.922 -11.050   2.586  1.00  0.00     0.000 C 
BRANCH  21  22
ATOM     22  C   UNL     1      -3.284 -10.539   3.082  1.00  0.00    -0.000 C 
BRANCH  22  23
ATOM     23  C   UNL     1      -4.098  -9.854   1.967  1.00  0.00    -0.000 C 
BRANCH  23  24
ATOM     24  C   UNL     1      -5.179 -10.753   1.332  1.00  0.00    -0.000 C 
BRANCH  24  25
ATOM     25  C   UNL     1      -6.614 -10.198   1.452  1.00  0.00    -0.000 C 
BRANCH  25  26
ATOM     26  C   UNL     1      -6.645  -8.661   1.545  1.00  0.00    -0.000 C 
BRANCH  26  27
ATOM     27  C   UNL     1      -7.123  -8.158   2.920  1.00  0.00    -0.000 C 
BRANCH  27  28
ATOM     28  C   UNL     1      -6.291  -7.003   3.505  1.00  0.00    -0.000 C 
BRANCH  28  29
ATOM     29  C   UNL     1      -5.048  -7.491   4.262  1.00  0.00    -0.003 C 
ATOM     30  C   UNL     1      -5.372  -8.707   5.125  1.00  0.00     0.004 C 
ENDBRANCH  28  29
ENDBRANCH  27  28
ENDBRANCH  26  27
ENDBRANCH  25  26
ENDBRANCH  24  25
ENDBRANCH  23  24
ENDBRANCH  22  23
ENDBRANCH  21  22
ENDBRANCH  20  21
ENDBRANCH  19  20
ENDBRANCH  18  19
ENDBRANCH  17  18
ENDBRANCH   1  17
TORSDOF 26
ENDMDL
MODEL 6
REMARK VINA RESULT:     4.299      3.609     11.645
REMARK INTER + INTRA:           8.647
REMARK INTER:                  10.213
REMARK INTRA:                  -1.566
REMARK UNBOUND:                -2.186
REMARK SMILES CCCCCCCCCCCCCCCCCCCCCCCCCCCC(=O)[O-]
REMARK SMILES IDX 15 1 16 2 17 3 18 4 19 5 20 6 21 7 22 8 23 9 24 10 25 11
REMARK SMILES IDX 26 12 27 13 28 14 29 15 30 16 14 17 13 18 12 19 11 20 10 21
REMARK SMILES IDX 9 22 8 23 7 24 6 25 5 26 4 27 3 28 2 29 1 30
REMARK H PARENT
REMARK Flexibility Score: inf
ROOT
ATOM      1  C   UNL     1       0.768  -6.478   1.716  1.00  0.00     0.000 C 
ENDROOT
BRANCH   1   2
ATOM      2  C   UNL     1       0.736  -6.063   3.204  1.00  0.00     0.000 C 
BRANCH   2   3
ATOM      3  C   UNL     1       0.778  -7.249   4.192  1.00  0.00     0.000 C 
BRANCH   3   4
ATOM      4  C   UNL     1      -0.538  -8.048   4.312  1.00  0.00     0.000 C 
BRANCH   4   5
ATOM      5  C   UNL     1      -0.580  -9.380   3.534  1.00  0.00     0.000 C 
BRANCH   5   6
ATOM      6  C   UNL     1      -1.929  -9.709   2.870  1.00  0.00     0.000 C 
BRANCH   6   7
ATOM      7  C   UNL     1      -2.714 -10.803   3.617  1.00  0.00     0.000 C 
BRANCH   7   8
ATOM      8  C   UNL     1      -4.236 -10.592   3.529  1.00  0.00     0.000 C 
BRANCH   8   9
ATOM      9  C   UNL     1      -4.683 -10.106   2.138  1.00  0.00     0.000 C 
BRANCH   9  10
ATOM     10  C   UNL     1      -6.051  -9.403   2.170  1.00  0.00     0.000 C 
BRANCH  10  11
ATOM     11  C   UNL     1      -6.720  -9.490   3.554  1.00  0.00     0.000 C 
BRANCH  11  12
ATOM     12  C   UNL     1      -6.501  -8.222   4.402  1.00  0.00     0.006 C 
BRANCH  12  13
ATOM     13  C   UNL     1      -6.454  -6.925   3.578  1.00  0.00     0.053 C 
BRANCH  13  14
ATOM     14  C   UNL     1      -5.105  -6.275   3.609  1.00  0.00     0.041 C 
ATOM     15  O   UNL     1      -5.002  -5.026   3.483  1.00  0.00    -0.550 OA
ATOM     16  O   UNL     1      -3.964  -7.047   3.784  1.00  0.00    -0.550 OA
ENDBRANCH  13  14
ENDBRANCH  12  13
ENDBRANCH  11  12
ENDBRANCH  10  11
ENDBRANCH   9  10
ENDBRANCH   8   9
ENDBRANCH   7   8
ENDBRANCH   6   7
ENDBRANCH   5   6
ENDBRANCH   4   5
ENDBRANCH   3   4
ENDBRANCH   2   3
ENDBRANCH   1   2
BRANCH   1  17
ATOM     17  C   UNL     1       1.059  -5.312   0.748  1.00  0.00     0.000 C 
BRANCH  17  18
ATOM     18  C   UNL     1       0.282  -5.358  -0.578  1.00  0.00     0.000 C 
BRANCH  18  19
ATOM     19  C   UNL     1       0.793  -4.331  -1.604  1.00  0.00     0.000 C 
BRANCH  19  20
ATOM     20  C   UNL     1      -0.304  -3.338  -2.042  1.00  0.00     0.000 C 
BRANCH  20  21
ATOM     21  C   UNL     1       0.232  -1.956  -2.447  1.00  0.00     0.000 C 
BRANCH  21  22
ATOM     22  C   UNL     1       0.884  -1.947  -3.839  1.00  0.00    -0.000 C 
BRANCH  22  23
ATOM     23  C   UNL     1      -0.021  -1.305  -4.910  1.00  0.00    -0.000 C 
BRANCH  23  24
ATOM     24  C   UNL     1       0.745  -0.722  -6.116  1.00  0.00    -0.000 C 
BRANCH  24  25
ATOM     25  C   UNL     1       0.368   0.733  -6.461  1.00  0.00    -0.000 C 
BRANCH  25  26
ATOM     26  C   UNL     1       1.387   1.751  -5.915  1.00  0.00    -0.000 C 
BRANCH  26  27
ATOM     27  C   UNL     1       0.736   3.088  -5.515  1.00  0.00    -0.000 C 
BRANCH  27  28
ATOM     28  C   UNL     1      -0.791   3.032  -5.337  1.00  0.00    -0.000 C 
BRANCH  28  29
ATOM     29  C   UNL     1      -1.499   4.283  -5.879  1.00  0.00    -0.003 C 
ATOM     30  C   UNL     1      -3.007   4.068  -5.960  1.00  0.00     0.004 C 
ENDBRANCH  28  29
ENDBRANCH  27  28
ENDBRANCH  26  27
ENDBRANCH  25  26
ENDBRANCH  24  25
ENDBRANCH  23  24
ENDBRANCH  22  23
ENDBRANCH  21  22
ENDBRANCH  20  21
ENDBRANCH  19  20
ENDBRANCH  18  19
ENDBRANCH  17  18
ENDBRANCH   1  17
TORSDOF 26
ENDMDL
MODEL 7
REMARK VINA RESULT:     4.306      3.924     11.194
REMARK INTER + INTRA:           8.665
REMARK INTER:                  10.941
REMARK INTRA:                  -2.276
REMARK UNBOUND:                -2.186
REMARK SMILES CCCCCCCCCCCCCCCCCCCCCCCCCCCC(=O)[O-]
REMARK SMILES IDX 15 1 16 2 17 3 18 4 19 5 20 6 21 7 22 8 23 9 24 10 25 11
REMARK SMILES IDX 26 12 27 13 28 14 29 15 30 16 14 17 13 18 12 19 11 20 10 21
REMARK SMILES IDX 9 22 8 23 7 24 6 25 5 26 4 27 3 28 2 29 1 30
REMARK H PARENT
REMARK Flexibility Score: inf
ROOT
ATOM      1  C   UNL     1       0.617  -6.700   3.587  1.00  0.00     0.000 C 
ENDROOT
BRANCH   1   2
ATOM      2  C   UNL     1      -0.361  -7.750   3.014  1.00  0.00     0.000 C 
BRANCH   2   3
ATOM      3  C   UNL     1      -0.290  -9.126   3.709  1.00  0.00     0.000 C 
BRANCH   3   4
ATOM      4  C   UNL     1      -1.093 -10.251   3.019  1.00  0.00     0.000 C 
BRANCH   4   5
ATOM      5  C   UNL     1      -2.077 -11.018   3.928  1.00  0.00     0.000 C 
BRANCH   5   6
ATOM      6  C   UNL     1      -3.546 -10.572   3.826  1.00  0.00     0.000 C 
BRANCH   6   7
ATOM      7  C   UNL     1      -3.969  -9.634   4.971  1.00  0.00     0.000 C 
BRANCH   7   8
ATOM      8  C   UNL     1      -3.619  -8.164   4.679  1.00  0.00     0.000 C 
BRANCH   8   9
ATOM      9  C   UNL     1      -4.153  -7.692   3.315  1.00  0.00     0.000 C 
BRANCH   9  10
ATOM     10  C   UNL     1      -5.317  -6.694   3.450  1.00  0.00     0.000 C 
BRANCH  10  11
ATOM     11  C   UNL     1      -6.672  -7.399   3.641  1.00  0.00     0.000 C 
BRANCH  11  12
ATOM     12  C   UNL     1      -6.739  -8.763   2.927  1.00  0.00     0.006 C 
BRANCH  12  13
ATOM     13  C   UNL     1      -7.103  -8.665   1.436  1.00  0.00     0.053 C 
BRANCH  13  14
ATOM     14  C   UNL     1      -5.979  -9.094   0.544  1.00  0.00     0.041 C 
ATOM     15  O   UNL     1      -5.609 -10.299   0.527  1.00  0.00    -0.550 OA
ATOM     16  O   UNL     1      -5.347  -8.168  -0.275  1.00  0.00    -0.550 OA
ENDBRANCH  13  14
ENDBRANCH  12  13
ENDBRANCH  11  12
ENDBRANCH  10  11
ENDBRANCH   9  10
ENDBRANCH   8   9
ENDBRANCH   7   8
ENDBRANCH   6   7
ENDBRANCH   5   6
ENDBRANCH   4   5
ENDBRANCH   3   4
ENDBRANCH   2   3
ENDBRANCH   1   2
BRANCH   1  17
ATOM     17  C   UNL     1       1.457  -5.976   2.514  1.00  0.00     0.000 C 
BRANCH  17  18
ATOM     18  C   UNL     1       1.032  -6.250   1.061  1.00  0.00     0.000 C 
BRANCH  18  19
ATOM     19  C   UNL     1       0.299  -5.058   0.421  1.00  0.00     0.000 C 
BRANCH  19  20
ATOM     20  C   UNL     1       0.244  -5.157  -1.118  1.00  0.00     0.000 C 
BRANCH  20  21
ATOM     21  C   UNL     1       0.426  -3.811  -1.836  1.00  0.00     0.000 C 
BRANCH  21  22
ATOM     22  C   UNL     1       1.885  -3.534  -2.234  1.00  0.00    -0.000 C 
BRANCH  22  23
ATOM     23  C   UNL     1       2.059  -2.165  -2.920  1.00  0.00    -0.000 C 
BRANCH  23  24
ATOM     24  C   UNL     1       1.557  -2.121  -4.378  1.00  0.00    -0.000 C 
BRANCH  24  25
ATOM     25  C   UNL     1       0.478  -1.052  -4.644  1.00  0.00    -0.000 C 
BRANCH  25  26
ATOM     26  C   UNL     1       0.195  -0.862  -6.146  1.00  0.00    -0.000 C 
BRANCH  26  27
ATOM     27  C   UNL     1       0.958   0.332  -6.749  1.00  0.00    -0.000 C 
BRANCH  27  28
ATOM     28  C   UNL     1       0.304   1.703  -6.503  1.00  0.00    -0.000 C 
BRANCH  28  29
ATOM     29  C   UNL     1       1.156   2.615  -5.607  1.00  0.00    -0.003 C 
ATOM     30  C   UNL     1       0.759   2.470  -4.141  1.00  0.00     0.004 C 
ENDBRANCH  28  29
ENDBRANCH  27  28
ENDBRANCH  26  27
ENDBRANCH  25  26
ENDBRANCH  24  25
ENDBRANCH  23  24
ENDBRANCH  22  23
ENDBRANCH  21  22
ENDBRANCH  20  21
ENDBRANCH  19  20
ENDBRANCH  18  19
ENDBRANCH  17  18
ENDBRANCH   1  17
TORSDOF 26
ENDMDL
MODEL 8
REMARK VINA RESULT:     4.526      1.227      2.019
REMARK INTER + INTRA:           9.219
REMARK INTER:                  11.488
REMARK INTRA:                  -2.270
REMARK UNBOUND:                -2.186
REMARK SMILES CCCCCCCCCCCCCCCCCCCCCCCCCCCC(=O)[O-]
REMARK SMILES IDX 15 1 16 2 17 3 18 4 19 5 20 6 21 7 22 8 23 9 24 10 25 11
REMARK SMILES IDX 26 12 27 13 28 14 29 15 30 16 14 17 13 18 12 19 11 20 10 21
REMARK SMILES IDX 9 22 8 23 7 24 6 25 5 26 4 27 3 28 2 29 1 30
REMARK H PARENT
REMARK Flexibility Score: inf
ROOT
ATOM      1  C   UNL     1      -0.206  -8.154   4.181  1.00  0.00     0.000 C 
ENDROOT
BRANCH   1   2
ATOM      2  C   UNL     1       0.658  -6.959   3.719  1.00  0.00     0.000 C 
BRANCH   2   3
ATOM      3  C   UNL     1       0.560  -6.654   2.209  1.00  0.00     0.000 C 
BRANCH   3   4
ATOM      4  C   UNL     1       1.488  -5.525   1.707  1.00  0.00     0.000 C 
BRANCH   4   5
ATOM      5  C   UNL     1       0.924  -4.662   0.559  1.00  0.00     0.000 C 
BRANCH   5   6
ATOM      6  C   UNL     1       0.282  -5.449  -0.598  1.00  0.00     0.000 C 
BRANCH   6   7
ATOM      7  C   UNL     1       0.089  -4.598  -1.866  1.00  0.00     0.000 C 
BRANCH   7   8
ATOM      8  C   UNL     1       0.552  -3.144  -1.670  1.00  0.00     0.000 C 
BRANCH   8   9
ATOM      9  C   UNL     1       0.357  -2.288  -2.934  1.00  0.00     0.000 C 
BRANCH   9  10
ATOM     10  C   UNL     1       1.616  -2.244  -3.817  1.00  0.00     0.000 C 
BRANCH  10  11
ATOM     11  C   UNL     1       1.313  -1.748  -5.242  1.00  0.00     0.000 C 
BRANCH  11  12
ATOM     12  C   UNL     1       0.397  -0.509  -5.260  1.00  0.00     0.006 C 
BRANCH  12  13
ATOM     13  C   UNL     1       0.696   0.466  -6.411  1.00  0.00     0.053 C 
BRANCH  13  14
ATOM     14  C   UNL     1       0.692   1.896  -5.964  1.00  0.00     0.041 C 
ATOM     15  O   UNL     1       1.712   2.390  -5.414  1.00  0.00    -0.550 OA
ATOM     16  O   UNL     1      -0.433   2.684  -6.163  1.00  0.00    -0.550 OA
ENDBRANCH  13  14
ENDBRANCH  12  13
ENDBRANCH  11  12
ENDBRANCH  10  11
ENDBRANCH   9  10
ENDBRANCH   8   9
ENDBRANCH   7   8
ENDBRANCH   6   7
ENDBRANCH   5   6
ENDBRANCH   4   5
ENDBRANCH   3   4
ENDBRANCH   2   3
ENDBRANCH   1   2
BRANCH   1  17
ATOM     17  C   UNL     1      -1.505  -7.743   4.903  1.00  0.00     0.000 C 
BRANCH  17  18
ATOM     18  C   UNL     1      -2.789  -8.382   4.346  1.00  0.00     0.000 C 
BRANCH  18  19
ATOM     19  C   UNL     1      -2.563  -9.100   3.004  1.00  0.00     0.000 C 
BRANCH  19  20
ATOM     20  C   UNL     1      -2.773 -10.625   3.109  1.00  0.00     0.000 C 
BRANCH  20  21
ATOM     21  C   UNL     1      -4.063 -11.125   2.437  1.00  0.00     0.000 C 
BRANCH  21  22
ATOM     22  C   UNL     1      -4.820 -10.016   1.689  1.00  0.00    -0.000 C 
BRANCH  22  23
ATOM     23  C   UNL     1      -6.321  -9.990   2.036  1.00  0.00    -0.000 C 
BRANCH  23  24
ATOM     24  C   UNL     1      -6.756 -11.081   3.037  1.00  0.00    -0.000 C 
BRANCH  24  25
ATOM     25  C   UNL     1      -7.085 -10.549   4.447  1.00  0.00    -0.000 C 
BRANCH  25  26
ATOM     26  C   UNL     1      -6.256  -9.305   4.816  1.00  0.00    -0.000 C 
BRANCH  26  27
ATOM     27  C   UNL     1      -7.123  -8.044   4.993  1.00  0.00    -0.000 C 
BRANCH  27  28
ATOM     28  C   UNL     1      -7.019  -7.026   3.844  1.00  0.00    -0.000 C 
BRANCH  28  29
ATOM     29  C   UNL     1      -5.739  -6.181   3.913  1.00  0.00    -0.003 C 
ATOM     30  C   UNL     1      -6.068  -4.693   4.001  1.00  0.00     0.004 C 
ENDBRANCH  28  29
ENDBRANCH  27  28
ENDBRANCH  26  27
ENDBRANCH  25  26
ENDBRANCH  24  25
ENDBRANCH  23  24
ENDBRANCH  22  23
ENDBRANCH  21  22
ENDBRANCH  20  21
ENDBRANCH  19  20
ENDBRANCH  18  19
ENDBRANCH  17  18
ENDBRANCH   1  17
TORSDOF 26
ENDMDL
MODEL 9
REMARK VINA RESULT:     4.599      1.250      2.097
REMARK INTER + INTRA:           9.402
REMARK INTER:                  10.959
REMARK INTRA:                  -1.556
REMARK UNBOUND:                -2.186
REMARK SMILES CCCCCCCCCCCCCCCCCCCCCCCCCCCC(=O)[O-]
REMARK SMILES IDX 15 1 16 2 17 3 18 4 19 5 20 6 21 7 22 8 23 9 24 10 25 11
REMARK SMILES IDX 26 12 27 13 28 14 29 15 30 16 14 17 13 18 12 19 11 20 10 21
REMARK SMILES IDX 9 22 8 23 7 24 6 25 5 26 4 27 3 28 2 29 1 30
REMARK H PARENT
REMARK Flexibility Score: inf
ROOT
ATOM      1  C   UNL     1       0.636  -6.564   1.470  1.00  0.00     0.000 C 
ENDROOT
BRANCH   1   2
ATOM      2  C   UNL     1       0.760  -5.425   0.433  1.00  0.00     0.000 C 
BRANCH   2   3
ATOM      3  C   UNL     1      -0.007  -5.681  -0.882  1.00  0.00     0.000 C 
BRANCH   3   4
ATOM      4  C   UNL     1       0.256  -4.653  -2.005  1.00  0.00     0.000 C 
BRANCH   4   5
ATOM      5  C   UNL     1       0.739  -3.265  -1.535  1.00  0.00     0.000 C 
BRANCH   5   6
ATOM      6  C   UNL     1       1.410  -2.403  -2.620  1.00  0.00     0.000 C 
BRANCH   6   7
ATOM      7  C   UNL     1       0.407  -1.838  -3.642  1.00  0.00     0.000 C 
BRANCH   7   8
ATOM      8  C   UNL     1       1.108  -1.186  -4.847  1.00  0.00     0.000 C 
BRANCH   8   9
ATOM      9  C   UNL     1       0.210  -1.141  -6.096  1.00  0.00     0.000 C 
BRANCH   9  10
ATOM     10  C   UNL     1      -0.027   0.293  -6.602  1.00  0.00     0.000 C 
BRANCH  10  11
ATOM     11  C   UNL     1       1.245   1.157  -6.525  1.00  0.00     0.000 C 
BRANCH  11  12
ATOM     12  C   UNL     1       1.061   2.411  -5.647  1.00  0.00     0.006 C 
BRANCH  12  13
ATOM     13  C   UNL     1      -0.375   2.599  -5.130  1.00  0.00     0.053 C 
BRANCH  13  14
ATOM     14  C   UNL     1      -0.962   3.915  -5.539  1.00  0.00     0.041 C 
ATOM     15  O   UNL     1      -0.290   4.974  -5.416  1.00  0.00    -0.550 OA
ATOM     16  O   UNL     1      -2.247   3.972  -6.061  1.00  0.00    -0.550 OA
ENDBRANCH  13  14
ENDBRANCH  12  13
ENDBRANCH  11  12
ENDBRANCH  10  11
ENDBRANCH   9  10
ENDBRANCH   8   9
ENDBRANCH   7   8
ENDBRANCH   6   7
ENDBRANCH   5   6
ENDBRANCH   4   5
ENDBRANCH   3   4
ENDBRANCH   2   3
ENDBRANCH   1   2
BRANCH   1  17
ATOM     17  C   UNL     1       0.970  -6.134   2.913  1.00  0.00     0.000 C 
BRANCH  17  18
ATOM     18  C   UNL     1       0.206  -6.893   4.012  1.00  0.00     0.000 C 
BRANCH  18  19
ATOM     19  C   UNL     1       0.589  -8.382   4.083  1.00  0.00     0.000 C 
BRANCH  19  20
ATOM     20  C   UNL     1      -0.304  -9.265   3.186  1.00  0.00     0.000 C 
BRANCH  20  21
ATOM     21  C   UNL     1      -1.528  -9.850   3.909  1.00  0.00     0.000 C 
BRANCH  21  22
ATOM     22  C   UNL     1      -2.053  -8.943   5.034  1.00  0.00    -0.000 C 
BRANCH  22  23
ATOM     23  C   UNL     1      -3.315  -8.161   4.620  1.00  0.00    -0.000 C 
BRANCH  23  24
ATOM     24  C   UNL     1      -4.030  -8.730   3.376  1.00  0.00    -0.000 C 
BRANCH  24  25
ATOM     25  C   UNL     1      -5.569  -8.673   3.450  1.00  0.00    -0.000 C 
BRANCH  25  26
ATOM     26  C   UNL     1      -6.072  -7.992   4.737  1.00  0.00    -0.000 C 
BRANCH  26  27
ATOM     27  C   UNL     1      -7.124  -6.901   4.460  1.00  0.00    -0.000 C 
BRANCH  27  28
ATOM     28  C   UNL     1      -6.781  -5.517   5.038  1.00  0.00    -0.000 C 
BRANCH  28  29
ATOM     29  C   UNL     1      -6.238  -4.549   3.977  1.00  0.00    -0.003 C 
ATOM     30  C   UNL     1      -4.792  -4.881   3.620  1.00  0.00     0.004 C 
ENDBRANCH  28  29
ENDBRANCH  27  28
ENDBRANCH  26  27
ENDBRANCH  25  26
ENDBRANCH  24  25
ENDBRANCH  23  24
ENDBRANCH  22  23
ENDBRANCH  21  22
ENDBRANCH  20  21
ENDBRANCH  19  20
ENDBRANCH  18  19
ENDBRANCH  17  18
ENDBRANCH   1  17
TORSDOF 26
ENDMDL
