MODEL 1
REMARK VINA RESULT:    -4.037      0.000      0.000
REMARK INTER + INTRA:         -12.262
REMARK INTER:                  -8.757
REMARK INTRA:                  -3.505
REMARK UNBOUND:                -3.505
REMARK SMILES CCCCCCCCCCCCCCCCCCCCCC(=O)[O-]
REMARK SMILES IDX 12 1 11 2 10 3 9 4 8 5 7 6 6 7 5 8 4 9 3 10 2 11 1 12 13 13
REMARK SMILES IDX 14 14 15 15 16 16 17 17 18 18 19 19 20 20 21 21 22 22 23 23
REMARK SMILES IDX 24 24
REMARK H PARENT
REMARK Flexibility Score: inf
ROOT
ATOM      1  C   UNL     1      28.696   3.376   8.365  1.00  0.00     0.000 C 
ENDROOT
BRANCH   1   2
ATOM      2  C   UNL     1      28.396   2.105   7.547  1.00  0.00     0.000 C 
BRANCH   2   3
ATOM      3  C   UNL     1      27.941   0.892   8.379  1.00  0.00     0.000 C 
BRANCH   3   4
ATOM      4  C   UNL     1      28.935  -0.281   8.308  1.00  0.00    -0.000 C 
BRANCH   4   5
ATOM      5  C   UNL     1      28.227  -1.651   8.378  1.00  0.00    -0.000 C 
BRANCH   5   6
ATOM      6  C   UNL     1      28.701  -2.650   7.309  1.00  0.00    -0.000 C 
BRANCH   6   7
ATOM      7  C   UNL     1      27.696  -2.815   6.157  1.00  0.00    -0.000 C 
BRANCH   7   8
ATOM      8  C   UNL     1      26.458  -1.917   6.319  1.00  0.00    -0.000 C 
BRANCH   8   9
ATOM      9  C   UNL     1      26.419  -0.778   5.284  1.00  0.00    -0.000 C 
BRANCH   9  10
ATOM     10  C   UNL     1      25.505   0.380   5.714  1.00  0.00    -0.000 C 
BRANCH  10  11
ATOM     11  C   UNL     1      24.617   0.020   6.914  1.00  0.00    -0.003 C 
ATOM     12  C   UNL     1      23.163   0.405   6.656  1.00  0.00     0.004 C 
ENDBRANCH  10  11
ENDBRANCH   9  10
ENDBRANCH   8   9
ENDBRANCH   7   8
ENDBRANCH   6   7
ENDBRANCH   5   6
ENDBRANCH   4   5
ENDBRANCH   3   4
ENDBRANCH   2   3
ENDBRANCH   1   2
BRANCH   1  13
ATOM     13  C   UNL     1      28.897   3.151   9.878  1.00  0.00     0.000 C 
BRANCH  13  14
ATOM     14  C   UNL     1      27.885   3.875  10.784  1.00  0.00     0.000 C 
BRANCH  14  15
ATOM     15  C   UNL     1      26.925   4.783  10.003  1.00  0.00     0.000 C 
BRANCH  15  16
ATOM     16  C   UNL     1      25.508   4.709  10.588  1.00  0.00     0.000 C 
BRANCH  16  17
ATOM     17  C   UNL     1      24.483   4.136   9.594  1.00  0.00     0.000 C 
BRANCH  17  18
ATOM     18  C   UNL     1      25.080   3.259   8.474  1.00  0.00     0.000 C 
BRANCH  18  19
ATOM     19  C   UNL     1      25.059   3.886   7.067  1.00  0.00     0.000 C 
BRANCH  19  20
ATOM     20  C   UNL     1      24.648   5.367   7.074  1.00  0.00     0.006 C 
BRANCH  20  21
ATOM     21  C   UNL     1      25.780   6.285   6.595  1.00  0.00     0.053 C 
BRANCH  21  22
ATOM     22  C   UNL     1      26.112   7.345   7.601  1.00  0.00     0.041 C 
ATOM     23  O   UNL     1      27.232   7.918   7.569  1.00  0.00    -0.550 OA
ATOM     24  O   UNL     1      25.173   7.718   8.555  1.00  0.00    -0.550 OA
ENDBRANCH  21  22
ENDBRANCH  20  21
ENDBRANCH  19  20
ENDBRANCH  18  19
ENDBRANCH  17  18
ENDBRANCH  16  17
ENDBRANCH  15  16
ENDBRANCH  14  15
ENDBRANCH  13  14
ENDBRANCH   1  13
TORSDOF 20
ENDMDL
MODEL 2
REMARK VINA RESULT:    -4.010      2.796      4.669
REMARK INTER + INTRA:         -12.204
REMARK INTER:                  -8.270
REMARK INTRA:                  -3.933
REMARK UNBOUND:                -3.505
REMARK SMILES CCCCCCCCCCCCCCCCCCCCCC(=O)[O-]
REMARK SMILES IDX 12 1 11 2 10 3 9 4 8 5 7 6 6 7 5 8 4 9 3 10 2 11 1 12 13 13
REMARK SMILES IDX 14 14 15 15 16 16 17 17 18 18 19 19 20 20 21 21 22 22 23 23
REMARK SMILES IDX 24 24
REMARK H PARENT
REMARK Flexibility Score: inf
ROOT
ATOM      1  C   UNL     1      27.632   3.745  10.665  1.00  0.00     0.000 C 
ENDROOT
BRANCH   1   2
ATOM      2  C   UNL     1      28.743   3.226   9.730  1.00  0.00     0.000 C 
BRANCH   2   3
ATOM      3  C   UNL     1      28.364   1.982   8.905  1.00  0.00     0.000 C 
BRANCH   3   4
ATOM      4  C   UNL     1      28.355   2.256   7.390  1.00  0.00    -0.000 C 
BRANCH   4   5
ATOM      5  C   UNL     1      26.942   2.131   6.782  1.00  0.00    -0.000 C 
BRANCH   5   6
ATOM      6  C   UNL     1      25.951   1.359   7.670  1.00  0.00    -0.000 C 
BRANCH   6   7
ATOM      7  C   UNL     1      24.518   1.911   7.587  1.00  0.00    -0.000 C 
BRANCH   7   8
ATOM      8  C   UNL     1      24.082   2.623   8.879  1.00  0.00    -0.000 C 
BRANCH   8   9
ATOM      9  C   UNL     1      23.374   3.962   8.602  1.00  0.00    -0.000 C 
BRANCH   9  10
ATOM     10  C   UNL     1      23.171   4.222   7.101  1.00  0.00    -0.000 C 
BRANCH  10  11
ATOM     11  C   UNL     1      22.412   5.529   6.823  1.00  0.00    -0.003 C 
ATOM     12  C   UNL     1      21.072   5.551   7.553  1.00  0.00     0.004 C 
ENDBRANCH  10  11
ENDBRANCH   9  10
ENDBRANCH   8   9
ENDBRANCH   7   8
ENDBRANCH   6   7
ENDBRANCH   5   6
ENDBRANCH   4   5
ENDBRANCH   3   4
ENDBRANCH   2   3
ENDBRANCH   1   2
BRANCH   1  13
ATOM     13  C   UNL     1      26.703   4.812  10.051  1.00  0.00     0.000 C 
BRANCH  13  14
ATOM     14  C   UNL     1      27.271   5.539   8.820  1.00  0.00     0.000 C 
BRANCH  14  15
ATOM     15  C   UNL     1      26.301   5.552   7.630  1.00  0.00     0.000 C 
BRANCH  15  16
ATOM     16  C   UNL     1      26.047   6.987   7.150  1.00  0.00     0.000 C 
BRANCH  16  17
ATOM     17  C   UNL     1      26.523   8.046   8.159  1.00  0.00     0.000 C 
BRANCH  17  18
ATOM     18  C   UNL     1      25.399   8.732   8.963  1.00  0.00     0.000 C 
BRANCH  18  19
ATOM     19  C   UNL     1      24.071   7.954   9.031  1.00  0.00     0.000 C 
BRANCH  19  20
ATOM     20  C   UNL     1      23.935   7.108  10.309  1.00  0.00     0.006 C 
BRANCH  20  21
ATOM     21  C   UNL     1      22.471   6.936  10.736  1.00  0.00     0.053 C 
BRANCH  21  22
ATOM     22  C   UNL     1      21.966   8.117  11.508  1.00  0.00     0.041 C 
ATOM     23  O   UNL     1      22.658   8.607  12.438  1.00  0.00    -0.550 OA
ATOM     24  O   UNL     1      20.744   8.691  11.180  1.00  0.00    -0.550 OA
ENDBRANCH  21  22
ENDBRANCH  20  21
ENDBRANCH  19  20
ENDBRANCH  18  19
ENDBRANCH  17  18
ENDBRANCH  16  17
ENDBRANCH  15  16
ENDBRANCH  14  15
ENDBRANCH  13  14
ENDBRANCH   1  13
TORSDOF 20
ENDMDL
MODEL 3
REMARK VINA RESULT:    -4.004      4.058      6.988
REMARK INTER + INTRA:         -12.191
REMARK INTER:                  -8.897
REMARK INTRA:                  -3.294
REMARK UNBOUND:                -3.505
REMARK SMILES CCCCCCCCCCCCCCCCCCCCCC(=O)[O-]
REMARK SMILES IDX 12 1 11 2 10 3 9 4 8 5 7 6 6 7 5 8 4 9 3 10 2 11 1 12 13 13
REMARK SMILES IDX 14 14 15 15 16 16 17 17 18 18 19 19 20 20 21 21 22 22 23 23
REMARK SMILES IDX 24 24
REMARK H PARENT
REMARK Flexibility Score: inf
ROOT
ATOM      1  C   UNL     1      26.543   3.880  10.358  1.00  0.00     0.000 C 
ENDROOT
BRANCH   1   2
ATOM      2  C   UNL     1      25.772   5.214  10.294  1.00  0.00     0.000 C 
BRANCH   2   3
ATOM      3  C   UNL     1      26.378   6.265   9.345  1.00  0.00     0.000 C 
BRANCH   3   4
ATOM      4  C   UNL     1      26.001   6.021   7.873  1.00  0.00    -0.000 C 
BRANCH   4   5
ATOM      5  C   UNL     1      24.490   5.762   7.693  1.00  0.00    -0.000 C 
BRANCH   5   6
ATOM      6  C   UNL     1      24.160   4.350   7.179  1.00  0.00    -0.000 C 
BRANCH   6   7
ATOM      7  C   UNL     1      25.389   3.614   6.620  1.00  0.00    -0.000 C 
BRANCH   7   8
ATOM      8  C   UNL     1      25.223   2.084   6.640  1.00  0.00    -0.000 C 
BRANCH   8   9
ATOM      9  C   UNL     1      25.814   1.414   5.387  1.00  0.00    -0.000 C 
BRANCH   9  10
ATOM     10  C   UNL     1      25.910  -0.114   5.524  1.00  0.00    -0.000 C 
BRANCH  10  11
ATOM     11  C   UNL     1      25.108  -0.654   6.718  1.00  0.00    -0.003 C 
ATOM     12  C   UNL     1      24.833  -2.147   6.564  1.00  0.00     0.004 C 
ENDBRANCH  10  11
ENDBRANCH   9  10
ENDBRANCH   8   9
ENDBRANCH   7   8
ENDBRANCH   6   7
ENDBRANCH   5   6
ENDBRANCH   4   5
ENDBRANCH   3   4
ENDBRANCH   2   3
ENDBRANCH   1   2
BRANCH   1  13
ATOM     13  C   UNL     1      28.031   4.000  10.746  1.00  0.00     0.000 C 
BRANCH  13  14
ATOM     14  C   UNL     1      29.015   3.345   9.760  1.00  0.00     0.000 C 
BRANCH  14  15
ATOM     15  C   UNL     1      28.391   3.068   8.385  1.00  0.00     0.000 C 
BRANCH  15  16
ATOM     16  C   UNL     1      28.567   1.595   7.994  1.00  0.00     0.000 C 
BRANCH  16  17
ATOM     17  C   UNL     1      28.625   0.658   9.213  1.00  0.00     0.000 C 
BRANCH  17  18
ATOM     18  C   UNL     1      28.420  -0.838   8.896  1.00  0.00     0.000 C 
BRANCH  18  19
ATOM     19  C   UNL     1      28.707  -1.247   7.439  1.00  0.00     0.000 C 
BRANCH  19  20
ATOM     20  C   UNL     1      28.525  -2.753   7.190  1.00  0.00     0.006 C 
BRANCH  20  21
ATOM     21  C   UNL     1      27.840  -3.456   8.369  1.00  0.00     0.053 C 
BRANCH  21  22
ATOM     22  C   UNL     1      27.561  -4.900   8.081  1.00  0.00     0.041 C 
ATOM     23  O   UNL     1      26.716  -5.217   7.203  1.00  0.00    -0.550 OA
ATOM     24  O   UNL     1      28.256  -5.893   8.761  1.00  0.00    -0.550 OA
ENDBRANCH  21  22
ENDBRANCH  20  21
ENDBRANCH  19  20
ENDBRANCH  18  19
ENDBRANCH  17  18
ENDBRANCH  16  17
ENDBRANCH  15  16
ENDBRANCH  14  15
ENDBRANCH  13  14
ENDBRANCH   1  13
TORSDOF 20
ENDMDL
MODEL 4
REMARK VINA RESULT:    -3.968      3.134      7.131
REMARK INTER + INTRA:         -12.112
REMARK INTER:                  -8.619
REMARK INTRA:                  -3.494
REMARK UNBOUND:                -3.505
REMARK SMILES CCCCCCCCCCCCCCCCCCCCCC(=O)[O-]
REMARK SMILES IDX 12 1 11 2 10 3 9 4 8 5 7 6 6 7 5 8 4 9 3 10 2 11 1 12 13 13
REMARK SMILES IDX 14 14 15 15 16 16 17 17 18 18 19 19 20 20 21 21 22 22 23 23
REMARK SMILES IDX 24 24
REMARK H PARENT
REMARK Flexibility Score: inf
ROOT
ATOM      1  C   UNL     1      27.177   2.856   6.990  1.00  0.00     0.000 C 
ENDROOT
BRANCH   1   2
ATOM      2  C   UNL     1      25.949   2.166   7.617  1.00  0.00     0.000 C 
BRANCH   2   3
ATOM      3  C   UNL     1      24.666   3.017   7.628  1.00  0.00     0.000 C 
BRANCH   3   4
ATOM      4  C   UNL     1      24.073   3.177   9.040  1.00  0.00    -0.000 C 
BRANCH   4   5
ATOM      5  C   UNL     1      22.999   4.283   9.100  1.00  0.00    -0.000 C 
BRANCH   5   6
ATOM      6  C   UNL     1      23.208   5.408   8.071  1.00  0.00    -0.000 C 
BRANCH   6   7
ATOM      7  C   UNL     1      23.248   6.805   8.713  1.00  0.00    -0.000 C 
BRANCH   7   8
ATOM      8  C   UNL     1      24.682   7.322   8.915  1.00  0.00    -0.000 C 
BRANCH   8   9
ATOM      9  C   UNL     1      25.682   6.676   7.939  1.00  0.00    -0.000 C 
BRANCH   9  10
ATOM     10  C   UNL     1      26.869   6.017   8.659  1.00  0.00    -0.000 C 
BRANCH  10  11
ATOM     11  C   UNL     1      26.537   5.616  10.104  1.00  0.00    -0.003 C 
ATOM     12  C   UNL     1      27.282   4.346  10.506  1.00  0.00     0.004 C 
ENDBRANCH  10  11
ENDBRANCH   9  10
ENDBRANCH   8   9
ENDBRANCH   7   8
ENDBRANCH   6   7
ENDBRANCH   5   6
ENDBRANCH   4   5
ENDBRANCH   3   4
ENDBRANCH   2   3
ENDBRANCH   1   2
BRANCH   1  13
ATOM     13  C   UNL     1      28.542   2.375   7.521  1.00  0.00     0.000 C 
BRANCH  13  14
ATOM     14  C   UNL     1      28.475   1.472   8.766  1.00  0.00     0.000 C 
BRANCH  14  15
ATOM     15  C   UNL     1      29.104   0.090   8.538  1.00  0.00     0.000 C 
BRANCH  15  16
ATOM     16  C   UNL     1      28.126  -1.025   8.932  1.00  0.00     0.000 C 
BRANCH  16  17
ATOM     17  C   UNL     1      28.367  -2.330   8.153  1.00  0.00     0.000 C 
BRANCH  17  18
ATOM     18  C   UNL     1      28.128  -2.235   6.632  1.00  0.00     0.000 C 
BRANCH  18  19
ATOM     19  C   UNL     1      26.891  -1.419   6.210  1.00  0.00     0.000 C 
BRANCH  19  20
ATOM     20  C   UNL     1      27.232  -0.255   5.265  1.00  0.00     0.006 C 
BRANCH  20  21
ATOM     21  C   UNL     1      26.049   0.127   4.366  1.00  0.00     0.053 C 
BRANCH  21  22
ATOM     22  C   UNL     1      26.313  -0.182   2.924  1.00  0.00     0.041 C 
ATOM     23  O   UNL     1      26.972  -1.207   2.608  1.00  0.00    -0.550 OA
ATOM     24  O   UNL     1      25.806   0.646   1.930  1.00  0.00    -0.550 OA
ENDBRANCH  21  22
ENDBRANCH  20  21
ENDBRANCH  19  20
ENDBRANCH  18  19
ENDBRANCH  17  18
ENDBRANCH  16  17
ENDBRANCH  15  16
ENDBRANCH  14  15
ENDBRANCH  13  14
ENDBRANCH   1  13
TORSDOF 20
ENDMDL
MODEL 5
REMARK VINA RESULT:    -3.950      2.672      4.125
REMARK INTER + INTRA:         -12.075
REMARK INTER:                  -8.340
REMARK INTRA:                  -3.734
REMARK UNBOUND:                -3.505
REMARK SMILES CCCCCCCCCCCCCCCCCCCCCC(=O)[O-]
REMARK SMILES IDX 12 1 11 2 10 3 9 4 8 5 7 6 6 7 5 8 4 9 3 10 2 11 1 12 13 13
REMARK SMILES IDX 14 14 15 15 16 16 17 17 18 18 19 19 20 20 21 21 22 22 23 23
REMARK SMILES IDX 24 24
REMARK H PARENT
REMARK Flexibility Score: inf
ROOT
ATOM      1  C   UNL     1      26.755   4.339   9.996  1.00  0.00     0.000 C 
ENDROOT
BRANCH   1   2
ATOM      2  C   UNL     1      27.955   3.716  10.737  1.00  0.00     0.000 C 
BRANCH   2   3
ATOM      3  C   UNL     1      28.986   3.023   9.827  1.00  0.00     0.000 C 
BRANCH   3   4
ATOM      4  C   UNL     1      28.714   1.517   9.663  1.00  0.00    -0.000 C 
BRANCH   4   5
ATOM      5  C   UNL     1      28.694   1.085   8.181  1.00  0.00    -0.000 C 
BRANCH   5   6
ATOM      6  C   UNL     1      28.296   2.211   7.212  1.00  0.00    -0.000 C 
BRANCH   6   7
ATOM      7  C   UNL     1      27.426   1.715   6.044  1.00  0.00    -0.000 C 
BRANCH   7   8
ATOM      8  C   UNL     1      25.940   2.071   6.220  1.00  0.00    -0.000 C 
BRANCH   8   9
ATOM      9  C   UNL     1      25.436   1.797   7.648  1.00  0.00    -0.000 C 
BRANCH   9  10
ATOM     10  C   UNL     1      24.001   2.300   7.875  1.00  0.00    -0.000 C 
BRANCH  10  11
ATOM     11  C   UNL     1      23.474   3.137   6.701  1.00  0.00    -0.003 C 
ATOM     12  C   UNL     1      22.121   2.618   6.221  1.00  0.00     0.004 C 
ENDBRANCH  10  11
ENDBRANCH   9  10
ENDBRANCH   8   9
ENDBRANCH   7   8
ENDBRANCH   6   7
ENDBRANCH   5   6
ENDBRANCH   4   5
ENDBRANCH   3   4
ENDBRANCH   2   3
ENDBRANCH   1   2
BRANCH   1  13
ATOM     13  C   UNL     1      27.116   5.407   8.943  1.00  0.00     0.000 C 
BRANCH  13  14
ATOM     14  C   UNL     1      26.207   5.430   7.702  1.00  0.00     0.000 C 
BRANCH  14  15
ATOM     15  C   UNL     1      25.843   6.852   7.252  1.00  0.00     0.000 C 
BRANCH  15  16
ATOM     16  C   UNL     1      26.552   7.897   8.124  1.00  0.00     0.000 C 
BRANCH  16  17
ATOM     17  C   UNL     1      25.569   8.786   8.905  1.00  0.00     0.000 C 
BRANCH  17  18
ATOM     18  C   UNL     1      24.162   8.184   9.105  1.00  0.00     0.000 C 
BRANCH  18  19
ATOM     19  C   UNL     1      23.916   7.532  10.479  1.00  0.00     0.000 C 
BRANCH  19  20
ATOM     20  C   UNL     1      23.567   6.038  10.382  1.00  0.00     0.006 C 
BRANCH  20  21
ATOM     21  C   UNL     1      22.831   5.698   9.079  1.00  0.00     0.053 C 
BRANCH  21  22
ATOM     22  C   UNL     1      21.352   5.574   9.283  1.00  0.00     0.041 C 
ATOM     23  O   UNL     1      20.638   6.607   9.376  1.00  0.00    -0.550 OA
ATOM     24  O   UNL     1      20.760   4.318   9.339  1.00  0.00    -0.550 OA
ENDBRANCH  21  22
ENDBRANCH  20  21
ENDBRANCH  19  20
ENDBRANCH  18  19
ENDBRANCH  17  18
ENDBRANCH  16  17
ENDBRANCH  15  16
ENDBRANCH  14  15
ENDBRANCH  13  14
ENDBRANCH   1  13
TORSDOF 20
ENDMDL
MODEL 6
REMARK VINA RESULT:    -3.934      2.007      3.427
REMARK INTER + INTRA:         -12.038
REMARK INTER:                  -8.583
REMARK INTRA:                  -3.455
REMARK UNBOUND:                -3.505
REMARK SMILES CCCCCCCCCCCCCCCCCCCCCC(=O)[O-]
REMARK SMILES IDX 12 1 11 2 10 3 9 4 8 5 7 6 6 7 5 8 4 9 3 10 2 11 1 12 13 13
REMARK SMILES IDX 14 14 15 15 16 16 17 17 18 18 19 19 20 20 21 21 22 22 23 23
REMARK SMILES IDX 24 24
REMARK H PARENT
REMARK Flexibility Score: inf
ROOT
ATOM      1  C   UNL     1      26.885   5.088  10.372  1.00  0.00     0.000 C 
ENDROOT
BRANCH   1   2
ATOM      2  C   UNL     1      27.779   3.835  10.290  1.00  0.00     0.000 C 
BRANCH   2   3
ATOM      3  C   UNL     1      28.623   3.726   9.007  1.00  0.00     0.000 C 
BRANCH   3   4
ATOM      4  C   UNL     1      28.660   2.295   8.442  1.00  0.00    -0.000 C 
BRANCH   4   5
ATOM      5  C   UNL     1      28.711   1.229   9.557  1.00  0.00    -0.000 C 
BRANCH   5   6
ATOM      6  C   UNL     1      28.669  -0.218   9.036  1.00  0.00    -0.000 C 
BRANCH   6   7
ATOM      7  C   UNL     1      29.061  -0.330   7.553  1.00  0.00    -0.000 C 
BRANCH   7   8
ATOM      8  C   UNL     1      27.961  -0.983   6.698  1.00  0.00    -0.000 C 
BRANCH   8   9
ATOM      9  C   UNL     1      26.837   0.005   6.334  1.00  0.00    -0.000 C 
BRANCH   9  10
ATOM     10  C   UNL     1      27.240   0.968   5.206  1.00  0.00    -0.000 C 
BRANCH  10  11
ATOM     11  C   UNL     1      26.758   0.500   3.825  1.00  0.00    -0.003 C 
ATOM     12  C   UNL     1      25.249   0.682   3.680  1.00  0.00     0.004 C 
ENDBRANCH  10  11
ENDBRANCH   9  10
ENDBRANCH   8   9
ENDBRANCH   7   8
ENDBRANCH   6   7
ENDBRANCH   5   6
ENDBRANCH   4   5
ENDBRANCH   3   4
ENDBRANCH   2   3
ENDBRANCH   1   2
BRANCH   1  13
ATOM     13  C   UNL     1      26.752   5.887   9.059  1.00  0.00     0.000 C 
BRANCH  13  14
ATOM     14  C   UNL     1      25.360   5.835   8.404  1.00  0.00     0.000 C 
BRANCH  14  15
ATOM     15  C   UNL     1      25.402   5.366   6.943  1.00  0.00     0.000 C 
BRANCH  15  16
ATOM     16  C   UNL     1      25.727   3.868   6.862  1.00  0.00     0.000 C 
BRANCH  16  17
ATOM     17  C   UNL     1      24.790   3.008   7.726  1.00  0.00     0.000 C 
BRANCH  17  18
ATOM     18  C   UNL     1      23.938   1.985   6.945  1.00  0.00     0.000 C 
BRANCH  18  19
ATOM     19  C   UNL     1      22.872   2.593   6.014  1.00  0.00     0.000 C 
BRANCH  19  20
ATOM     20  C   UNL     1      21.705   3.239   6.778  1.00  0.00     0.006 C 
BRANCH  20  21
ATOM     21  C   UNL     1      21.608   4.748   6.520  1.00  0.00     0.053 C 
BRANCH  21  22
ATOM     22  C   UNL     1      21.779   5.548   7.776  1.00  0.00     0.041 C 
ATOM     23  O   UNL     1      21.792   4.971   8.895  1.00  0.00    -0.550 OA
ATOM     24  O   UNL     1      21.954   6.924   7.706  1.00  0.00    -0.550 OA
ENDBRANCH  21  22
ENDBRANCH  20  21
ENDBRANCH  19  20
ENDBRANCH  18  19
ENDBRANCH  17  18
ENDBRANCH  16  17
ENDBRANCH  15  16
ENDBRANCH  14  15
ENDBRANCH  13  14
ENDBRANCH   1  13
TORSDOF 20
ENDMDL
MODEL 7
REMARK VINA RESULT:    -3.882      1.677      2.954
REMARK INTER + INTRA:         -11.926
REMARK INTER:                  -8.375
REMARK INTRA:                  -3.552
REMARK UNBOUND:                -3.505
REMARK SMILES CCCCCCCCCCCCCCCCCCCCCC(=O)[O-]
REMARK SMILES IDX 12 1 11 2 10 3 9 4 8 5 7 6 6 7 5 8 4 9 3 10 2 11 1 12 13 13
REMARK SMILES IDX 14 14 15 15 16 16 17 17 18 18 19 19 20 20 21 21 22 22 23 23
REMARK SMILES IDX 24 24
REMARK H PARENT
REMARK Flexibility Score: inf
ROOT
ATOM      1  C   UNL     1      28.559   1.057   8.464  1.00  0.00     0.000 C 
ENDROOT
BRANCH   1   2
ATOM      2  C   UNL     1      28.330   1.981   7.251  1.00  0.00     0.000 C 
BRANCH   2   3
ATOM      3  C   UNL     1      27.482   1.368   6.122  1.00  0.00     0.000 C 
BRANCH   3   4
ATOM      4  C   UNL     1      27.482  -0.171   6.150  1.00  0.00    -0.000 C 
BRANCH   4   5
ATOM      5  C   UNL     1      26.123  -0.747   6.600  1.00  0.00    -0.000 C 
BRANCH   5   6
ATOM      6  C   UNL     1      24.975   0.277   6.575  1.00  0.00    -0.000 C 
BRANCH   6   7
ATOM      7  C   UNL     1      23.920  -0.034   5.500  1.00  0.00    -0.000 C 
BRANCH   7   8
ATOM      8  C   UNL     1      23.931   0.985   4.348  1.00  0.00    -0.000 C 
BRANCH   8   9
ATOM      9  C   UNL     1      24.465   0.382   3.036  1.00  0.00    -0.000 C 
BRANCH   9  10
ATOM     10  C   UNL     1      25.981   0.575   2.872  1.00  0.00    -0.000 C 
BRANCH  10  11
ATOM     11  C   UNL     1      26.704  -0.721   2.474  1.00  0.00    -0.003 C 
ATOM     12  C   UNL     1      26.009  -1.942   3.070  1.00  0.00     0.004 C 
ENDBRANCH  10  11
ENDBRANCH   9  10
ENDBRANCH   8   9
ENDBRANCH   7   8
ENDBRANCH   6   7
ENDBRANCH   5   6
ENDBRANCH   4   5
ENDBRANCH   3   4
ENDBRANCH   2   3
ENDBRANCH   1   2
BRANCH   1  13
ATOM     13  C   UNL     1      28.771   1.780   9.810  1.00  0.00     0.000 C 
BRANCH  13  14
ATOM     14  C   UNL     1      28.806   3.316   9.725  1.00  0.00     0.000 C 
BRANCH  14  15
ATOM     15  C   UNL     1      27.960   3.996  10.810  1.00  0.00     0.000 C 
BRANCH  15  16
ATOM     16  C   UNL     1      26.777   4.748  10.187  1.00  0.00     0.000 C 
BRANCH  16  17
ATOM     17  C   UNL     1      25.447   3.986  10.328  1.00  0.00     0.000 C 
BRANCH  17  18
ATOM     18  C   UNL     1      25.164   2.958   9.213  1.00  0.00     0.000 C 
BRANCH  18  19
ATOM     19  C   UNL     1      24.418   3.510   7.983  1.00  0.00     0.000 C 
BRANCH  19  20
ATOM     20  C   UNL     1      25.348   4.214   6.982  1.00  0.00     0.006 C 
BRANCH  20  21
ATOM     21  C   UNL     1      25.156   5.736   6.985  1.00  0.00     0.053 C 
BRANCH  21  22
ATOM     22  C   UNL     1      23.805   6.134   7.496  1.00  0.00     0.041 C 
ATOM     23  O   UNL     1      23.681   6.598   8.659  1.00  0.00    -0.550 OA
ATOM     24  O   UNL     1      22.689   6.019   6.676  1.00  0.00    -0.550 OA
ENDBRANCH  21  22
ENDBRANCH  20  21
ENDBRANCH  19  20
ENDBRANCH  18  19
ENDBRANCH  17  18
ENDBRANCH  16  17
ENDBRANCH  15  16
ENDBRANCH  14  15
ENDBRANCH  13  14
ENDBRANCH   1  13
TORSDOF 20
ENDMDL
MODEL 8
REMARK VINA RESULT:    -3.841      1.753      5.514
REMARK INTER + INTRA:         -11.837
REMARK INTER:                  -8.328
REMARK INTRA:                  -3.509
REMARK UNBOUND:                -3.505
REMARK SMILES CCCCCCCCCCCCCCCCCCCCCC(=O)[O-]
REMARK SMILES IDX 12 1 11 2 10 3 9 4 8 5 7 6 6 7 5 8 4 9 3 10 2 11 1 12 13 13
REMARK SMILES IDX 14 14 15 15 16 16 17 17 18 18 19 19 20 20 21 21 22 22 23 23
REMARK SMILES IDX 24 24
REMARK H PARENT
REMARK Flexibility Score: inf
ROOT
ATOM      1  C   UNL     1      26.091  -2.568   5.732  1.00  0.00     0.000 C 
ENDROOT
BRANCH   1   2
ATOM      2  C   UNL     1      26.783  -2.038   7.004  1.00  0.00     0.000 C 
BRANCH   2   3
ATOM      3  C   UNL     1      28.310  -1.879   6.890  1.00  0.00     0.000 C 
BRANCH   3   4
ATOM      4  C   UNL     1      28.799  -0.500   7.369  1.00  0.00    -0.000 C 
BRANCH   4   5
ATOM      5  C   UNL     1      28.276  -0.153   8.780  1.00  0.00    -0.000 C 
BRANCH   5   6
ATOM      6  C   UNL     1      28.738   1.222   9.292  1.00  0.00    -0.000 C 
BRANCH   6   7
ATOM      7  C   UNL     1      28.604   2.330   8.234  1.00  0.00    -0.000 C 
BRANCH   7   8
ATOM      8  C   UNL     1      28.555   3.737   8.853  1.00  0.00    -0.000 C 
BRANCH   8   9
ATOM      9  C   UNL     1      27.444   3.875   9.910  1.00  0.00    -0.000 C 
BRANCH   9  10
ATOM     10  C   UNL     1      26.877   5.301   9.987  1.00  0.00    -0.000 C 
BRANCH  10  11
ATOM     11  C   UNL     1      26.908   6.026   8.634  1.00  0.00    -0.003 C 
ATOM     12  C   UNL     1      26.156   7.353   8.704  1.00  0.00     0.004 C 
ENDBRANCH  10  11
ENDBRANCH   9  10
ENDBRANCH   8   9
ENDBRANCH   7   8
ENDBRANCH   6   7
ENDBRANCH   5   6
ENDBRANCH   4   5
ENDBRANCH   3   4
ENDBRANCH   2   3
ENDBRANCH   1   2
BRANCH   1  13
ATOM     13  C   UNL     1      26.860  -2.324   4.417  1.00  0.00     0.000 C 
BRANCH  13  14
ATOM     14  C   UNL     1      26.162  -1.380   3.421  1.00  0.00     0.000 C 
BRANCH  14  15
ATOM     15  C   UNL     1      26.581   0.087   3.593  1.00  0.00     0.000 C 
BRANCH  15  16
ATOM     16  C   UNL     1      25.546   0.855   4.425  1.00  0.00     0.000 C 
BRANCH  16  17
ATOM     17  C   UNL     1      26.127   1.405   5.739  1.00  0.00     0.000 C 
BRANCH  17  18
ATOM     18  C   UNL     1      25.254   1.168   6.989  1.00  0.00     0.000 C 
BRANCH  18  19
ATOM     19  C   UNL     1      24.967   2.420   7.838  1.00  0.00     0.000 C 
BRANCH  19  20
ATOM     20  C   UNL     1      24.724   3.679   6.990  1.00  0.00     0.006 C 
BRANCH  20  21
ATOM     21  C   UNL     1      23.261   4.140   7.044  1.00  0.00     0.053 C 
BRANCH  21  22
ATOM     22  C   UNL     1      23.075   5.322   7.947  1.00  0.00     0.041 C 
ATOM     23  O   UNL     1      22.727   6.433   7.469  1.00  0.00    -0.550 OA
ATOM     24  O   UNL     1      23.257   5.186   9.318  1.00  0.00    -0.550 OA
ENDBRANCH  21  22
ENDBRANCH  20  21
ENDBRANCH  19  20
ENDBRANCH  18  19
ENDBRANCH  17  18
ENDBRANCH  16  17
ENDBRANCH  15  16
ENDBRANCH  14  15
ENDBRANCH  13  14
ENDBRANCH   1  13
TORSDOF 20
ENDMDL
MODEL 9
REMARK VINA RESULT:    -3.839      3.806      6.423
REMARK INTER + INTRA:         -11.834
REMARK INTER:                  -8.647
REMARK INTRA:                  -3.186
REMARK UNBOUND:                -3.505
REMARK SMILES CCCCCCCCCCCCCCCCCCCCCC(=O)[O-]
REMARK SMILES IDX 12 1 11 2 10 3 9 4 8 5 7 6 6 7 5 8 4 9 3 10 2 11 1 12 13 13
REMARK SMILES IDX 14 14 15 15 16 16 17 17 18 18 19 19 20 20 21 21 22 22 23 23
REMARK SMILES IDX 24 24
REMARK H PARENT
REMARK Flexibility Score: inf
ROOT
ATOM      1  C   UNL     1      25.808   5.990   9.551  1.00  0.00     0.000 C 
ENDROOT
BRANCH   1   2
ATOM      2  C   UNL     1      26.302   6.590   8.219  1.00  0.00     0.000 C 
BRANCH   2   3
ATOM      3  C   UNL     1      25.710   5.936   6.957  1.00  0.00     0.000 C 
BRANCH   3   4
ATOM      4  C   UNL     1      24.709   4.815   7.285  1.00  0.00    -0.000 C 
BRANCH   4   5
ATOM      5  C   UNL     1      25.144   3.454   6.701  1.00  0.00    -0.000 C 
BRANCH   5   6
ATOM      6  C   UNL     1      23.986   2.458   6.518  1.00  0.00    -0.000 C 
BRANCH   6   7
ATOM      7  C   UNL     1      24.151   1.186   7.367  1.00  0.00    -0.000 C 
BRANCH   7   8
ATOM      8  C   UNL     1      24.595  -0.029   6.534  1.00  0.00    -0.000 C 
BRANCH   8   9
ATOM      9  C   UNL     1      24.097   0.044   5.079  1.00  0.00    -0.000 C 
BRANCH   9  10
ATOM     10  C   UNL     1      25.221   0.381   4.087  1.00  0.00    -0.000 C 
BRANCH  10  11
ATOM     11  C   UNL     1      26.611  -0.011   4.610  1.00  0.00    -0.003 C 
ATOM     12  C   UNL     1      27.478   1.224   4.841  1.00  0.00     0.004 C 
ENDBRANCH  10  11
ENDBRANCH   9  10
ENDBRANCH   8   9
ENDBRANCH   7   8
ENDBRANCH   6   7
ENDBRANCH   5   6
ENDBRANCH   4   5
ENDBRANCH   3   4
ENDBRANCH   2   3
ENDBRANCH   1   2
BRANCH   1  13
ATOM     13  C   UNL     1      26.883   5.258  10.379  1.00  0.00     0.000 C 
BRANCH  13  14
ATOM     14  C   UNL     1      27.210   3.830   9.905  1.00  0.00     0.000 C 
BRANCH  14  15
ATOM     15  C   UNL     1      28.541   3.742   9.145  1.00  0.00     0.000 C 
BRANCH  15  16
ATOM     16  C   UNL     1      28.441   2.740   7.987  1.00  0.00     0.000 C 
BRANCH  16  17
ATOM     17  C   UNL     1      27.805   1.404   8.409  1.00  0.00     0.000 C 
BRANCH  17  18
ATOM     18  C   UNL     1      28.730   0.467   9.213  1.00  0.00     0.000 C 
BRANCH  18  19
ATOM     19  C   UNL     1      28.403  -1.034   9.101  1.00  0.00     0.000 C 
BRANCH  19  20
ATOM     20  C   UNL     1      28.413  -1.545   7.650  1.00  0.00     0.006 C 
BRANCH  20  21
ATOM     21  C   UNL     1      27.234  -2.483   7.359  1.00  0.00     0.053 C 
BRANCH  21  22
ATOM     22  C   UNL     1      27.633  -3.926   7.416  1.00  0.00     0.041 C 
ATOM     23  O   UNL     1      27.856  -4.477   8.526  1.00  0.00    -0.550 OA
ATOM     24  O   UNL     1      27.731  -4.668   6.245  1.00  0.00    -0.550 OA
ENDBRANCH  21  22
ENDBRANCH  20  21
ENDBRANCH  19  20
ENDBRANCH  18  19
ENDBRANCH  17  18
ENDBRANCH  16  17
ENDBRANCH  15  16
ENDBRANCH  14  15
ENDBRANCH  13  14
ENDBRANCH   1  13
TORSDOF 20
ENDMDL
