MODEL 1
REMARK VINA RESULT:    -7.569      0.000      0.000
REMARK INTER + INTRA:          -9.391
REMARK INTER:                  -9.118
REMARK INTRA:                  -0.273
REMARK UNBOUND:                -0.273
REMARK SMILES O=c1c(O)c(-c2ccc(O)cc2O)oc2cc(O)cc(O)c12
REMARK SMILES IDX 5 1 3 2 2 3 1 4 22 5 20 6 19 7 17 8 16 9 15 10 14 11 6 12
REMARK SMILES IDX 8 13 7 14 9 15 11 16 12 17 10 18 13 20 4 22 21 24 18 26
REMARK H PARENT 10 19 13 21 4 23 21 25 18 27
REMARK Flexibility Score: inf
ROOT
ATOM      1  C   UNL     1      12.468  56.079   2.757  1.00  0.00     0.184 A 
ATOM      2  C   UNL     1      11.156  55.729   2.390  1.00  0.00     0.208 A 
ATOM      3  C   UNL     1      10.239  55.390   3.396  1.00  0.00     0.238 A 
ATOM      4  O   UNL     1       9.062  55.064   3.079  1.00  0.00    -0.285 OA
ATOM      5  C   UNL     1      10.644  55.424   4.747  1.00  0.00     0.111 A 
ATOM      6  C   UNL     1       9.780  55.100   5.821  1.00  0.00     0.134 A 
ATOM      7  C   UNL     1      10.257  55.167   7.140  1.00  0.00     0.093 A 
ATOM      8  C   UNL     1      11.575  55.553   7.403  1.00  0.00     0.123 A 
ATOM      9  C   UNL     1      12.430  55.873   6.347  1.00  0.00     0.094 A 
ATOM     10  C   UNL     1      11.976  55.811   5.026  1.00  0.00     0.146 A 
ATOM     11  O   UNL     1      12.812  56.116   4.041  1.00  0.00    -0.451 OA
ENDROOT
BRANCH   1  12
ATOM     12  C   UNL     1      13.487  56.435   1.747  1.00  0.00     0.063 A 
ATOM     13  C   UNL     1      15.014  58.092   0.834  1.00  0.00     0.047 A 
ATOM     14  C   UNL     1      14.045  57.723   1.771  1.00  0.00     0.020 A 
ATOM     15  C   UNL     1      15.447  57.176  -0.128  1.00  0.00     0.119 A 
ATOM     16  C   UNL     1      14.913  55.881  -0.146  1.00  0.00     0.093 A 
ATOM     17  C   UNL     1      13.944  55.501   0.794  1.00  0.00     0.130 A 
BRANCH  15  18
ATOM     18  O   UNL     1      16.411  57.560  -1.058  1.00  0.00    -0.508 OA
ATOM     19  H   UNL     1      17.222  58.102  -0.787  1.00  0.00     0.293 HD
ENDBRANCH  15  18
BRANCH  17  20
ATOM     20  O   UNL     1      13.455  54.195   0.798  1.00  0.00    -0.507 OA
ATOM     21  H   UNL     1      14.050  53.404   0.577  1.00  0.00     0.293 HD
ENDBRANCH  17  20
ENDBRANCH   1  12
BRANCH   2  22
ATOM     22  O   UNL     1      10.774  55.749   1.046  1.00  0.00    -0.502 OA
ATOM     23  H   UNL     1       9.962  55.249   0.707  1.00  0.00     0.293 HD
ENDBRANCH   2  22
BRANCH   6  24
ATOM     24  O   UNL     1       8.460  54.713   5.591  1.00  0.00    -0.507 OA
ATOM     25  H   UNL     1       8.132  53.778   5.804  1.00  0.00     0.293 HD
ENDBRANCH   6  24
BRANCH   8  26
ATOM     26  O   UNL     1      12.047  55.620   8.713  1.00  0.00    -0.508 OA
ATOM     27  H   UNL     1      11.441  55.883   9.480  1.00  0.00     0.293 HD
ENDBRANCH   8  26
TORSDOF 6
ENDMDL
MODEL 2
REMARK VINA RESULT:    -7.507      0.815      1.472
REMARK INTER + INTRA:          -9.317
REMARK INTER:                  -8.901
REMARK INTRA:                  -0.416
REMARK UNBOUND:                -0.273
REMARK SMILES O=c1c(O)c(-c2ccc(O)cc2O)oc2cc(O)cc(O)c12
REMARK SMILES IDX 5 1 3 2 2 3 1 4 22 5 20 6 19 7 17 8 16 9 15 10 14 11 6 12
REMARK SMILES IDX 8 13 7 14 9 15 11 16 12 17 10 18 13 20 4 22 21 24 18 26
REMARK H PARENT 10 19 13 21 4 23 21 25 18 27
REMARK Flexibility Score: inf
ROOT
ATOM      1  C   UNL     1      12.453  55.695   2.703  1.00  0.00     0.184 A 
ATOM      2  C   UNL     1      11.106  55.467   2.367  1.00  0.00     0.208 A 
ATOM      3  C   UNL     1      10.173  55.283   3.399  1.00  0.00     0.238 A 
ATOM      4  O   UNL     1       8.964  55.067   3.111  1.00  0.00    -0.285 OA
ATOM      5  C   UNL     1      10.598  55.350   4.743  1.00  0.00     0.111 A 
ATOM      6  C   UNL     1       9.721  55.178   5.840  1.00  0.00     0.134 A 
ATOM      7  C   UNL     1      10.220  55.268   7.149  1.00  0.00     0.093 A 
ATOM      8  C   UNL     1      11.576  55.526   7.378  1.00  0.00     0.123 A 
ATOM      9  C   UNL     1      12.444  55.694   6.299  1.00  0.00     0.094 A 
ATOM     10  C   UNL     1      11.968  55.608   4.988  1.00  0.00     0.146 A 
ATOM     11  O   UNL     1      12.817  55.768   3.980  1.00  0.00    -0.451 OA
ENDROOT
BRANCH   1  12
ATOM     12  C   UNL     1      13.488  55.885   1.666  1.00  0.00     0.063 A 
ATOM     13  C   UNL     1      14.886  54.920  -0.074  1.00  0.00     0.047 A 
ATOM     14  C   UNL     1      13.912  54.776   0.918  1.00  0.00     0.020 A 
ATOM     15  C   UNL     1      15.437  56.176  -0.340  1.00  0.00     0.119 A 
ATOM     16  C   UNL     1      15.004  57.294   0.385  1.00  0.00     0.093 A 
ATOM     17  C   UNL     1      14.024  57.158   1.378  1.00  0.00     0.130 A 
BRANCH  15  18
ATOM     18  O   UNL     1      16.410  56.304  -1.329  1.00  0.00    -0.508 OA
ATOM     19  H   UNL     1      16.193  56.160  -2.308  1.00  0.00     0.293 HD
ENDBRANCH  15  18
BRANCH  17  20
ATOM     20  O   UNL     1      13.565  58.286   2.059  1.00  0.00    -0.507 OA
ATOM     21  H   UNL     1      13.674  58.382   3.062  1.00  0.00     0.293 HD
ENDBRANCH  17  20
ENDBRANCH   1  12
BRANCH   2  22
ATOM     22  O   UNL     1      10.709  55.452   1.028  1.00  0.00    -0.502 OA
ATOM     23  H   UNL     1      11.374  55.457   0.265  1.00  0.00     0.293 HD
ENDBRANCH   2  22
BRANCH   6  24
ATOM     24  O   UNL     1       8.363  54.922   5.643  1.00  0.00    -0.507 OA
ATOM     25  H   UNL     1       7.782  54.532   6.376  1.00  0.00     0.293 HD
ENDBRANCH   6  24
BRANCH   8  26
ATOM     26  O   UNL     1      12.071  55.615   8.678  1.00  0.00    -0.508 OA
ATOM     27  H   UNL     1      12.486  56.470   9.029  1.00  0.00     0.293 HD
ENDBRANCH   8  26
TORSDOF 6
ENDMDL
MODEL 3
REMARK VINA RESULT:    -7.477      3.344      7.092
REMARK INTER + INTRA:          -9.280
REMARK INTER:                  -9.164
REMARK INTRA:                  -0.116
REMARK UNBOUND:                -0.273
REMARK SMILES O=c1c(O)c(-c2ccc(O)cc2O)oc2cc(O)cc(O)c12
REMARK SMILES IDX 5 1 3 2 2 3 1 4 22 5 20 6 19 7 17 8 16 9 15 10 14 11 6 12
REMARK SMILES IDX 8 13 7 14 9 15 11 16 12 17 10 18 13 20 4 22 21 24 18 26
REMARK H PARENT 10 19 13 21 4 23 21 25 18 27
REMARK Flexibility Score: inf
ROOT
ATOM      1  C   UNL     1      13.165  56.757   6.600  1.00  0.00     0.184 A 
ATOM      2  C   UNL     1      13.886  56.602   7.798  1.00  0.00     0.208 A 
ATOM      3  C   UNL     1      15.019  57.402   8.015  1.00  0.00     0.238 A 
ATOM      4  O   UNL     1      15.681  57.265   9.080  1.00  0.00    -0.285 OA
ATOM      5  C   UNL     1      15.397  58.352   7.043  1.00  0.00     0.111 A 
ATOM      6  C   UNL     1      16.523  59.198   7.186  1.00  0.00     0.134 A 
ATOM      7  C   UNL     1      16.828  60.124   6.176  1.00  0.00     0.093 A 
ATOM      8  C   UNL     1      16.030  60.220   5.032  1.00  0.00     0.123 A 
ATOM      9  C   UNL     1      14.920  59.386   4.886  1.00  0.00     0.094 A 
ATOM     10  C   UNL     1      14.599  58.456   5.879  1.00  0.00     0.146 A 
ATOM     11  O   UNL     1      13.540  57.673   5.713  1.00  0.00    -0.451 OA
ENDROOT
BRANCH   1  12
ATOM     12  C   UNL     1      11.970  55.939   6.304  1.00  0.00     0.063 A 
ATOM     13  C   UNL     1       9.849  55.015   7.051  1.00  0.00     0.047 A 
ATOM     14  C   UNL     1      10.994  55.778   7.299  1.00  0.00     0.020 A 
ATOM     15  C   UNL     1       9.660  54.417   5.803  1.00  0.00     0.119 A 
ATOM     16  C   UNL     1      10.617  54.592   4.795  1.00  0.00     0.093 A 
ATOM     17  C   UNL     1      11.766  55.360   5.034  1.00  0.00     0.130 A 
BRANCH  15  18
ATOM     18  O   UNL     1       8.516  53.657   5.571  1.00  0.00    -0.508 OA
ATOM     19  H   UNL     1       8.523  52.648   5.658  1.00  0.00     0.293 HD
ENDBRANCH  15  18
BRANCH  17  20
ATOM     20  O   UNL     1      12.688  55.568   4.009  1.00  0.00    -0.507 OA
ATOM     21  H   UNL     1      12.406  55.933   3.106  1.00  0.00     0.293 HD
ENDBRANCH  17  20
ENDBRANCH   1  12
BRANCH   2  22
ATOM     22  O   UNL     1      13.460  55.684   8.761  1.00  0.00    -0.502 OA
ATOM     23  H   UNL     1      12.701  55.884   9.401  1.00  0.00     0.293 HD
ENDBRANCH   2  22
BRANCH   6  24
ATOM     24  O   UNL     1      17.336  59.128   8.317  1.00  0.00    -0.507 OA
ATOM     25  H   UNL     1      17.872  59.925   8.639  1.00  0.00     0.293 HD
ENDBRANCH   6  24
BRANCH   8  26
ATOM     26  O   UNL     1      16.333  61.140   4.030  1.00  0.00    -0.508 OA
ATOM     27  H   UNL     1      17.290  61.329   3.757  1.00  0.00     0.293 HD
ENDBRANCH   8  26
TORSDOF 6
ENDMDL
MODEL 4
REMARK VINA RESULT:    -7.429      4.928      7.571
REMARK INTER + INTRA:          -9.222
REMARK INTER:                  -8.811
REMARK INTRA:                  -0.411
REMARK UNBOUND:                -0.273
REMARK SMILES O=c1c(O)c(-c2ccc(O)cc2O)oc2cc(O)cc(O)c12
REMARK SMILES IDX 5 1 3 2 2 3 1 4 22 5 20 6 19 7 17 8 16 9 15 10 14 11 6 12
REMARK SMILES IDX 8 13 7 14 9 15 11 16 12 17 10 18 13 20 4 22 21 24 18 26
REMARK H PARENT 10 19 13 21 4 23 21 25 18 27
REMARK Flexibility Score: inf
ROOT
ATOM      1  C   UNL     1      13.685  53.235  -3.060  1.00  0.00     0.184 A 
ATOM      2  C   UNL     1      14.984  53.285  -2.524  1.00  0.00     0.208 A 
ATOM      3  C   UNL     1      15.173  53.863  -1.260  1.00  0.00     0.238 A 
ATOM      4  O   UNL     1      16.336  53.924  -0.773  1.00  0.00    -0.285 OA
ATOM      5  C   UNL     1      14.061  54.362  -0.549  1.00  0.00     0.111 A 
ATOM      6  C   UNL     1      14.166  54.957   0.731  1.00  0.00     0.134 A 
ATOM      7  C   UNL     1      13.010  55.422   1.378  1.00  0.00     0.093 A 
ATOM      8  C   UNL     1      11.756  55.301   0.770  1.00  0.00     0.123 A 
ATOM      9  C   UNL     1      11.649  54.716  -0.493  1.00  0.00     0.094 A 
ATOM     10  C   UNL     1      12.788  54.249  -1.155  1.00  0.00     0.146 A 
ATOM     11  O   UNL     1      12.657  53.700  -2.357  1.00  0.00    -0.451 OA
ENDROOT
BRANCH   1  12
ATOM     12  C   UNL     1      13.417  52.651  -4.391  1.00  0.00     0.063 A 
ATOM     13  C   UNL     1      12.867  50.695  -5.728  1.00  0.00     0.047 A 
ATOM     14  C   UNL     1      13.131  51.280  -4.486  1.00  0.00     0.020 A 
ATOM     15  C   UNL     1      12.875  51.475  -6.887  1.00  0.00     0.119 A 
ATOM     16  C   UNL     1      13.136  52.848  -6.801  1.00  0.00     0.093 A 
ATOM     17  C   UNL     1      13.396  53.443  -5.557  1.00  0.00     0.130 A 
BRANCH  15  18
ATOM     18  O   UNL     1      12.614  50.877  -8.118  1.00  0.00    -0.508 OA
ATOM     19  H   UNL     1      12.019  50.062  -8.196  1.00  0.00     0.293 HD
ENDBRANCH  15  18
BRANCH  17  20
ATOM     20  O   UNL     1      13.606  54.820  -5.478  1.00  0.00    -0.507 OA
ATOM     21  H   UNL     1      13.399  55.435  -6.255  1.00  0.00     0.293 HD
ENDBRANCH  17  20
ENDBRANCH   1  12
BRANCH   2  22
ATOM     22  O   UNL     1      16.058  52.741  -3.233  1.00  0.00    -0.502 OA
ATOM     23  H   UNL     1      16.708  52.088  -2.815  1.00  0.00     0.293 HD
ENDBRANCH   2  22
BRANCH   6  24
ATOM     24  O   UNL     1      15.403  55.089   1.364  1.00  0.00    -0.507 OA
ATOM     25  H   UNL     1      15.601  55.859   1.993  1.00  0.00     0.293 HD
ENDBRANCH   6  24
BRANCH   8  26
ATOM     26  O   UNL     1      10.609  55.763   1.413  1.00  0.00    -0.508 OA
ATOM     27  H   UNL     1       9.853  55.136   1.661  1.00  0.00     0.293 HD
ENDBRANCH   8  26
TORSDOF 6
ENDMDL
MODEL 5
REMARK VINA RESULT:    -7.391      2.070      6.673
REMARK INTER + INTRA:          -9.176
REMARK INTER:                  -8.929
REMARK INTRA:                  -0.247
REMARK UNBOUND:                -0.273
REMARK SMILES O=c1c(O)c(-c2ccc(O)cc2O)oc2cc(O)cc(O)c12
REMARK SMILES IDX 5 1 3 2 2 3 1 4 22 5 20 6 19 7 17 8 16 9 15 10 14 11 6 12
REMARK SMILES IDX 8 13 7 14 9 15 11 16 12 17 10 18 13 20 4 22 21 24 18 26
REMARK H PARENT 10 19 13 21 4 23 21 25 18 27
REMARK Flexibility Score: inf
ROOT
ATOM      1  C   UNL     1      12.293  54.730   2.505  1.00  0.00     0.184 A 
ATOM      2  C   UNL     1      11.883  55.266   1.271  1.00  0.00     0.208 A 
ATOM      3  C   UNL     1      12.729  55.129   0.159  1.00  0.00     0.238 A 
ATOM      4  O   UNL     1      12.377  55.615  -0.951  1.00  0.00    -0.285 OA
ATOM      5  C   UNL     1      13.955  54.446   0.297  1.00  0.00     0.111 A 
ATOM      6  C   UNL     1      14.863  54.263  -0.774  1.00  0.00     0.134 A 
ATOM      7  C   UNL     1      16.060  53.563  -0.558  1.00  0.00     0.093 A 
ATOM      8  C   UNL     1      16.364  53.044   0.705  1.00  0.00     0.123 A 
ATOM      9  C   UNL     1      15.473  53.223   1.764  1.00  0.00     0.094 A 
ATOM     10  C   UNL     1      14.276  53.919   1.571  1.00  0.00     0.146 A 
ATOM     11  O   UNL     1      13.448  54.078   2.596  1.00  0.00    -0.451 OA
ENDROOT
BRANCH   1  12
ATOM     12  C   UNL     1      11.456  54.849   3.717  1.00  0.00     0.063 A 
ATOM     13  C   UNL     1       9.314  54.480   4.806  1.00  0.00     0.047 A 
ATOM     14  C   UNL     1      10.131  54.388   3.676  1.00  0.00     0.020 A 
ATOM     15  C   UNL     1       9.814  55.020   5.993  1.00  0.00     0.119 A 
ATOM     16  C   UNL     1      11.141  55.462   6.052  1.00  0.00     0.093 A 
ATOM     17  C   UNL     1      11.970  55.368   4.924  1.00  0.00     0.130 A 
BRANCH  15  18
ATOM     18  O   UNL     1       8.985  55.109   7.110  1.00  0.00    -0.508 OA
ATOM     19  H   UNL     1       7.996  55.307   7.022  1.00  0.00     0.293 HD
ENDBRANCH  15  18
BRANCH  17  20
ATOM     20  O   UNL     1      13.305  55.765   5.008  1.00  0.00    -0.507 OA
ATOM     21  H   UNL     1      14.061  55.091   5.006  1.00  0.00     0.293 HD
ENDBRANCH  17  20
ENDBRANCH   1  12
BRANCH   2  22
ATOM     22  O   UNL     1      10.642  55.897   1.156  1.00  0.00    -0.502 OA
ATOM     23  H   UNL     1      10.361  56.655   1.766  1.00  0.00     0.293 HD
ENDBRANCH   2  22
BRANCH   6  24
ATOM     24  O   UNL     1      14.586  54.767  -2.045  1.00  0.00    -0.507 OA
ATOM     25  H   UNL     1      15.317  55.130  -2.646  1.00  0.00     0.293 HD
ENDBRANCH   6  24
BRANCH   8  26
ATOM     26  O   UNL     1      17.553  52.348   0.919  1.00  0.00    -0.508 OA
ATOM     27  H   UNL     1      17.827  51.574   0.326  1.00  0.00     0.293 HD
ENDBRANCH   8  26
TORSDOF 6
ENDMDL
MODEL 6
REMARK VINA RESULT:    -7.300      4.994      8.959
REMARK INTER + INTRA:          -9.067
REMARK INTER:                  -8.661
REMARK INTRA:                  -0.406
REMARK UNBOUND:                -0.273
REMARK SMILES O=c1c(O)c(-c2ccc(O)cc2O)oc2cc(O)cc(O)c12
REMARK SMILES IDX 5 1 3 2 2 3 1 4 22 5 20 6 19 7 17 8 16 9 15 10 14 11 6 12
REMARK SMILES IDX 8 13 7 14 9 15 11 16 12 17 10 18 13 20 4 22 21 24 18 26
REMARK H PARENT 10 19 13 21 4 23 21 25 18 27
REMARK Flexibility Score: inf
ROOT
ATOM      1  C   UNL     1      13.119  54.008  -2.281  1.00  0.00     0.184 A 
ATOM      2  C   UNL     1      13.486  54.900  -3.305  1.00  0.00     0.208 A 
ATOM      3  C   UNL     1      13.579  54.419  -4.620  1.00  0.00     0.238 A 
ATOM      4  O   UNL     1      13.918  55.207  -5.546  1.00  0.00    -0.285 OA
ATOM      5  C   UNL     1      13.285  53.066  -4.889  1.00  0.00     0.111 A 
ATOM      6  C   UNL     1      13.351  52.504  -6.187  1.00  0.00     0.134 A 
ATOM      7  C   UNL     1      13.035  51.150  -6.374  1.00  0.00     0.093 A 
ATOM      8  C   UNL     1      12.653  50.351  -5.291  1.00  0.00     0.123 A 
ATOM      9  C   UNL     1      12.587  50.901  -4.010  1.00  0.00     0.094 A 
ATOM     10  C   UNL     1      12.900  52.247  -3.802  1.00  0.00     0.146 A 
ATOM     11  O   UNL     1      12.833  52.743  -2.572  1.00  0.00    -0.451 OA
ENDROOT
BRANCH   1  12
ATOM     12  C   UNL     1      13.014  54.446  -0.873  1.00  0.00     0.063 A 
ATOM     13  C   UNL     1      14.124  54.987   1.222  1.00  0.00     0.047 A 
ATOM     14  C   UNL     1      14.186  54.570  -0.111  1.00  0.00     0.020 A 
ATOM     15  C   UNL     1      12.892  55.297   1.804  1.00  0.00     0.119 A 
ATOM     16  C   UNL     1      11.719  55.198   1.046  1.00  0.00     0.093 A 
ATOM     17  C   UNL     1      11.774  54.787  -0.294  1.00  0.00     0.130 A 
BRANCH  15  18
ATOM     18  O   UNL     1      12.846  55.707   3.135  1.00  0.00    -0.508 OA
ATOM     19  H   UNL     1      12.747  56.683   3.385  1.00  0.00     0.293 HD
ENDBRANCH  15  18
BRANCH  17  20
ATOM     20  O   UNL     1      10.605  54.740  -1.054  1.00  0.00    -0.507 OA
ATOM     21  H   UNL     1       9.878  54.058  -0.870  1.00  0.00     0.293 HD
ENDBRANCH  17  20
ENDBRANCH   1  12
BRANCH   2  22
ATOM     22  O   UNL     1      13.727  56.245  -3.013  1.00  0.00    -0.502 OA
ATOM     23  H   UNL     1      13.148  56.991  -3.379  1.00  0.00     0.293 HD
ENDBRANCH   2  22
BRANCH   6  24
ATOM     24  O   UNL     1      13.727  53.276  -7.287  1.00  0.00    -0.507 OA
ATOM     25  H   UNL     1      13.501  52.999  -8.235  1.00  0.00     0.293 HD
ENDBRANCH   6  24
BRANCH   8  26
ATOM     26  O   UNL     1      12.338  49.006  -5.478  1.00  0.00    -0.508 OA
ATOM     27  H   UNL     1      13.038  48.280  -5.382  1.00  0.00     0.293 HD
ENDBRANCH   8  26
TORSDOF 6
ENDMDL
MODEL 7
REMARK VINA RESULT:    -7.187      6.785      9.105
REMARK INTER + INTRA:          -8.931
REMARK INTER:                  -8.524
REMARK INTRA:                  -0.407
REMARK UNBOUND:                -0.273
REMARK SMILES O=c1c(O)c(-c2ccc(O)cc2O)oc2cc(O)cc(O)c12
REMARK SMILES IDX 5 1 3 2 2 3 1 4 22 5 20 6 19 7 17 8 16 9 15 10 14 11 6 12
REMARK SMILES IDX 8 13 7 14 9 15 11 16 12 17 10 18 13 20 4 22 21 24 18 26
REMARK H PARENT 10 19 13 21 4 23 21 25 18 27
REMARK Flexibility Score: inf
ROOT
ATOM      1  C   UNL     1      15.508  53.236  -3.281  1.00  0.00     0.184 A 
ATOM      2  C   UNL     1      14.986  53.263  -1.975  1.00  0.00     0.208 A 
ATOM      3  C   UNL     1      15.861  53.091  -0.892  1.00  0.00     0.238 A 
ATOM      4  O   UNL     1      15.403  53.103   0.284  1.00  0.00    -0.285 OA
ATOM      5  C   UNL     1      17.240  52.915  -1.132  1.00  0.00     0.111 A 
ATOM      6  C   UNL     1      18.189  52.738  -0.097  1.00  0.00     0.134 A 
ATOM      7  C   UNL     1      19.545  52.577  -0.418  1.00  0.00     0.093 A 
ATOM      8  C   UNL     1      19.969  52.591  -1.751  1.00  0.00     0.123 A 
ATOM      9  C   UNL     1      19.037  52.765  -2.775  1.00  0.00     0.094 A 
ATOM     10  C   UNL     1      17.680  52.925  -2.477  1.00  0.00     0.146 A 
ATOM     11  O   UNL     1      16.815  53.083  -3.471  1.00  0.00    -0.451 OA
ENDROOT
BRANCH   1  12
ATOM     12  C   UNL     1      14.640  53.399  -4.466  1.00  0.00     0.063 A 
ATOM     13  C   UNL     1      13.261  52.375  -6.186  1.00  0.00     0.047 A 
ATOM     14  C   UNL     1      14.090  52.256  -5.068  1.00  0.00     0.020 A 
ATOM     15  C   UNL     1      12.961  53.635  -6.709  1.00  0.00     0.119 A 
ATOM     16  C   UNL     1      13.485  54.783  -6.102  1.00  0.00     0.093 A 
ATOM     17  C   UNL     1      14.314  54.673  -4.975  1.00  0.00     0.130 A 
BRANCH  15  18
ATOM     18  O   UNL     1      12.136  53.737  -7.827  1.00  0.00    -0.508 OA
ATOM     19  H   UNL     1      11.269  53.217  -7.895  1.00  0.00     0.293 HD
ENDBRANCH  15  18
BRANCH  17  20
ATOM     20  O   UNL     1      14.791  55.825  -4.349  1.00  0.00    -0.507 OA
ATOM     21  H   UNL     1      14.181  56.428  -3.809  1.00  0.00     0.293 HD
ENDBRANCH  17  20
ENDBRANCH   1  12
BRANCH   2  22
ATOM     22  O   UNL     1      13.622  53.486  -1.768  1.00  0.00    -0.502 OA
ATOM     23  H   UNL     1      12.911  53.082  -2.364  1.00  0.00     0.293 HD
ENDBRANCH   2  22
BRANCH   6  24
ATOM     24  O   UNL     1      17.797  52.721   1.242  1.00  0.00    -0.507 OA
ATOM     25  H   UNL     1      17.766  53.567   1.800  1.00  0.00     0.293 HD
ENDBRANCH   6  24
BRANCH   8  26
ATOM     26  O   UNL     1      21.317  52.432  -2.070  1.00  0.00    -0.508 OA
ATOM     27  H   UNL     1      22.039  52.955  -1.589  1.00  0.00     0.293 HD
ENDBRANCH   8  26
TORSDOF 6
ENDMDL
MODEL 8
REMARK VINA RESULT:    -7.096      2.387      6.468
REMARK INTER + INTRA:          -8.821
REMARK INTER:                  -8.406
REMARK INTRA:                  -0.415
REMARK UNBOUND:                -0.273
REMARK SMILES O=c1c(O)c(-c2ccc(O)cc2O)oc2cc(O)cc(O)c12
REMARK SMILES IDX 5 1 3 2 2 3 1 4 22 5 20 6 19 7 17 8 16 9 15 10 14 11 6 12
REMARK SMILES IDX 8 13 7 14 9 15 11 16 12 17 10 18 13 20 4 22 21 24 18 26
REMARK H PARENT 10 19 13 21 4 23 21 25 18 27
REMARK Flexibility Score: inf
ROOT
ATOM      1  C   UNL     1      13.031  56.500   3.662  1.00  0.00     0.184 A 
ATOM      2  C   UNL     1      14.047  55.818   2.968  1.00  0.00     0.208 A 
ATOM      3  C   UNL     1      15.177  56.535   2.547  1.00  0.00     0.238 A 
ATOM      4  O   UNL     1      16.091  55.937   1.914  1.00  0.00    -0.285 OA
ATOM      5  C   UNL     1      15.280  57.910   2.844  1.00  0.00     0.111 A 
ATOM      6  C   UNL     1      16.388  58.703   2.459  1.00  0.00     0.134 A 
ATOM      7  C   UNL     1      16.419  60.064   2.800  1.00  0.00     0.093 A 
ATOM      8  C   UNL     1      15.368  60.644   3.518  1.00  0.00     0.123 A 
ATOM      9  C   UNL     1      14.274  59.866   3.899  1.00  0.00     0.094 A 
ATOM     10  C   UNL     1      14.222  58.509   3.568  1.00  0.00     0.146 A 
ATOM     11  O   UNL     1      13.167  57.793   3.939  1.00  0.00    -0.451 OA
ENDROOT
BRANCH   1  12
ATOM     12  C   UNL     1      11.809  55.808   4.123  1.00  0.00     0.063 A 
ATOM     13  C   UNL     1      10.614  54.674   5.911  1.00  0.00     0.047 A 
ATOM     14  C   UNL     1      11.756  55.328   5.441  1.00  0.00     0.020 A 
ATOM     15  C   UNL     1       9.507  54.504   5.076  1.00  0.00     0.119 A 
ATOM     16  C   UNL     1       9.541  55.000   3.767  1.00  0.00     0.093 A 
ATOM     17  C   UNL     1      10.681  55.662   3.289  1.00  0.00     0.130 A 
BRANCH  15  18
ATOM     18  O   UNL     1       8.377  53.846   5.558  1.00  0.00    -0.508 OA
ATOM     19  H   UNL     1       8.002  53.029   5.093  1.00  0.00     0.293 HD
ENDBRANCH  15  18
BRANCH  17  20
ATOM     20  O   UNL     1      10.685  56.195   2.000  1.00  0.00    -0.507 OA
ATOM     21  H   UNL     1      10.838  55.614   1.184  1.00  0.00     0.293 HD
ENDBRANCH  17  20
ENDBRANCH   1  12
BRANCH   2  22
ATOM     22  O   UNL     1      13.936  54.446   2.729  1.00  0.00    -0.502 OA
ATOM     23  H   UNL     1      14.232  54.022   1.859  1.00  0.00     0.293 HD
ENDBRANCH   2  22
BRANCH   6  24
ATOM     24  O   UNL     1      17.452  58.154   1.744  1.00  0.00    -0.507 OA
ATOM     25  H   UNL     1      17.868  57.267   2.003  1.00  0.00     0.293 HD
ENDBRANCH   6  24
BRANCH   8  26
ATOM     26  O   UNL     1      15.401  61.996   3.858  1.00  0.00    -0.508 OA
ATOM     27  H   UNL     1      16.116  62.615   3.495  1.00  0.00     0.293 HD
ENDBRANCH   8  26
TORSDOF 6
ENDMDL
MODEL 9
REMARK VINA RESULT:    -7.086      6.433      9.705
REMARK INTER + INTRA:          -8.809
REMARK INTER:                  -8.406
REMARK INTRA:                  -0.403
REMARK UNBOUND:                -0.273
REMARK SMILES O=c1c(O)c(-c2ccc(O)cc2O)oc2cc(O)cc(O)c12
REMARK SMILES IDX 5 1 3 2 2 3 1 4 22 5 20 6 19 7 17 8 16 9 15 10 14 11 6 12
REMARK SMILES IDX 8 13 7 14 9 15 11 16 12 17 10 18 13 20 4 22 21 24 18 26
REMARK H PARENT 10 19 13 21 4 23 21 25 18 27
REMARK Flexibility Score: inf
ROOT
ATOM      1  C   UNL     1      15.411  53.849  -3.215  1.00  0.00     0.184 A 
ATOM      2  C   UNL     1      15.131  55.194  -3.514  1.00  0.00     0.208 A 
ATOM      3  C   UNL     1      14.380  55.490  -4.662  1.00  0.00     0.238 A 
ATOM      4  O   UNL     1      14.132  56.694  -4.948  1.00  0.00    -0.285 OA
ATOM      5  C   UNL     1      13.909  54.439  -5.477  1.00  0.00     0.111 A 
ATOM      6  C   UNL     1      13.144  54.653  -6.648  1.00  0.00     0.134 A 
ATOM      7  C   UNL     1      12.704  53.553  -7.400  1.00  0.00     0.093 A 
ATOM      8  C   UNL     1      13.013  52.248  -7.003  1.00  0.00     0.123 A 
ATOM      9  C   UNL     1      13.768  52.033  -5.849  1.00  0.00     0.094 A 
ATOM     10  C   UNL     1      14.217  53.115  -5.086  1.00  0.00     0.146 A 
ATOM     11  O   UNL     1      14.938  52.882  -3.995  1.00  0.00    -0.451 OA
ENDROOT
BRANCH   1  12
ATOM     12  C   UNL     1      16.205  53.468  -2.029  1.00  0.00     0.063 A 
ATOM     13  C   UNL     1      18.377  52.964  -1.058  1.00  0.00     0.047 A 
ATOM     14  C   UNL     1      17.595  53.318  -2.161  1.00  0.00     0.020 A 
ATOM     15  C   UNL     1      17.784  52.769   0.191  1.00  0.00     0.119 A 
ATOM     16  C   UNL     1      16.401  52.938   0.339  1.00  0.00     0.093 A 
ATOM     17  C   UNL     1      15.610  53.299  -0.761  1.00  0.00     0.130 A 
BRANCH  15  18
ATOM     18  O   UNL     1      18.576  52.412   1.280  1.00  0.00    -0.508 OA
ATOM     19  H   UNL     1      19.070  51.528   1.310  1.00  0.00     0.293 HD
ENDBRANCH  15  18
BRANCH  17  20
ATOM     20  O   UNL     1      14.242  53.513  -0.592  1.00  0.00    -0.507 OA
ATOM     21  H   UNL     1      13.579  53.328  -1.335  1.00  0.00     0.293 HD
ENDBRANCH  17  20
ENDBRANCH   1  12
BRANCH   2  22
ATOM     22  O   UNL     1      15.573  56.210  -2.663  1.00  0.00    -0.502 OA
ATOM     23  H   UNL     1      15.753  56.053  -1.679  1.00  0.00     0.293 HD
ENDBRANCH   2  22
BRANCH   6  24
ATOM     24  O   UNL     1      12.817  55.942  -7.069  1.00  0.00    -0.507 OA
ATOM     25  H   UNL     1      12.706  56.706  -6.413  1.00  0.00     0.293 HD
ENDBRANCH   6  24
BRANCH   8  26
ATOM     26  O   UNL     1      12.576  51.155  -7.750  1.00  0.00    -0.508 OA
ATOM     27  H   UNL     1      11.914  50.487  -7.373  1.00  0.00     0.293 HD
ENDBRANCH   8  26
TORSDOF 6
ENDMDL
