MODEL 1
REMARK VINA RESULT:    -3.327      0.000      0.000
REMARK INTER + INTRA:          -8.392
REMARK INTER:                  -6.438
REMARK INTRA:                  -1.954
REMARK UNBOUND:                -1.954
REMARK SMILES CCCCCCCCCCCCCCCCCC(=O)[O-]
REMARK SMILES IDX 10 1 11 2 12 3 13 4 14 5 15 6 16 7 17 8 18 9 19 10 20 11
REMARK SMILES IDX 9 12 8 13 7 14 6 15 5 16 4 17 3 18 2 19 1 20
REMARK H PARENT
REMARK Flexibility Score: inf
ROOT
ATOM      1  C   UNL     1       4.941   2.366  -8.899  1.00  0.00     0.000 C 
ENDROOT
BRANCH   1   2
ATOM      2  C   UNL     1       3.769   2.722  -9.836  1.00  0.00     0.000 C 
BRANCH   2   3
ATOM      3  C   UNL     1       2.990   3.992  -9.452  1.00  0.00     0.000 C 
BRANCH   3   4
ATOM      4  C   UNL     1       1.471   3.844  -9.647  1.00  0.00     0.000 C 
BRANCH   4   5
ATOM      5  C   UNL     1       1.060   2.396  -9.961  1.00  0.00     0.000 C 
BRANCH   5   6
ATOM      6  C   UNL     1      -0.198   1.963  -9.186  1.00  0.00     0.000 C 
BRANCH   6   7
ATOM      7  C   UNL     1       0.070   0.789  -8.232  1.00  0.00     0.006 C 
BRANCH   7   8
ATOM      8  C   UNL     1      -1.123  -0.169  -8.116  1.00  0.00     0.053 C 
BRANCH   8   9
ATOM      9  C   UNL     1      -1.074  -0.907  -6.817  1.00  0.00     0.041 C 
ATOM     10  O   UNL     1      -2.131  -1.106  -6.160  1.00  0.00    -0.550 OA
ATOM     11  O   UNL     1       0.144  -1.338  -6.306  1.00  0.00    -0.550 OA
ENDBRANCH   8   9
ENDBRANCH   7   8
ENDBRANCH   6   7
ENDBRANCH   5   6
ENDBRANCH   4   5
ENDBRANCH   3   4
ENDBRANCH   2   3
ENDBRANCH   1   2
BRANCH   1  12
ATOM     12  C   UNL     1       4.898   0.943  -8.306  1.00  0.00     0.000 C 
BRANCH  12  13
ATOM     13  C   UNL     1       3.710   0.081  -8.768  1.00  0.00    -0.000 C 
BRANCH  13  14
ATOM     14  C   UNL     1       3.303  -0.978  -7.733  1.00  0.00    -0.000 C 
BRANCH  14  15
ATOM     15  C   UNL     1       4.191  -2.224  -7.848  1.00  0.00    -0.000 C 
BRANCH  15  16
ATOM     16  C   UNL     1       4.749  -2.630  -6.475  1.00  0.00    -0.000 C 
BRANCH  16  17
ATOM     17  C   UNL     1       4.621  -1.510  -5.430  1.00  0.00    -0.000 C 
BRANCH  17  18
ATOM     18  C   UNL     1       5.934  -0.730  -5.234  1.00  0.00    -0.000 C 
BRANCH  18  19
ATOM     19  C   UNL     1       5.700   0.676  -4.657  1.00  0.00    -0.003 C 
ATOM     20  C   UNL     1       6.830   1.649  -4.994  1.00  0.00     0.004 C 
ENDBRANCH  18  19
ENDBRANCH  17  18
ENDBRANCH  16  17
ENDBRANCH  15  16
ENDBRANCH  14  15
ENDBRANCH  13  14
ENDBRANCH  12  13
ENDBRANCH   1  12
TORSDOF 16
ENDMDL
MODEL 2
REMARK VINA RESULT:    -3.286      1.390      3.019
REMARK INTER + INTRA:          -8.314
REMARK INTER:                  -6.295
REMARK INTRA:                  -2.019
REMARK UNBOUND:                -1.954
REMARK SMILES CCCCCCCCCCCCCCCCCC(=O)[O-]
REMARK SMILES IDX 10 1 11 2 12 3 13 4 14 5 15 6 16 7 17 8 18 9 19 10 20 11
REMARK SMILES IDX 9 12 8 13 7 14 6 15 5 16 4 17 3 18 2 19 1 20
REMARK H PARENT
REMARK Flexibility Score: inf
ROOT
ATOM      1  C   UNL     1       6.073   0.369  -7.771  1.00  0.00     0.000 C 
ENDROOT
BRANCH   1   2
ATOM      2  C   UNL     1       5.196   0.921  -8.913  1.00  0.00     0.000 C 
BRANCH   2   3
ATOM      3  C   UNL     1       4.702   2.365  -8.716  1.00  0.00     0.000 C 
BRANCH   3   4
ATOM      4  C   UNL     1       3.342   2.627  -9.385  1.00  0.00     0.000 C 
BRANCH   4   5
ATOM      5  C   UNL     1       2.375   1.442  -9.232  1.00  0.00     0.000 C 
BRANCH   5   6
ATOM      6  C   UNL     1       0.900   1.881  -9.262  1.00  0.00     0.000 C 
BRANCH   6   7
ATOM      7  C   UNL     1      -0.010   0.956  -8.439  1.00  0.00     0.006 C 
BRANCH   7   8
ATOM      8  C   UNL     1       0.517  -0.483  -8.362  1.00  0.00     0.053 C 
BRANCH   8   9
ATOM      9  C   UNL     1      -0.155  -1.225  -7.252  1.00  0.00     0.041 C 
ATOM     10  O   UNL     1      -0.224  -2.483  -7.281  1.00  0.00    -0.550 OA
ATOM     11  O   UNL     1      -0.745  -0.528  -6.205  1.00  0.00    -0.550 OA
ENDBRANCH   8   9
ENDBRANCH   7   8
ENDBRANCH   6   7
ENDBRANCH   5   6
ENDBRANCH   4   5
ENDBRANCH   3   4
ENDBRANCH   2   3
ENDBRANCH   1   2
BRANCH   1  12
ATOM     12  C   UNL     1       5.869   1.045  -6.400  1.00  0.00     0.000 C 
BRANCH  12  13
ATOM     13  C   UNL     1       6.479   0.290  -5.205  1.00  0.00    -0.000 C 
BRANCH  13  14
ATOM     14  C   UNL     1       5.428  -0.140  -4.171  1.00  0.00    -0.000 C 
BRANCH  14  15
ATOM     15  C   UNL     1       5.821  -1.469  -3.513  1.00  0.00    -0.000 C 
BRANCH  15  16
ATOM     16  C   UNL     1       4.902  -2.608  -3.984  1.00  0.00    -0.000 C 
BRANCH  16  17
ATOM     17  C   UNL     1       3.412  -2.259  -3.851  1.00  0.00    -0.000 C 
BRANCH  17  18
ATOM     18  C   UNL     1       2.641  -2.440  -5.171  1.00  0.00    -0.000 C 
BRANCH  18  19
ATOM     19  C   UNL     1       3.406  -1.871  -6.378  1.00  0.00    -0.003 C 
ATOM     20  C   UNL     1       3.553  -2.884  -7.516  1.00  0.00     0.004 C 
ENDBRANCH  18  19
ENDBRANCH  17  18
ENDBRANCH  16  17
ENDBRANCH  15  16
ENDBRANCH  14  15
ENDBRANCH  13  14
ENDBRANCH  12  13
ENDBRANCH   1  12
TORSDOF 16
ENDMDL
MODEL 3
REMARK VINA RESULT:    -3.251      5.654      9.985
REMARK INTER + INTRA:          -8.246
REMARK INTER:                  -5.297
REMARK INTRA:                  -2.949
REMARK UNBOUND:                -1.954
REMARK SMILES CCCCCCCCCCCCCCCCCC(=O)[O-]
REMARK SMILES IDX 10 1 11 2 12 3 13 4 14 5 15 6 16 7 17 8 18 9 19 10 20 11
REMARK SMILES IDX 9 12 8 13 7 14 6 15 5 16 4 17 3 18 2 19 1 20
REMARK H PARENT
REMARK Flexibility Score: inf
ROOT
ATOM      1  C   UNL     1      -8.224  -3.465  -5.547  1.00  0.00     0.000 C 
ENDROOT
BRANCH   1   2
ATOM      2  C   UNL     1      -7.474  -4.661  -4.927  1.00  0.00     0.000 C 
BRANCH   2   3
ATOM      3  C   UNL     1      -6.375  -5.273  -5.813  1.00  0.00     0.000 C 
BRANCH   3   4
ATOM      4  C   UNL     1      -6.068  -4.422  -7.058  1.00  0.00     0.000 C 
BRANCH   4   5
ATOM      5  C   UNL     1      -4.766  -3.617  -6.911  1.00  0.00     0.000 C 
BRANCH   5   6
ATOM      6  C   UNL     1      -4.927  -2.155  -7.364  1.00  0.00     0.000 C 
BRANCH   6   7
ATOM      7  C   UNL     1      -3.823  -1.240  -6.810  1.00  0.00     0.006 C 
BRANCH   7   8
ATOM      8  C   UNL     1      -2.435  -1.894  -6.845  1.00  0.00     0.053 C 
BRANCH   8   9
ATOM      9  C   UNL     1      -1.381  -0.866  -7.106  1.00  0.00     0.041 C 
ATOM     10  O   UNL     1      -0.614  -0.494  -6.179  1.00  0.00    -0.550 OA
ATOM     11  O   UNL     1      -1.274  -0.283  -8.363  1.00  0.00    -0.550 OA
ENDBRANCH   8   9
ENDBRANCH   7   8
ENDBRANCH   6   7
ENDBRANCH   5   6
ENDBRANCH   4   5
ENDBRANCH   3   4
ENDBRANCH   2   3
ENDBRANCH   1   2
BRANCH   1  12
ATOM     12  C   UNL     1      -7.799  -2.080  -5.021  1.00  0.00     0.000 C 
BRANCH  12  13
ATOM     13  C   UNL     1      -7.126  -2.088  -3.636  1.00  0.00    -0.000 C 
BRANCH  13  14
ATOM     14  C   UNL     1      -5.695  -1.533  -3.664  1.00  0.00    -0.000 C 
BRANCH  14  15
ATOM     15  C   UNL     1      -4.673  -2.642  -3.382  1.00  0.00    -0.000 C 
BRANCH  15  16
ATOM     16  C   UNL     1      -5.232  -3.661  -2.376  1.00  0.00    -0.000 C 
BRANCH  16  17
ATOM     17  C   UNL     1      -4.551  -5.035  -2.486  1.00  0.00    -0.000 C 
BRANCH  17  18
ATOM     18  C   UNL     1      -3.026  -4.927  -2.661  1.00  0.00    -0.000 C 
BRANCH  18  19
ATOM     19  C   UNL     1      -2.487  -5.900  -3.723  1.00  0.00    -0.003 C 
ATOM     20  C   UNL     1      -2.138  -5.203  -5.040  1.00  0.00     0.004 C 
ENDBRANCH  18  19
ENDBRANCH  17  18
ENDBRANCH  16  17
ENDBRANCH  15  16
ENDBRANCH  14  15
ENDBRANCH  13  14
ENDBRANCH  12  13
ENDBRANCH   1  12
TORSDOF 16
ENDMDL
MODEL 4
REMARK VINA RESULT:    -3.247      1.438      2.626
REMARK INTER + INTRA:          -8.239
REMARK INTER:                  -6.937
REMARK INTRA:                  -1.301
REMARK UNBOUND:                -1.954
REMARK SMILES CCCCCCCCCCCCCCCCCC(=O)[O-]
REMARK SMILES IDX 10 1 11 2 12 3 13 4 14 5 15 6 16 7 17 8 18 9 19 10 20 11
REMARK SMILES IDX 9 12 8 13 7 14 6 15 5 16 4 17 3 18 2 19 1 20
REMARK H PARENT
REMARK Flexibility Score: inf
ROOT
ATOM      1  C   UNL     1       5.700   2.069  -8.361  1.00  0.00     0.000 C 
ENDROOT
BRANCH   1   2
ATOM      2  C   UNL     1       4.788   3.079  -9.085  1.00  0.00     0.000 C 
BRANCH   2   3
ATOM      3  C   UNL     1       3.367   2.572  -9.391  1.00  0.00     0.000 C 
BRANCH   3   4
ATOM      4  C   UNL     1       2.331   3.706  -9.464  1.00  0.00     0.000 C 
BRANCH   4   5
ATOM      5  C   UNL     1       0.886   3.181  -9.446  1.00  0.00     0.000 C 
BRANCH   5   6
ATOM      6  C   UNL     1       0.820   1.645  -9.500  1.00  0.00     0.000 C 
BRANCH   6   7
ATOM      7  C   UNL     1      -0.284   1.068  -8.599  1.00  0.00     0.006 C 
BRANCH   7   8
ATOM      8  C   UNL     1      -0.311  -0.466  -8.597  1.00  0.00     0.053 C 
BRANCH   8   9
ATOM      9  C   UNL     1      -0.047  -0.990  -7.221  1.00  0.00     0.041 C 
ATOM     10  O   UNL     1       0.867  -1.835  -7.029  1.00  0.00    -0.550 OA
ATOM     11  O   UNL     1      -0.840  -0.580  -6.157  1.00  0.00    -0.550 OA
ENDBRANCH   8   9
ENDBRANCH   7   8
ENDBRANCH   6   7
ENDBRANCH   5   6
ENDBRANCH   4   5
ENDBRANCH   3   4
ENDBRANCH   2   3
ENDBRANCH   1   2
BRANCH   1  12
ATOM     12  C   UNL     1       5.080   0.678  -8.122  1.00  0.00     0.000 C 
BRANCH  12  13
ATOM     13  C   UNL     1       5.274   0.114  -6.703  1.00  0.00    -0.000 C 
BRANCH  13  14
ATOM     14  C   UNL     1       6.033   1.076  -5.777  1.00  0.00    -0.000 C 
BRANCH  14  15
ATOM     15  C   UNL     1       6.495   0.357  -4.503  1.00  0.00    -0.000 C 
BRANCH  15  16
ATOM     16  C   UNL     1       6.335  -1.165  -4.642  1.00  0.00    -0.000 C 
BRANCH  16  17
ATOM     17  C   UNL     1       6.473  -1.900  -3.299  1.00  0.00    -0.000 C 
BRANCH  17  18
ATOM     18  C   UNL     1       5.137  -2.480  -2.801  1.00  0.00    -0.000 C 
BRANCH  18  19
ATOM     19  C   UNL     1       3.922  -1.747  -3.396  1.00  0.00    -0.003 C 
ATOM     20  C   UNL     1       3.010  -2.672  -4.203  1.00  0.00     0.004 C 
ENDBRANCH  18  19
ENDBRANCH  17  18
ENDBRANCH  16  17
ENDBRANCH  15  16
ENDBRANCH  14  15
ENDBRANCH  13  14
ENDBRANCH  12  13
ENDBRANCH   1  12
TORSDOF 16
ENDMDL
MODEL 5
REMARK VINA RESULT:    -3.244      5.737      8.633
REMARK INTER + INTRA:          -8.232
REMARK INTER:                  -6.602
REMARK INTRA:                  -1.630
REMARK UNBOUND:                -1.954
REMARK SMILES CCCCCCCCCCCCCCCCCC(=O)[O-]
REMARK SMILES IDX 10 1 11 2 12 3 13 4 14 5 15 6 16 7 17 8 18 9 19 10 20 11
REMARK SMILES IDX 9 12 8 13 7 14 6 15 5 16 4 17 3 18 2 19 1 20
REMARK H PARENT
REMARK Flexibility Score: inf
ROOT
ATOM      1  C   UNL     1       5.278   5.289  -2.483  1.00  0.00     0.000 C 
ENDROOT
BRANCH   1   2
ATOM      2  C   UNL     1       6.384   5.310  -3.557  1.00  0.00     0.000 C 
BRANCH   2   3
ATOM      3  C   UNL     1       7.257   4.044  -3.619  1.00  0.00     0.000 C 
BRANCH   3   4
ATOM      4  C   UNL     1       6.832   3.080  -4.740  1.00  0.00     0.000 C 
BRANCH   4   5
ATOM      5  C   UNL     1       6.838   1.612  -4.284  1.00  0.00     0.000 C 
BRANCH   5   6
ATOM      6  C   UNL     1       5.735   0.782  -4.965  1.00  0.00     0.000 C 
BRANCH   6   7
ATOM      7  C   UNL     1       5.419  -0.517  -4.207  1.00  0.00     0.006 C 
BRANCH   7   8
ATOM      8  C   UNL     1       4.416  -1.410  -4.950  1.00  0.00     0.053 C 
BRANCH   8   9
ATOM      9  C   UNL     1       3.654  -2.256  -3.980  1.00  0.00     0.041 C 
ATOM     10  O   UNL     1       4.266  -3.029  -3.195  1.00  0.00    -0.550 OA
ATOM     11  O   UNL     1       2.265  -2.226  -3.971  1.00  0.00    -0.550 OA
ENDBRANCH   8   9
ENDBRANCH   7   8
ENDBRANCH   6   7
ENDBRANCH   5   6
ENDBRANCH   4   5
ENDBRANCH   3   4
ENDBRANCH   2   3
ENDBRANCH   1   2
BRANCH   1  12
ATOM     12  C   UNL     1       4.189   6.370  -2.641  1.00  0.00     0.000 C 
BRANCH  12  13
ATOM     13  C   UNL     1       4.718   7.806  -2.806  1.00  0.00    -0.000 C 
BRANCH  13  14
ATOM     14  C   UNL     1       4.279   8.738  -1.666  1.00  0.00    -0.000 C 
BRANCH  14  15
ATOM     15  C   UNL     1       3.340   8.011  -0.697  1.00  0.00    -0.000 C 
BRANCH  15  16
ATOM     16  C   UNL     1       3.910   8.016   0.730  1.00  0.00    -0.000 C 
BRANCH  16  17
ATOM     17  C   UNL     1       5.366   8.507   0.784  1.00  0.00    -0.000 C 
BRANCH  17  18
ATOM     18  C   UNL     1       6.314   7.478   1.425  1.00  0.00    -0.000 C 
BRANCH  18  19
ATOM     19  C   UNL     1       6.911   6.507   0.392  1.00  0.00    -0.003 C 
ATOM     20  C   UNL     1       7.851   7.199  -0.597  1.00  0.00     0.004 C 
ENDBRANCH  18  19
ENDBRANCH  17  18
ENDBRANCH  16  17
ENDBRANCH  15  16
ENDBRANCH  14  15
ENDBRANCH  13  14
ENDBRANCH  12  13
ENDBRANCH   1  12
TORSDOF 16
ENDMDL
MODEL 6
REMARK VINA RESULT:    -3.203      5.046      8.502
REMARK INTER + INTRA:          -8.153
REMARK INTER:                  -5.718
REMARK INTRA:                  -2.435
REMARK UNBOUND:                -1.954
REMARK SMILES CCCCCCCCCCCCCCCCCC(=O)[O-]
REMARK SMILES IDX 10 1 11 2 12 3 13 4 14 5 15 6 16 7 17 8 18 9 19 10 20 11
REMARK SMILES IDX 9 12 8 13 7 14 6 15 5 16 4 17 3 18 2 19 1 20
REMARK H PARENT
REMARK Flexibility Score: inf
ROOT
ATOM      1  C   UNL     1      -5.232  -1.723  -7.057  1.00  0.00     0.000 C 
ENDROOT
BRANCH   1   2
ATOM      2  C   UNL     1      -5.908  -0.694  -7.984  1.00  0.00     0.000 C 
BRANCH   2   3
ATOM      3  C   UNL     1      -5.730   0.777  -7.566  1.00  0.00     0.000 C 
BRANCH   3   4
ATOM      4  C   UNL     1      -4.838   1.570  -8.536  1.00  0.00     0.000 C 
BRANCH   4   5
ATOM      5  C   UNL     1      -4.103   0.659  -9.533  1.00  0.00     0.000 C 
BRANCH   5   6
ATOM      6  C   UNL     1      -2.604   0.524  -9.209  1.00  0.00     0.000 C 
BRANCH   6   7
ATOM      7  C   UNL     1      -2.172  -0.936  -9.004  1.00  0.00     0.006 C 
BRANCH   7   8
ATOM      8  C   UNL     1      -0.715  -1.067  -8.543  1.00  0.00     0.053 C 
BRANCH   8   9
ATOM      9  C   UNL     1      -0.656  -1.378  -7.082  1.00  0.00     0.041 C 
ATOM     10  O   UNL     1      -0.826  -0.464  -6.232  1.00  0.00    -0.550 OA
ATOM     11  O   UNL     1      -0.368  -2.669  -6.656  1.00  0.00    -0.550 OA
ENDBRANCH   8   9
ENDBRANCH   7   8
ENDBRANCH   6   7
ENDBRANCH   5   6
ENDBRANCH   4   5
ENDBRANCH   3   4
ENDBRANCH   2   3
ENDBRANCH   1   2
BRANCH   1  12
ATOM     12  C   UNL     1      -4.347  -1.124  -5.945  1.00  0.00     0.000 C 
BRANCH  12  13
ATOM     13  C   UNL     1      -4.903  -1.277  -4.518  1.00  0.00    -0.000 C 
BRANCH  13  14
ATOM     14  C   UNL     1      -6.304  -1.906  -4.487  1.00  0.00    -0.000 C 
BRANCH  14  15
ATOM     15  C   UNL     1      -6.459  -2.833  -3.274  1.00  0.00    -0.000 C 
BRANCH  15  16
ATOM     16  C   UNL     1      -5.093  -3.150  -2.645  1.00  0.00    -0.000 C 
BRANCH  16  17
ATOM     17  C   UNL     1      -4.911  -4.646  -2.346  1.00  0.00    -0.000 C 
BRANCH  17  18
ATOM     18  C   UNL     1      -4.254  -5.408  -3.511  1.00  0.00    -0.000 C 
BRANCH  18  19
ATOM     19  C   UNL     1      -3.121  -4.604  -4.172  1.00  0.00    -0.003 C 
ATOM     20  C   UNL     1      -3.222  -4.584  -5.698  1.00  0.00     0.004 C 
ENDBRANCH  18  19
ENDBRANCH  17  18
ENDBRANCH  16  17
ENDBRANCH  15  16
ENDBRANCH  14  15
ENDBRANCH  13  14
ENDBRANCH  12  13
ENDBRANCH   1  12
TORSDOF 16
ENDMDL
MODEL 7
REMARK VINA RESULT:    -3.168      2.428      4.241
REMARK INTER + INTRA:          -8.086
REMARK INTER:                  -5.474
REMARK INTRA:                  -2.613
REMARK UNBOUND:                -1.954
REMARK SMILES CCCCCCCCCCCCCCCCCC(=O)[O-]
REMARK SMILES IDX 10 1 11 2 12 3 13 4 14 5 15 6 16 7 17 8 18 9 19 10 20 11
REMARK SMILES IDX 9 12 8 13 7 14 6 15 5 16 4 17 3 18 2 19 1 20
REMARK H PARENT
REMARK Flexibility Score: inf
ROOT
ATOM      1  C   UNL     1       6.832   1.803  -6.534  1.00  0.00     0.000 C 
ENDROOT
BRANCH   1   2
ATOM      2  C   UNL     1       5.806   1.368  -7.599  1.00  0.00     0.000 C 
BRANCH   2   3
ATOM      3  C   UNL     1       5.758  -0.144  -7.879  1.00  0.00     0.000 C 
BRANCH   3   4
ATOM      4  C   UNL     1       4.455  -0.801  -7.392  1.00  0.00     0.000 C 
BRANCH   4   5
ATOM      5  C   UNL     1       4.298  -2.242  -7.904  1.00  0.00     0.000 C 
BRANCH   5   6
ATOM      6  C   UNL     1       2.825  -2.627  -8.130  1.00  0.00     0.000 C 
BRANCH   6   7
ATOM      7  C   UNL     1       1.866  -1.445  -7.919  1.00  0.00     0.006 C 
BRANCH   7   8
ATOM      8  C   UNL     1       0.624  -1.825  -7.103  1.00  0.00     0.053 C 
BRANCH   8   9
ATOM      9  C   UNL     1      -0.365  -0.703  -7.107  1.00  0.00     0.041 C 
ATOM     10  O   UNL     1      -0.220   0.267  -7.898  1.00  0.00    -0.550 OA
ATOM     11  O   UNL     1      -1.424  -0.705  -6.207  1.00  0.00    -0.550 OA
ENDBRANCH   8   9
ENDBRANCH   7   8
ENDBRANCH   6   7
ENDBRANCH   5   6
ENDBRANCH   4   5
ENDBRANCH   3   4
ENDBRANCH   2   3
ENDBRANCH   1   2
BRANCH   1  12
ATOM     12  C   UNL     1       6.441   1.487  -5.076  1.00  0.00     0.000 C 
BRANCH  12  13
ATOM     13  C   UNL     1       7.234   0.340  -4.424  1.00  0.00    -0.000 C 
BRANCH  13  14
ATOM     14  C   UNL     1       6.391  -0.928  -4.218  1.00  0.00    -0.000 C 
BRANCH  14  15
ATOM     15  C   UNL     1       4.978  -0.571  -3.740  1.00  0.00    -0.000 C 
BRANCH  15  16
ATOM     16  C   UNL     1       4.231  -1.822  -3.251  1.00  0.00    -0.000 C 
BRANCH  16  17
ATOM     17  C   UNL     1       3.182  -2.318  -4.259  1.00  0.00    -0.000 C 
BRANCH  17  18
ATOM     18  C   UNL     1       3.404  -3.784  -4.672  1.00  0.00    -0.000 C 
BRANCH  18  19
ATOM     19  C   UNL     1       4.807  -4.292  -4.298  1.00  0.00    -0.003 C 
ATOM     20  C   UNL     1       5.739  -4.400  -5.506  1.00  0.00     0.004 C 
ENDBRANCH  18  19
ENDBRANCH  17  18
ENDBRANCH  16  17
ENDBRANCH  15  16
ENDBRANCH  14  15
ENDBRANCH  13  14
ENDBRANCH  12  13
ENDBRANCH   1  12
TORSDOF 16
ENDMDL
MODEL 8
REMARK VINA RESULT:    -3.133      4.961      7.772
REMARK INTER + INTRA:          -8.018
REMARK INTER:                  -6.506
REMARK INTRA:                  -1.512
REMARK UNBOUND:                -1.954
REMARK SMILES CCCCCCCCCCCCCCCCCC(=O)[O-]
REMARK SMILES IDX 10 1 11 2 12 3 13 4 14 5 15 6 16 7 17 8 18 9 19 10 20 11
REMARK SMILES IDX 9 12 8 13 7 14 6 15 5 16 4 17 3 18 2 19 1 20
REMARK H PARENT
REMARK Flexibility Score: inf
ROOT
ATOM      1  C   UNL     1       8.717   4.615  -4.388  1.00  0.00     0.000 C 
ENDROOT
BRANCH   1   2
ATOM      2  C   UNL     1       8.038   3.518  -3.545  1.00  0.00     0.000 C 
BRANCH   2   3
ATOM      3  C   UNL     1       6.708   2.990  -4.111  1.00  0.00     0.000 C 
BRANCH   3   4
ATOM      4  C   UNL     1       6.864   1.656  -4.860  1.00  0.00     0.000 C 
BRANCH   4   5
ATOM      5  C   UNL     1       5.657   0.726  -4.659  1.00  0.00     0.000 C 
BRANCH   5   6
ATOM      6  C   UNL     1       6.004  -0.751  -4.920  1.00  0.00     0.000 C 
BRANCH   6   7
ATOM      7  C   UNL     1       5.854  -1.624  -3.665  1.00  0.00     0.006 C 
BRANCH   7   8
ATOM      8  C   UNL     1       4.726  -2.656  -3.788  1.00  0.00     0.053 C 
BRANCH   8   9
ATOM      9  C   UNL     1       3.438  -2.083  -3.289  1.00  0.00     0.041 C 
ATOM     10  O   UNL     1       3.408  -1.441  -2.205  1.00  0.00    -0.550 OA
ATOM     11  O   UNL     1       2.261  -2.294  -3.996  1.00  0.00    -0.550 OA
ENDBRANCH   8   9
ENDBRANCH   7   8
ENDBRANCH   6   7
ENDBRANCH   5   6
ENDBRANCH   4   5
ENDBRANCH   3   4
ENDBRANCH   2   3
ENDBRANCH   1   2
BRANCH   1  12
ATOM     12  C   UNL     1       8.370   6.062  -3.985  1.00  0.00     0.000 C 
BRANCH  12  13
ATOM     13  C   UNL     1       7.041   6.595  -4.552  1.00  0.00    -0.000 C 
BRANCH  13  14
ATOM     14  C   UNL     1       6.237   7.407  -3.526  1.00  0.00    -0.000 C 
BRANCH  14  15
ATOM     15  C   UNL     1       4.945   6.675  -3.141  1.00  0.00    -0.000 C 
BRANCH  15  16
ATOM     16  C   UNL     1       5.205   5.648  -2.028  1.00  0.00    -0.000 C 
BRANCH  16  17
ATOM     17  C   UNL     1       5.856   6.275  -0.785  1.00  0.00    -0.000 C 
BRANCH  17  18
ATOM     18  C   UNL     1       7.230   5.660  -0.463  1.00  0.00    -0.000 C 
BRANCH  18  19
ATOM     19  C   UNL     1       7.664   5.923   0.988  1.00  0.00    -0.003 C 
ATOM     20  C   UNL     1       8.376   4.725   1.620  1.00  0.00     0.004 C 
ENDBRANCH  18  19
ENDBRANCH  17  18
ENDBRANCH  16  17
ENDBRANCH  15  16
ENDBRANCH  14  15
ENDBRANCH  13  14
ENDBRANCH  12  13
ENDBRANCH   1  12
TORSDOF 16
ENDMDL
MODEL 9
REMARK VINA RESULT:    -3.117      1.833      6.037
REMARK INTER + INTRA:          -7.986
REMARK INTER:                  -6.078
REMARK INTRA:                  -1.908
REMARK UNBOUND:                -1.954
REMARK SMILES CCCCCCCCCCCCCCCCCC(=O)[O-]
REMARK SMILES IDX 10 1 11 2 12 3 13 4 14 5 15 6 16 7 17 8 18 9 19 10 20 11
REMARK SMILES IDX 9 12 8 13 7 14 6 15 5 16 4 17 3 18 2 19 1 20
REMARK H PARENT
REMARK Flexibility Score: inf
ROOT
ATOM      1  C   UNL     1       4.328  -0.756  -7.850  1.00  0.00     0.000 C 
ENDROOT
BRANCH   1   2
ATOM      2  C   UNL     1       5.733  -1.224  -7.419  1.00  0.00     0.000 C 
BRANCH   2   3
ATOM      3  C   UNL     1       6.702  -0.097  -7.020  1.00  0.00     0.000 C 
BRANCH   3   4
ATOM      4  C   UNL     1       6.053   0.948  -6.095  1.00  0.00     0.000 C 
BRANCH   4   5
ATOM      5  C   UNL     1       6.301   0.648  -4.608  1.00  0.00     0.000 C 
BRANCH   5   6
ATOM      6  C   UNL     1       5.163  -0.175  -3.978  1.00  0.00     0.000 C 
BRANCH   6   7
ATOM      7  C   UNL     1       5.601  -1.598  -3.600  1.00  0.00     0.006 C 
BRANCH   7   8
ATOM      8  C   UNL     1       4.446  -2.453  -3.062  1.00  0.00     0.053 C 
BRANCH   8   9
ATOM      9  C   UNL     1       3.377  -2.596  -4.098  1.00  0.00     0.041 C 
ATOM     10  O   UNL     1       2.199  -2.227  -3.848  1.00  0.00    -0.550 OA
ATOM     11  O   UNL     1       3.670  -3.178  -5.325  1.00  0.00    -0.550 OA
ENDBRANCH   8   9
ENDBRANCH   7   8
ENDBRANCH   6   7
ENDBRANCH   5   6
ENDBRANCH   4   5
ENDBRANCH   3   4
ENDBRANCH   2   3
ENDBRANCH   1   2
BRANCH   1  12
ATOM     12  C   UNL     1       4.239  -0.168  -9.272  1.00  0.00     0.000 C 
BRANCH  12  13
ATOM     13  C   UNL     1       2.953   0.625  -9.569  1.00  0.00    -0.000 C 
BRANCH  13  14
ATOM     14  C   UNL     1       3.120   2.136  -9.350  1.00  0.00    -0.000 C 
BRANCH  14  15
ATOM     15  C   UNL     1       1.761   2.847  -9.388  1.00  0.00    -0.000 C 
BRANCH  15  16
ATOM     16  C   UNL     1       0.666   1.911  -9.926  1.00  0.00    -0.000 C 
BRANCH  16  17
ATOM     17  C   UNL     1      -0.446   1.649  -8.898  1.00  0.00    -0.000 C 
BRANCH  17  18
ATOM     18  C   UNL     1      -0.740   0.150  -8.714  1.00  0.00    -0.000 C 
BRANCH  18  19
ATOM     19  C   UNL     1      -0.405  -0.344  -7.297  1.00  0.00    -0.003 C 
ATOM     20  C   UNL     1       0.676  -1.426  -7.287  1.00  0.00     0.004 C 
ENDBRANCH  18  19
ENDBRANCH  17  18
ENDBRANCH  16  17
ENDBRANCH  15  16
ENDBRANCH  14  15
ENDBRANCH  13  14
ENDBRANCH  12  13
ENDBRANCH   1  12
TORSDOF 16
ENDMDL
