MODEL 1
REMARK VINA RESULT:    -5.289      0.000      0.000
REMARK INTER + INTRA:         -15.549
REMARK INTER:                 -12.090
REMARK INTRA:                  -3.458
REMARK UNBOUND:                -3.458
REMARK SMILES CCCCCCCCCCCCCCCCCCCCCCCC(=O)[O-]
REMARK SMILES IDX 13 1 14 2 15 3 16 4 17 5 18 6 19 7 20 8 21 9 22 10 23 11
REMARK SMILES IDX 24 12 25 13 26 14 12 15 11 16 10 17 9 18 8 19 7 20 6 21 5 22
REMARK SMILES IDX 4 23 3 24 2 25 1 26
REMARK H PARENT
REMARK Flexibility Score: inf
ROOT
ATOM      1  C   UNL     1      20.504  -2.753  34.231  1.00  0.00     0.000 C 
ENDROOT
BRANCH   1   2
ATOM      2  C   UNL     1      20.281  -1.429  34.982  1.00  0.00     0.000 C 
BRANCH   2   3
ATOM      3  C   UNL     1      21.460  -0.456  34.840  1.00  0.00     0.000 C 
BRANCH   3   4
ATOM      4  C   UNL     1      22.626  -0.873  35.746  1.00  0.00     0.000 C 
BRANCH   4   5
ATOM      5  C   UNL     1      22.148  -1.135  37.181  1.00  0.00     0.000 C 
BRANCH   5   6
ATOM      6  C   UNL     1      22.857  -2.344  37.835  1.00  0.00     0.000 C 
BRANCH   6   7
ATOM      7  C   UNL     1      23.480  -3.321  36.821  1.00  0.00     0.000 C 
BRANCH   7   8
ATOM      8  C   UNL     1      23.870  -4.692  37.403  1.00  0.00     0.000 C 
BRANCH   8   9
ATOM      9  C   UNL     1      23.306  -4.952  38.818  1.00  0.00     0.000 C 
BRANCH   9  10
ATOM     10  C   UNL     1      24.395  -5.354  39.828  1.00  0.00     0.006 C 
BRANCH  10  11
ATOM     11  C   UNL     1      24.875  -6.797  39.619  1.00  0.00     0.053 C 
BRANCH  11  12
ATOM     12  C   UNL     1      26.342  -6.945  39.884  1.00  0.00     0.041 C 
ATOM     13  O   UNL     1      26.945  -7.997  39.543  1.00  0.00    -0.550 OA
ATOM     14  O   UNL     1      27.050  -5.915  40.492  1.00  0.00    -0.550 OA
ENDBRANCH  11  12
ENDBRANCH  10  11
ENDBRANCH   9  10
ENDBRANCH   8   9
ENDBRANCH   7   8
ENDBRANCH   6   7
ENDBRANCH   5   6
ENDBRANCH   4   5
ENDBRANCH   3   4
ENDBRANCH   2   3
ENDBRANCH   1   2
BRANCH   1  15
ATOM     15  C   UNL     1      20.241  -4.007  35.093  1.00  0.00     0.000 C 
BRANCH  15  16
ATOM     16  C   UNL     1      21.241  -5.138  34.793  1.00  0.00     0.000 C 
BRANCH  16  17
ATOM     17  C   UNL     1      20.554  -6.384  34.199  1.00  0.00     0.000 C 
BRANCH  17  18
ATOM     18  C   UNL     1      21.433  -7.156  33.200  1.00  0.00    -0.000 C 
BRANCH  18  19
ATOM     19  C   UNL     1      22.631  -6.337  32.701  1.00  0.00    -0.000 C 
BRANCH  19  20
ATOM     20  C   UNL     1      22.274  -5.562  31.427  1.00  0.00    -0.000 C 
BRANCH  20  21
ATOM     21  C   UNL     1      21.367  -6.396  30.510  1.00  0.00    -0.000 C 
BRANCH  21  22
ATOM     22  C   UNL     1      20.001  -5.734  30.271  1.00  0.00    -0.000 C 
BRANCH  22  23
ATOM     23  C   UNL     1      19.914  -4.328  30.886  1.00  0.00    -0.000 C 
BRANCH  23  24
ATOM     24  C   UNL     1      18.474  -3.995  31.296  1.00  0.00    -0.000 C 
BRANCH  24  25
ATOM     25  C   UNL     1      17.893  -5.084  32.205  1.00  0.00    -0.003 C 
ATOM     26  C   UNL     1      17.139  -4.475  33.384  1.00  0.00     0.004 C 
ENDBRANCH  24  25
ENDBRANCH  23  24
ENDBRANCH  22  23
ENDBRANCH  21  22
ENDBRANCH  20  21
ENDBRANCH  19  20
ENDBRANCH  18  19
ENDBRANCH  17  18
ENDBRANCH  16  17
ENDBRANCH  15  16
ENDBRANCH   1  15
TORSDOF 22
ENDMDL
MODEL 2
REMARK VINA RESULT:    -5.278      1.666      3.746
REMARK INTER + INTRA:         -15.525
REMARK INTER:                 -12.013
REMARK INTRA:                  -3.512
REMARK UNBOUND:                -3.458
REMARK SMILES CCCCCCCCCCCCCCCCCCCCCCCC(=O)[O-]
REMARK SMILES IDX 13 1 14 2 15 3 16 4 17 5 18 6 19 7 20 8 21 9 22 10 23 11
REMARK SMILES IDX 24 12 25 13 26 14 12 15 11 16 10 17 9 18 8 19 7 20 6 21 5 22
REMARK SMILES IDX 4 23 3 24 2 25 1 26
REMARK H PARENT
REMARK Flexibility Score: inf
ROOT
ATOM      1  C   UNL     1      22.683  -1.480  36.169  1.00  0.00     0.000 C 
ENDROOT
BRANCH   1   2
ATOM      2  C   UNL     1      23.356  -2.861  36.114  1.00  0.00     0.000 C 
BRANCH   2   3
ATOM      3  C   UNL     1      22.683  -3.814  35.116  1.00  0.00     0.000 C 
BRANCH   3   4
ATOM      4  C   UNL     1      22.263  -5.121  35.802  1.00  0.00     0.000 C 
BRANCH   4   5
ATOM      5  C   UNL     1      20.775  -5.095  36.180  1.00  0.00     0.000 C 
BRANCH   5   6
ATOM      6  C   UNL     1      20.547  -4.907  37.698  1.00  0.00     0.000 C 
BRANCH   6   7
ATOM      7  C   UNL     1      21.541  -5.691  38.575  1.00  0.00     0.000 C 
BRANCH   7   8
ATOM      8  C   UNL     1      20.949  -6.930  39.272  1.00  0.00     0.000 C 
BRANCH   8   9
ATOM      9  C   UNL     1      22.007  -7.823  39.960  1.00  0.00     0.000 C 
BRANCH   9  10
ATOM     10  C   UNL     1      23.284  -7.988  39.118  1.00  0.00     0.006 C 
BRANCH  10  11
ATOM     11  C   UNL     1      24.552  -7.652  39.916  1.00  0.00     0.053 C 
BRANCH  11  12
ATOM     12  C   UNL     1      25.018  -6.251  39.664  1.00  0.00     0.041 C 
ATOM     13  O   UNL     1      25.179  -5.839  38.484  1.00  0.00    -0.550 OA
ATOM     14  O   UNL     1      25.260  -5.392  40.729  1.00  0.00    -0.550 OA
ENDBRANCH  11  12
ENDBRANCH  10  11
ENDBRANCH   9  10
ENDBRANCH   8   9
ENDBRANCH   7   8
ENDBRANCH   6   7
ENDBRANCH   5   6
ENDBRANCH   4   5
ENDBRANCH   3   4
ENDBRANCH   2   3
ENDBRANCH   1   2
BRANCH   1  15
ATOM     15  C   UNL     1      21.645  -1.251  35.048  1.00  0.00     0.000 C 
BRANCH  15  16
ATOM     16  C   UNL     1      20.201  -1.284  35.578  1.00  0.00     0.000 C 
BRANCH  16  17
ATOM     17  C   UNL     1      19.224  -1.931  34.574  1.00  0.00     0.000 C 
BRANCH  17  18
ATOM     18  C   UNL     1      19.919  -2.796  33.508  1.00  0.00    -0.000 C 
BRANCH  18  19
ATOM     19  C   UNL     1      19.092  -2.940  32.223  1.00  0.00    -0.000 C 
BRANCH  19  20
ATOM     20  C   UNL     1      18.788  -4.412  31.927  1.00  0.00    -0.000 C 
BRANCH  20  21
ATOM     21  C   UNL     1      18.393  -5.163  33.207  1.00  0.00    -0.000 C 
BRANCH  21  22
ATOM     22  C   UNL     1      18.900  -6.613  33.221  1.00  0.00    -0.000 C 
BRANCH  22  23
ATOM     23  C   UNL     1      20.004  -6.860  32.180  1.00  0.00    -0.000 C 
BRANCH  23  24
ATOM     24  C   UNL     1      21.395  -6.729  32.811  1.00  0.00    -0.000 C 
BRANCH  24  25
ATOM     25  C   UNL     1      22.308  -5.845  31.953  1.00  0.00    -0.003 C 
ATOM     26  C   UNL     1      21.909  -5.904  30.481  1.00  0.00     0.004 C 
ENDBRANCH  24  25
ENDBRANCH  23  24
ENDBRANCH  22  23
ENDBRANCH  21  22
ENDBRANCH  20  21
ENDBRANCH  19  20
ENDBRANCH  18  19
ENDBRANCH  17  18
ENDBRANCH  16  17
ENDBRANCH  15  16
ENDBRANCH   1  15
TORSDOF 22
ENDMDL
MODEL 3
REMARK VINA RESULT:    -5.272      3.088      4.794
REMARK INTER + INTRA:         -15.510
REMARK INTER:                 -11.073
REMARK INTRA:                  -4.437
REMARK UNBOUND:                -3.458
REMARK SMILES CCCCCCCCCCCCCCCCCCCCCCCC(=O)[O-]
REMARK SMILES IDX 13 1 14 2 15 3 16 4 17 5 18 6 19 7 20 8 21 9 22 10 23 11
REMARK SMILES IDX 24 12 25 13 26 14 12 15 11 16 10 17 9 18 8 19 7 20 6 21 5 22
REMARK SMILES IDX 4 23 3 24 2 25 1 26
REMARK H PARENT
REMARK Flexibility Score: inf
ROOT
ATOM      1  C   UNL     1      19.571  -5.328  36.799  1.00  0.00     0.000 C 
ENDROOT
BRANCH   1   2
ATOM      2  C   UNL     1      20.089  -5.049  38.220  1.00  0.00     0.000 C 
BRANCH   2   3
ATOM      3  C   UNL     1      20.520  -6.323  38.960  1.00  0.00     0.000 C 
BRANCH   3   4
ATOM      4  C   UNL     1      21.871  -6.830  38.439  1.00  0.00     0.000 C 
BRANCH   4   5
ATOM      5  C   UNL     1      23.005  -6.491  39.417  1.00  0.00     0.000 C 
BRANCH   5   6
ATOM      6  C   UNL     1      23.788  -5.222  39.007  1.00  0.00     0.000 C 
BRANCH   6   7
ATOM      7  C   UNL     1      23.854  -5.000  37.485  1.00  0.00     0.000 C 
BRANCH   7   8
ATOM      8  C   UNL     1      23.668  -3.537  37.038  1.00  0.00     0.000 C 
BRANCH   8   9
ATOM      9  C   UNL     1      22.685  -2.736  37.922  1.00  0.00     0.000 C 
BRANCH   9  10
ATOM     10  C   UNL     1      22.473  -1.297  37.421  1.00  0.00     0.006 C 
BRANCH  10  11
ATOM     11  C   UNL     1      22.903  -1.123  35.958  1.00  0.00     0.053 C 
BRANCH  11  12
ATOM     12  C   UNL     1      21.835  -0.472  35.133  1.00  0.00     0.041 C 
ATOM     13  O   UNL     1      21.897   0.758  34.873  1.00  0.00    -0.550 OA
ATOM     14  O   UNL     1      20.778  -1.226  34.636  1.00  0.00    -0.550 OA
ENDBRANCH  11  12
ENDBRANCH  10  11
ENDBRANCH   9  10
ENDBRANCH   8   9
ENDBRANCH   7   8
ENDBRANCH   6   7
ENDBRANCH   5   6
ENDBRANCH   4   5
ENDBRANCH   3   4
ENDBRANCH   2   3
ENDBRANCH   1   2
BRANCH   1  15
ATOM     15  C   UNL     1      20.393  -4.632  35.692  1.00  0.00     0.000 C 
BRANCH  15  16
ATOM     16  C   UNL     1      21.286  -5.622  34.923  1.00  0.00     0.000 C 
BRANCH  16  17
ATOM     17  C   UNL     1      22.272  -4.906  33.976  1.00  0.00     0.000 C 
BRANCH  17  18
ATOM     18  C   UNL     1      22.388  -5.568  32.592  1.00  0.00    -0.000 C 
BRANCH  18  19
ATOM     19  C   UNL     1      21.394  -6.720  32.395  1.00  0.00    -0.000 C 
BRANCH  19  20
ATOM     20  C   UNL     1      20.452  -6.438  31.219  1.00  0.00    -0.000 C 
BRANCH  20  21
ATOM     21  C   UNL     1      20.725  -5.054  30.613  1.00  0.00    -0.000 C 
BRANCH  21  22
ATOM     22  C   UNL     1      19.521  -4.107  30.741  1.00  0.00    -0.000 C 
BRANCH  22  23
ATOM     23  C   UNL     1      19.630  -3.178  31.961  1.00  0.00    -0.000 C 
BRANCH  23  24
ATOM     24  C   UNL     1      18.404  -3.317  32.871  1.00  0.00    -0.000 C 
BRANCH  24  25
ATOM     25  C   UNL     1      17.535  -4.506  32.447  1.00  0.00    -0.003 C 
ATOM     26  C   UNL     1      17.466  -5.560  33.549  1.00  0.00     0.004 C 
ENDBRANCH  24  25
ENDBRANCH  23  24
ENDBRANCH  22  23
ENDBRANCH  21  22
ENDBRANCH  20  21
ENDBRANCH  19  20
ENDBRANCH  18  19
ENDBRANCH  17  18
ENDBRANCH  16  17
ENDBRANCH  15  16
ENDBRANCH   1  15
TORSDOF 22
ENDMDL
MODEL 4
REMARK VINA RESULT:    -5.255      3.716      6.208
REMARK INTER + INTRA:         -15.471
REMARK INTER:                 -11.632
REMARK INTRA:                  -3.839
REMARK UNBOUND:                -3.458
REMARK SMILES CCCCCCCCCCCCCCCCCCCCCCCC(=O)[O-]
REMARK SMILES IDX 13 1 14 2 15 3 16 4 17 5 18 6 19 7 20 8 21 9 22 10 23 11
REMARK SMILES IDX 24 12 25 13 26 14 12 15 11 16 10 17 9 18 8 19 7 20 6 21 5 22
REMARK SMILES IDX 4 23 3 24 2 25 1 26
REMARK H PARENT
REMARK Flexibility Score: inf
ROOT
ATOM      1  C   UNL     1      20.853  -6.296  30.506  1.00  0.00     0.000 C 
ENDROOT
BRANCH   1   2
ATOM      2  C   UNL     1      22.317  -6.016  30.885  1.00  0.00     0.000 C 
BRANCH   2   3
ATOM      3  C   UNL     1      22.523  -5.864  32.399  1.00  0.00     0.000 C 
BRANCH   3   4
ATOM      4  C   UNL     1      21.474  -6.668  33.178  1.00  0.00     0.000 C 
BRANCH   4   5
ATOM      5  C   UNL     1      21.432  -6.243  34.653  1.00  0.00     0.000 C 
BRANCH   5   6
ATOM      6  C   UNL     1      22.263  -4.970  34.932  1.00  0.00     0.000 C 
BRANCH   6   7
ATOM      7  C   UNL     1      22.202  -4.497  36.396  1.00  0.00     0.000 C 
BRANCH   7   8
ATOM      8  C   UNL     1      22.952  -3.183  36.681  1.00  0.00     0.000 C 
BRANCH   8   9
ATOM      9  C   UNL     1      23.029  -2.233  35.464  1.00  0.00     0.000 C 
BRANCH   9  10
ATOM     10  C   UNL     1      22.849  -0.755  35.851  1.00  0.00     0.006 C 
BRANCH  10  11
ATOM     11  C   UNL     1      21.763  -0.065  35.013  1.00  0.00     0.053 C 
BRANCH  11  12
ATOM     12  C   UNL     1      22.028   1.401  34.848  1.00  0.00     0.041 C 
ATOM     13  O   UNL     1      23.128   1.796  34.379  1.00  0.00    -0.550 OA
ATOM     14  O   UNL     1      21.056   2.331  35.196  1.00  0.00    -0.550 OA
ENDBRANCH  11  12
ENDBRANCH  10  11
ENDBRANCH   9  10
ENDBRANCH   8   9
ENDBRANCH   7   8
ENDBRANCH   6   7
ENDBRANCH   5   6
ENDBRANCH   4   5
ENDBRANCH   3   4
ENDBRANCH   2   3
ENDBRANCH   1   2
BRANCH   1  15
ATOM     15  C   UNL     1      20.064  -5.031  30.104  1.00  0.00     0.000 C 
BRANCH  15  16
ATOM     16  C   UNL     1      19.044  -4.617  31.179  1.00  0.00     0.000 C 
BRANCH  16  17
ATOM     17  C   UNL     1      19.221  -3.149  31.619  1.00  0.00     0.000 C 
BRANCH  17  18
ATOM     18  C   UNL     1      20.204  -2.970  32.789  1.00  0.00    -0.000 C 
BRANCH  18  19
ATOM     19  C   UNL     1      19.504  -2.909  34.153  1.00  0.00    -0.000 C 
BRANCH  19  20
ATOM     20  C   UNL     1      17.987  -2.768  33.987  1.00  0.00    -0.000 C 
BRANCH  20  21
ATOM     21  C   UNL     1      17.238  -3.566  35.065  1.00  0.00    -0.000 C 
BRANCH  21  22
ATOM     22  C   UNL     1      18.034  -4.786  35.555  1.00  0.00    -0.000 C 
BRANCH  22  23
ATOM     23  C   UNL     1      17.368  -6.116  35.169  1.00  0.00    -0.000 C 
BRANCH  23  24
ATOM     24  C   UNL     1      17.363  -6.309  33.648  1.00  0.00    -0.000 C 
BRANCH  24  25
ATOM     25  C   UNL     1      18.189  -7.537  33.246  1.00  0.00    -0.003 C 
ATOM     26  C   UNL     1      17.307  -8.774  33.105  1.00  0.00     0.004 C 
ENDBRANCH  24  25
ENDBRANCH  23  24
ENDBRANCH  22  23
ENDBRANCH  21  22
ENDBRANCH  20  21
ENDBRANCH  19  20
ENDBRANCH  18  19
ENDBRANCH  17  18
ENDBRANCH  16  17
ENDBRANCH  15  16
ENDBRANCH   1  15
TORSDOF 22
ENDMDL
MODEL 5
REMARK VINA RESULT:    -5.247      3.874      7.691
REMARK INTER + INTRA:         -15.454
REMARK INTER:                 -11.635
REMARK INTRA:                  -3.819
REMARK UNBOUND:                -3.458
REMARK SMILES CCCCCCCCCCCCCCCCCCCCCCCC(=O)[O-]
REMARK SMILES IDX 13 1 14 2 15 3 16 4 17 5 18 6 19 7 20 8 21 9 22 10 23 11
REMARK SMILES IDX 24 12 25 13 26 14 12 15 11 16 10 17 9 18 8 19 7 20 6 21 5 22
REMARK SMILES IDX 4 23 3 24 2 25 1 26
REMARK H PARENT
REMARK Flexibility Score: inf
ROOT
ATOM      1  C   UNL     1      22.221  -4.726  33.932  1.00  0.00     0.000 C 
ENDROOT
BRANCH   1   2
ATOM      2  C   UNL     1      22.548  -5.812  32.894  1.00  0.00     0.000 C 
BRANCH   2   3
ATOM      3  C   UNL     1      21.308  -6.297  32.128  1.00  0.00     0.000 C 
BRANCH   3   4
ATOM      4  C   UNL     1      21.122  -5.502  30.828  1.00  0.00     0.000 C 
BRANCH   4   5
ATOM      5  C   UNL     1      19.699  -4.933  30.726  1.00  0.00     0.000 C 
BRANCH   5   6
ATOM      6  C   UNL     1      19.642  -3.414  31.009  1.00  0.00     0.000 C 
BRANCH   6   7
ATOM      7  C   UNL     1      19.523  -3.066  32.503  1.00  0.00     0.000 C 
BRANCH   7   8
ATOM      8  C   UNL     1      18.258  -3.608  33.194  1.00  0.00     0.000 C 
BRANCH   8   9
ATOM      9  C   UNL     1      18.543  -4.367  34.510  1.00  0.00     0.000 C 
BRANCH   9  10
ATOM     10  C   UNL     1      18.521  -5.895  34.331  1.00  0.00     0.006 C 
BRANCH  10  11
ATOM     11  C   UNL     1      17.437  -6.348  33.344  1.00  0.00     0.053 C 
BRANCH  11  12
ATOM     12  C   UNL     1      17.705  -7.720  32.806  1.00  0.00     0.041 C 
ATOM     13  O   UNL     1      18.122  -7.868  31.627  1.00  0.00    -0.550 OA
ATOM     14  O   UNL     1      17.510  -8.836  33.611  1.00  0.00    -0.550 OA
ENDBRANCH  11  12
ENDBRANCH  10  11
ENDBRANCH   9  10
ENDBRANCH   8   9
ENDBRANCH   7   8
ENDBRANCH   6   7
ENDBRANCH   5   6
ENDBRANCH   4   5
ENDBRANCH   3   4
ENDBRANCH   2   3
ENDBRANCH   1   2
BRANCH   1  15
ATOM     15  C   UNL     1      22.134  -5.258  35.380  1.00  0.00     0.000 C 
BRANCH  15  16
ATOM     16  C   UNL     1      22.399  -4.156  36.421  1.00  0.00     0.000 C 
BRANCH  16  17
ATOM     17  C   UNL     1      23.344  -3.060  35.884  1.00  0.00     0.000 C 
BRANCH  17  18
ATOM     18  C   UNL     1      23.123  -1.683  36.534  1.00  0.00    -0.000 C 
BRANCH  18  19
ATOM     19  C   UNL     1      22.665  -0.616  35.531  1.00  0.00    -0.000 C 
BRANCH  19  20
ATOM     20  C   UNL     1      21.372  -1.043  34.826  1.00  0.00    -0.000 C 
BRANCH  20  21
ATOM     21  C   UNL     1      20.219  -1.190  35.830  1.00  0.00    -0.000 C 
BRANCH  21  22
ATOM     22  C   UNL     1      19.661   0.166  36.290  1.00  0.00    -0.000 C 
BRANCH  22  23
ATOM     23  C   UNL     1      20.248   0.618  37.636  1.00  0.00    -0.000 C 
BRANCH  23  24
ATOM     24  C   UNL     1      20.513   2.128  37.642  1.00  0.00    -0.000 C 
BRANCH  24  25
ATOM     25  C   UNL     1      20.345   2.723  36.239  1.00  0.00    -0.003 C 
ATOM     26  C   UNL     1      21.699   2.983  35.584  1.00  0.00     0.004 C 
ENDBRANCH  24  25
ENDBRANCH  23  24
ENDBRANCH  22  23
ENDBRANCH  21  22
ENDBRANCH  20  21
ENDBRANCH  19  20
ENDBRANCH  18  19
ENDBRANCH  17  18
ENDBRANCH  16  17
ENDBRANCH  15  16
ENDBRANCH   1  15
TORSDOF 22
ENDMDL
MODEL 6
REMARK VINA RESULT:    -5.231     13.366     15.896
REMARK INTER + INTRA:         -15.417
REMARK INTER:                 -11.013
REMARK INTRA:                  -4.404
REMARK UNBOUND:                -3.458
REMARK SMILES CCCCCCCCCCCCCCCCCCCCCCCC(=O)[O-]
REMARK SMILES IDX 13 1 14 2 15 3 16 4 17 5 18 6 19 7 20 8 21 9 22 10 23 11
REMARK SMILES IDX 24 12 25 13 26 14 12 15 11 16 10 17 9 18 8 19 7 20 6 21 5 22
REMARK SMILES IDX 4 23 3 24 2 25 1 26
REMARK H PARENT
REMARK Flexibility Score: inf
ROOT
ATOM      1  C   UNL     1      28.015   7.453  44.455  1.00  0.00     0.000 C 
ENDROOT
BRANCH   1   2
ATOM      2  C   UNL     1      27.148   8.045  43.331  1.00  0.00     0.000 C 
BRANCH   2   3
ATOM      3  C   UNL     1      25.732   7.453  43.294  1.00  0.00     0.000 C 
BRANCH   3   4
ATOM      4  C   UNL     1      24.769   8.383  42.544  1.00  0.00     0.000 C 
BRANCH   4   5
ATOM      5  C   UNL     1      23.800   7.582  41.661  1.00  0.00     0.000 C 
BRANCH   5   6
ATOM      6  C   UNL     1      23.938   6.055  41.855  1.00  0.00     0.000 C 
BRANCH   6   7
ATOM      7  C   UNL     1      22.733   5.409  42.564  1.00  0.00     0.000 C 
BRANCH   7   8
ATOM      8  C   UNL     1      23.075   4.659  43.865  1.00  0.00     0.000 C 
BRANCH   8   9
ATOM      9  C   UNL     1      22.523   5.338  45.139  1.00  0.00     0.000 C 
BRANCH   9  10
ATOM     10  C   UNL     1      21.923   6.728  44.860  1.00  0.00     0.006 C 
BRANCH  10  11
ATOM     11  C   UNL     1      22.534   7.813  45.757  1.00  0.00     0.053 C 
BRANCH  11  12
ATOM     12  C   UNL     1      21.636   9.005  45.887  1.00  0.00     0.041 C 
ATOM     13  O   UNL     1      20.810   9.278  44.977  1.00  0.00    -0.550 OA
ATOM     14  O   UNL     1      21.698   9.806  47.021  1.00  0.00    -0.550 OA
ENDBRANCH  11  12
ENDBRANCH  10  11
ENDBRANCH   9  10
ENDBRANCH   8   9
ENDBRANCH   7   8
ENDBRANCH   6   7
ENDBRANCH   5   6
ENDBRANCH   4   5
ENDBRANCH   3   4
ENDBRANCH   2   3
ENDBRANCH   1   2
BRANCH   1  15
ATOM     15  C   UNL     1      29.378   6.914  43.968  1.00  0.00     0.000 C 
BRANCH  15  16
ATOM     16  C   UNL     1      29.481   6.898  42.433  1.00  0.00     0.000 C 
BRANCH  16  17
ATOM     17  C   UNL     1      29.755   5.484  41.879  1.00  0.00     0.000 C 
BRANCH  17  18
ATOM     18  C   UNL     1      28.895   4.389  42.533  1.00  0.00    -0.000 C 
BRANCH  18  19
ATOM     19  C   UNL     1      27.454   4.366  42.005  1.00  0.00    -0.000 C 
BRANCH  19  20
ATOM     20  C   UNL     1      26.489   3.821  43.064  1.00  0.00    -0.000 C 
BRANCH  20  21
ATOM     21  C   UNL     1      27.178   3.706  44.431  1.00  0.00    -0.000 C 
BRANCH  21  22
ATOM     22  C   UNL     1      26.346   2.904  45.445  1.00  0.00    -0.000 C 
BRANCH  22  23
ATOM     23  C   UNL     1      25.628   3.807  46.460  1.00  0.00    -0.000 C 
BRANCH  23  24
ATOM     24  C   UNL     1      26.565   4.199  47.609  1.00  0.00    -0.000 C 
BRANCH  24  25
ATOM     25  C   UNL     1      26.862   5.703  47.589  1.00  0.00    -0.003 C 
ATOM     26  C   UNL     1      25.700   6.487  46.985  1.00  0.00     0.004 C 
ENDBRANCH  24  25
ENDBRANCH  23  24
ENDBRANCH  22  23
ENDBRANCH  21  22
ENDBRANCH  20  21
ENDBRANCH  19  20
ENDBRANCH  18  19
ENDBRANCH  17  18
ENDBRANCH  16  17
ENDBRANCH  15  16
ENDBRANCH   1  15
TORSDOF 22
ENDMDL
MODEL 7
REMARK VINA RESULT:    -5.229      1.518      2.931
REMARK INTER + INTRA:         -15.411
REMARK INTER:                 -11.568
REMARK INTRA:                  -3.843
REMARK UNBOUND:                -3.458
REMARK SMILES CCCCCCCCCCCCCCCCCCCCCCCC(=O)[O-]
REMARK SMILES IDX 13 1 14 2 15 3 16 4 17 5 18 6 19 7 20 8 21 9 22 10 23 11
REMARK SMILES IDX 24 12 25 13 26 14 12 15 11 16 10 17 9 18 8 19 7 20 6 21 5 22
REMARK SMILES IDX 4 23 3 24 2 25 1 26
REMARK H PARENT
REMARK Flexibility Score: inf
ROOT
ATOM      1  C   UNL     1      19.991  -2.950  33.495  1.00  0.00     0.000 C 
ENDROOT
BRANCH   1   2
ATOM      2  C   UNL     1      19.735  -2.786  35.002  1.00  0.00     0.000 C 
BRANCH   2   3
ATOM      3  C   UNL     1      20.066  -1.377  35.515  1.00  0.00     0.000 C 
BRANCH   3   4
ATOM      4  C   UNL     1      21.156  -0.724  34.656  1.00  0.00     0.000 C 
BRANCH   4   5
ATOM      5  C   UNL     1      22.357  -0.298  35.513  1.00  0.00     0.000 C 
BRANCH   5   6
ATOM      6  C   UNL     1      22.304  -0.878  36.945  1.00  0.00     0.000 C 
BRANCH   6   7
ATOM      7  C   UNL     1      23.320  -2.008  37.194  1.00  0.00     0.000 C 
BRANCH   7   8
ATOM      8  C   UNL     1      23.368  -3.086  36.094  1.00  0.00     0.000 C 
BRANCH   8   9
ATOM      9  C   UNL     1      22.727  -4.429  36.511  1.00  0.00     0.000 C 
BRANCH   9  10
ATOM     10  C   UNL     1      22.234  -4.426  37.968  1.00  0.00     0.006 C 
BRANCH  10  11
ATOM     11  C   UNL     1      22.217  -5.836  38.577  1.00  0.00     0.053 C 
BRANCH  11  12
ATOM     12  C   UNL     1      23.489  -6.148  39.305  1.00  0.00     0.041 C 
ATOM     13  O   UNL     1      24.208  -5.216  39.753  1.00  0.00    -0.550 OA
ATOM     14  O   UNL     1      23.874  -7.469  39.503  1.00  0.00    -0.550 OA
ENDBRANCH  11  12
ENDBRANCH  10  11
ENDBRANCH   9  10
ENDBRANCH   8   9
ENDBRANCH   7   8
ENDBRANCH   6   7
ENDBRANCH   5   6
ENDBRANCH   4   5
ENDBRANCH   3   4
ENDBRANCH   2   3
ENDBRANCH   1   2
BRANCH   1  15
ATOM     15  C   UNL     1      18.702  -2.960  32.644  1.00  0.00     0.000 C 
BRANCH  15  16
ATOM     16  C   UNL     1      18.938  -3.546  31.240  1.00  0.00     0.000 C 
BRANCH  16  17
ATOM     17  C   UNL     1      20.369  -4.096  31.069  1.00  0.00     0.000 C 
BRANCH  17  18
ATOM     18  C   UNL     1      20.442  -5.363  30.198  1.00  0.00    -0.000 C 
BRANCH  18  19
ATOM     19  C   UNL     1      21.703  -6.197  30.461  1.00  0.00    -0.000 C 
BRANCH  19  20
ATOM     20  C   UNL     1      22.418  -5.727  31.732  1.00  0.00    -0.000 C 
BRANCH  20  21
ATOM     21  C   UNL     1      22.398  -6.819  32.812  1.00  0.00    -0.000 C 
BRANCH  21  22
ATOM     22  C   UNL     1      21.312  -6.579  33.873  1.00  0.00    -0.000 C 
BRANCH  22  23
ATOM     23  C   UNL     1      20.050  -7.419  33.622  1.00  0.00    -0.000 C 
BRANCH  23  24
ATOM     24  C   UNL     1      18.830  -6.522  33.380  1.00  0.00    -0.000 C 
BRANCH  24  25
ATOM     25  C   UNL     1      17.784  -7.236  32.515  1.00  0.00    -0.003 C 
ATOM     26  C   UNL     1      18.019  -8.744  32.497  1.00  0.00     0.004 C 
ENDBRANCH  24  25
ENDBRANCH  23  24
ENDBRANCH  22  23
ENDBRANCH  21  22
ENDBRANCH  20  21
ENDBRANCH  19  20
ENDBRANCH  18  19
ENDBRANCH  17  18
ENDBRANCH  16  17
ENDBRANCH  15  16
ENDBRANCH   1  15
TORSDOF 22
ENDMDL
MODEL 8
REMARK VINA RESULT:    -5.194      1.865      3.234
REMARK INTER + INTRA:         -15.333
REMARK INTER:                 -11.411
REMARK INTRA:                  -3.922
REMARK UNBOUND:                -3.458
REMARK SMILES CCCCCCCCCCCCCCCCCCCCCCCC(=O)[O-]
REMARK SMILES IDX 13 1 14 2 15 3 16 4 17 5 18 6 19 7 20 8 21 9 22 10 23 11
REMARK SMILES IDX 24 12 25 13 26 14 12 15 11 16 10 17 9 18 8 19 7 20 6 21 5 22
REMARK SMILES IDX 4 23 3 24 2 25 1 26
REMARK H PARENT
REMARK Flexibility Score: inf
ROOT
ATOM      1  C   UNL     1      21.094  -5.650  34.397  1.00  0.00     0.000 C 
ENDROOT
BRANCH   1   2
ATOM      2  C   UNL     1      20.115  -4.491  34.649  1.00  0.00     0.000 C 
BRANCH   2   3
ATOM      3  C   UNL     1      20.360  -3.290  33.722  1.00  0.00     0.000 C 
BRANCH   3   4
ATOM      4  C   UNL     1      20.463  -1.989  34.528  1.00  0.00     0.000 C 
BRANCH   4   5
ATOM      5  C   UNL     1      21.857  -1.831  35.152  1.00  0.00     0.000 C 
BRANCH   5   6
ATOM      6  C   UNL     1      21.809  -1.660  36.687  1.00  0.00     0.000 C 
BRANCH   6   7
ATOM      7  C   UNL     1      22.850  -2.510  37.439  1.00  0.00     0.000 C 
BRANCH   7   8
ATOM      8  C   UNL     1      23.445  -3.672  36.621  1.00  0.00     0.000 C 
BRANCH   8   9
ATOM      9  C   UNL     1      23.712  -4.947  37.453  1.00  0.00     0.000 C 
BRANCH   9  10
ATOM     10  C   UNL     1      22.438  -5.774  37.698  1.00  0.00     0.006 C 
BRANCH  10  11
ATOM     11  C   UNL     1      22.389  -6.356  39.118  1.00  0.00     0.053 C 
BRANCH  11  12
ATOM     12  C   UNL     1      23.221  -7.595  39.246  1.00  0.00     0.041 C 
ATOM     13  O   UNL     1      24.206  -7.619  40.031  1.00  0.00    -0.550 OA
ATOM     14  O   UNL     1      22.902  -8.731  38.510  1.00  0.00    -0.550 OA
ENDBRANCH  11  12
ENDBRANCH  10  11
ENDBRANCH   9  10
ENDBRANCH   8   9
ENDBRANCH   7   8
ENDBRANCH   6   7
ENDBRANCH   5   6
ENDBRANCH   4   5
ENDBRANCH   3   4
ENDBRANCH   2   3
ENDBRANCH   1   2
BRANCH   1  15
ATOM     15  C   UNL     1      22.262  -5.281  33.456  1.00  0.00     0.000 C 
BRANCH  15  16
ATOM     16  C   UNL     1      22.520  -6.368  32.398  1.00  0.00     0.000 C 
BRANCH  16  17
ATOM     17  C   UNL     1      22.313  -5.846  30.961  1.00  0.00     0.000 C 
BRANCH  17  18
ATOM     18  C   UNL     1      20.970  -6.268  30.340  1.00  0.00    -0.000 C 
BRANCH  18  19
ATOM     19  C   UNL     1      19.852  -5.245  30.581  1.00  0.00    -0.000 C 
BRANCH  19  20
ATOM     20  C   UNL     1      18.745  -5.837  31.460  1.00  0.00    -0.000 C 
BRANCH  20  21
ATOM     21  C   UNL     1      18.986  -7.332  31.719  1.00  0.00    -0.000 C 
BRANCH  21  22
ATOM     22  C   UNL     1      18.358  -7.811  33.037  1.00  0.00    -0.000 C 
BRANCH  22  23
ATOM     23  C   UNL     1      17.172  -6.937  33.474  1.00  0.00    -0.000 C 
BRANCH  23  24
ATOM     24  C   UNL     1      16.624  -7.390  34.833  1.00  0.00    -0.000 C 
BRANCH  24  25
ATOM     25  C   UNL     1      15.730  -6.311  35.454  1.00  0.00    -0.003 C 
ATOM     26  C   UNL     1      16.506  -5.019  35.690  1.00  0.00     0.004 C 
ENDBRANCH  24  25
ENDBRANCH  23  24
ENDBRANCH  22  23
ENDBRANCH  21  22
ENDBRANCH  20  21
ENDBRANCH  19  20
ENDBRANCH  18  19
ENDBRANCH  17  18
ENDBRANCH  16  17
ENDBRANCH  15  16
ENDBRANCH   1  15
TORSDOF 22
ENDMDL
MODEL 9
REMARK VINA RESULT:    -5.179      3.560      7.973
REMARK INTER + INTRA:         -15.298
REMARK INTER:                 -11.506
REMARK INTRA:                  -3.792
REMARK UNBOUND:                -3.458
REMARK SMILES CCCCCCCCCCCCCCCCCCCCCCCC(=O)[O-]
REMARK SMILES IDX 13 1 14 2 15 3 16 4 17 5 18 6 19 7 20 8 21 9 22 10 23 11
REMARK SMILES IDX 24 12 25 13 26 14 12 15 11 16 10 17 9 18 8 19 7 20 6 21 5 22
REMARK SMILES IDX 4 23 3 24 2 25 1 26
REMARK H PARENT
REMARK Flexibility Score: inf
ROOT
ATOM      1  C   UNL     1      20.226  -4.443  34.624  1.00  0.00     0.000 C 
ENDROOT
BRANCH   1   2
ATOM      2  C   UNL     1      21.174  -5.608  34.292  1.00  0.00     0.000 C 
BRANCH   2   3
ATOM      3  C   UNL     1      22.251  -5.229  33.266  1.00  0.00     0.000 C 
BRANCH   3   4
ATOM      4  C   UNL     1      22.436  -6.344  32.228  1.00  0.00     0.000 C 
BRANCH   4   5
ATOM      5  C   UNL     1      22.143  -5.835  30.809  1.00  0.00     0.000 C 
BRANCH   5   6
ATOM      6  C   UNL     1      20.790  -6.343  30.260  1.00  0.00     0.000 C 
BRANCH   6   7
ATOM      7  C   UNL     1      19.598  -5.434  30.612  1.00  0.00     0.000 C 
BRANCH   7   8
ATOM      8  C   UNL     1      18.571  -6.062  31.573  1.00  0.00     0.000 C 
BRANCH   8   9
ATOM      9  C   UNL     1      18.853  -7.545  31.904  1.00  0.00     0.000 C 
BRANCH   9  10
ATOM     10  C   UNL     1      18.376  -7.940  33.313  1.00  0.00     0.006 C 
BRANCH  10  11
ATOM     11  C   UNL     1      17.563  -6.824  33.984  1.00  0.00     0.053 C 
BRANCH  11  12
ATOM     12  C   UNL     1      16.514  -7.370  34.904  1.00  0.00     0.041 C 
ATOM     13  O   UNL     1      16.213  -6.751  35.959  1.00  0.00    -0.550 OA
ATOM     14  O   UNL     1      15.855  -8.552  34.589  1.00  0.00    -0.550 OA
ENDBRANCH  11  12
ENDBRANCH  10  11
ENDBRANCH   9  10
ENDBRANCH   8   9
ENDBRANCH   7   8
ENDBRANCH   6   7
ENDBRANCH   5   6
ENDBRANCH   4   5
ENDBRANCH   3   4
ENDBRANCH   2   3
ENDBRANCH   1   2
BRANCH   1  15
ATOM     15  C   UNL     1      20.131  -3.383  33.503  1.00  0.00     0.000 C 
BRANCH  15  16
ATOM     16  C   UNL     1      20.518  -1.979  33.999  1.00  0.00     0.000 C 
BRANCH  16  17
ATOM     17  C   UNL     1      19.879  -1.643  35.362  1.00  0.00     0.000 C 
BRANCH  17  18
ATOM     18  C   UNL     1      20.885  -1.122  36.403  1.00  0.00    -0.000 C 
BRANCH  18  19
ATOM     19  C   UNL     1      22.323  -1.068  35.870  1.00  0.00    -0.000 C 
BRANCH  19  20
ATOM     20  C   UNL     1      23.250  -1.963  36.700  1.00  0.00    -0.000 C 
BRANCH  20  21
ATOM     21  C   UNL     1      22.556  -3.281  37.074  1.00  0.00    -0.000 C 
BRANCH  21  22
ATOM     22  C   UNL     1      23.506  -4.487  37.009  1.00  0.00    -0.000 C 
BRANCH  22  23
ATOM     23  C   UNL     1      22.882  -5.760  37.602  1.00  0.00    -0.000 C 
BRANCH  23  24
ATOM     24  C   UNL     1      23.836  -6.428  38.600  1.00  0.00    -0.000 C 
BRANCH  24  25
ATOM     25  C   UNL     1      24.971  -5.477  38.998  1.00  0.00    -0.003 C 
ATOM     26  C   UNL     1      25.317  -5.619  40.478  1.00  0.00     0.004 C 
ENDBRANCH  24  25
ENDBRANCH  23  24
ENDBRANCH  22  23
ENDBRANCH  21  22
ENDBRANCH  20  21
ENDBRANCH  19  20
ENDBRANCH  18  19
ENDBRANCH  17  18
ENDBRANCH  16  17
ENDBRANCH  15  16
ENDBRANCH   1  15
TORSDOF 22
ENDMDL
