MODEL 1
REMARK VINA RESULT:     3.789      0.000      0.000
REMARK INTER + INTRA:           7.569
REMARK INTER:                   8.663
REMARK INTRA:                  -1.093
REMARK UNBOUND:                -1.093
REMARK SMILES CCCCCCCCCCCCCCCCCCCCCCCC(=O)[O-]
REMARK SMILES IDX 13 1 14 2 15 3 16 4 17 5 18 6 19 7 20 8 21 9 22 10 23 11
REMARK SMILES IDX 24 12 25 13 26 14 12 15 11 16 10 17 9 18 8 19 7 20 6 21 5 22
REMARK SMILES IDX 4 23 3 24 2 25 1 26
REMARK H PARENT
REMARK Flexibility Score: inf
ROOT
ATOM      1  C   UNL     1     -15.801   0.439  -0.756  1.00  0.00     0.000 C 
ENDROOT
BRANCH   1   2
ATOM      2  C   UNL     1     -17.056   0.124  -1.587  1.00  0.00     0.000 C 
BRANCH   2   3
ATOM      3  C   UNL     1     -17.120  -1.348  -2.021  1.00  0.00     0.000 C 
BRANCH   3   4
ATOM      4  C   UNL     1     -16.369  -2.243  -1.025  1.00  0.00     0.000 C 
BRANCH   4   5
ATOM      5  C   UNL     1     -15.427  -3.247  -1.712  1.00  0.00     0.000 C 
BRANCH   5   6
ATOM      6  C   UNL     1     -16.128  -4.429  -2.411  1.00  0.00     0.000 C 
BRANCH   6   7
ATOM      7  C   UNL     1     -15.298  -5.074  -3.544  1.00  0.00     0.000 C 
BRANCH   7   8
ATOM      8  C   UNL     1     -14.616  -4.025  -4.442  1.00  0.00     0.000 C 
BRANCH   8   9
ATOM      9  C   UNL     1     -15.607  -3.270  -5.346  1.00  0.00     0.000 C 
BRANCH   9  10
ATOM     10  C   UNL     1     -16.879  -4.057  -5.714  1.00  0.00     0.006 C 
BRANCH  10  11
ATOM     11  C   UNL     1     -16.661  -5.038  -6.874  1.00  0.00     0.053 C 
BRANCH  11  12
ATOM     12  C   UNL     1     -16.095  -4.332  -8.065  1.00  0.00     0.041 C 
ATOM     13  O   UNL     1     -14.880  -4.475  -8.368  1.00  0.00    -0.550 OA
ATOM     14  O   UNL     1     -16.898  -3.485  -8.820  1.00  0.00    -0.550 OA
ENDBRANCH  11  12
ENDBRANCH  10  11
ENDBRANCH   9  10
ENDBRANCH   8   9
ENDBRANCH   7   8
ENDBRANCH   6   7
ENDBRANCH   5   6
ENDBRANCH   4   5
ENDBRANCH   3   4
ENDBRANCH   2   3
ENDBRANCH   1   2
BRANCH   1  15
ATOM     15  C   UNL     1     -15.925   1.762   0.017  1.00  0.00     0.000 C 
BRANCH  15  16
ATOM     16  C   UNL     1     -14.797   2.730  -0.360  1.00  0.00     0.000 C 
BRANCH  16  17
ATOM     17  C   UNL     1     -13.488   2.343   0.345  1.00  0.00     0.000 C 
BRANCH  17  18
ATOM     18  C   UNL     1     -12.618   3.562   0.689  1.00  0.00    -0.000 C 
BRANCH  18  19
ATOM     19  C   UNL     1     -11.171   3.176   1.044  1.00  0.00    -0.000 C 
BRANCH  19  20
ATOM     20  C   UNL     1     -10.138   3.994   0.239  1.00  0.00    -0.000 C 
BRANCH  20  21
ATOM     21  C   UNL     1      -8.695   3.838   0.753  1.00  0.00    -0.000 C 
BRANCH  21  22
ATOM     22  C   UNL     1      -8.213   2.379   0.734  1.00  0.00    -0.000 C 
BRANCH  22  23
ATOM     23  C   UNL     1      -7.093   2.128  -0.293  1.00  0.00    -0.000 C 
BRANCH  23  24
ATOM     24  C   UNL     1      -5.663   2.156   0.276  1.00  0.00    -0.000 C 
BRANCH  24  25
ATOM     25  C   UNL     1      -5.228   3.554   0.739  1.00  0.00    -0.003 C 
ATOM     26  C   UNL     1      -3.894   3.497   1.479  1.00  0.00     0.004 C 
ENDBRANCH  24  25
ENDBRANCH  23  24
ENDBRANCH  22  23
ENDBRANCH  21  22
ENDBRANCH  20  21
ENDBRANCH  19  20
ENDBRANCH  18  19
ENDBRANCH  17  18
ENDBRANCH  16  17
ENDBRANCH  15  16
ENDBRANCH   1  15
TORSDOF 22
ENDMDL
MODEL 2
REMARK VINA RESULT:     3.891      4.665     11.185
REMARK INTER + INTRA:           7.803
REMARK INTER:                   8.089
REMARK INTRA:                  -0.286
REMARK UNBOUND:                -1.093
REMARK SMILES CCCCCCCCCCCCCCCCCCCCCCCC(=O)[O-]
REMARK SMILES IDX 13 1 14 2 15 3 16 4 17 5 18 6 19 7 20 8 21 9 22 10 23 11
REMARK SMILES IDX 24 12 25 13 26 14 12 15 11 16 10 17 9 18 8 19 7 20 6 21 5 22
REMARK SMILES IDX 4 23 3 24 2 25 1 26
REMARK H PARENT
REMARK Flexibility Score: inf
ROOT
ATOM      1  C   UNL     1     -15.666  -0.037   0.484  1.00  0.00     0.000 C 
ENDROOT
BRANCH   1   2
ATOM      2  C   UNL     1     -15.828   0.964  -0.672  1.00  0.00     0.000 C 
BRANCH   2   3
ATOM      3  C   UNL     1     -15.433   2.393  -0.274  1.00  0.00     0.000 C 
BRANCH   3   4
ATOM      4  C   UNL     1     -14.061   2.407   0.416  1.00  0.00     0.000 C 
BRANCH   4   5
ATOM      5  C   UNL     1     -13.146   3.537  -0.088  1.00  0.00     0.000 C 
BRANCH   5   6
ATOM      6  C   UNL     1     -12.030   3.959   0.888  1.00  0.00     0.000 C 
BRANCH   6   7
ATOM      7  C   UNL     1     -10.822   2.997   0.920  1.00  0.00     0.000 C 
BRANCH   7   8
ATOM      8  C   UNL     1      -9.516   3.680   0.471  1.00  0.00     0.000 C 
BRANCH   8   9
ATOM      9  C   UNL     1      -8.254   2.947   0.963  1.00  0.00     0.000 C 
BRANCH   9  10
ATOM     10  C   UNL     1      -7.245   2.579  -0.141  1.00  0.00     0.006 C 
BRANCH  10  11
ATOM     11  C   UNL     1      -5.831   2.328   0.400  1.00  0.00     0.053 C 
BRANCH  11  12
ATOM     12  C   UNL     1      -5.241   3.589   0.946  1.00  0.00     0.041 C 
ATOM     13  O   UNL     1      -3.991   3.740   0.984  1.00  0.00    -0.550 OA
ATOM     14  O   UNL     1      -6.071   4.585   1.449  1.00  0.00    -0.550 OA
ENDBRANCH  11  12
ENDBRANCH  10  11
ENDBRANCH   9  10
ENDBRANCH   8   9
ENDBRANCH   7   8
ENDBRANCH   6   7
ENDBRANCH   5   6
ENDBRANCH   4   5
ENDBRANCH   3   4
ENDBRANCH   2   3
ENDBRANCH   1   2
BRANCH   1  15
ATOM     15  C   UNL     1     -16.826  -1.041   0.559  1.00  0.00     0.000 C 
BRANCH  15  16
ATOM     16  C   UNL     1     -17.043  -1.737  -0.791  1.00  0.00     0.000 C 
BRANCH  16  17
ATOM     17  C   UNL     1     -15.763  -2.450  -1.250  1.00  0.00     0.000 C 
BRANCH  17  18
ATOM     18  C   UNL     1     -16.042  -3.594  -2.237  1.00  0.00    -0.000 C 
BRANCH  18  19
ATOM     19  C   UNL     1     -14.775  -4.391  -2.595  1.00  0.00    -0.000 C 
BRANCH  19  20
ATOM     20  C   UNL     1     -14.009  -3.761  -3.779  1.00  0.00    -0.000 C 
BRANCH  20  21
ATOM     21  C   UNL     1     -12.998  -4.718  -4.435  1.00  0.00    -0.000 C 
BRANCH  21  22
ATOM     22  C   UNL     1     -13.406  -5.125  -5.860  1.00  0.00    -0.000 C 
BRANCH  22  23
ATOM     23  C   UNL     1     -14.613  -4.330  -6.391  1.00  0.00    -0.000 C 
BRANCH  23  24
ATOM     24  C   UNL     1     -15.984  -4.999  -6.177  1.00  0.00    -0.000 C 
BRANCH  24  25
ATOM     25  C   UNL     1     -16.810  -5.103  -7.467  1.00  0.00    -0.003 C 
ATOM     26  C   UNL     1     -15.982  -4.699  -8.684  1.00  0.00     0.004 C 
ENDBRANCH  24  25
ENDBRANCH  23  24
ENDBRANCH  22  23
ENDBRANCH  21  22
ENDBRANCH  20  21
ENDBRANCH  19  20
ENDBRANCH  18  19
ENDBRANCH  17  18
ENDBRANCH  16  17
ENDBRANCH  15  16
ENDBRANCH   1  15
TORSDOF 22
ENDMDL
MODEL 3
REMARK VINA RESULT:     4.018      5.044      9.612
REMARK INTER + INTRA:           8.091
REMARK INTER:                   9.279
REMARK INTRA:                  -1.188
REMARK UNBOUND:                -1.093
REMARK SMILES CCCCCCCCCCCCCCCCCCCCCCCC(=O)[O-]
REMARK SMILES IDX 13 1 14 2 15 3 16 4 17 5 18 6 19 7 20 8 21 9 22 10 23 11
REMARK SMILES IDX 24 12 25 13 26 14 12 15 11 16 10 17 9 18 8 19 7 20 6 21 5 22
REMARK SMILES IDX 4 23 3 24 2 25 1 26
REMARK H PARENT
REMARK Flexibility Score: inf
ROOT
ATOM      1  C   UNL     1      -6.407   2.396   0.024  1.00  0.00     0.000 C 
ENDROOT
BRANCH   1   2
ATOM      2  C   UNL     1      -7.901   2.267   0.362  1.00  0.00     0.000 C 
BRANCH   2   3
ATOM      3  C   UNL     1      -8.484   3.557   0.957  1.00  0.00     0.000 C 
BRANCH   3   4
ATOM      4  C   UNL     1      -9.825   3.906   0.293  1.00  0.00     0.000 C 
BRANCH   4   5
ATOM      5  C   UNL     1     -11.035   3.318   1.039  1.00  0.00     0.000 C 
BRANCH   5   6
ATOM      6  C   UNL     1     -12.398   3.549   0.357  1.00  0.00     0.000 C 
BRANCH   6   7
ATOM      7  C   UNL     1     -13.412   2.402   0.569  1.00  0.00     0.000 C 
BRANCH   7   8
ATOM      8  C   UNL     1     -14.627   2.511  -0.373  1.00  0.00     0.000 C 
BRANCH   8   9
ATOM      9  C   UNL     1     -15.892   1.844   0.196  1.00  0.00     0.000 C 
BRANCH   9  10
ATOM     10  C   UNL     1     -16.096   0.376  -0.225  1.00  0.00     0.006 C 
BRANCH  10  11
ATOM     11  C   UNL     1     -16.495  -0.532   0.946  1.00  0.00     0.053 C 
BRANCH  11  12
ATOM     12  C   UNL     1     -15.619  -0.282   2.132  1.00  0.00     0.041 C 
ATOM     13  O   UNL     1     -14.386  -0.537   2.075  1.00  0.00    -0.550 OA
ATOM     14  O   UNL     1     -16.169   0.199   3.314  1.00  0.00    -0.550 OA
ENDBRANCH  11  12
ENDBRANCH  10  11
ENDBRANCH   9  10
ENDBRANCH   8   9
ENDBRANCH   7   8
ENDBRANCH   6   7
ENDBRANCH   5   6
ENDBRANCH   4   5
ENDBRANCH   3   4
ENDBRANCH   2   3
ENDBRANCH   1   2
BRANCH   1  15
ATOM     15  C   UNL     1      -5.606   3.070   1.149  1.00  0.00     0.000 C 
BRANCH  15  16
ATOM     16  C   UNL     1      -4.169   3.367   0.703  1.00  0.00     0.000 C 
BRANCH  16  17
ATOM     17  C   UNL     1      -3.183   3.155   1.862  1.00  0.00     0.000 C 
BRANCH  17  18
ATOM     18  C   UNL     1      -3.598   2.003   2.791  1.00  0.00    -0.000 C 
BRANCH  18  19
ATOM     19  C   UNL     1      -2.751   1.943   4.074  1.00  0.00    -0.000 C 
BRANCH  19  20
ATOM     20  C   UNL     1      -2.383   0.493   4.459  1.00  0.00    -0.000 C 
BRANCH  20  21
ATOM     21  C   UNL     1      -0.890   0.302   4.778  1.00  0.00    -0.000 C 
BRANCH  21  22
ATOM     22  C   UNL     1      -0.011   1.421   4.196  1.00  0.00    -0.000 C 
BRANCH  22  23
ATOM     23  C   UNL     1       1.494   1.099   4.260  1.00  0.00    -0.000 C 
BRANCH  23  24
ATOM     24  C   UNL     1       2.017   0.684   5.647  1.00  0.00    -0.000 C 
BRANCH  24  25
ATOM     25  C   UNL     1       2.863  -0.597   5.612  1.00  0.00    -0.003 C 
ATOM     26  C   UNL     1       2.092  -1.781   6.189  1.00  0.00     0.004 C 
ENDBRANCH  24  25
ENDBRANCH  23  24
ENDBRANCH  22  23
ENDBRANCH  21  22
ENDBRANCH  20  21
ENDBRANCH  19  20
ENDBRANCH  18  19
ENDBRANCH  17  18
ENDBRANCH  16  17
ENDBRANCH  15  16
ENDBRANCH   1  15
TORSDOF 22
ENDMDL
MODEL 4
REMARK VINA RESULT:     4.283      1.335      3.055
REMARK INTER + INTRA:           8.698
REMARK INTER:                   9.653
REMARK INTRA:                  -0.954
REMARK UNBOUND:                -1.093
REMARK SMILES CCCCCCCCCCCCCCCCCCCCCCCC(=O)[O-]
REMARK SMILES IDX 13 1 14 2 15 3 16 4 17 5 18 6 19 7 20 8 21 9 22 10 23 11
REMARK SMILES IDX 24 12 25 13 26 14 12 15 11 16 10 17 9 18 8 19 7 20 6 21 5 22
REMARK SMILES IDX 4 23 3 24 2 25 1 26
REMARK H PARENT
REMARK Flexibility Score: inf
ROOT
ATOM      1  C   UNL     1     -14.083   2.817   0.011  1.00  0.00     0.000 C 
ENDROOT
BRANCH   1   2
ATOM      2  C   UNL     1     -14.758   1.456   0.250  1.00  0.00     0.000 C 
BRANCH   2   3
ATOM      3  C   UNL     1     -16.194   1.407  -0.293  1.00  0.00     0.000 C 
BRANCH   3   4
ATOM      4  C   UNL     1     -16.570  -0.022  -0.712  1.00  0.00     0.000 C 
BRANCH   4   5
ATOM      5  C   UNL     1     -16.999  -0.122  -2.186  1.00  0.00     0.000 C 
BRANCH   5   6
ATOM      6  C   UNL     1     -17.125  -1.558  -2.734  1.00  0.00     0.000 C 
BRANCH   6   7
ATOM      7  C   UNL     1     -16.434  -2.629  -1.861  1.00  0.00     0.000 C 
BRANCH   7   8
ATOM      8  C   UNL     1     -16.108  -3.910  -2.653  1.00  0.00     0.000 C 
BRANCH   8   9
ATOM      9  C   UNL     1     -14.622  -4.019  -3.038  1.00  0.00     0.000 C 
BRANCH   9  10
ATOM     10  C   UNL     1     -14.317  -5.007  -4.180  1.00  0.00     0.006 C 
BRANCH  10  11
ATOM     11  C   UNL     1     -13.804  -4.315  -5.450  1.00  0.00     0.053 C 
BRANCH  11  12
ATOM     12  C   UNL     1     -14.907  -4.156  -6.448  1.00  0.00     0.041 C 
ATOM     13  O   UNL     1     -14.726  -4.484  -7.651  1.00  0.00    -0.550 OA
ATOM     14  O   UNL     1     -16.124  -3.609  -6.059  1.00  0.00    -0.550 OA
ENDBRANCH  11  12
ENDBRANCH  10  11
ENDBRANCH   9  10
ENDBRANCH   8   9
ENDBRANCH   7   8
ENDBRANCH   6   7
ENDBRANCH   5   6
ENDBRANCH   4   5
ENDBRANCH   3   4
ENDBRANCH   2   3
ENDBRANCH   1   2
BRANCH   1  15
ATOM     15  C   UNL     1     -12.616   2.833   0.467  1.00  0.00     0.000 C 
BRANCH  15  16
ATOM     16  C   UNL     1     -12.101   4.270   0.620  1.00  0.00     0.000 C 
BRANCH  16  17
ATOM     17  C   UNL     1     -10.615   4.360   0.241  1.00  0.00     0.000 C 
BRANCH  17  18
ATOM     18  C   UNL     1      -9.803   3.153   0.734  1.00  0.00    -0.000 C 
BRANCH  18  19
ATOM     19  C   UNL     1      -8.305   3.471   0.889  1.00  0.00    -0.000 C 
BRANCH  19  20
ATOM     20  C   UNL     1      -7.418   2.241   0.595  1.00  0.00    -0.000 C 
BRANCH  20  21
ATOM     21  C   UNL     1      -6.008   2.605   0.096  1.00  0.00    -0.000 C 
BRANCH  21  22
ATOM     22  C   UNL     1      -5.436   3.850   0.793  1.00  0.00    -0.000 C 
BRANCH  22  23
ATOM     23  C   UNL     1      -4.701   3.521   2.105  1.00  0.00    -0.000 C 
BRANCH  23  24
ATOM     24  C   UNL     1      -3.617   2.433   1.995  1.00  0.00    -0.000 C 
BRANCH  24  25
ATOM     25  C   UNL     1      -2.737   2.332   3.250  1.00  0.00    -0.003 C 
ATOM     26  C   UNL     1      -3.212   1.205   4.164  1.00  0.00     0.004 C 
ENDBRANCH  24  25
ENDBRANCH  23  24
ENDBRANCH  22  23
ENDBRANCH  21  22
ENDBRANCH  20  21
ENDBRANCH  19  20
ENDBRANCH  18  19
ENDBRANCH  17  18
ENDBRANCH  16  17
ENDBRANCH  15  16
ENDBRANCH   1  15
TORSDOF 22
ENDMDL
MODEL 5
REMARK VINA RESULT:     4.319      1.622      2.305
REMARK INTER + INTRA:           8.779
REMARK INTER:                   9.323
REMARK INTRA:                  -0.543
REMARK UNBOUND:                -1.093
REMARK SMILES CCCCCCCCCCCCCCCCCCCCCCCC(=O)[O-]
REMARK SMILES IDX 13 1 14 2 15 3 16 4 17 5 18 6 19 7 20 8 21 9 22 10 23 11
REMARK SMILES IDX 24 12 25 13 26 14 12 15 11 16 10 17 9 18 8 19 7 20 6 21 5 22
REMARK SMILES IDX 4 23 3 24 2 25 1 26
REMARK H PARENT
REMARK Flexibility Score: inf
ROOT
ATOM      1  C   UNL     1     -15.505   1.444  -0.889  1.00  0.00     0.000 C 
ENDROOT
BRANCH   1   2
ATOM      2  C   UNL     1     -16.550   0.449  -0.359  1.00  0.00     0.000 C 
BRANCH   2   3
ATOM      3  C   UNL     1     -17.124  -0.448  -1.466  1.00  0.00     0.000 C 
BRANCH   3   4
ATOM      4  C   UNL     1     -16.794  -1.924  -1.198  1.00  0.00     0.000 C 
BRANCH   4   5
ATOM      5  C   UNL     1     -16.231  -2.648  -2.433  1.00  0.00     0.000 C 
BRANCH   5   6
ATOM      6  C   UNL     1     -16.124  -4.180  -2.300  1.00  0.00     0.000 C 
BRANCH   6   7
ATOM      7  C   UNL     1     -16.193  -4.936  -3.646  1.00  0.00     0.000 C 
BRANCH   7   8
ATOM      8  C   UNL     1     -16.892  -4.114  -4.745  1.00  0.00     0.000 C 
BRANCH   8   9
ATOM      9  C   UNL     1     -16.555  -4.600  -6.167  1.00  0.00     0.000 C 
BRANCH   9  10
ATOM     10  C   UNL     1     -15.052  -4.781  -6.451  1.00  0.00     0.006 C 
BRANCH  10  11
ATOM     11  C   UNL     1     -14.164  -3.898  -5.564  1.00  0.00     0.053 C 
BRANCH  11  12
ATOM     12  C   UNL     1     -12.947  -4.647  -5.121  1.00  0.00     0.041 C 
ATOM     13  O   UNL     1     -12.812  -4.980  -3.913  1.00  0.00    -0.550 OA
ATOM     14  O   UNL     1     -11.943  -4.946  -6.034  1.00  0.00    -0.550 OA
ENDBRANCH  11  12
ENDBRANCH  10  11
ENDBRANCH   9  10
ENDBRANCH   8   9
ENDBRANCH   7   8
ENDBRANCH   6   7
ENDBRANCH   5   6
ENDBRANCH   4   5
ENDBRANCH   3   4
ENDBRANCH   2   3
ENDBRANCH   1   2
BRANCH   1  15
ATOM     15  C   UNL     1     -14.550   1.935   0.211  1.00  0.00     0.000 C 
BRANCH  15  16
ATOM     16  C   UNL     1     -13.436   2.811  -0.375  1.00  0.00     0.000 C 
BRANCH  16  17
ATOM     17  C   UNL     1     -12.612   3.466   0.743  1.00  0.00     0.000 C 
BRANCH  17  18
ATOM     18  C   UNL     1     -11.187   2.898   0.840  1.00  0.00    -0.000 C 
BRANCH  18  19
ATOM     19  C   UNL     1     -10.107   3.955   0.547  1.00  0.00    -0.000 C 
BRANCH  19  20
ATOM     20  C   UNL     1      -8.698   3.471   0.954  1.00  0.00    -0.000 C 
BRANCH  20  21
ATOM     21  C   UNL     1      -8.071   2.487  -0.051  1.00  0.00    -0.000 C 
BRANCH  21  22
ATOM     22  C   UNL     1      -6.719   1.933   0.426  1.00  0.00    -0.000 C 
BRANCH  22  23
ATOM     23  C   UNL     1      -5.522   2.778  -0.049  1.00  0.00    -0.000 C 
BRANCH  23  24
ATOM     24  C   UNL     1      -4.906   3.701   1.018  1.00  0.00    -0.000 C 
BRANCH  24  25
ATOM     25  C   UNL     1      -3.478   3.296   1.412  1.00  0.00    -0.003 C 
ATOM     26  C   UNL     1      -3.483   2.392   2.642  1.00  0.00     0.004 C 
ENDBRANCH  24  25
ENDBRANCH  23  24
ENDBRANCH  22  23
ENDBRANCH  21  22
ENDBRANCH  20  21
ENDBRANCH  19  20
ENDBRANCH  18  19
ENDBRANCH  17  18
ENDBRANCH  16  17
ENDBRANCH  15  16
ENDBRANCH   1  15
TORSDOF 22
ENDMDL
MODEL 6
REMARK VINA RESULT:     4.597      4.605     10.681
REMARK INTER + INTRA:           9.416
REMARK INTER:                  10.117
REMARK INTRA:                  -0.701
REMARK UNBOUND:                -1.093
REMARK SMILES CCCCCCCCCCCCCCCCCCCCCCCC(=O)[O-]
REMARK SMILES IDX 13 1 14 2 15 3 16 4 17 5 18 6 19 7 20 8 21 9 22 10 23 11
REMARK SMILES IDX 24 12 25 13 26 14 12 15 11 16 10 17 9 18 8 19 7 20 6 21 5 22
REMARK SMILES IDX 4 23 3 24 2 25 1 26
REMARK H PARENT
REMARK Flexibility Score: inf
ROOT
ATOM      1  C   UNL     1     -16.371  -0.614  -0.820  1.00  0.00     0.000 C 
ENDROOT
BRANCH   1   2
ATOM      2  C   UNL     1     -17.009   0.759  -0.554  1.00  0.00     0.000 C 
BRANCH   2   3
ATOM      3  C   UNL     1     -16.075   1.703   0.219  1.00  0.00     0.000 C 
BRANCH   3   4
ATOM      4  C   UNL     1     -14.735   1.864  -0.514  1.00  0.00     0.000 C 
BRANCH   4   5
ATOM      5  C   UNL     1     -13.581   2.257   0.424  1.00  0.00     0.000 C 
BRANCH   5   6
ATOM      6  C   UNL     1     -12.947   3.633   0.138  1.00  0.00     0.000 C 
BRANCH   6   7
ATOM      7  C   UNL     1     -11.704   3.946   1.001  1.00  0.00     0.000 C 
BRANCH   7   8
ATOM      8  C   UNL     1     -10.387   3.593   0.284  1.00  0.00     0.000 C 
BRANCH   8   9
ATOM      9  C   UNL     1      -9.147   4.188   0.975  1.00  0.00     0.000 C 
BRANCH   9  10
ATOM     10  C   UNL     1      -7.829   3.439   0.699  1.00  0.00     0.006 C 
BRANCH  10  11
ATOM     11  C   UNL     1      -6.704   3.833   1.666  1.00  0.00     0.053 C 
BRANCH  11  12
ATOM     12  C   UNL     1      -5.368   3.466   1.100  1.00  0.00     0.041 C 
ATOM     13  O   UNL     1      -5.291   2.855   0.001  1.00  0.00    -0.550 OA
ATOM     14  O   UNL     1      -4.208   3.767   1.804  1.00  0.00    -0.550 OA
ENDBRANCH  11  12
ENDBRANCH  10  11
ENDBRANCH   9  10
ENDBRANCH   8   9
ENDBRANCH   7   8
ENDBRANCH   6   7
ENDBRANCH   5   6
ENDBRANCH   4   5
ENDBRANCH   3   4
ENDBRANCH   2   3
ENDBRANCH   1   2
BRANCH   1  15
ATOM     15  C   UNL     1     -17.055  -1.366  -1.972  1.00  0.00     0.000 C 
BRANCH  15  16
ATOM     16  C   UNL     1     -16.483  -2.780  -2.126  1.00  0.00     0.000 C 
BRANCH  16  17
ATOM     17  C   UNL     1     -16.606  -3.265  -3.578  1.00  0.00     0.000 C 
BRANCH  17  18
ATOM     18  C   UNL     1     -16.117  -2.222  -4.595  1.00  0.00    -0.000 C 
BRANCH  18  19
ATOM     19  C   UNL     1     -15.960  -2.804  -6.011  1.00  0.00    -0.000 C 
BRANCH  19  20
ATOM     20  C   UNL     1     -16.134  -4.338  -6.031  1.00  0.00    -0.000 C 
BRANCH  20  21
ATOM     21  C   UNL     1     -15.119  -5.083  -5.145  1.00  0.00    -0.000 C 
BRANCH  21  22
ATOM     22  C   UNL     1     -13.712  -5.124  -5.761  1.00  0.00    -0.000 C 
BRANCH  22  23
ATOM     23  C   UNL     1     -12.615  -4.655  -4.787  1.00  0.00    -0.000 C 
BRANCH  23  24
ATOM     24  C   UNL     1     -13.125  -4.064  -3.460  1.00  0.00    -0.000 C 
BRANCH  24  25
ATOM     25  C   UNL     1     -13.331  -5.124  -2.369  1.00  0.00    -0.003 C 
ATOM     26  C   UNL     1     -12.187  -5.104  -1.360  1.00  0.00     0.004 C 
ENDBRANCH  24  25
ENDBRANCH  23  24
ENDBRANCH  22  23
ENDBRANCH  21  22
ENDBRANCH  20  21
ENDBRANCH  19  20
ENDBRANCH  18  19
ENDBRANCH  17  18
ENDBRANCH  16  17
ENDBRANCH  15  16
ENDBRANCH   1  15
TORSDOF 22
ENDMDL
MODEL 7
REMARK VINA RESULT:     4.835      5.096     11.459
REMARK INTER + INTRA:           9.960
REMARK INTER:                  10.920
REMARK INTRA:                  -0.961
REMARK UNBOUND:                -1.093
REMARK SMILES CCCCCCCCCCCCCCCCCCCCCCCC(=O)[O-]
REMARK SMILES IDX 13 1 14 2 15 3 16 4 17 5 18 6 19 7 20 8 21 9 22 10 23 11
REMARK SMILES IDX 24 12 25 13 26 14 12 15 11 16 10 17 9 18 8 19 7 20 6 21 5 22
REMARK SMILES IDX 4 23 3 24 2 25 1 26
REMARK H PARENT
REMARK Flexibility Score: inf
ROOT
ATOM      1  C   UNL     1     -13.849   2.654  -0.247  1.00  0.00     0.000 C 
ENDROOT
BRANCH   1   2
ATOM      2  C   UNL     1     -13.085   3.473   0.805  1.00  0.00     0.000 C 
BRANCH   2   3
ATOM      3  C   UNL     1     -11.570   3.225   0.758  1.00  0.00     0.000 C 
BRANCH   3   4
ATOM      4  C   UNL     1     -10.842   4.415   0.115  1.00  0.00     0.000 C 
BRANCH   4   5
ATOM      5  C   UNL     1      -9.312   4.329   0.251  1.00  0.00     0.000 C 
BRANCH   5   6
ATOM      6  C   UNL     1      -8.781   3.003   0.831  1.00  0.00     0.000 C 
BRANCH   6   7
ATOM      7  C   UNL     1      -7.784   2.266  -0.091  1.00  0.00     0.000 C 
BRANCH   7   8
ATOM      8  C   UNL     1      -6.359   2.230   0.495  1.00  0.00     0.000 C 
BRANCH   8   9
ATOM      9  C   UNL     1      -5.532   3.480   0.146  1.00  0.00     0.000 C 
BRANCH   9  10
ATOM     10  C   UNL     1      -5.027   4.284   1.358  1.00  0.00     0.006 C 
BRANCH  10  11
ATOM     11  C   UNL     1      -4.712   3.400   2.573  1.00  0.00     0.053 C 
BRANCH  11  12
ATOM     12  C   UNL     1      -3.438   2.646   2.363  1.00  0.00     0.041 C 
ATOM     13  O   UNL     1      -2.774   2.806   1.305  1.00  0.00    -0.550 OA
ATOM     14  O   UNL     1      -3.002   1.736   3.319  1.00  0.00    -0.550 OA
ENDBRANCH  11  12
ENDBRANCH  10  11
ENDBRANCH   9  10
ENDBRANCH   8   9
ENDBRANCH   7   8
ENDBRANCH   6   7
ENDBRANCH   5   6
ENDBRANCH   4   5
ENDBRANCH   3   4
ENDBRANCH   2   3
ENDBRANCH   1   2
BRANCH   1  15
ATOM     15  C   UNL     1     -14.839   1.663   0.385  1.00  0.00     0.000 C 
BRANCH  15  16
ATOM     16  C   UNL     1     -16.133   1.577  -0.434  1.00  0.00     0.000 C 
BRANCH  16  17
ATOM     17  C   UNL     1     -16.349   0.151  -0.964  1.00  0.00     0.000 C 
BRANCH  17  18
ATOM     18  C   UNL     1     -17.033   0.127  -2.340  1.00  0.00    -0.000 C 
BRANCH  18  19
ATOM     19  C   UNL     1     -17.086  -1.284  -2.951  1.00  0.00    -0.000 C 
BRANCH  19  20
ATOM     20  C   UNL     1     -16.920  -2.386  -1.882  1.00  0.00    -0.000 C 
BRANCH  20  21
ATOM     21  C   UNL     1     -16.375  -3.711  -2.444  1.00  0.00    -0.000 C 
BRANCH  21  22
ATOM     22  C   UNL     1     -14.957  -4.030  -1.943  1.00  0.00    -0.000 C 
BRANCH  22  23
ATOM     23  C   UNL     1     -14.245  -5.100  -2.791  1.00  0.00    -0.000 C 
BRANCH  23  24
ATOM     24  C   UNL     1     -13.018  -4.604  -3.577  1.00  0.00    -0.000 C 
BRANCH  24  25
ATOM     25  C   UNL     1     -13.212  -4.669  -5.099  1.00  0.00    -0.003 C 
ATOM     26  C   UNL     1     -14.429  -3.856  -5.533  1.00  0.00     0.004 C 
ENDBRANCH  24  25
ENDBRANCH  23  24
ENDBRANCH  22  23
ENDBRANCH  21  22
ENDBRANCH  20  21
ENDBRANCH  19  20
ENDBRANCH  18  19
ENDBRANCH  17  18
ENDBRANCH  16  17
ENDBRANCH  15  16
ENDBRANCH   1  15
TORSDOF 22
ENDMDL
MODEL 8
REMARK VINA RESULT:     5.180      6.558     13.504
REMARK INTER + INTRA:          10.748
REMARK INTER:                  11.692
REMARK INTRA:                  -0.944
REMARK UNBOUND:                -1.093
REMARK SMILES CCCCCCCCCCCCCCCCCCCCCCCC(=O)[O-]
REMARK SMILES IDX 13 1 14 2 15 3 16 4 17 5 18 6 19 7 20 8 21 9 22 10 23 11
REMARK SMILES IDX 24 12 25 13 26 14 12 15 11 16 10 17 9 18 8 19 7 20 6 21 5 22
REMARK SMILES IDX 4 23 3 24 2 25 1 26
REMARK H PARENT
REMARK Flexibility Score: inf
ROOT
ATOM      1  C   UNL     1      -9.578   2.975   0.758  1.00  0.00     0.000 C 
ENDROOT
BRANCH   1   2
ATOM      2  C   UNL     1      -8.054   3.168   0.805  1.00  0.00     0.000 C 
BRANCH   2   3
ATOM      3  C   UNL     1      -7.293   2.005   0.150  1.00  0.00     0.000 C 
BRANCH   3   4
ATOM      4  C   UNL     1      -5.783   2.284   0.131  1.00  0.00     0.000 C 
BRANCH   4   5
ATOM      5  C   UNL     1      -5.411   3.625   0.788  1.00  0.00     0.000 C 
BRANCH   5   6
ATOM      6  C   UNL     1      -4.220   3.566   1.766  1.00  0.00     0.000 C 
BRANCH   6   7
ATOM      7  C   UNL     1      -4.015   2.186   2.428  1.00  0.00     0.000 C 
BRANCH   7   8
ATOM      8  C   UNL     1      -3.310   2.289   3.794  1.00  0.00     0.000 C 
BRANCH   8   9
ATOM      9  C   UNL     1      -2.497   1.031   4.149  1.00  0.00     0.000 C 
BRANCH   9  10
ATOM     10  C   UNL     1      -1.030   1.294   4.537  1.00  0.00     0.006 C 
BRANCH  10  11
ATOM     11  C   UNL     1      -0.202   0.007   4.655  1.00  0.00     0.053 C 
BRANCH  11  12
ATOM     12  C   UNL     1       1.232   0.325   4.939  1.00  0.00     0.041 C 
ATOM     13  O   UNL     1       1.928  -0.459   5.637  1.00  0.00    -0.550 OA
ATOM     14  O   UNL     1       1.790   1.506   4.465  1.00  0.00    -0.550 OA
ENDBRANCH  11  12
ENDBRANCH  10  11
ENDBRANCH   9  10
ENDBRANCH   8   9
ENDBRANCH   7   8
ENDBRANCH   6   7
ENDBRANCH   5   6
ENDBRANCH   4   5
ENDBRANCH   3   4
ENDBRANCH   2   3
ENDBRANCH   1   2
BRANCH   1  15
ATOM     15  C   UNL     1     -10.299   4.155   0.088  1.00  0.00     0.000 C 
BRANCH  15  16
ATOM     16  C   UNL     1     -11.744   4.277   0.589  1.00  0.00     0.000 C 
BRANCH  16  17
ATOM     17  C   UNL     1     -12.467   2.924   0.505  1.00  0.00     0.000 C 
BRANCH  17  18
ATOM     18  C   UNL     1     -13.954   3.068   0.146  1.00  0.00    -0.000 C 
BRANCH  18  19
ATOM     19  C   UNL     1     -14.665   1.710   0.010  1.00  0.00    -0.000 C 
BRANCH  19  20
ATOM     20  C   UNL     1     -16.167   1.871  -0.309  1.00  0.00    -0.000 C 
BRANCH  20  21
ATOM     21  C   UNL     1     -16.747   0.711  -1.139  1.00  0.00    -0.000 C 
BRANCH  21  22
ATOM     22  C   UNL     1     -16.586  -0.652  -0.447  1.00  0.00    -0.000 C 
BRANCH  22  23
ATOM     23  C   UNL     1     -17.060  -1.829  -1.318  1.00  0.00    -0.000 C 
BRANCH  23  24
ATOM     24  C   UNL     1     -16.357  -1.961  -2.682  1.00  0.00    -0.000 C 
BRANCH  24  25
ATOM     25  C   UNL     1     -15.922  -3.400  -2.997  1.00  0.00    -0.003 C 
ATOM     26  C   UNL     1     -15.000  -3.946  -1.911  1.00  0.00     0.004 C 
ENDBRANCH  24  25
ENDBRANCH  23  24
ENDBRANCH  22  23
ENDBRANCH  21  22
ENDBRANCH  20  21
ENDBRANCH  19  20
ENDBRANCH  18  19
ENDBRANCH  17  18
ENDBRANCH  16  17
ENDBRANCH  15  16
ENDBRANCH   1  15
TORSDOF 22
ENDMDL
MODEL 9
REMARK VINA RESULT:     6.114      4.537     10.762
REMARK INTER + INTRA:          12.885
REMARK INTER:                  14.212
REMARK INTRA:                  -1.327
REMARK UNBOUND:                -1.093
REMARK SMILES CCCCCCCCCCCCCCCCCCCCCCCC(=O)[O-]
REMARK SMILES IDX 13 1 14 2 15 3 16 4 17 5 18 6 19 7 20 8 21 9 22 10 23 11
REMARK SMILES IDX 24 12 25 13 26 14 12 15 11 16 10 17 9 18 8 19 7 20 6 21 5 22
REMARK SMILES IDX 4 23 3 24 2 25 1 26
REMARK H PARENT
REMARK Flexibility Score: inf
ROOT
ATOM      1  C   UNL     1     -15.867  -1.210  -0.585  1.00  0.00     0.000 C 
ENDROOT
BRANCH   1   2
ATOM      2  C   UNL     1     -16.381   0.193  -0.227  1.00  0.00     0.000 C 
BRANCH   2   3
ATOM      3  C   UNL     1     -16.002   0.614   1.200  1.00  0.00     0.000 C 
BRANCH   3   4
ATOM      4  C   UNL     1     -14.606   0.090   1.570  1.00  0.00     0.000 C 
BRANCH   4   5
ATOM      5  C   UNL     1     -13.470   0.979   1.035  1.00  0.00     0.000 C 
BRANCH   5   6
ATOM      6  C   UNL     1     -13.860   2.445   0.762  1.00  0.00     0.000 C 
BRANCH   6   7
ATOM      7  C   UNL     1     -12.716   3.303   0.178  1.00  0.00     0.000 C 
BRANCH   7   8
ATOM      8  C   UNL     1     -11.336   2.896   0.729  1.00  0.00     0.000 C 
BRANCH   8   9
ATOM      9  C   UNL     1     -10.283   4.011   0.600  1.00  0.00     0.000 C 
BRANCH   9  10
ATOM     10  C   UNL     1      -8.848   3.522   0.327  1.00  0.00     0.006 C 
BRANCH  10  11
ATOM     11  C   UNL     1      -7.925   3.663   1.545  1.00  0.00     0.053 C 
BRANCH  11  12
ATOM     12  C   UNL     1      -6.497   3.782   1.116  1.00  0.00     0.041 C 
ATOM     13  O   UNL     1      -5.943   2.840   0.490  1.00  0.00    -0.550 OA
ATOM     14  O   UNL     1      -5.766   4.918   1.440  1.00  0.00    -0.550 OA
ENDBRANCH  11  12
ENDBRANCH  10  11
ENDBRANCH   9  10
ENDBRANCH   8   9
ENDBRANCH   7   8
ENDBRANCH   6   7
ENDBRANCH   5   6
ENDBRANCH   4   5
ENDBRANCH   3   4
ENDBRANCH   2   3
ENDBRANCH   1   2
BRANCH   1  15
ATOM     15  C   UNL     1     -16.848  -1.987  -1.477  1.00  0.00     0.000 C 
BRANCH  15  16
ATOM     16  C   UNL     1     -16.199  -2.365  -2.814  1.00  0.00     0.000 C 
BRANCH  16  17
ATOM     17  C   UNL     1     -16.797  -3.671  -3.360  1.00  0.00     0.000 C 
BRANCH  17  18
ATOM     18  C   UNL     1     -15.796  -4.837  -3.335  1.00  0.00    -0.000 C 
BRANCH  18  19
ATOM     19  C   UNL     1     -14.653  -4.615  -2.329  1.00  0.00    -0.000 C 
BRANCH  19  20
ATOM     20  C   UNL     1     -13.363  -4.116  -3.017  1.00  0.00    -0.000 C 
BRANCH  20  21
ATOM     21  C   UNL     1     -12.785  -5.113  -4.036  1.00  0.00    -0.000 C 
BRANCH  21  22
ATOM     22  C   UNL     1     -12.555  -4.481  -5.419  1.00  0.00    -0.000 C 
BRANCH  22  23
ATOM     23  C   UNL     1     -13.412  -5.125  -6.524  1.00  0.00    -0.000 C 
BRANCH  23  24
ATOM     24  C   UNL     1     -14.809  -4.505  -6.715  1.00  0.00    -0.000 C 
BRANCH  24  25
ATOM     25  C   UNL     1     -15.372  -4.716  -8.128  1.00  0.00    -0.003 C 
ATOM     26  C   UNL     1     -14.271  -5.125  -9.103  1.00  0.00     0.004 C 
ENDBRANCH  24  25
ENDBRANCH  23  24
ENDBRANCH  22  23
ENDBRANCH  21  22
ENDBRANCH  20  21
ENDBRANCH  19  20
ENDBRANCH  18  19
ENDBRANCH  17  18
ENDBRANCH  16  17
ENDBRANCH  15  16
ENDBRANCH   1  15
TORSDOF 22
ENDMDL
