MODEL 1
REMARK VINA RESULT:    -4.756      0.000      0.000
REMARK INTER + INTRA:          -5.663
REMARK INTER:                  -5.590
REMARK INTRA:                  -0.072
REMARK UNBOUND:                -0.072
REMARK SMILES O=C([O-])C=Cc1ccc(O)c(O)c1
REMARK SMILES IDX 6 1 13 2 7 3 11 4 8 5 9 6 5 7 4 8 2 9 1 10 3 11 12 12 10 14
REMARK H PARENT 12 13 10 15
REMARK Flexibility Score: inf
ROOT
ATOM      1  C   UNL     1     -45.256 -52.149  11.072  1.00  0.00    -0.022 A 
ATOM      2  C   UNL     1     -45.339 -52.697   9.784  1.00  0.00     0.058 A 
ATOM      3  C   UNL     1     -45.641 -50.816  11.276  1.00  0.00     0.012 A 
ATOM      4  C   UNL     1     -45.747 -51.916   8.696  1.00  0.00     0.157 A 
ATOM      5  C   UNL     1     -46.049 -50.029  10.198  1.00  0.00     0.051 A 
ATOM      6  C   UNL     1     -46.102 -50.562   8.904  1.00  0.00     0.157 A 
ENDROOT
BRANCH   1   7
ATOM      7  C   UNL     1     -44.872 -53.017  12.205  1.00  0.00     0.010 C 
ATOM      8  C   UNL     1     -43.631 -53.463  12.457  1.00  0.00     0.025 C 
BRANCH   8   9
ATOM      9  C   UNL     1     -42.466 -53.323  11.563  1.00  0.00     0.064 C 
ATOM     10  O   UNL     1     -41.867 -54.328  11.099  1.00  0.00    -0.545 OA
ATOM     11  O   UNL     1     -41.978 -52.053  11.282  1.00  0.00    -0.545 OA
ENDBRANCH   8   9
ENDBRANCH   1   7
BRANCH   4  12
ATOM     12  O   UNL     1     -45.790 -52.522   7.438  1.00  0.00    -0.504 OA
ATOM     13  H   UNL     1     -45.640 -52.030   6.570  1.00  0.00     0.293 HD
ENDBRANCH   4  12
BRANCH   6  14
ATOM     14  O   UNL     1     -46.512 -49.720   7.868  1.00  0.00    -0.504 OA
ATOM     15  H   UNL     1     -46.154 -49.770   6.925  1.00  0.00     0.293 HD
ENDBRANCH   6  14
TORSDOF 4
ENDMDL
MODEL 2
REMARK VINA RESULT:    -4.553      2.345      3.336
REMARK INTER + INTRA:          -5.424
REMARK INTER:                  -5.257
REMARK INTRA:                  -0.167
REMARK UNBOUND:                -0.072
REMARK SMILES O=C([O-])C=Cc1ccc(O)c(O)c1
REMARK SMILES IDX 6 1 13 2 7 3 11 4 8 5 9 6 5 7 4 8 2 9 1 10 3 11 12 12 10 14
REMARK H PARENT 12 13 10 15
REMARK Flexibility Score: inf
ROOT
ATOM      1  C   UNL     1     -45.155 -52.721   9.461  1.00  0.00    -0.022 A 
ATOM      2  C   UNL     1     -45.801 -53.955   9.305  1.00  0.00     0.058 A 
ATOM      3  C   UNL     1     -44.283 -52.272   8.459  1.00  0.00     0.012 A 
ATOM      4  C   UNL     1     -45.545 -54.764   8.192  1.00  0.00     0.157 A 
ATOM      5  C   UNL     1     -44.020 -53.072   7.345  1.00  0.00     0.051 A 
ATOM      6  C   UNL     1     -44.637 -54.320   7.201  1.00  0.00     0.157 A 
ENDROOT
BRANCH   1   7
ATOM      7  C   UNL     1     -45.490 -51.870  10.622  1.00  0.00     0.010 C 
ATOM      8  C   UNL     1     -45.066 -52.069  11.880  1.00  0.00     0.025 C 
BRANCH   8   9
ATOM      9  C   UNL     1     -44.344 -53.259  12.369  1.00  0.00     0.064 C 
ATOM     10  O   UNL     1     -44.914 -54.130  13.077  1.00  0.00    -0.545 OA
ATOM     11  O   UNL     1     -42.988 -53.387  12.098  1.00  0.00    -0.545 OA
ENDBRANCH   8   9
ENDBRANCH   1   7
BRANCH   4  12
ATOM     12  O   UNL     1     -46.211 -55.990   8.109  1.00  0.00    -0.504 OA
ATOM     13  H   UNL     1     -46.047 -56.673   7.384  1.00  0.00     0.293 HD
ENDBRANCH   4  12
BRANCH   6  14
ATOM     14  O   UNL     1     -44.326 -55.074   6.067  1.00  0.00    -0.504 OA
ATOM     15  H   UNL     1     -43.387 -55.337   5.804  1.00  0.00     0.293 HD
ENDBRANCH   6  14
TORSDOF 4
ENDMDL
MODEL 3
REMARK VINA RESULT:    -4.511      2.053      4.102
REMARK INTER + INTRA:          -5.375
REMARK INTER:                  -5.128
REMARK INTRA:                  -0.247
REMARK UNBOUND:                -0.072
REMARK SMILES O=C([O-])C=Cc1ccc(O)c(O)c1
REMARK SMILES IDX 6 1 13 2 7 3 11 4 8 5 9 6 5 7 4 8 2 9 1 10 3 11 12 12 10 14
REMARK H PARENT 12 13 10 15
REMARK Flexibility Score: inf
ROOT
ATOM      1  C   UNL     1     -45.687 -50.989  10.615  1.00  0.00    -0.022 A 
ATOM      2  C   UNL     1     -45.242 -51.996  11.483  1.00  0.00     0.058 A 
ATOM      3  C   UNL     1     -45.975 -51.311   9.281  1.00  0.00     0.012 A 
ATOM      4  C   UNL     1     -45.033 -53.301  11.021  1.00  0.00     0.157 A 
ATOM      5  C   UNL     1     -45.770 -52.609   8.811  1.00  0.00     0.051 A 
ATOM      6  C   UNL     1     -45.294 -53.611   9.665  1.00  0.00     0.157 A 
ENDROOT
BRANCH   1   7
ATOM      7  C   UNL     1     -45.947 -49.636  11.149  1.00  0.00     0.010 C 
ATOM      8  C   UNL     1     -45.210 -48.543  10.893  1.00  0.00     0.025 C 
BRANCH   8   9
ATOM      9  C   UNL     1     -43.916 -48.522  10.184  1.00  0.00     0.064 C 
ATOM     10  O   UNL     1     -42.824 -48.594  10.806  1.00  0.00    -0.545 OA
ATOM     11  O   UNL     1     -43.901 -48.352   8.806  1.00  0.00    -0.545 OA
ENDBRANCH   8   9
ENDBRANCH   1   7
BRANCH   4  12
ATOM     12  O   UNL     1     -44.572 -54.250  11.936  1.00  0.00    -0.504 OA
ATOM     13  H   UNL     1     -44.517 -55.239  11.743  1.00  0.00     0.293 HD
ENDBRANCH   4  12
BRANCH   6  14
ATOM     14  O   UNL     1     -45.103 -54.888   9.131  1.00  0.00    -0.504 OA
ATOM     15  H   UNL     1     -45.495 -55.730   9.528  1.00  0.00     0.293 HD
ENDBRANCH   6  14
TORSDOF 4
ENDMDL
MODEL 4
REMARK VINA RESULT:    -4.477      1.614      4.558
REMARK INTER + INTRA:          -5.334
REMARK INTER:                  -5.316
REMARK INTRA:                  -0.019
REMARK UNBOUND:                -0.072
REMARK SMILES O=C([O-])C=Cc1ccc(O)c(O)c1
REMARK SMILES IDX 6 1 13 2 7 3 11 4 8 5 9 6 5 7 4 8 2 9 1 10 3 11 12 12 10 14
REMARK H PARENT 12 13 10 15
REMARK Flexibility Score: inf
ROOT
ATOM      1  C   UNL     1     -44.525 -51.597  10.233  1.00  0.00    -0.022 A 
ATOM      2  C   UNL     1     -43.508 -52.548  10.392  1.00  0.00     0.058 A 
ATOM      3  C   UNL     1     -45.506 -51.467  11.226  1.00  0.00     0.012 A 
ATOM      4  C   UNL     1     -43.492 -53.402  11.501  1.00  0.00     0.157 A 
ATOM      5  C   UNL     1     -45.499 -52.315  12.336  1.00  0.00     0.051 A 
ATOM      6  C   UNL     1     -44.504 -53.289  12.484  1.00  0.00     0.157 A 
ENDROOT
BRANCH   1   7
ATOM      7  C   UNL     1     -44.481 -50.677   9.077  1.00  0.00     0.010 C 
ATOM      8  C   UNL     1     -44.766 -51.008   7.807  1.00  0.00     0.025 C 
BRANCH   8   9
ATOM      9  C   UNL     1     -44.998 -52.375   7.304  1.00  0.00     0.064 C 
ATOM     10  O   UNL     1     -45.921 -53.098   7.763  1.00  0.00    -0.545 OA
ATOM     11  O   UNL     1     -44.136 -52.901   6.350  1.00  0.00    -0.545 OA
ENDBRANCH   8   9
ENDBRANCH   1   7
BRANCH   4  12
ATOM     12  O   UNL     1     -42.459 -54.339  11.588  1.00  0.00    -0.504 OA
ATOM     13  H   UNL     1     -41.672 -54.253  12.214  1.00  0.00     0.293 HD
ENDBRANCH   4  12
BRANCH   6  14
ATOM     14  O   UNL     1     -44.558 -54.109  13.613  1.00  0.00    -0.504 OA
ATOM     15  H   UNL     1     -43.804 -54.714  13.907  1.00  0.00     0.293 HD
ENDBRANCH   6  14
TORSDOF 4
ENDMDL
MODEL 5
REMARK VINA RESULT:    -4.466      7.053      8.648
REMARK INTER + INTRA:          -5.321
REMARK INTER:                  -5.098
REMARK INTRA:                  -0.224
REMARK UNBOUND:                -0.072
REMARK SMILES O=C([O-])C=Cc1ccc(O)c(O)c1
REMARK SMILES IDX 6 1 13 2 7 3 11 4 8 5 9 6 5 7 4 8 2 9 1 10 3 11 12 12 10 14
REMARK H PARENT 12 13 10 15
REMARK Flexibility Score: inf
ROOT
ATOM      1  C   UNL     1     -46.841 -44.638  13.328  1.00  0.00    -0.022 A 
ATOM      2  C   UNL     1     -47.888 -45.362  13.914  1.00  0.00     0.058 A 
ATOM      3  C   UNL     1     -46.041 -43.814  14.133  1.00  0.00     0.012 A 
ATOM      4  C   UNL     1     -48.176 -45.231  15.278  1.00  0.00     0.157 A 
ATOM      5  C   UNL     1     -46.320 -43.676  15.493  1.00  0.00     0.051 A 
ATOM      6  C   UNL     1     -47.386 -44.371  16.078  1.00  0.00     0.157 A 
ENDROOT
BRANCH   1   7
ATOM      7  C   UNL     1     -46.532 -44.842  11.897  1.00  0.00     0.010 C 
ATOM      8  C   UNL     1     -45.969 -45.942  11.371  1.00  0.00     0.025 C 
BRANCH   8   9
ATOM      9  C   UNL     1     -45.396 -47.066  12.135  1.00  0.00     0.064 C 
ATOM     10  O   UNL     1     -46.044 -48.127  12.333  1.00  0.00    -0.545 OA
ATOM     11  O   UNL     1     -44.137 -46.925  12.706  1.00  0.00    -0.545 OA
ENDBRANCH   8   9
ENDBRANCH   1   7
BRANCH   4  12
ATOM     12  O   UNL     1     -49.244 -45.969  15.793  1.00  0.00    -0.504 OA
ATOM     13  H   UNL     1     -49.865 -45.634  16.515  1.00  0.00     0.293 HD
ENDBRANCH   4  12
BRANCH   6  14
ATOM     14  O   UNL     1     -47.616 -44.184  17.443  1.00  0.00    -0.504 OA
ATOM     15  H   UNL     1     -48.329 -44.672  17.967  1.00  0.00     0.293 HD
ENDBRANCH   6  14
TORSDOF 4
ENDMDL
MODEL 6
REMARK VINA RESULT:    -4.452      2.293      4.752
REMARK INTER + INTRA:          -5.305
REMARK INTER:                  -5.106
REMARK INTRA:                  -0.200
REMARK UNBOUND:                -0.072
REMARK SMILES O=C([O-])C=Cc1ccc(O)c(O)c1
REMARK SMILES IDX 6 1 13 2 7 3 11 4 8 5 9 6 5 7 4 8 2 9 1 10 3 11 12 12 10 14
REMARK H PARENT 12 13 10 15
REMARK Flexibility Score: inf
ROOT
ATOM      1  C   UNL     1     -45.098 -51.408  10.756  1.00  0.00    -0.022 A 
ATOM      2  C   UNL     1     -45.198 -52.171  11.928  1.00  0.00     0.058 A 
ATOM      3  C   UNL     1     -44.118 -51.734   9.807  1.00  0.00     0.012 A 
ATOM      4  C   UNL     1     -44.301 -53.215  12.184  1.00  0.00     0.157 A 
ATOM      5  C   UNL     1     -43.218 -52.772  10.053  1.00  0.00     0.051 A 
ATOM      6  C   UNL     1     -43.293 -53.516  11.237  1.00  0.00     0.157 A 
ENDROOT
BRANCH   1   7
ATOM      7  C   UNL     1     -46.095 -50.349  10.495  1.00  0.00     0.010 C 
ATOM      8  C   UNL     1     -45.851 -49.029  10.514  1.00  0.00     0.025 C 
BRANCH   8   9
ATOM      9  C   UNL     1     -44.602 -48.390  10.971  1.00  0.00     0.064 C 
ATOM     10  O   UNL     1     -44.526 -47.817  12.090  1.00  0.00    -0.545 OA
ATOM     11  O   UNL     1     -43.505 -48.360  10.119  1.00  0.00    -0.545 OA
ENDBRANCH   8   9
ENDBRANCH   1   7
BRANCH   4  12
ATOM     12  O   UNL     1     -44.448 -53.923  13.379  1.00  0.00    -0.504 OA
ATOM     13  H   UNL     1     -44.590 -54.921  13.429  1.00  0.00     0.293 HD
ENDBRANCH   4  12
BRANCH   6  14
ATOM     14  O   UNL     1     -42.359 -54.537  11.426  1.00  0.00    -0.504 OA
ATOM     15  H   UNL     1     -41.759 -54.611  12.235  1.00  0.00     0.293 HD
ENDBRANCH   6  14
TORSDOF 4
ENDMDL
MODEL 7
REMARK VINA RESULT:    -4.450      2.194      4.175
REMARK INTER + INTRA:          -5.302
REMARK INTER:                  -5.030
REMARK INTRA:                  -0.272
REMARK UNBOUND:                -0.072
REMARK SMILES O=C([O-])C=Cc1ccc(O)c(O)c1
REMARK SMILES IDX 6 1 13 2 7 3 11 4 8 5 9 6 5 7 4 8 2 9 1 10 3 11 12 12 10 14
REMARK H PARENT 12 13 10 15
REMARK Flexibility Score: inf
ROOT
ATOM      1  C   UNL     1     -45.904 -51.057  10.085  1.00  0.00    -0.022 A 
ATOM      2  C   UNL     1     -45.409 -52.188   9.423  1.00  0.00     0.058 A 
ATOM      3  C   UNL     1     -45.925 -51.038  11.488  1.00  0.00     0.012 A 
ATOM      4  C   UNL     1     -44.986 -53.314  10.141  1.00  0.00     0.157 A 
ATOM      5  C   UNL     1     -45.506 -52.155  12.213  1.00  0.00     0.051 A 
ATOM      6  C   UNL     1     -45.042 -53.300  11.555  1.00  0.00     0.157 A 
ENDROOT
BRANCH   1   7
ATOM      7  C   UNL     1     -46.291 -49.868   9.298  1.00  0.00     0.010 C 
ATOM      8  C   UNL     1     -45.464 -48.879   8.925  1.00  0.00     0.025 C 
BRANCH   8   9
ATOM      9  C   UNL     1     -44.070 -48.703   9.378  1.00  0.00     0.064 C 
ATOM     10  O   UNL     1     -43.095 -49.004   8.641  1.00  0.00    -0.545 OA
ATOM     11  O   UNL     1     -43.830 -48.259  10.672  1.00  0.00    -0.545 OA
ENDBRANCH   8   9
ENDBRANCH   1   7
BRANCH   4  12
ATOM     12  O   UNL     1     -44.520 -54.413   9.415  1.00  0.00    -0.504 OA
ATOM     13  H   UNL     1     -43.543 -54.611   9.258  1.00  0.00     0.293 HD
ENDBRANCH   4  12
BRANCH   6  14
ATOM     14  O   UNL     1     -44.644 -54.386  12.338  1.00  0.00    -0.504 OA
ATOM     15  H   UNL     1     -44.884 -54.497  13.313  1.00  0.00     0.293 HD
ENDBRANCH   6  14
TORSDOF 4
ENDMDL
MODEL 8
REMARK VINA RESULT:    -4.440      3.197      4.726
REMARK INTER + INTRA:          -5.291
REMARK INTER:                  -5.012
REMARK INTRA:                  -0.279
REMARK UNBOUND:                -0.072
REMARK SMILES O=C([O-])C=Cc1ccc(O)c(O)c1
REMARK SMILES IDX 6 1 13 2 7 3 11 4 8 5 9 6 5 7 4 8 2 9 1 10 3 11 12 12 10 14
REMARK H PARENT 12 13 10 15
REMARK Flexibility Score: inf
ROOT
ATOM      1  C   UNL     1     -44.712 -49.094   7.198  1.00  0.00    -0.022 A 
ATOM      2  C   UNL     1     -44.939 -49.735   5.972  1.00  0.00     0.058 A 
ATOM      3  C   UNL     1     -45.393 -47.903   7.486  1.00  0.00     0.012 A 
ATOM      4  C   UNL     1     -45.794 -49.173   5.016  1.00  0.00     0.157 A 
ATOM      5  C   UNL     1     -46.247 -47.334   6.539  1.00  0.00     0.051 A 
ATOM      6  C   UNL     1     -46.452 -47.953   5.300  1.00  0.00     0.157 A 
ENDROOT
BRANCH   1   7
ATOM      7  C   UNL     1     -43.845 -49.742   8.204  1.00  0.00     0.010 C 
ATOM      8  C   UNL     1     -44.218 -50.731   9.031  1.00  0.00     0.025 C 
BRANCH   8   9
ATOM      9  C   UNL     1     -45.596 -51.229   9.214  1.00  0.00     0.064 C 
ATOM     10  O   UNL     1     -46.009 -52.257   8.618  1.00  0.00    -0.545 OA
ATOM     11  O   UNL     1     -46.476 -50.507  10.011  1.00  0.00    -0.545 OA
ENDBRANCH   8   9
ENDBRANCH   1   7
BRANCH   4  12
ATOM     12  O   UNL     1     -45.961 -49.857   3.809  1.00  0.00    -0.504 OA
ATOM     13  H   UNL     1     -46.155 -50.845   3.743  1.00  0.00     0.293 HD
ENDBRANCH   4  12
BRANCH   6  14
ATOM     14  O   UNL     1     -47.313 -47.330   4.394  1.00  0.00    -0.504 OA
ATOM     15  H   UNL     1     -48.126 -46.794   4.664  1.00  0.00     0.293 HD
ENDBRANCH   6  14
TORSDOF 4
ENDMDL
MODEL 9
REMARK VINA RESULT:    -4.384      1.767      2.613
REMARK INTER + INTRA:          -5.225
REMARK INTER:                  -5.012
REMARK INTRA:                  -0.213
REMARK UNBOUND:                -0.072
REMARK SMILES O=C([O-])C=Cc1ccc(O)c(O)c1
REMARK SMILES IDX 6 1 13 2 7 3 11 4 8 5 9 6 5 7 4 8 2 9 1 10 3 11 12 12 10 14
REMARK H PARENT 12 13 10 15
REMARK Flexibility Score: inf
ROOT
ATOM      1  C   UNL     1     -45.845 -50.099  10.650  1.00  0.00    -0.022 A 
ATOM      2  C   UNL     1     -46.235 -50.174   9.306  1.00  0.00     0.058 A 
ATOM      3  C   UNL     1     -45.551 -48.848  11.211  1.00  0.00     0.012 A 
ATOM      4  C   UNL     1     -46.283 -49.025   8.507  1.00  0.00     0.157 A 
ATOM      5  C   UNL     1     -45.595 -47.696  10.423  1.00  0.00     0.051 A 
ATOM      6  C   UNL     1     -45.952 -47.769   9.071  1.00  0.00     0.157 A 
ENDROOT
BRANCH   1   7
ATOM      7  C   UNL     1     -45.857 -51.324  11.477  1.00  0.00     0.010 C 
ATOM      8  C   UNL     1     -44.906 -52.272  11.478  1.00  0.00     0.025 C 
BRANCH   8   9
ATOM      9  C   UNL     1     -43.774 -52.358  10.535  1.00  0.00     0.064 C 
ATOM     10  O   UNL     1     -42.694 -51.746  10.745  1.00  0.00    -0.545 OA
ATOM     11  O   UNL     1     -43.927 -53.077   9.357  1.00  0.00    -0.545 OA
ENDBRANCH   8   9
ENDBRANCH   1   7
BRANCH   4  12
ATOM     12  O   UNL     1     -46.664 -49.175   7.172  1.00  0.00    -0.504 OA
ATOM     13  H   UNL     1     -46.662 -50.056   6.680  1.00  0.00     0.293 HD
ENDBRANCH   4  12
BRANCH   6  14
ATOM     14  O   UNL     1     -45.971 -46.582   8.336  1.00  0.00    -0.504 OA
ATOM     15  H   UNL     1     -46.331 -45.706   8.687  1.00  0.00     0.293 HD
ENDBRANCH   6  14
TORSDOF 4
ENDMDL
