MODEL 1
REMARK VINA RESULT:     7.255      0.000      0.000
REMARK INTER + INTRA:          15.462
REMARK INTER:                  16.585
REMARK INTRA:                  -1.123
REMARK UNBOUND:                -1.123
REMARK SMILES CCCCCCCCCCCCCCCCCCCCCCCC(=O)[O-]
REMARK SMILES IDX 13 1 14 2 15 3 16 4 17 5 18 6 19 7 20 8 21 9 22 10 23 11
REMARK SMILES IDX 24 12 25 13 26 14 12 15 11 16 10 17 9 18 8 19 7 20 6 21 5 22
REMARK SMILES IDX 4 23 3 24 2 25 1 26
REMARK H PARENT
REMARK Flexibility Score: inf
ROOT
ATOM      1  C   UNL     1      13.859  17.369  -6.610  1.00  0.00     0.000 C 
ENDROOT
BRANCH   1   2
ATOM      2  C   UNL     1      12.644  17.334  -5.668  1.00  0.00     0.000 C 
BRANCH   2   3
ATOM      3  C   UNL     1      11.786  16.067  -5.844  1.00  0.00     0.000 C 
BRANCH   3   4
ATOM      4  C   UNL     1      10.847  15.742  -4.664  1.00  0.00     0.000 C 
BRANCH   4   5
ATOM      5  C   UNL     1      11.123  14.399  -3.958  1.00  0.00     0.000 C 
BRANCH   5   6
ATOM      6  C   UNL     1      10.356  14.188  -2.639  1.00  0.00     0.000 C 
BRANCH   6   7
ATOM      7  C   UNL     1      11.222  14.237  -1.364  1.00  0.00     0.000 C 
BRANCH   7   8
ATOM      8  C   UNL     1      10.713  13.367  -0.200  1.00  0.00     0.000 C 
BRANCH   8   9
ATOM      9  C   UNL     1      11.706  13.296   0.969  1.00  0.00     0.000 C 
BRANCH   9  10
ATOM     10  C   UNL     1      11.721  14.616   1.756  1.00  0.00     0.006 C 
BRANCH  10  11
ATOM     11  C   UNL     1      10.306  15.141   2.035  1.00  0.00     0.053 C 
BRANCH  11  12
ATOM     12  C   UNL     1      10.197  16.611   1.768  1.00  0.00     0.041 C 
ATOM     13  O   UNL     1       9.079  17.187   1.836  1.00  0.00    -0.550 OA
ATOM     14  O   UNL     1      11.327  17.340   1.417  1.00  0.00    -0.550 OA
ENDBRANCH  11  12
ENDBRANCH  10  11
ENDBRANCH   9  10
ENDBRANCH   8   9
ENDBRANCH   7   8
ENDBRANCH   6   7
ENDBRANCH   5   6
ENDBRANCH   4   5
ENDBRANCH   3   4
ENDBRANCH   2   3
ENDBRANCH   1   2
BRANCH   1  15
ATOM     15  C   UNL     1      13.675  16.462  -7.837  1.00  0.00     0.000 C 
BRANCH  15  16
ATOM     16  C   UNL     1      14.930  15.637  -8.159  1.00  0.00     0.000 C 
BRANCH  16  17
ATOM     17  C   UNL     1      15.509  16.028  -9.524  1.00  0.00     0.000 C 
BRANCH  17  18
ATOM     18  C   UNL     1      14.655  15.458 -10.667  1.00  0.00    -0.000 C 
BRANCH  18  19
ATOM     19  C   UNL     1      15.501  14.800 -11.769  1.00  0.00    -0.000 C 
BRANCH  19  20
ATOM     20  C   UNL     1      15.927  15.794 -12.862  1.00  0.00    -0.000 C 
BRANCH  20  21
ATOM     21  C   UNL     1      17.447  16.031 -12.893  1.00  0.00    -0.000 C 
BRANCH  21  22
ATOM     22  C   UNL     1      17.914  17.181 -11.978  1.00  0.00    -0.000 C 
BRANCH  22  23
ATOM     23  C   UNL     1      17.983  18.525 -12.725  1.00  0.00    -0.000 C 
BRANCH  23  24
ATOM     24  C   UNL     1      18.222  19.715 -11.782  1.00  0.00    -0.000 C 
BRANCH  24  25
ATOM     25  C   UNL     1      18.760  20.952 -12.516  1.00  0.00    -0.003 C 
ATOM     26  C   UNL     1      20.286  20.977 -12.502  1.00  0.00     0.004 C 
ENDBRANCH  24  25
ENDBRANCH  23  24
ENDBRANCH  22  23
ENDBRANCH  21  22
ENDBRANCH  20  21
ENDBRANCH  19  20
ENDBRANCH  18  19
ENDBRANCH  17  18
ENDBRANCH  16  17
ENDBRANCH  15  16
ENDBRANCH   1  15
TORSDOF 22
ENDMDL
MODEL 2
REMARK VINA RESULT:     7.742      0.803      1.458
REMARK INTER + INTRA:          16.576
REMARK INTER:                  17.207
REMARK INTRA:                  -0.631
REMARK UNBOUND:                -1.123
REMARK SMILES CCCCCCCCCCCCCCCCCCCCCCCC(=O)[O-]
REMARK SMILES IDX 13 1 14 2 15 3 16 4 17 5 18 6 19 7 20 8 21 9 22 10 23 11
REMARK SMILES IDX 24 12 25 13 26 14 12 15 11 16 10 17 9 18 8 19 7 20 6 21 5 22
REMARK SMILES IDX 4 23 3 24 2 25 1 26
REMARK H PARENT
REMARK Flexibility Score: inf
ROOT
ATOM      1  C   UNL     1      14.493  16.510  -7.394  1.00  0.00     0.000 C 
ENDROOT
BRANCH   1   2
ATOM      2  C   UNL     1      12.983  16.617  -7.120  1.00  0.00     0.000 C 
BRANCH   2   3
ATOM      3  C   UNL     1      12.664  17.374  -5.817  1.00  0.00     0.000 C 
BRANCH   3   4
ATOM      4  C   UNL     1      12.177  16.492  -4.649  1.00  0.00     0.000 C 
BRANCH   4   5
ATOM      5  C   UNL     1      11.164  15.396  -5.036  1.00  0.00     0.000 C 
BRANCH   5   6
ATOM      6  C   UNL     1      10.886  14.351  -3.938  1.00  0.00     0.000 C 
BRANCH   6   7
ATOM      7  C   UNL     1      11.240  14.797  -2.505  1.00  0.00     0.000 C 
BRANCH   7   8
ATOM      8  C   UNL     1      10.508  14.033  -1.387  1.00  0.00     0.000 C 
BRANCH   8   9
ATOM      9  C   UNL     1      11.440  13.626  -0.236  1.00  0.00     0.000 C 
BRANCH   9  10
ATOM     10  C   UNL     1      11.108  14.411   1.042  1.00  0.00     0.006 C 
BRANCH  10  11
ATOM     11  C   UNL     1       9.818  15.230   0.902  1.00  0.00     0.053 C 
BRANCH  11  12
ATOM     12  C   UNL     1      10.004  16.642   1.364  1.00  0.00     0.041 C 
ATOM     13  O   UNL     1      11.137  17.188   1.300  1.00  0.00    -0.550 OA
ATOM     14  O   UNL     1       8.929  17.348   1.894  1.00  0.00    -0.550 OA
ENDBRANCH  11  12
ENDBRANCH  10  11
ENDBRANCH   9  10
ENDBRANCH   8   9
ENDBRANCH   7   8
ENDBRANCH   6   7
ENDBRANCH   5   6
ENDBRANCH   4   5
ENDBRANCH   3   4
ENDBRANCH   2   3
ENDBRANCH   1   2
BRANCH   1  15
ATOM     15  C   UNL     1      14.820  15.478  -8.485  1.00  0.00     0.000 C 
BRANCH  15  16
ATOM     16  C   UNL     1      15.281  16.128  -9.798  1.00  0.00     0.000 C 
BRANCH  16  17
ATOM     17  C   UNL     1      15.127  15.157 -10.975  1.00  0.00     0.000 C 
BRANCH  17  18
ATOM     18  C   UNL     1      15.541  15.823 -12.295  1.00  0.00    -0.000 C 
BRANCH  18  19
ATOM     19  C   UNL     1      16.216  14.843 -13.269  1.00  0.00    -0.000 C 
BRANCH  19  20
ATOM     20  C   UNL     1      17.708  15.146 -13.475  1.00  0.00    -0.000 C 
BRANCH  20  21
ATOM     21  C   UNL     1      18.203  16.321 -12.612  1.00  0.00    -0.000 C 
BRANCH  21  22
ATOM     22  C   UNL     1      17.665  17.693 -13.069  1.00  0.00    -0.000 C 
BRANCH  22  23
ATOM     23  C   UNL     1      18.213  18.846 -12.209  1.00  0.00    -0.000 C 
BRANCH  23  24
ATOM     24  C   UNL     1      18.111  20.209 -12.911  1.00  0.00    -0.000 C 
BRANCH  24  25
ATOM     25  C   UNL     1      19.044  21.263 -12.296  1.00  0.00    -0.003 C 
ATOM     26  C   UNL     1      20.508  20.898 -12.524  1.00  0.00     0.004 C 
ENDBRANCH  24  25
ENDBRANCH  23  24
ENDBRANCH  22  23
ENDBRANCH  21  22
ENDBRANCH  20  21
ENDBRANCH  19  20
ENDBRANCH  18  19
ENDBRANCH  17  18
ENDBRANCH  16  17
ENDBRANCH  15  16
ENDBRANCH   1  15
TORSDOF 22
ENDMDL
MODEL 3
REMARK VINA RESULT:     8.544      4.794     12.848
REMARK INTER + INTRA:          18.409
REMARK INTER:                  19.663
REMARK INTRA:                  -1.253
REMARK UNBOUND:                -1.123
REMARK SMILES CCCCCCCCCCCCCCCCCCCCCCCC(=O)[O-]
REMARK SMILES IDX 13 1 14 2 15 3 16 4 17 5 18 6 19 7 20 8 21 9 22 10 23 11
REMARK SMILES IDX 24 12 25 13 26 14 12 15 11 16 10 17 9 18 8 19 7 20 6 21 5 22
REMARK SMILES IDX 4 23 3 24 2 25 1 26
REMARK H PARENT
REMARK Flexibility Score: inf
ROOT
ATOM      1  C   UNL     1      14.091  17.662  -6.898  1.00  0.00     0.000 C 
ENDROOT
BRANCH   1   2
ATOM      2  C   UNL     1      14.426  16.220  -7.314  1.00  0.00     0.000 C 
BRANCH   2   3
ATOM      3  C   UNL     1      14.071  15.925  -8.783  1.00  0.00     0.000 C 
BRANCH   3   4
ATOM      4  C   UNL     1      15.274  15.864  -9.748  1.00  0.00     0.000 C 
BRANCH   4   5
ATOM      5  C   UNL     1      15.016  15.109 -11.067  1.00  0.00     0.000 C 
BRANCH   5   6
ATOM      6  C   UNL     1      15.483  15.844 -12.339  1.00  0.00     0.000 C 
BRANCH   6   7
ATOM      7  C   UNL     1      16.871  15.426 -12.864  1.00  0.00     0.000 C 
BRANCH   7   8
ATOM      8  C   UNL     1      17.825  16.592 -13.180  1.00  0.00     0.000 C 
BRANCH   8   9
ATOM      9  C   UNL     1      18.404  17.245 -11.916  1.00  0.00     0.000 C 
BRANCH   9  10
ATOM     10  C   UNL     1      17.902  18.689 -11.765  1.00  0.00     0.006 C 
BRANCH  10  11
ATOM     11  C   UNL     1      18.297  19.568 -12.958  1.00  0.00     0.053 C 
BRANCH  11  12
ATOM     12  C   UNL     1      19.254  20.650 -12.559  1.00  0.00     0.041 C 
ATOM     13  O   UNL     1      18.830  21.806 -12.295  1.00  0.00    -0.550 OA
ATOM     14  O   UNL     1      20.618  20.387 -12.505  1.00  0.00    -0.550 OA
ENDBRANCH  11  12
ENDBRANCH  10  11
ENDBRANCH   9  10
ENDBRANCH   8   9
ENDBRANCH   7   8
ENDBRANCH   6   7
ENDBRANCH   5   6
ENDBRANCH   4   5
ENDBRANCH   3   4
ENDBRANCH   2   3
ENDBRANCH   1   2
BRANCH   1  15
ATOM     15  C   UNL     1      12.772  17.756  -6.114  1.00  0.00     0.000 C 
BRANCH  15  16
ATOM     16  C   UNL     1      12.165  16.379  -5.807  1.00  0.00     0.000 C 
BRANCH  16  17
ATOM     17  C   UNL     1      11.808  16.255  -4.321  1.00  0.00     0.000 C 
BRANCH  17  18
ATOM     18  C   UNL     1      10.988  14.983  -4.056  1.00  0.00    -0.000 C 
BRANCH  18  19
ATOM     19  C   UNL     1      11.366  14.297  -2.734  1.00  0.00    -0.000 C 
BRANCH  19  20
ATOM     20  C   UNL     1      10.151  13.694  -2.011  1.00  0.00    -0.000 C 
BRANCH  20  21
ATOM     21  C   UNL     1       9.884  14.349  -0.645  1.00  0.00    -0.000 C 
BRANCH  21  22
ATOM     22  C   UNL     1      10.810  13.839   0.479  1.00  0.00    -0.000 C 
BRANCH  22  23
ATOM     23  C   UNL     1      10.570  14.575   1.809  1.00  0.00    -0.000 C 
BRANCH  23  24
ATOM     24  C   UNL     1       9.459  15.632   1.708  1.00  0.00    -0.000 C 
BRANCH  24  25
ATOM     25  C   UNL     1       9.991  17.065   1.853  1.00  0.00    -0.003 C 
ATOM     26  C   UNL     1      11.500  17.069   2.081  1.00  0.00     0.004 C 
ENDBRANCH  24  25
ENDBRANCH  23  24
ENDBRANCH  22  23
ENDBRANCH  21  22
ENDBRANCH  20  21
ENDBRANCH  19  20
ENDBRANCH  18  19
ENDBRANCH  17  18
ENDBRANCH  16  17
ENDBRANCH  15  16
ENDBRANCH   1  15
TORSDOF 22
ENDMDL
MODEL 4
REMARK VINA RESULT:     9.075      4.995     12.906
REMARK INTER + INTRA:          19.622
REMARK INTER:                  20.264
REMARK INTRA:                  -0.642
REMARK UNBOUND:                -1.123
REMARK SMILES CCCCCCCCCCCCCCCCCCCCCCCC(=O)[O-]
REMARK SMILES IDX 13 1 14 2 15 3 16 4 17 5 18 6 19 7 20 8 21 9 22 10 23 11
REMARK SMILES IDX 24 12 25 13 26 14 12 15 11 16 10 17 9 18 8 19 7 20 6 21 5 22
REMARK SMILES IDX 4 23 3 24 2 25 1 26
REMARK H PARENT
REMARK Flexibility Score: inf
ROOT
ATOM      1  C   UNL     1      11.615  16.743  -5.744  1.00  0.00     0.000 C 
ENDROOT
BRANCH   1   2
ATOM      2  C   UNL     1      12.946  17.266  -5.179  1.00  0.00     0.000 C 
BRANCH   2   3
ATOM      3  C   UNL     1      13.936  17.694  -6.279  1.00  0.00     0.000 C 
BRANCH   3   4
ATOM      4  C   UNL     1      13.736  17.004  -7.644  1.00  0.00     0.000 C 
BRANCH   4   5
ATOM      5  C   UNL     1      14.609  15.755  -7.880  1.00  0.00     0.000 C 
BRANCH   5   6
ATOM      6  C   UNL     1      16.000  16.038  -8.478  1.00  0.00     0.000 C 
BRANCH   6   7
ATOM      7  C   UNL     1      16.069  17.248  -9.430  1.00  0.00     0.000 C 
BRANCH   7   8
ATOM      8  C   UNL     1      17.251  17.232 -10.417  1.00  0.00     0.000 C 
BRANCH   8   9
ATOM      9  C   UNL     1      17.654  18.638 -10.886  1.00  0.00     0.000 C 
BRANCH   9  10
ATOM     10  C   UNL     1      18.273  18.591 -12.291  1.00  0.00     0.006 C 
BRANCH  10  11
ATOM     11  C   UNL     1      18.195  19.947 -13.005  1.00  0.00     0.053 C 
BRANCH  11  12
ATOM     12  C   UNL     1      19.319  20.852 -12.602  1.00  0.00     0.041 C 
ATOM     13  O   UNL     1      19.098  22.067 -12.355  1.00  0.00    -0.550 OA
ATOM     14  O   UNL     1      20.617  20.359 -12.527  1.00  0.00    -0.550 OA
ENDBRANCH  11  12
ENDBRANCH  10  11
ENDBRANCH   9  10
ENDBRANCH   8   9
ENDBRANCH   7   8
ENDBRANCH   6   7
ENDBRANCH   5   6
ENDBRANCH   4   5
ENDBRANCH   3   4
ENDBRANCH   2   3
ENDBRANCH   1   2
BRANCH   1  15
ATOM     15  C   UNL     1      11.312  15.304  -5.297  1.00  0.00     0.000 C 
BRANCH  15  16
ATOM     16  C   UNL     1      10.575  15.243  -3.951  1.00  0.00     0.000 C 
BRANCH  16  17
ATOM     17  C   UNL     1      11.094  14.083  -3.093  1.00  0.00     0.000 C 
BRANCH  17  18
ATOM     18  C   UNL     1      11.383  14.547  -1.657  1.00  0.00    -0.000 C 
BRANCH  18  19
ATOM     19  C   UNL     1      10.446  13.902  -0.624  1.00  0.00    -0.000 C 
BRANCH  19  20
ATOM     20  C   UNL     1      11.057  13.861   0.786  1.00  0.00    -0.000 C 
BRANCH  20  21
ATOM     21  C   UNL     1      10.076  14.328   1.875  1.00  0.00    -0.000 C 
BRANCH  21  22
ATOM     22  C   UNL     1       8.722  14.818   1.320  1.00  0.00    -0.000 C 
BRANCH  22  23
ATOM     23  C   UNL     1       8.288  16.155   1.946  1.00  0.00    -0.000 C 
BRANCH  23  24
ATOM     24  C   UNL     1       9.460  17.134   2.124  1.00  0.00    -0.000 C 
BRANCH  24  25
ATOM     25  C   UNL     1      10.320  17.263   0.858  1.00  0.00    -0.003 C 
ATOM     26  C   UNL     1      11.787  16.975   1.161  1.00  0.00     0.004 C 
ENDBRANCH  24  25
ENDBRANCH  23  24
ENDBRANCH  22  23
ENDBRANCH  21  22
ENDBRANCH  20  21
ENDBRANCH  19  20
ENDBRANCH  18  19
ENDBRANCH  17  18
ENDBRANCH  16  17
ENDBRANCH  15  16
ENDBRANCH   1  15
TORSDOF 22
ENDMDL
MODEL 5
REMARK VINA RESULT:     9.269      4.454     12.641
REMARK INTER + INTRA:          20.066
REMARK INTER:                  21.382
REMARK INTRA:                  -1.316
REMARK UNBOUND:                -1.123
REMARK SMILES CCCCCCCCCCCCCCCCCCCCCCCC(=O)[O-]
REMARK SMILES IDX 13 1 14 2 15 3 16 4 17 5 18 6 19 7 20 8 21 9 22 10 23 11
REMARK SMILES IDX 24 12 25 13 26 14 12 15 11 16 10 17 9 18 8 19 7 20 6 21 5 22
REMARK SMILES IDX 4 23 3 24 2 25 1 26
REMARK H PARENT
REMARK Flexibility Score: inf
ROOT
ATOM      1  C   UNL     1      11.936  16.707  -6.163  1.00  0.00     0.000 C 
ENDROOT
BRANCH   1   2
ATOM      2  C   UNL     1      13.166  17.629  -6.195  1.00  0.00     0.000 C 
BRANCH   2   3
ATOM      3  C   UNL     1      14.392  16.967  -6.851  1.00  0.00     0.000 C 
BRANCH   3   4
ATOM      4  C   UNL     1      14.072  15.989  -8.001  1.00  0.00     0.000 C 
BRANCH   4   5
ATOM      5  C   UNL     1      15.199  15.807  -9.037  1.00  0.00     0.000 C 
BRANCH   5   6
ATOM      6  C   UNL     1      14.749  15.890 -10.508  1.00  0.00     0.000 C 
BRANCH   6   7
ATOM      7  C   UNL     1      15.587  15.055 -11.497  1.00  0.00     0.000 C 
BRANCH   7   8
ATOM      8  C   UNL     1      15.919  15.761 -12.824  1.00  0.00     0.000 C 
BRANCH   8   9
ATOM      9  C   UNL     1      17.371  15.535 -13.271  1.00  0.00     0.000 C 
BRANCH   9  10
ATOM     10  C   UNL     1      18.291  16.636 -12.724  1.00  0.00     0.006 C 
BRANCH  10  11
ATOM     11  C   UNL     1      17.501  17.814 -12.137  1.00  0.00     0.053 C 
BRANCH  11  12
ATOM     12  C   UNL     1      18.179  19.124 -12.401  1.00  0.00     0.041 C 
ATOM     13  O   UNL     1      18.702  19.353 -13.524  1.00  0.00    -0.550 OA
ATOM     14  O   UNL     1      18.257  20.081 -11.397  1.00  0.00    -0.550 OA
ENDBRANCH  11  12
ENDBRANCH  10  11
ENDBRANCH   9  10
ENDBRANCH   8   9
ENDBRANCH   7   8
ENDBRANCH   6   7
ENDBRANCH   5   6
ENDBRANCH   4   5
ENDBRANCH   3   4
ENDBRANCH   2   3
ENDBRANCH   1   2
BRANCH   1  15
ATOM     15  C   UNL     1      11.603  16.221  -4.744  1.00  0.00     0.000 C 
BRANCH  15  16
ATOM     16  C   UNL     1      10.675  14.997  -4.737  1.00  0.00     0.000 C 
BRANCH  16  17
ATOM     17  C   UNL     1      11.258  13.871  -3.875  1.00  0.00     0.000 C 
BRANCH  17  18
ATOM     18  C   UNL     1      10.338  13.556  -2.685  1.00  0.00    -0.000 C 
BRANCH  18  19
ATOM     19  C   UNL     1      10.723  14.334  -1.416  1.00  0.00    -0.000 C 
BRANCH  19  20
ATOM     20  C   UNL     1      10.719  13.451  -0.158  1.00  0.00    -0.000 C 
BRANCH  20  21
ATOM     21  C   UNL     1      12.133  13.186   0.389  1.00  0.00    -0.000 C 
BRANCH  21  22
ATOM     22  C   UNL     1      12.385  13.806   1.779  1.00  0.00    -0.000 C 
BRANCH  22  23
ATOM     23  C   UNL     1      11.353  14.895   2.125  1.00  0.00    -0.000 C 
BRANCH  23  24
ATOM     24  C   UNL     1      11.946  16.312   2.066  1.00  0.00    -0.000 C 
BRANCH  24  25
ATOM     25  C   UNL     1      10.878  17.390   1.825  1.00  0.00    -0.003 C 
ATOM     26  C   UNL     1       9.474  16.799   1.913  1.00  0.00     0.004 C 
ENDBRANCH  24  25
ENDBRANCH  23  24
ENDBRANCH  22  23
ENDBRANCH  21  22
ENDBRANCH  20  21
ENDBRANCH  19  20
ENDBRANCH  18  19
ENDBRANCH  17  18
ENDBRANCH  16  17
ENDBRANCH  15  16
ENDBRANCH   1  15
TORSDOF 22
ENDMDL
