MODEL 1
REMARK VINA RESULT:    -5.073      0.000      0.000
REMARK INTER + INTRA:          -5.950
REMARK INTER:                  -5.815
REMARK INTRA:                  -0.135
REMARK UNBOUND:                -0.135
REMARK SMILES O=C([O-])C=Cc1ccc(O)cc1
REMARK SMILES IDX 6 1 7 2 12 3 8 4 11 5 9 6 5 7 4 8 2 9 1 10 3 11 10 12
REMARK H PARENT 10 13
REMARK Flexibility Score: inf
ROOT
ATOM      1  C   UNL     1      29.908  -3.909  34.950  1.00  0.00    -0.025 A 
ATOM      2  C   UNL     1      31.271  -3.582  35.057  1.00  0.00     0.012 A 
ATOM      3  C   UNL     1      29.467  -4.626  33.818  1.00  0.00     0.012 A 
ATOM      4  C   UNL     1      32.169  -3.938  34.046  1.00  0.00     0.047 A 
ATOM      5  C   UNL     1      30.370  -4.980  32.810  1.00  0.00     0.047 A 
ATOM      6  C   UNL     1      31.723  -4.634  32.921  1.00  0.00     0.115 A 
ENDROOT
BRANCH   1   7
ATOM      7  C   UNL     1      28.996  -3.520  36.053  1.00  0.00     0.010 C 
ATOM      8  C   UNL     1      28.201  -2.441  36.017  1.00  0.00     0.025 C 
BRANCH   8   9
ATOM      9  C   UNL     1      27.320  -2.086  37.141  1.00  0.00     0.064 C 
ATOM     10  O   UNL     1      27.762  -2.138  38.318  1.00  0.00    -0.545 OA
ATOM     11  O   UNL     1      26.003  -1.694  36.924  1.00  0.00    -0.545 OA
ENDBRANCH   8   9
ENDBRANCH   1   7
BRANCH   6  12
ATOM     12  O   UNL     1      32.629  -4.982  31.922  1.00  0.00    -0.508 OA
ATOM     13  H   UNL     1      33.252  -5.775  32.024  1.00  0.00     0.293 HD
ENDBRANCH   6  12
TORSDOF 3
ENDMDL
MODEL 2
REMARK VINA RESULT:    -5.053      0.236      1.399
REMARK INTER + INTRA:          -5.926
REMARK INTER:                  -5.790
REMARK INTRA:                  -0.136
REMARK UNBOUND:                -0.135
REMARK SMILES O=C([O-])C=Cc1ccc(O)cc1
REMARK SMILES IDX 6 1 7 2 12 3 8 4 11 5 9 6 5 7 4 8 2 9 1 10 3 11 10 12
REMARK H PARENT 10 13
REMARK Flexibility Score: inf
ROOT
ATOM      1  C   UNL     1      30.009  -3.882  34.839  1.00  0.00    -0.025 A 
ATOM      2  C   UNL     1      29.609  -4.798  33.852  1.00  0.00     0.012 A 
ATOM      3  C   UNL     1      31.294  -3.308  34.755  1.00  0.00     0.012 A 
ATOM      4  C   UNL     1      30.480  -5.155  32.818  1.00  0.00     0.047 A 
ATOM      5  C   UNL     1      32.162  -3.667  33.718  1.00  0.00     0.047 A 
ATOM      6  C   UNL     1      31.757  -4.593  32.749  1.00  0.00     0.115 A 
ENDROOT
BRANCH   1   7
ATOM      7  C   UNL     1      29.046  -3.527  35.911  1.00  0.00     0.010 C 
ATOM      8  C   UNL     1      28.312  -2.406  35.913  1.00  0.00     0.025 C 
BRANCH   8   9
ATOM      9  C   UNL     1      27.376  -2.089  37.004  1.00  0.00     0.064 C 
ATOM     10  O   UNL     1      27.761  -2.185  38.199  1.00  0.00    -0.545 OA
ATOM     11  O   UNL     1      26.073  -1.685  36.737  1.00  0.00    -0.545 OA
ENDBRANCH   8   9
ENDBRANCH   1   7
BRANCH   6  12
ATOM     12  O   UNL     1      32.614  -4.958  31.713  1.00  0.00    -0.508 OA
ATOM     13  H   UNL     1      32.259  -5.248  30.809  1.00  0.00     0.293 HD
ENDBRANCH   6  12
TORSDOF 3
ENDMDL
MODEL 3
REMARK VINA RESULT:    -4.833      2.377      5.944
REMARK INTER + INTRA:          -5.674
REMARK INTER:                  -5.536
REMARK INTRA:                  -0.138
REMARK UNBOUND:                -0.135
REMARK SMILES O=C([O-])C=Cc1ccc(O)cc1
REMARK SMILES IDX 6 1 7 2 12 3 8 4 11 5 9 6 5 7 4 8 2 9 1 10 3 11 10 12
REMARK H PARENT 10 13
REMARK Flexibility Score: inf
ROOT
ATOM      1  C   UNL     1      27.371  -3.301  34.562  1.00  0.00    -0.025 A 
ATOM      2  C   UNL     1      26.189  -3.010  33.859  1.00  0.00     0.012 A 
ATOM      3  C   UNL     1      27.744  -2.471  35.639  1.00  0.00     0.012 A 
ATOM      4  C   UNL     1      25.411  -1.901  34.205  1.00  0.00     0.047 A 
ATOM      5  C   UNL     1      26.961  -1.364  35.983  1.00  0.00     0.047 A 
ATOM      6  C   UNL     1      25.794  -1.075  35.264  1.00  0.00     0.115 A 
ENDROOT
BRANCH   1   7
ATOM      7  C   UNL     1      28.158  -4.494  34.164  1.00  0.00     0.010 C 
ATOM      8  C   UNL     1      29.426  -4.709  34.537  1.00  0.00     0.025 C 
BRANCH   8   9
ATOM      9  C   UNL     1      30.173  -5.903  34.108  1.00  0.00     0.064 C 
ATOM     10  O   UNL     1      31.365  -5.785  33.722  1.00  0.00    -0.545 OA
ATOM     11  O   UNL     1      29.582  -7.162  34.123  1.00  0.00    -0.545 OA
ENDBRANCH   8   9
ENDBRANCH   1   7
BRANCH   6  12
ATOM     12  O   UNL     1      25.009   0.026  35.598  1.00  0.00    -0.508 OA
ATOM     13  H   UNL     1      24.005   0.024  35.454  1.00  0.00     0.293 HD
ENDBRANCH   6  12
TORSDOF 3
ENDMDL
MODEL 4
REMARK VINA RESULT:    -4.821      3.655      4.702
REMARK INTER + INTRA:          -5.660
REMARK INTER:                  -5.521
REMARK INTRA:                  -0.140
REMARK UNBOUND:                -0.135
REMARK SMILES O=C([O-])C=Cc1ccc(O)cc1
REMARK SMILES IDX 6 1 7 2 12 3 8 4 11 5 9 6 5 7 4 8 2 9 1 10 3 11 10 12
REMARK H PARENT 10 13
REMARK Flexibility Score: inf
ROOT
ATOM      1  C   UNL     1      29.755  -5.573  34.244  1.00  0.00    -0.025 A 
ATOM      2  C   UNL     1      29.987  -4.558  35.187  1.00  0.00     0.012 A 
ATOM      3  C   UNL     1      30.397  -5.498  32.990  1.00  0.00     0.012 A 
ATOM      4  C   UNL     1      30.820  -3.478  34.878  1.00  0.00     0.047 A 
ATOM      5  C   UNL     1      31.229  -4.416  32.687  1.00  0.00     0.047 A 
ATOM      6  C   UNL     1      31.440  -3.402  33.629  1.00  0.00     0.115 A 
ENDROOT
BRANCH   1   7
ATOM      7  C   UNL     1      28.872  -6.704  34.622  1.00  0.00     0.010 C 
ATOM      8  C   UNL     1      29.259  -7.987  34.613  1.00  0.00     0.025 C 
BRANCH   8   9
ATOM      9  C   UNL     1      28.344  -9.079  34.985  1.00  0.00     0.064 C 
ATOM     10  O   UNL     1      27.153  -8.813  35.294  1.00  0.00    -0.545 OA
ATOM     11  O   UNL     1      28.774 -10.401  34.999  1.00  0.00    -0.545 OA
ENDBRANCH   8   9
ENDBRANCH   1   7
BRANCH   6  12
ATOM     12  O   UNL     1      32.267  -2.320  33.336  1.00  0.00    -0.508 OA
ATOM     13  H   UNL     1      31.927  -1.366  33.379  1.00  0.00     0.293 HD
ENDBRANCH   6  12
TORSDOF 3
ENDMDL
MODEL 5
REMARK VINA RESULT:    -4.717      1.724      2.684
REMARK INTER + INTRA:          -5.541
REMARK INTER:                  -5.403
REMARK INTRA:                  -0.138
REMARK UNBOUND:                -0.135
REMARK SMILES O=C([O-])C=Cc1ccc(O)cc1
REMARK SMILES IDX 6 1 7 2 12 3 8 4 11 5 9 6 5 7 4 8 2 9 1 10 3 11 10 12
REMARK H PARENT 10 13
REMARK Flexibility Score: inf
ROOT
ATOM      1  C   UNL     1      28.265  -3.107  35.313  1.00  0.00    -0.025 A 
ATOM      2  C   UNL     1      27.819  -4.009  34.333  1.00  0.00     0.012 A 
ATOM      3  C   UNL     1      29.582  -3.230  35.803  1.00  0.00     0.012 A 
ATOM      4  C   UNL     1      28.658  -5.028  33.869  1.00  0.00     0.047 A 
ATOM      5  C   UNL     1      30.417  -4.250  35.336  1.00  0.00     0.047 A 
ATOM      6  C   UNL     1      29.956  -5.152  34.370  1.00  0.00     0.115 A 
ENDROOT
BRANCH   1   7
ATOM      7  C   UNL     1      27.342  -2.037  35.765  1.00  0.00     0.010 C 
ATOM      8  C   UNL     1      27.306  -1.563  37.018  1.00  0.00     0.025 C 
BRANCH   8   9
ATOM      9  C   UNL     1      26.364  -0.507  37.425  1.00  0.00     0.064 C 
ATOM     10  O   UNL     1      25.309  -0.328  36.764  1.00  0.00    -0.545 OA
ATOM     11  O   UNL     1      26.622   0.296  38.531  1.00  0.00    -0.545 OA
ENDBRANCH   8   9
ENDBRANCH   1   7
BRANCH   6  12
ATOM     12  O   UNL     1      30.780  -6.172  33.899  1.00  0.00    -0.508 OA
ATOM     13  H   UNL     1      30.416  -6.928  33.331  1.00  0.00     0.293 HD
ENDBRANCH   6  12
TORSDOF 3
ENDMDL
MODEL 6
REMARK VINA RESULT:    -4.661      1.661      5.701
REMARK INTER + INTRA:          -5.477
REMARK INTER:                  -5.329
REMARK INTRA:                  -0.148
REMARK UNBOUND:                -0.135
REMARK SMILES O=C([O-])C=Cc1ccc(O)cc1
REMARK SMILES IDX 6 1 7 2 12 3 8 4 11 5 9 6 5 7 4 8 2 9 1 10 3 11 10 12
REMARK H PARENT 10 13
REMARK Flexibility Score: inf
ROOT
ATOM      1  C   UNL     1      30.328  -4.511  34.384  1.00  0.00    -0.025 A 
ATOM      2  C   UNL     1      30.340  -3.526  35.387  1.00  0.00     0.012 A 
ATOM      3  C   UNL     1      29.107  -4.823  33.752  1.00  0.00     0.012 A 
ATOM      4  C   UNL     1      29.157  -2.885  35.768  1.00  0.00     0.047 A 
ATOM      5  C   UNL     1      27.926  -4.179  34.136  1.00  0.00     0.047 A 
ATOM      6  C   UNL     1      27.949  -3.211  35.148  1.00  0.00     0.115 A 
ENDROOT
BRANCH   1   7
ATOM      7  C   UNL     1      31.610  -5.155  34.006  1.00  0.00     0.010 C 
ATOM      8  C   UNL     1      32.805  -4.560  34.118  1.00  0.00     0.025 C 
BRANCH   8   9
ATOM      9  C   UNL     1      34.052  -5.234  33.719  1.00  0.00     0.064 C 
ATOM     10  O   UNL     1      34.484  -6.196  34.406  1.00  0.00    -0.545 OA
ATOM     11  O   UNL     1      34.760  -4.825  32.595  1.00  0.00    -0.545 OA
ENDBRANCH   8   9
ENDBRANCH   1   7
BRANCH   6  12
ATOM     12  O   UNL     1      26.779  -2.564  35.538  1.00  0.00    -0.508 OA
ATOM     13  H   UNL     1      26.802  -1.715  36.091  1.00  0.00     0.293 HD
ENDBRANCH   6  12
TORSDOF 3
ENDMDL
MODEL 7
REMARK VINA RESULT:    -4.612      3.253      4.562
REMARK INTER + INTRA:          -5.420
REMARK INTER:                  -5.286
REMARK INTRA:                  -0.135
REMARK UNBOUND:                -0.135
REMARK SMILES O=C([O-])C=Cc1ccc(O)cc1
REMARK SMILES IDX 6 1 7 2 12 3 8 4 11 5 9 6 5 7 4 8 2 9 1 10 3 11 10 12
REMARK H PARENT 10 13
REMARK Flexibility Score: inf
ROOT
ATOM      1  C   UNL     1      26.531  -2.544  34.671  1.00  0.00    -0.025 A 
ATOM      2  C   UNL     1      27.060  -3.635  33.962  1.00  0.00     0.012 A 
ATOM      3  C   UNL     1      27.274  -2.002  35.740  1.00  0.00     0.012 A 
ATOM      4  C   UNL     1      28.290  -4.191  34.326  1.00  0.00     0.047 A 
ATOM      5  C   UNL     1      28.505  -2.561  36.100  1.00  0.00     0.047 A 
ATOM      6  C   UNL     1      29.014  -3.658  35.395  1.00  0.00     0.115 A 
ENDROOT
BRANCH   1   7
ATOM      7  C   UNL     1      25.227  -1.982  34.240  1.00  0.00     0.010 C 
ATOM      8  C   UNL     1      24.289  -1.540  35.088  1.00  0.00     0.025 C 
BRANCH   8   9
ATOM      9  C   UNL     1      23.003  -1.000  34.616  1.00  0.00     0.064 C 
ATOM     10  O   UNL     1      22.971   0.126  34.055  1.00  0.00    -0.545 OA
ATOM     11  O   UNL     1      21.822  -1.716  34.778  1.00  0.00    -0.545 OA
ENDBRANCH   8   9
ENDBRANCH   1   7
BRANCH   6  12
ATOM     12  O   UNL     1      30.238  -4.222  35.747  1.00  0.00    -0.508 OA
ATOM     13  H   UNL     1      30.414  -5.215  35.640  1.00  0.00     0.293 HD
ENDBRANCH   6  12
TORSDOF 3
ENDMDL
MODEL 8
REMARK VINA RESULT:    -4.584      1.740      6.075
REMARK INTER + INTRA:          -5.388
REMARK INTER:                  -5.248
REMARK INTRA:                  -0.140
REMARK UNBOUND:                -0.135
REMARK SMILES O=C([O-])C=Cc1ccc(O)cc1
REMARK SMILES IDX 6 1 7 2 12 3 8 4 11 5 9 6 5 7 4 8 2 9 1 10 3 11 10 12
REMARK H PARENT 10 13
REMARK Flexibility Score: inf
ROOT
ATOM      1  C   UNL     1      31.069  -4.549  33.789  1.00  0.00    -0.025 A 
ATOM      2  C   UNL     1      31.143  -3.552  34.776  1.00  0.00     0.012 A 
ATOM      3  C   UNL     1      29.802  -5.039  33.410  1.00  0.00     0.012 A 
ATOM      4  C   UNL     1      29.982  -3.071  35.391  1.00  0.00     0.047 A 
ATOM      5  C   UNL     1      28.643  -4.554  34.027  1.00  0.00     0.047 A 
ATOM      6  C   UNL     1      28.732  -3.571  35.020  1.00  0.00     0.115 A 
ENDROOT
BRANCH   1   7
ATOM      7  C   UNL     1      32.327  -5.019  33.159  1.00  0.00     0.010 C 
ATOM      8  C   UNL     1      33.177  -4.218  32.503  1.00  0.00     0.025 C 
BRANCH   8   9
ATOM      9  C   UNL     1      34.409  -4.731  31.882  1.00  0.00     0.064 C 
ATOM     10  O   UNL     1      35.414  -4.969  32.602  1.00  0.00    -0.545 OA
ATOM     11  O   UNL     1      34.482  -4.958  30.512  1.00  0.00    -0.545 OA
ENDBRANCH   8   9
ENDBRANCH   1   7
BRANCH   6  12
ATOM     12  O   UNL     1      27.584  -3.084  35.641  1.00  0.00    -0.508 OA
ATOM     13  H   UNL     1      26.874  -2.579  35.122  1.00  0.00     0.293 HD
ENDBRANCH   6  12
TORSDOF 3
ENDMDL
MODEL 9
REMARK VINA RESULT:    -4.342      5.018      6.731
REMARK INTER + INTRA:          -5.111
REMARK INTER:                  -4.968
REMARK INTRA:                  -0.143
REMARK UNBOUND:                -0.135
REMARK SMILES O=C([O-])C=Cc1ccc(O)cc1
REMARK SMILES IDX 6 1 7 2 12 3 8 4 11 5 9 6 5 7 4 8 2 9 1 10 3 11 10 12
REMARK H PARENT 10 13
REMARK Flexibility Score: inf
ROOT
ATOM      1  C   UNL     1      23.731  -0.947  35.794  1.00  0.00    -0.025 A 
ATOM      2  C   UNL     1      25.106  -0.824  36.056  1.00  0.00     0.012 A 
ATOM      3  C   UNL     1      23.311  -1.780  34.735  1.00  0.00     0.012 A 
ATOM      4  C   UNL     1      26.043  -1.495  35.265  1.00  0.00     0.047 A 
ATOM      5  C   UNL     1      24.253  -2.449  33.947  1.00  0.00     0.047 A 
ATOM      6  C   UNL     1      25.621  -2.306  34.209  1.00  0.00     0.115 A 
ENDROOT
BRANCH   1   7
ATOM      7  C   UNL     1      22.774  -0.224  36.667  1.00  0.00     0.010 C 
ATOM      8  C   UNL     1      22.937   1.045  37.062  1.00  0.00     0.025 C 
BRANCH   8   9
ATOM      9  C   UNL     1      21.967   1.719  37.940  1.00  0.00     0.064 C 
ATOM     10  O   UNL     1      22.104   1.647  39.189  1.00  0.00    -0.545 OA
ATOM     11  O   UNL     1      20.899   2.437  37.411  1.00  0.00    -0.545 OA
ENDBRANCH   8   9
ENDBRANCH   1   7
BRANCH   6  12
ATOM     12  O   UNL     1      26.567  -2.968  33.429  1.00  0.00    -0.508 OA
ATOM     13  H   UNL     1      27.152  -2.470  32.768  1.00  0.00     0.293 HD
ENDBRANCH   6  12
TORSDOF 3
ENDMDL
