MODEL 1
REMARK VINA RESULT:    -1.868      0.000      0.000
REMARK INTER + INTRA:          -1.923
REMARK INTER:                  -1.923
REMARK INTRA:                   0.000
REMARK UNBOUND:                 0.000
REMARK SMILES O=c1ccc2ccc(O)cc2o1
REMARK SMILES IDX 6 1 7 2 8 3 10 4 11 5 5 6 4 7 3 8 2 9 1 10 12 11 9 12
REMARK H PARENT 9 13
REMARK Flexibility Score: inf
ROOT
ATOM      1  C   UNL     1      -5.434  -2.456   2.515  1.00  0.00     0.016 A 
ATOM      2  C   UNL     1      -5.855  -2.979   1.288  1.00  0.00     0.047 A 
ATOM      3  C   UNL     1      -5.209  -2.606   0.101  1.00  0.00     0.119 A 
ATOM      4  C   UNL     1      -4.139  -1.705   0.141  1.00  0.00     0.094 A 
ATOM      5  C   UNL     1      -3.711  -1.175   1.363  1.00  0.00     0.142 A 
ATOM      6  C   UNL     1      -4.362  -1.553   2.558  1.00  0.00     0.018 A 
ATOM      7  C   UNL     1      -3.911  -1.007   3.764  1.00  0.00     0.019 A 
ATOM      8  C   UNL     1      -2.841  -0.113   3.753  1.00  0.00     0.094 A 
ATOM      9  C   UNL     1      -2.244   0.215   2.531  1.00  0.00     0.336 A 
ATOM     10  O   UNL     1      -1.277   1.020   2.500  1.00  0.00    -0.246 OA
ATOM     11  O   UNL     1      -2.692  -0.319   1.397  1.00  0.00    -0.423 OA
ENDROOT
BRANCH   3  12
ATOM     12  O   UNL     1      -5.623  -3.124  -1.125  1.00  0.00    -0.508 OA
ATOM     13  H   UNL     1      -5.302  -4.027  -1.454  1.00  0.00     0.293 HD
ENDBRANCH   3  12
TORSDOF 1
ENDMDL
MODEL 2
REMARK VINA RESULT:    -1.304      0.943      4.264
REMARK INTER + INTRA:          -1.342
REMARK INTER:                  -1.342
REMARK INTRA:                   0.000
REMARK UNBOUND:                 0.000
REMARK SMILES O=c1ccc2ccc(O)cc2o1
REMARK SMILES IDX 6 1 7 2 8 3 10 4 11 5 5 6 4 7 3 8 2 9 1 10 12 11 9 12
REMARK H PARENT 9 13
REMARK Flexibility Score: inf
ROOT
ATOM      1  C   UNL     1      -4.127  -0.334   3.821  1.00  0.00     0.016 A 
ATOM      2  C   UNL     1      -2.885   0.234   4.119  1.00  0.00     0.047 A 
ATOM      3  C   UNL     1      -1.865   0.252   3.156  1.00  0.00     0.119 A 
ATOM      4  C   UNL     1      -2.090  -0.301   1.890  1.00  0.00     0.094 A 
ATOM      5  C   UNL     1      -3.330  -0.872   1.582  1.00  0.00     0.142 A 
ATOM      6  C   UNL     1      -4.355  -0.888   2.553  1.00  0.00     0.018 A 
ATOM      7  C   UNL     1      -5.583  -1.466   2.216  1.00  0.00     0.019 A 
ATOM      8  C   UNL     1      -5.760  -2.004   0.941  1.00  0.00     0.094 A 
ATOM      9  C   UNL     1      -4.699  -1.951   0.030  1.00  0.00     0.336 A 
ATOM     10  O   UNL     1      -4.838  -2.432  -1.125  1.00  0.00    -0.246 OA
ATOM     11  O   UNL     1      -3.540  -1.396   0.377  1.00  0.00    -0.423 OA
ENDROOT
BRANCH   3  12
ATOM     12  O   UNL     1      -0.625   0.817   3.447  1.00  0.00    -0.508 OA
ATOM     13  H   UNL     1      -0.539   1.617   4.063  1.00  0.00     0.293 HD
ENDBRANCH   3  12
TORSDOF 1
ENDMDL
