MODEL 1
REMARK VINA RESULT:    -7.471      0.000      0.000
REMARK INTER + INTRA:          -9.142
REMARK INTER:                  -9.000
REMARK INTRA:                  -0.142
REMARK UNBOUND:                -0.142
REMARK SMILES O=c1c(O)c(-c2ccc(O)c(O)c2)oc2cc(O)cc(O)c12
REMARK SMILES IDX 5 1 3 2 2 3 1 4 22 5 20 6 19 7 17 8 16 9 15 10 14 11 6 12
REMARK SMILES IDX 7 13 8 14 9 15 13 16 11 17 10 18 12 20 4 22 21 24 18 26
REMARK H PARENT 10 19 12 21 4 23 21 25 18 27
REMARK Flexibility Score: inf
ROOT
ATOM      1  C   UNL     1      25.160 -26.062  28.000  1.00  0.00     0.180 A 
ATOM      2  C   UNL     1      24.374 -25.019  28.520  1.00  0.00     0.208 A 
ATOM      3  C   UNL     1      23.721 -24.151  27.632  1.00  0.00     0.238 A 
ATOM      4  O   UNL     1      23.080 -23.176  28.103  1.00  0.00    -0.285 OA
ATOM      5  C   UNL     1      23.814 -24.369  26.235  1.00  0.00     0.111 A 
ATOM      6  C   UNL     1      23.157 -23.578  25.243  1.00  0.00     0.134 A 
ATOM      7  C   UNL     1      23.409 -23.823  23.888  1.00  0.00     0.093 A 
ATOM      8  C   UNL     1      24.243 -24.869  23.486  1.00  0.00     0.123 A 
ATOM      9  C   UNL     1      24.845 -25.680  24.445  1.00  0.00     0.094 A 
ATOM     10  C   UNL     1      24.644 -25.437  25.806  1.00  0.00     0.146 A 
ATOM     11  O   UNL     1      25.255 -26.222  26.685  1.00  0.00    -0.452 OA
ENDROOT
BRANCH   1  12
ATOM     12  C   UNL     1      25.891 -27.008  28.873  1.00  0.00     0.025 A 
ATOM     13  C   UNL     1      27.293 -27.021  28.855  1.00  0.00     0.016 A 
ATOM     14  C   UNL     1      28.003 -27.890  29.685  1.00  0.00     0.051 A 
ATOM     15  C   UNL     1      27.331 -28.751  30.559  1.00  0.00     0.157 A 
ATOM     16  C   UNL     1      25.213 -27.855  29.766  1.00  0.00     0.062 A 
ATOM     17  C   UNL     1      25.917 -28.728  30.605  1.00  0.00     0.158 A 
BRANCH  15  18
ATOM     18  O   UNL     1      28.099 -29.601  31.357  1.00  0.00    -0.504 OA
ATOM     19  H   UNL     1      29.020 -29.373  31.701  1.00  0.00     0.293 HD
ENDBRANCH  15  18
BRANCH  17  20
ATOM     20  O   UNL     1      25.178 -29.542  31.466  1.00  0.00    -0.504 OA
ATOM     21  H   UNL     1      24.266 -29.299  31.829  1.00  0.00     0.293 HD
ENDBRANCH  17  20
ENDBRANCH   1  12
BRANCH   2  22
ATOM     22  O   UNL     1      24.233 -24.867  29.902  1.00  0.00    -0.502 OA
ATOM     23  H   UNL     1      23.552 -24.241  30.314  1.00  0.00     0.293 HD
ENDBRANCH   2  22
BRANCH   6  24
ATOM     24  O   UNL     1      22.236 -22.567  25.532  1.00  0.00    -0.507 OA
ATOM     25  H   UNL     1      22.297 -21.937  26.316  1.00  0.00     0.293 HD
ENDBRANCH   6  24
BRANCH   8  26
ATOM     26  O   UNL     1      24.473 -25.116  22.135  1.00  0.00    -0.508 OA
ATOM     27  H   UNL     1      24.075 -25.923  21.668  1.00  0.00     0.293 HD
ENDBRANCH   8  26
TORSDOF 6
ENDMDL
MODEL 2
REMARK VINA RESULT:    -7.405      3.915      7.224
REMARK INTER + INTRA:          -9.062
REMARK INTER:                  -8.791
REMARK INTRA:                  -0.271
REMARK UNBOUND:                -0.142
REMARK SMILES O=c1c(O)c(-c2ccc(O)c(O)c2)oc2cc(O)cc(O)c12
REMARK SMILES IDX 5 1 3 2 2 3 1 4 22 5 20 6 19 7 17 8 16 9 15 10 14 11 6 12
REMARK SMILES IDX 7 13 8 14 9 15 13 16 11 17 10 18 12 20 4 22 21 24 18 26
REMARK H PARENT 10 19 12 21 4 23 21 25 18 27
REMARK Flexibility Score: inf
ROOT
ATOM      1  C   UNL     1      23.490 -21.347  27.024  1.00  0.00     0.180 A 
ATOM      2  C   UNL     1      22.987 -22.277  27.950  1.00  0.00     0.208 A 
ATOM      3  C   UNL     1      22.887 -23.626  27.574  1.00  0.00     0.238 A 
ATOM      4  O   UNL     1      22.366 -24.439  28.380  1.00  0.00    -0.285 OA
ATOM      5  C   UNL     1      23.343 -24.038  26.298  1.00  0.00     0.111 A 
ATOM      6  C   UNL     1      23.331 -25.387  25.827  1.00  0.00     0.134 A 
ATOM      7  C   UNL     1      23.709 -25.660  24.507  1.00  0.00     0.093 A 
ATOM      8  C   UNL     1      24.158 -24.644  23.660  1.00  0.00     0.123 A 
ATOM      9  C   UNL     1      24.226 -23.334  24.128  1.00  0.00     0.094 A 
ATOM     10  C   UNL     1      23.819 -23.023  25.427  1.00  0.00     0.146 A 
ATOM     11  O   UNL     1      23.880 -21.758  25.823  1.00  0.00    -0.452 OA
ENDROOT
BRANCH   1  12
ATOM     12  C   UNL     1      23.612 -19.906  27.342  1.00  0.00     0.025 A 
ATOM     13  C   UNL     1      24.672 -19.466  28.149  1.00  0.00     0.016 A 
ATOM     14  C   UNL     1      24.819 -18.109  28.444  1.00  0.00     0.051 A 
ATOM     15  C   UNL     1      23.923 -17.165  27.931  1.00  0.00     0.157 A 
ATOM     16  C   UNL     1      22.725 -18.958  26.806  1.00  0.00     0.062 A 
ATOM     17  C   UNL     1      22.865 -17.595  27.095  1.00  0.00     0.158 A 
BRANCH  15  18
ATOM     18  O   UNL     1      24.121 -15.825  28.271  1.00  0.00    -0.504 OA
ATOM     19  H   UNL     1      24.883 -15.495  28.843  1.00  0.00     0.293 HD
ENDBRANCH  15  18
BRANCH  17  20
ATOM     20  O   UNL     1      21.945 -16.710  26.528  1.00  0.00    -0.504 OA
ATOM     21  H   UNL     1      21.215 -16.245  27.050  1.00  0.00     0.293 HD
ENDBRANCH  17  20
ENDBRANCH   1  12
BRANCH   2  22
ATOM     22  O   UNL     1      22.613 -21.863  29.231  1.00  0.00    -0.502 OA
ATOM     23  H   UNL     1      23.253 -21.874  30.016  1.00  0.00     0.293 HD
ENDBRANCH   2  22
BRANCH   6  24
ATOM     24  O   UNL     1      22.984 -26.488  26.616  1.00  0.00    -0.507 OA
ATOM     25  H   UNL     1      22.065 -26.665  26.989  1.00  0.00     0.293 HD
ENDBRANCH   6  24
BRANCH   8  26
ATOM     26  O   UNL     1      24.549 -24.929  22.354  1.00  0.00    -0.508 OA
ATOM     27  H   UNL     1      23.885 -25.252  21.660  1.00  0.00     0.293 HD
ENDBRANCH   8  26
TORSDOF 6
ENDMDL
MODEL 3
REMARK VINA RESULT:    -7.295      1.855      6.628
REMARK INTER + INTRA:          -8.930
REMARK INTER:                  -8.654
REMARK INTRA:                  -0.276
REMARK UNBOUND:                -0.142
REMARK SMILES O=c1c(O)c(-c2ccc(O)c(O)c2)oc2cc(O)cc(O)c12
REMARK SMILES IDX 5 1 3 2 2 3 1 4 22 5 20 6 19 7 17 8 16 9 15 10 14 11 6 12
REMARK SMILES IDX 7 13 8 14 9 15 13 16 11 17 10 18 12 20 4 22 21 24 18 26
REMARK H PARENT 10 19 12 21 4 23 21 25 18 27
REMARK Flexibility Score: inf
ROOT
ATOM      1  C   UNL     1      25.755 -26.047  27.530  1.00  0.00     0.180 A 
ATOM      2  C   UNL     1      25.356 -25.128  28.516  1.00  0.00     0.208 A 
ATOM      3  C   UNL     1      25.704 -25.373  29.854  1.00  0.00     0.238 A 
ATOM      4  O   UNL     1      25.280 -24.586  30.740  1.00  0.00    -0.285 OA
ATOM      5  C   UNL     1      26.492 -26.502  30.183  1.00  0.00     0.111 A 
ATOM      6  C   UNL     1      26.941 -26.824  31.501  1.00  0.00     0.134 A 
ATOM      7  C   UNL     1      27.626 -28.025  31.722  1.00  0.00     0.093 A 
ATOM      8  C   UNL     1      27.935 -28.884  30.665  1.00  0.00     0.123 A 
ATOM      9  C   UNL     1      27.551 -28.552  29.368  1.00  0.00     0.094 A 
ATOM     10  C   UNL     1      26.831 -27.380  29.121  1.00  0.00     0.146 A 
ATOM     11  O   UNL     1      26.466 -27.114  27.873  1.00  0.00    -0.452 OA
ENDROOT
BRANCH   1  12
ATOM     12  C   UNL     1      25.414 -25.865  26.100  1.00  0.00     0.025 A 
ATOM     13  C   UNL     1      26.145 -24.950  25.329  1.00  0.00     0.016 A 
ATOM     14  C   UNL     1      25.855 -24.778  23.974  1.00  0.00     0.051 A 
ATOM     15  C   UNL     1      24.843 -25.523  23.360  1.00  0.00     0.157 A 
ATOM     16  C   UNL     1      24.413 -26.633  25.482  1.00  0.00     0.062 A 
ATOM     17  C   UNL     1      24.117 -26.468  24.122  1.00  0.00     0.158 A 
BRANCH  15  18
ATOM     18  O   UNL     1      24.598 -25.298  22.004  1.00  0.00    -0.504 OA
ATOM     19  H   UNL     1      24.718 -25.995  21.285  1.00  0.00     0.293 HD
ENDBRANCH  15  18
BRANCH  17  20
ATOM     20  O   UNL     1      23.108 -27.263  23.575  1.00  0.00    -0.504 OA
ATOM     21  H   UNL     1      22.879 -28.191  23.903  1.00  0.00     0.293 HD
ENDBRANCH  17  20
ENDBRANCH   1  12
BRANCH   2  22
ATOM     22  O   UNL     1      24.644 -23.980  28.162  1.00  0.00    -0.502 OA
ATOM     23  H   UNL     1      23.807 -23.686  28.650  1.00  0.00     0.293 HD
ENDBRANCH   2  22
BRANCH   6  24
ATOM     24  O   UNL     1      26.763 -25.995  32.613  1.00  0.00    -0.507 OA
ATOM     25  H   UNL     1      27.509 -25.604  33.166  1.00  0.00     0.293 HD
ENDBRANCH   6  24
BRANCH   8  26
ATOM     26  O   UNL     1      28.634 -30.068  30.892  1.00  0.00    -0.508 OA
ATOM     27  H   UNL     1      29.098 -30.562  30.139  1.00  0.00     0.293 HD
ENDBRANCH   8  26
TORSDOF 6
ENDMDL
MODEL 4
REMARK VINA RESULT:    -7.183      7.793     10.346
REMARK INTER + INTRA:          -8.795
REMARK INTER:                  -8.505
REMARK INTRA:                  -0.291
REMARK UNBOUND:                -0.142
REMARK SMILES O=c1c(O)c(-c2ccc(O)c(O)c2)oc2cc(O)cc(O)c12
REMARK SMILES IDX 5 1 3 2 2 3 1 4 22 5 20 6 19 7 17 8 16 9 15 10 14 11 6 12
REMARK SMILES IDX 7 13 8 14 9 15 13 16 11 17 10 18 12 20 4 22 21 24 18 26
REMARK H PARENT 10 19 12 21 4 23 21 25 18 27
REMARK Flexibility Score: inf
ROOT
ATOM      1  C   UNL     1      26.373 -28.126  37.272  1.00  0.00     0.180 A 
ATOM      2  C   UNL     1      27.018 -26.914  37.577  1.00  0.00     0.208 A 
ATOM      3  C   UNL     1      27.918 -26.369  36.647  1.00  0.00     0.238 A 
ATOM      4  O   UNL     1      28.547 -25.325  36.959  1.00  0.00    -0.285 OA
ATOM      5  C   UNL     1      28.120 -27.012  35.401  1.00  0.00     0.111 A 
ATOM      6  C   UNL     1      28.976 -26.524  34.366  1.00  0.00     0.134 A 
ATOM      7  C   UNL     1      29.179 -27.300  33.217  1.00  0.00     0.093 A 
ATOM      8  C   UNL     1      28.510 -28.513  33.039  1.00  0.00     0.123 A 
ATOM      9  C   UNL     1      27.631 -28.969  34.018  1.00  0.00     0.094 A 
ATOM     10  C   UNL     1      27.437 -28.238  35.192  1.00  0.00     0.146 A 
ATOM     11  O   UNL     1      26.608 -28.721  36.109  1.00  0.00    -0.452 OA
ENDROOT
BRANCH   1  12
ATOM     12  C   UNL     1      25.423 -28.769  38.207  1.00  0.00     0.025 A 
ATOM     13  C   UNL     1      24.102 -28.304  38.275  1.00  0.00     0.016 A 
ATOM     14  C   UNL     1      23.183 -28.909  39.134  1.00  0.00     0.051 A 
ATOM     15  C   UNL     1      23.558 -29.997  39.929  1.00  0.00     0.157 A 
ATOM     16  C   UNL     1      25.797 -29.877  38.986  1.00  0.00     0.062 A 
ATOM     17  C   UNL     1      24.881 -30.492  39.849  1.00  0.00     0.158 A 
BRANCH  15  18
ATOM     18  O   UNL     1      22.593 -30.552  40.773  1.00  0.00    -0.504 OA
ATOM     19  H   UNL     1      21.764 -31.026  40.447  1.00  0.00     0.293 HD
ENDBRANCH  15  18
BRANCH  17  20
ATOM     20  O   UNL     1      25.323 -31.587  40.595  1.00  0.00    -0.504 OA
ATOM     21  H   UNL     1      24.756 -32.070  41.279  1.00  0.00     0.293 HD
ENDBRANCH  17  20
ENDBRANCH   1  12
BRANCH   2  22
ATOM     22  O   UNL     1      26.748 -26.257  38.779  1.00  0.00    -0.502 OA
ATOM     23  H   UNL     1      27.472 -25.820  39.336  1.00  0.00     0.293 HD
ENDBRANCH   2  22
BRANCH   6  24
ATOM     24  O   UNL     1      29.623 -25.286  34.402  1.00  0.00    -0.507 OA
ATOM     25  H   UNL     1      29.170 -24.402  34.573  1.00  0.00     0.293 HD
ENDBRANCH   6  24
BRANCH   8  26
ATOM     26  O   UNL     1      28.705 -29.269  31.885  1.00  0.00    -0.508 OA
ATOM     27  H   UNL     1      28.651 -28.852  30.963  1.00  0.00     0.293 HD
ENDBRANCH   8  26
TORSDOF 6
ENDMDL
MODEL 5
REMARK VINA RESULT:    -7.146      2.272      2.939
REMARK INTER + INTRA:          -8.750
REMARK INTER:                  -8.431
REMARK INTRA:                  -0.320
REMARK UNBOUND:                -0.142
REMARK SMILES O=c1c(O)c(-c2ccc(O)c(O)c2)oc2cc(O)cc(O)c12
REMARK SMILES IDX 5 1 3 2 2 3 1 4 22 5 20 6 19 7 17 8 16 9 15 10 14 11 6 12
REMARK SMILES IDX 7 13 8 14 9 15 13 16 11 17 10 18 12 20 4 22 21 24 18 26
REMARK H PARENT 10 19 12 21 4 23 21 25 18 27
REMARK Flexibility Score: inf
ROOT
ATOM      1  C   UNL     1      26.503 -26.534  28.148  1.00  0.00     0.180 A 
ATOM      2  C   UNL     1      25.249 -26.740  27.546  1.00  0.00     0.208 A 
ATOM      3  C   UNL     1      24.911 -25.993  26.406  1.00  0.00     0.238 A 
ATOM      4  O   UNL     1      23.760 -26.128  25.917  1.00  0.00    -0.285 OA
ATOM      5  C   UNL     1      25.851 -25.092  25.849  1.00  0.00     0.111 A 
ATOM      6  C   UNL     1      25.632 -24.316  24.669  1.00  0.00     0.134 A 
ATOM      7  C   UNL     1      26.594 -23.379  24.271  1.00  0.00     0.093 A 
ATOM      8  C   UNL     1      27.793 -23.234  24.973  1.00  0.00     0.123 A 
ATOM      9  C   UNL     1      28.039 -24.025  26.092  1.00  0.00     0.094 A 
ATOM     10  C   UNL     1      27.083 -24.942  26.537  1.00  0.00     0.146 A 
ATOM     11  O   UNL     1      27.351 -25.659  27.621  1.00  0.00    -0.452 OA
ENDROOT
BRANCH   1  12
ATOM     12  C   UNL     1      26.925 -27.273  29.359  1.00  0.00     0.025 A 
ATOM     13  C   UNL     1      26.559 -26.789  30.624  1.00  0.00     0.016 A 
ATOM     14  C   UNL     1      26.928 -27.480  31.779  1.00  0.00     0.051 A 
ATOM     15  C   UNL     1      27.654 -28.673  31.696  1.00  0.00     0.157 A 
ATOM     16  C   UNL     1      27.633 -28.483  29.271  1.00  0.00     0.062 A 
ATOM     17  C   UNL     1      28.006 -29.185  30.425  1.00  0.00     0.158 A 
BRANCH  15  18
ATOM     18  O   UNL     1      27.998 -29.312  32.889  1.00  0.00    -0.504 OA
ATOM     19  H   UNL     1      28.358 -28.834  33.702  1.00  0.00     0.293 HD
ENDBRANCH  15  18
BRANCH  17  20
ATOM     20  O   UNL     1      28.710 -30.380  30.262  1.00  0.00    -0.504 OA
ATOM     21  H   UNL     1      28.606 -31.183  30.866  1.00  0.00     0.293 HD
ENDBRANCH  17  20
ENDBRANCH   1  12
BRANCH   2  22
ATOM     22  O   UNL     1      24.366 -27.688  28.066  1.00  0.00    -0.502 OA
ATOM     23  H   UNL     1      24.091 -28.517  27.553  1.00  0.00     0.293 HD
ENDBRANCH   2  22
BRANCH   6  24
ATOM     24  O   UNL     1      24.510 -24.444  23.844  1.00  0.00    -0.507 OA
ATOM     25  H   UNL     1      24.011 -23.676  23.425  1.00  0.00     0.293 HD
ENDBRANCH   6  24
BRANCH   8  26
ATOM     26  O   UNL     1      28.751 -22.312  24.559  1.00  0.00    -0.508 OA
ATOM     27  H   UNL     1      29.174 -22.364  23.640  1.00  0.00     0.293 HD
ENDBRANCH   8  26
TORSDOF 6
ENDMDL
MODEL 6
REMARK VINA RESULT:    -7.111      4.484      6.672
REMARK INTER + INTRA:          -8.708
REMARK INTER:                  -8.403
REMARK INTRA:                  -0.305
REMARK UNBOUND:                -0.142
REMARK SMILES O=c1c(O)c(-c2ccc(O)c(O)c2)oc2cc(O)cc(O)c12
REMARK SMILES IDX 5 1 3 2 2 3 1 4 22 5 20 6 19 7 17 8 16 9 15 10 14 11 6 12
REMARK SMILES IDX 7 13 8 14 9 15 13 16 11 17 10 18 12 20 4 22 21 24 18 26
REMARK H PARENT 10 19 12 21 4 23 21 25 18 27
REMARK Flexibility Score: inf
ROOT
ATOM      1  C   UNL     1      24.364 -22.036  26.093  1.00  0.00     0.180 A 
ATOM      2  C   UNL     1      25.132 -22.071  27.270  1.00  0.00     0.208 A 
ATOM      3  C   UNL     1      25.096 -20.970  28.139  1.00  0.00     0.238 A 
ATOM      4  O   UNL     1      25.842 -20.977  29.152  1.00  0.00    -0.285 OA
ATOM      5  C   UNL     1      24.250 -19.871  27.851  1.00  0.00     0.111 A 
ATOM      6  C   UNL     1      24.100 -18.720  28.684  1.00  0.00     0.134 A 
ATOM      7  C   UNL     1      23.315 -17.648  28.244  1.00  0.00     0.093 A 
ATOM      8  C   UNL     1      22.624 -17.709  27.032  1.00  0.00     0.123 A 
ATOM      9  C   UNL     1      22.720 -18.850  26.238  1.00  0.00     0.094 A 
ATOM     10  C   UNL     1      23.526 -19.921  26.631  1.00  0.00     0.146 A 
ATOM     11  O   UNL     1      23.606 -20.978  25.833  1.00  0.00    -0.452 OA
ENDROOT
BRANCH   1  12
ATOM     12  C   UNL     1      24.362 -23.153  25.120  1.00  0.00     0.025 A 
ATOM     13  C   UNL     1      25.210 -23.096  24.004  1.00  0.00     0.016 A 
ATOM     14  C   UNL     1      25.239 -24.147  23.086  1.00  0.00     0.051 A 
ATOM     15  C   UNL     1      24.438 -25.279  23.270  1.00  0.00     0.157 A 
ATOM     16  C   UNL     1      23.574 -24.298  25.321  1.00  0.00     0.062 A 
ATOM     17  C   UNL     1      23.599 -25.359  24.407  1.00  0.00     0.158 A 
BRANCH  15  18
ATOM     18  O   UNL     1      24.509 -26.292  22.311  1.00  0.00    -0.504 OA
ATOM     19  H   UNL     1      23.835 -26.416  21.570  1.00  0.00     0.293 HD
ENDBRANCH  15  18
BRANCH  17  20
ATOM     20  O   UNL     1      22.788 -26.465  24.669  1.00  0.00    -0.504 OA
ATOM     21  H   UNL     1      22.084 -26.813  24.032  1.00  0.00     0.293 HD
ENDBRANCH  17  20
ENDBRANCH   1  12
BRANCH   2  22
ATOM     22  O   UNL     1      25.902 -23.197  27.575  1.00  0.00    -0.502 OA
ATOM     23  H   UNL     1      26.785 -23.392  27.120  1.00  0.00     0.293 HD
ENDBRANCH   2  22
BRANCH   6  24
ATOM     24  O   UNL     1      24.673 -18.592  29.953  1.00  0.00    -0.507 OA
ATOM     25  H   UNL     1      25.512 -18.072  30.158  1.00  0.00     0.293 HD
ENDBRANCH   6  24
BRANCH   8  26
ATOM     26  O   UNL     1      21.831 -16.644  26.611  1.00  0.00    -0.508 OA
ATOM     27  H   UNL     1      21.910 -15.726  27.032  1.00  0.00     0.293 HD
ENDBRANCH   8  26
TORSDOF 6
ENDMDL
MODEL 7
REMARK VINA RESULT:    -7.063      1.985      2.958
REMARK INTER + INTRA:          -8.651
REMARK INTER:                  -8.417
REMARK INTRA:                  -0.233
REMARK UNBOUND:                -0.142
REMARK SMILES O=c1c(O)c(-c2ccc(O)c(O)c2)oc2cc(O)cc(O)c12
REMARK SMILES IDX 5 1 3 2 2 3 1 4 22 5 20 6 19 7 17 8 16 9 15 10 14 11 6 12
REMARK SMILES IDX 7 13 8 14 9 15 13 16 11 17 10 18 12 20 4 22 21 24 18 26
REMARK H PARENT 10 19 12 21 4 23 21 25 18 27
REMARK Flexibility Score: inf
ROOT
ATOM      1  C   UNL     1      26.471 -26.695  28.114  1.00  0.00     0.180 A 
ATOM      2  C   UNL     1      27.359 -26.064  27.225  1.00  0.00     0.208 A 
ATOM      3  C   UNL     1      26.843 -25.429  26.084  1.00  0.00     0.238 A 
ATOM      4  O   UNL     1      27.649 -24.932  25.255  1.00  0.00    -0.285 OA
ATOM      5  C   UNL     1      25.444 -25.384  25.874  1.00  0.00     0.111 A 
ATOM      6  C   UNL     1      24.807 -24.729  24.775  1.00  0.00     0.134 A 
ATOM      7  C   UNL     1      23.421 -24.841  24.614  1.00  0.00     0.093 A 
ATOM      8  C   UNL     1      22.640 -25.530  25.545  1.00  0.00     0.123 A 
ATOM      9  C   UNL     1      23.245 -26.124  26.650  1.00  0.00     0.094 A 
ATOM     10  C   UNL     1      24.630 -26.064  26.818  1.00  0.00     0.146 A 
ATOM     11  O   UNL     1      25.166 -26.664  27.873  1.00  0.00    -0.452 OA
ENDROOT
BRANCH   1  12
ATOM     12  C   UNL     1      26.941 -27.397  29.330  1.00  0.00     0.025 A 
ATOM     13  C   UNL     1      26.609 -26.885  30.592  1.00  0.00     0.016 A 
ATOM     14  C   UNL     1      27.023 -27.542  31.752  1.00  0.00     0.051 A 
ATOM     15  C   UNL     1      27.762 -28.727  31.677  1.00  0.00     0.157 A 
ATOM     16  C   UNL     1      27.662 -28.600  29.250  1.00  0.00     0.062 A 
ATOM     17  C   UNL     1      28.080 -29.267  30.408  1.00  0.00     0.158 A 
BRANCH  15  18
ATOM     18  O   UNL     1      28.152 -29.331  32.874  1.00  0.00    -0.504 OA
ATOM     19  H   UNL     1      28.143 -30.327  33.033  1.00  0.00     0.293 HD
ENDBRANCH  15  18
BRANCH  17  20
ATOM     20  O   UNL     1      28.795 -30.457  30.253  1.00  0.00    -0.504 OA
ATOM     21  H   UNL     1      29.657 -30.533  29.731  1.00  0.00     0.293 HD
ENDBRANCH  17  20
ENDBRANCH   1  12
BRANCH   2  22
ATOM     22  O   UNL     1      28.731 -26.054  27.489  1.00  0.00    -0.502 OA
ATOM     23  H   UNL     1      29.155 -25.411  28.147  1.00  0.00     0.293 HD
ENDBRANCH   2  22
BRANCH   6  24
ATOM     24  O   UNL     1      25.481 -23.942  23.836  1.00  0.00    -0.507 OA
ATOM     25  H   UNL     1      25.312 -22.961  23.677  1.00  0.00     0.293 HD
ENDBRANCH   6  24
BRANCH   8  26
ATOM     26  O   UNL     1      21.259 -25.621  25.386  1.00  0.00    -0.508 OA
ATOM     27  H   UNL     1      20.796 -26.515  25.277  1.00  0.00     0.293 HD
ENDBRANCH   8  26
TORSDOF 6
ENDMDL
MODEL 8
REMARK VINA RESULT:    -7.024      3.969      7.682
REMARK INTER + INTRA:          -8.603
REMARK INTER:                  -8.332
REMARK INTRA:                  -0.271
REMARK UNBOUND:                -0.142
REMARK SMILES O=c1c(O)c(-c2ccc(O)c(O)c2)oc2cc(O)cc(O)c12
REMARK SMILES IDX 5 1 3 2 2 3 1 4 22 5 20 6 19 7 17 8 16 9 15 10 14 11 6 12
REMARK SMILES IDX 7 13 8 14 9 15 13 16 11 17 10 18 12 20 4 22 21 24 18 26
REMARK H PARENT 10 19 12 21 4 23 21 25 18 27
REMARK Flexibility Score: inf
ROOT
ATOM      1  C   UNL     1      23.893 -21.128  26.540  1.00  0.00     0.180 A 
ATOM      2  C   UNL     1      24.505 -21.321  25.289  1.00  0.00     0.208 A 
ATOM      3  C   UNL     1      24.590 -22.621  24.766  1.00  0.00     0.238 A 
ATOM      4  O   UNL     1      25.205 -22.795  23.682  1.00  0.00    -0.285 OA
ATOM      5  C   UNL     1      24.014 -23.704  25.473  1.00  0.00     0.111 A 
ATOM      6  C   UNL     1      24.002 -25.058  25.016  1.00  0.00     0.134 A 
ATOM      7  C   UNL     1      23.497 -26.063  25.850  1.00  0.00     0.093 A 
ATOM      8  C   UNL     1      22.945 -25.757  27.096  1.00  0.00     0.123 A 
ATOM      9  C   UNL     1      22.902 -24.433  27.527  1.00  0.00     0.094 A 
ATOM     10  C   UNL     1      23.434 -23.412  26.735  1.00  0.00     0.146 A 
ATOM     11  O   UNL     1      23.391 -22.168  27.194  1.00  0.00    -0.452 OA
ENDROOT
BRANCH   1  12
ATOM     12  C   UNL     1      23.779 -19.790  27.163  1.00  0.00     0.025 A 
ATOM     13  C   UNL     1      24.673 -19.423  28.179  1.00  0.00     0.016 A 
ATOM     14  C   UNL     1      24.596 -18.159  28.765  1.00  0.00     0.051 A 
ATOM     15  C   UNL     1      23.639 -17.231  28.341  1.00  0.00     0.157 A 
ATOM     16  C   UNL     1      22.832 -18.852  26.717  1.00  0.00     0.062 A 
ATOM     17  C   UNL     1      22.749 -17.580  27.297  1.00  0.00     0.158 A 
BRANCH  15  18
ATOM     18  O   UNL     1      23.611 -15.986  28.973  1.00  0.00    -0.504 OA
ATOM     19  H   UNL     1      23.752 -15.853  29.963  1.00  0.00     0.293 HD
ENDBRANCH  15  18
BRANCH  17  20
ATOM     20  O   UNL     1      21.783 -16.701  26.805  1.00  0.00    -0.504 OA
ATOM     21  H   UNL     1      20.825 -16.676  27.128  1.00  0.00     0.293 HD
ENDBRANCH  17  20
ENDBRANCH   1  12
BRANCH   2  22
ATOM     22  O   UNL     1      25.000 -20.229  24.572  1.00  0.00    -0.502 OA
ATOM     23  H   UNL     1      25.685 -19.590  24.956  1.00  0.00     0.293 HD
ENDBRANCH   2  22
BRANCH   6  24
ATOM     24  O   UNL     1      24.447 -25.463  23.754  1.00  0.00    -0.507 OA
ATOM     25  H   UNL     1      25.338 -25.219  23.350  1.00  0.00     0.293 HD
ENDBRANCH   6  24
BRANCH   8  26
ATOM     26  O   UNL     1      22.428 -26.762  27.911  1.00  0.00    -0.508 OA
ATOM     27  H   UNL     1      22.104 -26.567  28.851  1.00  0.00     0.293 HD
ENDBRANCH   8  26
TORSDOF 6
ENDMDL
MODEL 9
REMARK VINA RESULT:    -6.987      2.201      2.987
REMARK INTER + INTRA:          -8.558
REMARK INTER:                  -8.238
REMARK INTRA:                  -0.321
REMARK UNBOUND:                -0.142
REMARK SMILES O=c1c(O)c(-c2ccc(O)c(O)c2)oc2cc(O)cc(O)c12
REMARK SMILES IDX 5 1 3 2 2 3 1 4 22 5 20 6 19 7 17 8 16 9 15 10 14 11 6 12
REMARK SMILES IDX 7 13 8 14 9 15 13 16 11 17 10 18 12 20 4 22 21 24 18 26
REMARK H PARENT 10 19 12 21 4 23 21 25 18 27
REMARK Flexibility Score: inf
ROOT
ATOM      1  C   UNL     1      24.701 -25.929  27.906  1.00  0.00     0.180 A 
ATOM      2  C   UNL     1      23.594 -26.038  27.047  1.00  0.00     0.208 A 
ATOM      3  C   UNL     1      23.704 -25.559  25.732  1.00  0.00     0.238 A 
ATOM      4  O   UNL     1      22.687 -25.592  24.992  1.00  0.00    -0.285 OA
ATOM      5  C   UNL     1      24.935 -25.030  25.275  1.00  0.00     0.111 A 
ATOM      6  C   UNL     1      25.173 -24.556  23.948  1.00  0.00     0.134 A 
ATOM      7  C   UNL     1      26.400 -23.955  23.640  1.00  0.00     0.093 A 
ATOM      8  C   UNL     1      27.419 -23.867  24.591  1.00  0.00     0.123 A 
ATOM      9  C   UNL     1      27.216 -24.376  25.871  1.00  0.00     0.094 A 
ATOM     10  C   UNL     1      25.990 -24.946  26.221  1.00  0.00     0.146 A 
ATOM     11  O   UNL     1      25.832 -25.398  27.459  1.00  0.00    -0.452 OA
ENDROOT
BRANCH   1  12
ATOM     12  C   UNL     1      24.657 -26.398  29.310  1.00  0.00     0.025 A 
ATOM     13  C   UNL     1      24.168 -25.542  30.308  1.00  0.00     0.016 A 
ATOM     14  C   UNL     1      24.098 -25.970  31.634  1.00  0.00     0.051 A 
ATOM     15  C   UNL     1      24.498 -27.263  31.990  1.00  0.00     0.157 A 
ATOM     16  C   UNL     1      25.037 -27.705  29.659  1.00  0.00     0.062 A 
ATOM     17  C   UNL     1      24.968 -28.144  30.987  1.00  0.00     0.158 A 
BRANCH  15  18
ATOM     18  O   UNL     1      24.410 -27.627  33.335  1.00  0.00    -0.504 OA
ATOM     19  H   UNL     1      24.090 -27.010  34.067  1.00  0.00     0.293 HD
ENDBRANCH  15  18
BRANCH  17  20
ATOM     20  O   UNL     1      25.364 -29.455  31.262  1.00  0.00    -0.504 OA
ATOM     21  H   UNL     1      25.902 -29.724  32.074  1.00  0.00     0.293 HD
ENDBRANCH  17  20
ENDBRANCH   1  12
BRANCH   2  22
ATOM     22  O   UNL     1      22.412 -26.633  27.494  1.00  0.00    -0.502 OA
ATOM     23  H   UNL     1      21.851 -27.239  26.908  1.00  0.00     0.293 HD
ENDBRANCH   2  22
BRANCH   6  24
ATOM     24  O   UNL     1      24.258 -24.674  22.898  1.00  0.00    -0.507 OA
ATOM     25  H   UNL     1      24.495 -24.916  21.949  1.00  0.00     0.293 HD
ENDBRANCH   6  24
BRANCH   8  26
ATOM     26  O   UNL     1      28.643 -23.284  24.270  1.00  0.00    -0.508 OA
ATOM     27  H   UNL     1      28.718 -22.298  24.048  1.00  0.00     0.293 HD
ENDBRANCH   8  26
TORSDOF 6
ENDMDL
