MODEL 1
REMARK VINA RESULT:    -3.684      0.000      0.000
REMARK INTER + INTRA:         -10.164
REMARK INTER:                  -7.130
REMARK INTRA:                  -3.033
REMARK UNBOUND:                -3.033
REMARK SMILES CCCCCCCCCCCCCCCCCC(=O)[O-]
REMARK SMILES IDX 10 1 11 2 12 3 13 4 14 5 15 6 16 7 17 8 18 9 19 10 20 11
REMARK SMILES IDX 9 12 8 13 7 14 6 15 5 16 4 17 3 18 2 19 1 20
REMARK H PARENT
REMARK Flexibility Score: inf
ROOT
ATOM      1  C   UNL     1      27.451  18.454  54.302  1.00  0.00     0.000 C 
ENDROOT
BRANCH   1   2
ATOM      2  C   UNL     1      27.689  19.497  53.195  1.00  0.00     0.000 C 
BRANCH   2   3
ATOM      3  C   UNL     1      27.754  20.937  53.732  1.00  0.00     0.000 C 
BRANCH   3   4
ATOM      4  C   UNL     1      29.177  21.351  54.138  1.00  0.00     0.000 C 
BRANCH   4   5
ATOM      5  C   UNL     1      29.350  21.443  55.663  1.00  0.00     0.000 C 
BRANCH   5   6
ATOM      6  C   UNL     1      30.297  20.368  56.222  1.00  0.00     0.000 C 
BRANCH   6   7
ATOM      7  C   UNL     1      30.903  19.454  55.136  1.00  0.00     0.006 C 
BRANCH   7   8
ATOM      8  C   UNL     1      32.037  18.576  55.682  1.00  0.00     0.053 C 
BRANCH   8   9
ATOM      9  C   UNL     1      33.342  19.303  55.614  1.00  0.00     0.041 C 
ATOM     10  O   UNL     1      33.956  19.403  54.519  1.00  0.00    -0.550 OA
ATOM     11  O   UNL     1      33.906  19.829  56.770  1.00  0.00    -0.550 OA
ENDBRANCH   8   9
ENDBRANCH   7   8
ENDBRANCH   6   7
ENDBRANCH   5   6
ENDBRANCH   4   5
ENDBRANCH   3   4
ENDBRANCH   2   3
ENDBRANCH   1   2
BRANCH   1  12
ATOM     12  C   UNL     1      25.996  18.357  54.794  1.00  0.00     0.000 C 
BRANCH  12  13
ATOM     13  C   UNL     1      25.894  18.177  56.320  1.00  0.00    -0.000 C 
BRANCH  13  14
ATOM     14  C   UNL     1      27.079  18.806  57.069  1.00  0.00    -0.000 C 
BRANCH  14  15
ATOM     15  C   UNL     1      27.737  17.831  58.061  1.00  0.00    -0.000 C 
BRANCH  15  16
ATOM     16  C   UNL     1      28.997  17.160  57.475  1.00  0.00    -0.000 C 
BRANCH  16  17
ATOM     17  C   UNL     1      28.753  15.731  56.955  1.00  0.00    -0.000 C 
BRANCH  17  18
ATOM     18  C   UNL     1      29.139  15.503  55.481  1.00  0.00    -0.000 C 
BRANCH  18  19
ATOM     19  C   UNL     1      28.150  14.634  54.683  1.00  0.00    -0.003 C 
ATOM     20  C   UNL     1      26.718  14.719  55.211  1.00  0.00     0.004 C 
ENDBRANCH  18  19
ENDBRANCH  17  18
ENDBRANCH  16  17
ENDBRANCH  15  16
ENDBRANCH  14  15
ENDBRANCH  13  14
ENDBRANCH  12  13
ENDBRANCH   1  12
TORSDOF 16
ENDMDL
MODEL 2
REMARK VINA RESULT:    -3.651      3.158      5.522
REMARK INTER + INTRA:         -10.099
REMARK INTER:                  -7.228
REMARK INTRA:                  -2.871
REMARK UNBOUND:                -3.033
REMARK SMILES CCCCCCCCCCCCCCCCCC(=O)[O-]
REMARK SMILES IDX 10 1 11 2 12 3 13 4 14 5 15 6 16 7 17 8 18 9 19 10 20 11
REMARK SMILES IDX 9 12 8 13 7 14 6 15 5 16 4 17 3 18 2 19 1 20
REMARK H PARENT
REMARK Flexibility Score: inf
ROOT
ATOM      1  C   UNL     1      27.290  16.856  58.036  1.00  0.00     0.000 C 
ENDROOT
BRANCH   1   2
ATOM      2  C   UNL     1      28.057  15.878  57.128  1.00  0.00     0.000 C 
BRANCH   2   3
ATOM      3  C   UNL     1      29.456  16.389  56.744  1.00  0.00     0.000 C 
BRANCH   3   4
ATOM      4  C   UNL     1      29.807  16.100  55.276  1.00  0.00     0.000 C 
BRANCH   4   5
ATOM      5  C   UNL     1      28.657  16.448  54.317  1.00  0.00     0.000 C 
BRANCH   5   6
ATOM      6  C   UNL     1      29.074  17.443  53.221  1.00  0.00     0.000 C 
BRANCH   6   7
ATOM      7  C   UNL     1      27.946  17.766  52.219  1.00  0.00     0.006 C 
BRANCH   7   8
ATOM      8  C   UNL     1      27.445  19.210  52.352  1.00  0.00     0.053 C 
BRANCH   8   9
ATOM      9  C   UNL     1      25.980  19.231  52.652  1.00  0.00     0.041 C 
ATOM     10  O   UNL     1      25.234  20.086  52.105  1.00  0.00    -0.550 OA
ATOM     11  O   UNL     1      25.444  18.338  53.572  1.00  0.00    -0.550 OA
ENDBRANCH   8   9
ENDBRANCH   7   8
ENDBRANCH   6   7
ENDBRANCH   5   6
ENDBRANCH   4   5
ENDBRANCH   3   4
ENDBRANCH   2   3
ENDBRANCH   1   2
BRANCH   1  12
ATOM     12  C   UNL     1      27.662  18.338  57.848  1.00  0.00     0.000 C 
BRANCH  12  13
ATOM     13  C   UNL     1      26.892  19.003  56.693  1.00  0.00    -0.000 C 
BRANCH  13  14
ATOM     14  C   UNL     1      27.755  20.003  55.907  1.00  0.00    -0.000 C 
BRANCH  14  15
ATOM     15  C   UNL     1      28.604  20.901  56.824  1.00  0.00    -0.000 C 
BRANCH  15  16
ATOM     16  C   UNL     1      30.104  20.856  56.464  1.00  0.00    -0.000 C 
BRANCH  16  17
ATOM     17  C   UNL     1      30.430  19.923  55.283  1.00  0.00    -0.000 C 
BRANCH  17  18
ATOM     18  C   UNL     1      31.775  19.181  55.395  1.00  0.00    -0.000 C 
BRANCH  18  19
ATOM     19  C   UNL     1      32.446  18.856  54.048  1.00  0.00    -0.003 C 
ATOM     20  C   UNL     1      33.068  17.460  54.012  1.00  0.00     0.004 C 
ENDBRANCH  18  19
ENDBRANCH  17  18
ENDBRANCH  16  17
ENDBRANCH  15  16
ENDBRANCH  14  15
ENDBRANCH  13  14
ENDBRANCH  12  13
ENDBRANCH   1  12
TORSDOF 16
ENDMDL
MODEL 3
REMARK VINA RESULT:    -3.650      1.519      3.921
REMARK INTER + INTRA:         -10.098
REMARK INTER:                  -7.022
REMARK INTRA:                  -3.076
REMARK UNBOUND:                -3.033
REMARK SMILES CCCCCCCCCCCCCCCCCC(=O)[O-]
REMARK SMILES IDX 10 1 11 2 12 3 13 4 14 5 15 6 16 7 17 8 18 9 19 10 20 11
REMARK SMILES IDX 9 12 8 13 7 14 6 15 5 16 4 17 3 18 2 19 1 20
REMARK H PARENT
REMARK Flexibility Score: inf
ROOT
ATOM      1  C   UNL     1      27.517  18.183  57.901  1.00  0.00     0.000 C 
ENDROOT
BRANCH   1   2
ATOM      2  C   UNL     1      28.043  16.747  57.726  1.00  0.00     0.000 C 
BRANCH   2   3
ATOM      3  C   UNL     1      29.451  16.696  57.110  1.00  0.00     0.000 C 
BRANCH   3   4
ATOM      4  C   UNL     1      29.807  15.303  56.567  1.00  0.00     0.000 C 
BRANCH   4   5
ATOM      5  C   UNL     1      31.256  15.223  56.056  1.00  0.00     0.000 C 
BRANCH   5   6
ATOM      6  C   UNL     1      32.063  16.499  56.349  1.00  0.00     0.000 C 
BRANCH   6   7
ATOM      7  C   UNL     1      33.179  16.773  55.320  1.00  0.00     0.006 C 
BRANCH   7   8
ATOM      8  C   UNL     1      34.347  17.563  55.925  1.00  0.00     0.053 C 
BRANCH   8   9
ATOM      9  C   UNL     1      34.160  19.029  55.699  1.00  0.00     0.041 C 
ATOM     10  O   UNL     1      33.880  19.788  56.664  1.00  0.00    -0.550 OA
ATOM     11  O   UNL     1      34.248  19.553  54.415  1.00  0.00    -0.550 OA
ENDBRANCH   8   9
ENDBRANCH   7   8
ENDBRANCH   6   7
ENDBRANCH   5   6
ENDBRANCH   4   5
ENDBRANCH   3   4
ENDBRANCH   2   3
ENDBRANCH   1   2
BRANCH   1  12
ATOM     12  C   UNL     1      26.629  18.689  56.751  1.00  0.00     0.000 C 
BRANCH  12  13
ATOM     13  C   UNL     1      27.224  19.914  56.033  1.00  0.00    -0.000 C 
BRANCH  13  14
ATOM     14  C   UNL     1      28.340  20.590  56.845  1.00  0.00    -0.000 C 
BRANCH  14  15
ATOM     15  C   UNL     1      29.566  20.945  55.984  1.00  0.00    -0.000 C 
BRANCH  15  16
ATOM     16  C   UNL     1      30.491  19.732  55.753  1.00  0.00    -0.000 C 
BRANCH  16  17
ATOM     17  C   UNL     1      30.719  19.402  54.266  1.00  0.00    -0.000 C 
BRANCH  17  18
ATOM     18  C   UNL     1      30.147  18.047  53.807  1.00  0.00    -0.000 C 
BRANCH  18  19
ATOM     19  C   UNL     1      28.697  18.100  53.294  1.00  0.00    -0.003 C 
ATOM     20  C   UNL     1      27.854  16.914  53.763  1.00  0.00     0.004 C 
ENDBRANCH  18  19
ENDBRANCH  17  18
ENDBRANCH  16  17
ENDBRANCH  15  16
ENDBRANCH  14  15
ENDBRANCH  13  14
ENDBRANCH  12  13
ENDBRANCH   1  12
TORSDOF 16
ENDMDL
MODEL 4
REMARK VINA RESULT:    -3.609      3.078      5.210
REMARK INTER + INTRA:         -10.018
REMARK INTER:                  -7.225
REMARK INTRA:                  -2.793
REMARK UNBOUND:                -3.033
REMARK SMILES CCCCCCCCCCCCCCCCCC(=O)[O-]
REMARK SMILES IDX 10 1 11 2 12 3 13 4 14 5 15 6 16 7 17 8 18 9 19 10 20 11
REMARK SMILES IDX 9 12 8 13 7 14 6 15 5 16 4 17 3 18 2 19 1 20
REMARK H PARENT
REMARK Flexibility Score: inf
ROOT
ATOM      1  C   UNL     1      28.983  20.225  57.035  1.00  0.00     0.000 C 
ENDROOT
BRANCH   1   2
ATOM      2  C   UNL     1      29.217  21.226  55.890  1.00  0.00     0.000 C 
BRANCH   2   3
ATOM      3  C   UNL     1      29.167  20.569  54.500  1.00  0.00     0.000 C 
BRANCH   3   4
ATOM      4  C   UNL     1      27.905  20.953  53.711  1.00  0.00     0.000 C 
BRANCH   4   5
ATOM      5  C   UNL     1      27.444  19.836  52.759  1.00  0.00     0.000 C 
BRANCH   5   6
ATOM      6  C   UNL     1      28.118  18.485  53.053  1.00  0.00     0.000 C 
BRANCH   6   7
ATOM      7  C   UNL     1      27.143  17.289  53.016  1.00  0.00     0.006 C 
BRANCH   7   8
ATOM      8  C   UNL     1      25.760  17.650  53.574  1.00  0.00     0.053 C 
BRANCH   8   9
ATOM      9  C   UNL     1      25.580  17.073  54.942  1.00  0.00     0.041 C 
ATOM     10  O   UNL     1      26.064  15.945  55.223  1.00  0.00    -0.550 OA
ATOM     11  O   UNL     1      24.834  17.758  55.893  1.00  0.00    -0.550 OA
ENDBRANCH   8   9
ENDBRANCH   7   8
ENDBRANCH   6   7
ENDBRANCH   5   6
ENDBRANCH   4   5
ENDBRANCH   3   4
ENDBRANCH   2   3
ENDBRANCH   1   2
BRANCH   1  12
ATOM     12  C   UNL     1      27.739  19.333  56.868  1.00  0.00     0.000 C 
BRANCH  12  13
ATOM     13  C   UNL     1      27.862  17.993  57.616  1.00  0.00    -0.000 C 
BRANCH  13  14
ATOM     14  C   UNL     1      29.271  17.389  57.519  1.00  0.00    -0.000 C 
BRANCH  14  15
ATOM     15  C   UNL     1      29.447  16.492  56.281  1.00  0.00    -0.000 C 
BRANCH  15  16
ATOM     16  C   UNL     1      30.528  17.026  55.318  1.00  0.00    -0.000 C 
BRANCH  16  17
ATOM     17  C   UNL     1      31.792  17.541  56.030  1.00  0.00    -0.000 C 
BRANCH  17  18
ATOM     18  C   UNL     1      32.276  18.929  55.568  1.00  0.00    -0.000 C 
BRANCH  18  19
ATOM     19  C   UNL     1      32.626  19.026  54.072  1.00  0.00    -0.003 C 
ATOM     20  C   UNL     1      34.112  18.805  53.791  1.00  0.00     0.004 C 
ENDBRANCH  18  19
ENDBRANCH  17  18
ENDBRANCH  16  17
ENDBRANCH  15  16
ENDBRANCH  14  15
ENDBRANCH  13  14
ENDBRANCH  12  13
ENDBRANCH   1  12
TORSDOF 16
ENDMDL
MODEL 5
REMARK VINA RESULT:    -3.596      3.432      5.564
REMARK INTER + INTRA:          -9.993
REMARK INTER:                  -7.315
REMARK INTRA:                  -2.677
REMARK UNBOUND:                -3.033
REMARK SMILES CCCCCCCCCCCCCCCCCC(=O)[O-]
REMARK SMILES IDX 10 1 11 2 12 3 13 4 14 5 15 6 16 7 17 8 18 9 19 10 20 11
REMARK SMILES IDX 9 12 8 13 7 14 6 15 5 16 4 17 3 18 2 19 1 20
REMARK H PARENT
REMARK Flexibility Score: inf
ROOT
ATOM      1  C   UNL     1      30.829  19.162  54.559  1.00  0.00     0.000 C 
ENDROOT
BRANCH   1   2
ATOM      2  C   UNL     1      31.961  19.204  55.601  1.00  0.00     0.000 C 
BRANCH   2   3
ATOM      3  C   UNL     1      32.370  17.807  56.097  1.00  0.00     0.000 C 
BRANCH   3   4
ATOM      4  C   UNL     1      31.164  16.955  56.520  1.00  0.00     0.000 C 
BRANCH   4   5
ATOM      5  C   UNL     1      31.013  15.684  55.667  1.00  0.00     0.000 C 
BRANCH   5   6
ATOM      6  C   UNL     1      30.432  14.500  56.458  1.00  0.00     0.000 C 
BRANCH   6   7
ATOM      7  C   UNL     1      28.960  14.700  56.875  1.00  0.00     0.006 C 
BRANCH   7   8
ATOM      8  C   UNL     1      28.053  13.571  56.369  1.00  0.00     0.053 C 
BRANCH   8   9
ATOM      9  C   UNL     1      26.696  13.670  56.990  1.00  0.00     0.041 C 
ATOM     10  O   UNL     1      25.915  12.683  56.965  1.00  0.00    -0.550 OA
ATOM     11  O   UNL     1      26.274  14.868  57.554  1.00  0.00    -0.550 OA
ENDBRANCH   8   9
ENDBRANCH   7   8
ENDBRANCH   6   7
ENDBRANCH   5   6
ENDBRANCH   4   5
ENDBRANCH   3   4
ENDBRANCH   2   3
ENDBRANCH   1   2
BRANCH   1  12
ATOM     12  C   UNL     1      29.775  20.275  54.705  1.00  0.00     0.000 C 
BRANCH  12  13
ATOM     13  C   UNL     1      29.694  20.834  56.137  1.00  0.00    -0.000 C 
BRANCH  13  14
ATOM     14  C   UNL     1      28.395  20.434  56.855  1.00  0.00    -0.000 C 
BRANCH  14  15
ATOM     15  C   UNL     1      28.491  19.052  57.524  1.00  0.00    -0.000 C 
BRANCH  15  16
ATOM     16  C   UNL     1      27.262  18.169  57.224  1.00  0.00    -0.000 C 
BRANCH  16  17
ATOM     17  C   UNL     1      26.259  18.813  56.249  1.00  0.00    -0.000 C 
BRANCH  17  18
ATOM     18  C   UNL     1      26.023  18.026  54.946  1.00  0.00    -0.000 C 
BRANCH  18  19
ATOM     19  C   UNL     1      26.977  16.837  54.730  1.00  0.00    -0.003 C 
ATOM     20  C   UNL     1      28.070  17.128  53.701  1.00  0.00     0.004 C 
ENDBRANCH  18  19
ENDBRANCH  17  18
ENDBRANCH  16  17
ENDBRANCH  15  16
ENDBRANCH  14  15
ENDBRANCH  13  14
ENDBRANCH  12  13
ENDBRANCH   1  12
TORSDOF 16
ENDMDL
MODEL 6
REMARK VINA RESULT:    -3.579      3.231      5.403
REMARK INTER + INTRA:          -9.960
REMARK INTER:                  -6.979
REMARK INTRA:                  -2.982
REMARK UNBOUND:                -3.033
REMARK SMILES CCCCCCCCCCCCCCCCCC(=O)[O-]
REMARK SMILES IDX 10 1 11 2 12 3 13 4 14 5 15 6 16 7 17 8 18 9 19 10 20 11
REMARK SMILES IDX 9 12 8 13 7 14 6 15 5 16 4 17 3 18 2 19 1 20
REMARK H PARENT
REMARK Flexibility Score: inf
ROOT
ATOM      1  C   UNL     1      26.124  18.693  56.689  1.00  0.00     0.000 C 
ENDROOT
BRANCH   1   2
ATOM      2  C   UNL     1      25.445  17.629  55.808  1.00  0.00     0.000 C 
BRANCH   2   3
ATOM      3  C   UNL     1      26.337  16.401  55.558  1.00  0.00     0.000 C 
BRANCH   3   4
ATOM      4  C   UNL     1      26.787  16.286  54.093  1.00  0.00     0.000 C 
BRANCH   4   5
ATOM      5  C   UNL     1      28.172  16.909  53.853  1.00  0.00     0.000 C 
BRANCH   5   6
ATOM      6  C   UNL     1      28.094  18.361  53.350  1.00  0.00     0.000 C 
BRANCH   6   7
ATOM      7  C   UNL     1      27.008  18.585  52.277  1.00  0.00     0.006 C 
BRANCH   7   8
ATOM      8  C   UNL     1      25.963  19.619  52.715  1.00  0.00     0.053 C 
BRANCH   8   9
ATOM      9  C   UNL     1      25.788  20.666  51.662  1.00  0.00     0.041 C 
ATOM     10  O   UNL     1      26.016  21.876  51.928  1.00  0.00    -0.550 OA
ATOM     11  O   UNL     1      25.325  20.314  50.401  1.00  0.00    -0.550 OA
ENDBRANCH   8   9
ENDBRANCH   7   8
ENDBRANCH   6   7
ENDBRANCH   5   6
ENDBRANCH   4   5
ENDBRANCH   3   4
ENDBRANCH   2   3
ENDBRANCH   1   2
BRANCH   1  12
ATOM     12  C   UNL     1      27.297  18.173  57.539  1.00  0.00     0.000 C 
BRANCH  12  13
ATOM     13  C   UNL     1      28.608  18.938  57.278  1.00  0.00    -0.000 C 
BRANCH  13  14
ATOM     14  C   UNL     1      28.377  20.279  56.564  1.00  0.00    -0.000 C 
BRANCH  14  15
ATOM     15  C   UNL     1      29.557  20.679  55.660  1.00  0.00    -0.000 C 
BRANCH  15  16
ATOM     16  C   UNL     1      30.808  19.812  55.911  1.00  0.00    -0.000 C 
BRANCH  16  17
ATOM     17  C   UNL     1      31.343  19.116  54.645  1.00  0.00    -0.000 C 
BRANCH  17  18
ATOM     18  C   UNL     1      31.716  17.633  54.829  1.00  0.00    -0.000 C 
BRANCH  18  19
ATOM     19  C   UNL     1      31.569  17.104  56.267  1.00  0.00    -0.003 C 
ATOM     20  C   UNL     1      30.625  15.906  56.370  1.00  0.00     0.004 C 
ENDBRANCH  18  19
ENDBRANCH  17  18
ENDBRANCH  16  17
ENDBRANCH  15  16
ENDBRANCH  14  15
ENDBRANCH  13  14
ENDBRANCH  12  13
ENDBRANCH   1  12
TORSDOF 16
ENDMDL
MODEL 7
REMARK VINA RESULT:    -3.570      2.138      5.062
REMARK INTER + INTRA:          -9.943
REMARK INTER:                  -7.003
REMARK INTRA:                  -2.940
REMARK UNBOUND:                -3.033
REMARK SMILES CCCCCCCCCCCCCCCCCC(=O)[O-]
REMARK SMILES IDX 10 1 11 2 12 3 13 4 14 5 15 6 16 7 17 8 18 9 19 10 20 11
REMARK SMILES IDX 9 12 8 13 7 14 6 15 5 16 4 17 3 18 2 19 1 20
REMARK H PARENT
REMARK Flexibility Score: inf
ROOT
ATOM      1  C   UNL     1      29.732  16.558  56.795  1.00  0.00     0.000 C 
ENDROOT
BRANCH   1   2
ATOM      2  C   UNL     1      28.600  15.516  56.749  1.00  0.00     0.000 C 
BRANCH   2   3
ATOM      3  C   UNL     1      27.280  16.040  57.339  1.00  0.00     0.000 C 
BRANCH   3   4
ATOM      4  C   UNL     1      26.224  16.327  56.259  1.00  0.00     0.000 C 
BRANCH   4   5
ATOM      5  C   UNL     1      25.885  17.822  56.151  1.00  0.00     0.000 C 
BRANCH   5   6
ATOM      6  C   UNL     1      26.697  18.691  57.126  1.00  0.00     0.000 C 
BRANCH   6   7
ATOM      7  C   UNL     1      27.528  19.789  56.429  1.00  0.00     0.006 C 
BRANCH   7   8
ATOM      8  C   UNL     1      28.879  20.022  57.119  1.00  0.00     0.053 C 
BRANCH   8   9
ATOM      9  C   UNL     1      29.637  21.113  56.433  1.00  0.00     0.041 C 
ATOM     10  O   UNL     1      29.557  21.251  55.184  1.00  0.00    -0.550 OA
ATOM     11  O   UNL     1      30.470  21.949  57.166  1.00  0.00    -0.550 OA
ENDBRANCH   8   9
ENDBRANCH   7   8
ENDBRANCH   6   7
ENDBRANCH   5   6
ENDBRANCH   4   5
ENDBRANCH   3   4
ENDBRANCH   2   3
ENDBRANCH   1   2
BRANCH   1  12
ATOM     12  C   UNL     1      30.707  16.504  55.605  1.00  0.00     0.000 C 
BRANCH  12  13
ATOM     13  C   UNL     1      30.623  17.752  54.709  1.00  0.00    -0.000 C 
BRANCH  13  14
ATOM     14  C   UNL     1      29.284  17.856  53.964  1.00  0.00    -0.000 C 
BRANCH  14  15
ATOM     15  C   UNL     1      29.060  16.690  52.984  1.00  0.00    -0.000 C 
BRANCH  15  16
ATOM     16  C   UNL     1      27.572  16.505  52.621  1.00  0.00    -0.000 C 
BRANCH  16  17
ATOM     17  C   UNL     1      26.746  17.802  52.716  1.00  0.00    -0.000 C 
BRANCH  17  18
ATOM     18  C   UNL     1      26.727  18.654  51.432  1.00  0.00    -0.000 C 
BRANCH  18  19
ATOM     19  C   UNL     1      26.340  20.129  51.643  1.00  0.00    -0.003 C 
ATOM     20  C   UNL     1      27.126  20.798  52.771  1.00  0.00     0.004 C 
ENDBRANCH  18  19
ENDBRANCH  17  18
ENDBRANCH  16  17
ENDBRANCH  15  16
ENDBRANCH  14  15
ENDBRANCH  13  14
ENDBRANCH  12  13
ENDBRANCH   1  12
TORSDOF 16
ENDMDL
MODEL 8
REMARK VINA RESULT:    -3.568      1.613      3.331
REMARK INTER + INTRA:          -9.939
REMARK INTER:                  -6.735
REMARK INTRA:                  -3.204
REMARK UNBOUND:                -3.033
REMARK SMILES CCCCCCCCCCCCCCCCCC(=O)[O-]
REMARK SMILES IDX 10 1 11 2 12 3 13 4 14 5 15 6 16 7 17 8 18 9 19 10 20 11
REMARK SMILES IDX 9 12 8 13 7 14 6 15 5 16 4 17 3 18 2 19 1 20
REMARK H PARENT
REMARK Flexibility Score: inf
ROOT
ATOM      1  C   UNL     1      27.498  16.956  57.861  1.00  0.00     0.000 C 
ENDROOT
BRANCH   1   2
ATOM      2  C   UNL     1      27.920  18.435  57.792  1.00  0.00     0.000 C 
BRANCH   2   3
ATOM      3  C   UNL     1      27.155  19.226  56.717  1.00  0.00     0.000 C 
BRANCH   3   4
ATOM      4  C   UNL     1      27.862  20.536  56.335  1.00  0.00     0.000 C 
BRANCH   4   5
ATOM      5  C   UNL     1      29.384  20.464  56.539  1.00  0.00     0.000 C 
BRANCH   5   6
ATOM      6  C   UNL     1      30.140  20.067  55.260  1.00  0.00     0.000 C 
BRANCH   6   7
ATOM      7  C   UNL     1      31.510  19.409  55.531  1.00  0.00     0.006 C 
BRANCH   7   8
ATOM      8  C   UNL     1      32.185  18.919  54.243  1.00  0.00     0.053 C 
BRANCH   8   9
ATOM      9  C   UNL     1      33.197  17.862  54.551  1.00  0.00     0.041 C 
ATOM     10  O   UNL     1      33.579  17.070  53.651  1.00  0.00    -0.550 OA
ATOM     11  O   UNL     1      33.683  17.720  55.845  1.00  0.00    -0.550 OA
ENDBRANCH   8   9
ENDBRANCH   7   8
ENDBRANCH   6   7
ENDBRANCH   5   6
ENDBRANCH   4   5
ENDBRANCH   3   4
ENDBRANCH   2   3
ENDBRANCH   1   2
BRANCH   1  12
ATOM     12  C   UNL     1      28.384  15.994  57.049  1.00  0.00     0.000 C 
BRANCH  12  13
ATOM     13  C   UNL     1      29.822  16.514  56.873  1.00  0.00    -0.000 C 
BRANCH  13  14
ATOM     14  C   UNL     1      30.670  15.610  55.965  1.00  0.00    -0.000 C 
BRANCH  14  15
ATOM     15  C   UNL     1      29.883  15.086  54.750  1.00  0.00    -0.000 C 
BRANCH  15  16
ATOM     16  C   UNL     1      30.227  15.851  53.454  1.00  0.00    -0.000 C 
BRANCH  16  17
ATOM     17  C   UNL     1      29.005  16.494  52.773  1.00  0.00    -0.000 C 
BRANCH  17  18
ATOM     18  C   UNL     1      28.250  17.526  53.633  1.00  0.00    -0.000 C 
BRANCH  18  19
ATOM     19  C   UNL     1      26.724  17.541  53.431  1.00  0.00    -0.003 C 
ATOM     20  C   UNL     1      25.991  16.557  54.343  1.00  0.00     0.004 C 
ENDBRANCH  18  19
ENDBRANCH  17  18
ENDBRANCH  16  17
ENDBRANCH  15  16
ENDBRANCH  14  15
ENDBRANCH  13  14
ENDBRANCH  12  13
ENDBRANCH   1  12
TORSDOF 16
ENDMDL
MODEL 9
REMARK VINA RESULT:    -3.567      2.972      5.329
REMARK INTER + INTRA:          -9.938
REMARK INTER:                  -6.761
REMARK INTRA:                  -3.177
REMARK UNBOUND:                -3.033
REMARK SMILES CCCCCCCCCCCCCCCCCC(=O)[O-]
REMARK SMILES IDX 10 1 11 2 12 3 13 4 14 5 15 6 16 7 17 8 18 9 19 10 20 11
REMARK SMILES IDX 9 12 8 13 7 14 6 15 5 16 4 17 3 18 2 19 1 20
REMARK H PARENT
REMARK Flexibility Score: inf
ROOT
ATOM      1  C   UNL     1      27.135  18.353  57.523  1.00  0.00     0.000 C 
ENDROOT
BRANCH   1   2
ATOM      2  C   UNL     1      28.595  18.038  57.896  1.00  0.00     0.000 C 
BRANCH   2   3
ATOM      3  C   UNL     1      29.215  16.939  57.016  1.00  0.00     0.000 C 
BRANCH   3   4
ATOM      4  C   UNL     1      28.306  15.707  56.886  1.00  0.00     0.000 C 
BRANCH   4   5
ATOM      5  C   UNL     1      28.023  15.337  55.420  1.00  0.00     0.000 C 
BRANCH   5   6
ATOM      6  C   UNL     1      28.473  16.426  54.432  1.00  0.00     0.000 C 
BRANCH   6   7
ATOM      7  C   UNL     1      27.302  17.133  53.717  1.00  0.00     0.006 C 
BRANCH   7   8
ATOM      8  C   UNL     1      27.768  17.946  52.503  1.00  0.00     0.053 C 
BRANCH   8   9
ATOM      9  C   UNL     1      26.685  18.868  52.042  1.00  0.00     0.041 C 
ATOM     10  O   UNL     1      26.403  18.953  50.818  1.00  0.00    -0.550 OA
ATOM     11  O   UNL     1      26.019  19.672  52.959  1.00  0.00    -0.550 OA
ENDBRANCH   8   9
ENDBRANCH   7   8
ENDBRANCH   6   7
ENDBRANCH   5   6
ENDBRANCH   4   5
ENDBRANCH   3   4
ENDBRANCH   2   3
ENDBRANCH   1   2
BRANCH   1  12
ATOM     12  C   UNL     1      26.966  19.346  56.359  1.00  0.00     0.000 C 
BRANCH  12  13
ATOM     13  C   UNL     1      27.904  20.561  56.471  1.00  0.00    -0.000 C 
BRANCH  13  14
ATOM     14  C   UNL     1      28.581  20.910  55.137  1.00  0.00    -0.000 C 
BRANCH  14  15
ATOM     15  C   UNL     1      29.745  19.961  54.798  1.00  0.00    -0.000 C 
BRANCH  15  16
ATOM     16  C   UNL     1      30.903  20.068  55.812  1.00  0.00    -0.000 C 
BRANCH  16  17
ATOM     17  C   UNL     1      31.982  18.984  55.636  1.00  0.00    -0.000 C 
BRANCH  17  18
ATOM     18  C   UNL     1      31.791  18.071  54.410  1.00  0.00    -0.000 C 
BRANCH  18  19
ATOM     19  C   UNL     1      32.197  16.602  54.629  1.00  0.00    -0.003 C 
ATOM     20  C   UNL     1      31.953  15.725  53.401  1.00  0.00     0.004 C 
ENDBRANCH  18  19
ENDBRANCH  17  18
ENDBRANCH  16  17
ENDBRANCH  15  16
ENDBRANCH  14  15
ENDBRANCH  13  14
ENDBRANCH  12  13
ENDBRANCH   1  12
TORSDOF 16
ENDMDL
