MODEL 1
REMARK VINA RESULT:    -4.660      0.000      0.000
REMARK INTER + INTRA:         -10.822
REMARK INTER:                  -9.019
REMARK INTRA:                  -1.803
REMARK UNBOUND:                -1.803
REMARK SMILES CCCCCCCCCCCCCCCCCC(=O)[O-]
REMARK SMILES IDX 10 1 11 2 12 3 13 4 14 5 15 6 16 7 17 8 18 9 19 10 20 11
REMARK SMILES IDX 9 12 8 13 7 14 6 15 5 16 4 17 3 18 2 19 1 20
REMARK H PARENT
REMARK Flexibility Score: inf
ROOT
ATOM      1  C   UNL     1      -3.156  -0.077   9.389  1.00  0.00     0.000 C 
ENDROOT
BRANCH   1   2
ATOM      2  C   UNL     1      -3.898   0.878  10.346  1.00  0.00     0.000 C 
BRANCH   2   3
ATOM      3  C   UNL     1      -3.769   0.534  11.845  1.00  0.00     0.000 C 
BRANCH   3   4
ATOM      4  C   UNL     1      -5.037   0.791  12.678  1.00  0.00     0.000 C 
BRANCH   4   5
ATOM      5  C   UNL     1      -4.726   1.365  14.071  1.00  0.00     0.000 C 
BRANCH   5   6
ATOM      6  C   UNL     1      -5.557   2.617  14.392  1.00  0.00     0.000 C 
BRANCH   6   7
ATOM      7  C   UNL     1      -5.579   2.940  15.897  1.00  0.00     0.006 C 
BRANCH   7   8
ATOM      8  C   UNL     1      -6.989   2.827  16.492  1.00  0.00     0.053 C 
BRANCH   8   9
ATOM      9  C   UNL     1      -7.833   4.014  16.143  1.00  0.00     0.041 C 
ATOM     10  O   UNL     1      -8.712   3.926  15.246  1.00  0.00    -0.550 OA
ATOM     11  O   UNL     1      -7.672   5.209  16.832  1.00  0.00    -0.550 OA
ENDBRANCH   8   9
ENDBRANCH   7   8
ENDBRANCH   6   7
ENDBRANCH   5   6
ENDBRANCH   4   5
ENDBRANCH   3   4
ENDBRANCH   2   3
ENDBRANCH   1   2
BRANCH   1  12
ATOM     12  C   UNL     1      -4.046  -1.120   8.691  1.00  0.00     0.000 C 
BRANCH  12  13
ATOM     13  C   UNL     1      -3.328  -2.457   8.460  1.00  0.00    -0.000 C 
BRANCH  13  14
ATOM     14  C   UNL     1      -4.031  -3.594   9.213  1.00  0.00    -0.000 C 
BRANCH  14  15
ATOM     15  C   UNL     1      -3.105  -4.204  10.276  1.00  0.00    -0.000 C 
BRANCH  15  16
ATOM     16  C   UNL     1      -3.040  -3.368  11.567  1.00  0.00    -0.000 C 
BRANCH  16  17
ATOM     17  C   UNL     1      -1.707  -2.637  11.803  1.00  0.00    -0.000 C 
BRANCH  17  18
ATOM     18  C   UNL     1      -0.580  -3.131  10.884  1.00  0.00    -0.000 C 
BRANCH  18  19
ATOM     19  C   UNL     1       0.277  -1.961  10.388  1.00  0.00    -0.003 C 
ATOM     20  C   UNL     1       0.187  -1.815   8.871  1.00  0.00     0.004 C 
ENDBRANCH  18  19
ENDBRANCH  17  18
ENDBRANCH  16  17
ENDBRANCH  15  16
ENDBRANCH  14  15
ENDBRANCH  13  14
ENDBRANCH  12  13
ENDBRANCH   1  12
TORSDOF 16
ENDMDL
MODEL 2
REMARK VINA RESULT:    -4.616      3.990      8.684
REMARK INTER + INTRA:         -10.737
REMARK INTER:                  -8.989
REMARK INTRA:                  -1.748
REMARK UNBOUND:                -1.803
REMARK SMILES CCCCCCCCCCCCCCCCCC(=O)[O-]
REMARK SMILES IDX 10 1 11 2 12 3 13 4 14 5 15 6 16 7 17 8 18 9 19 10 20 11
REMARK SMILES IDX 9 12 8 13 7 14 6 15 5 16 4 17 3 18 2 19 1 20
REMARK H PARENT
REMARK Flexibility Score: inf
ROOT
ATOM      1  C   UNL     1      -4.867   1.259  12.939  1.00  0.00     0.000 C 
ENDROOT
BRANCH   1   2
ATOM      2  C   UNL     1      -4.326   1.959  11.676  1.00  0.00     0.000 C 
BRANCH   2   3
ATOM      3  C   UNL     1      -3.213   1.195  10.930  1.00  0.00     0.000 C 
BRANCH   3   4
ATOM      4  C   UNL     1      -3.641   0.576   9.588  1.00  0.00     0.000 C 
BRANCH   4   5
ATOM      5  C   UNL     1      -3.545  -0.959   9.584  1.00  0.00     0.000 C 
BRANCH   5   6
ATOM      6  C   UNL     1      -3.586  -1.557  10.999  1.00  0.00     0.000 C 
BRANCH   6   7
ATOM      7  C   UNL     1      -2.816  -2.885  11.101  1.00  0.00     0.006 C 
BRANCH   7   8
ATOM      8  C   UNL     1      -3.735  -4.061  11.458  1.00  0.00     0.053 C 
BRANCH   8   9
ATOM      9  C   UNL     1      -4.473  -4.570  10.258  1.00  0.00     0.041 C 
ATOM     10  O   UNL     1      -5.581  -5.151  10.394  1.00  0.00    -0.550 OA
ATOM     11  O   UNL     1      -3.952  -4.372   8.986  1.00  0.00    -0.550 OA
ENDBRANCH   8   9
ENDBRANCH   7   8
ENDBRANCH   6   7
ENDBRANCH   5   6
ENDBRANCH   4   5
ENDBRANCH   3   4
ENDBRANCH   2   3
ENDBRANCH   1   2
BRANCH   1  12
ATOM     12  C   UNL     1      -5.679   2.161  13.885  1.00  0.00     0.000 C 
BRANCH  12  13
ATOM     13  C   UNL     1      -5.056   2.270  15.284  1.00  0.00    -0.000 C 
BRANCH  13  14
ATOM     14  C   UNL     1      -6.087   2.767  16.306  1.00  0.00    -0.000 C 
BRANCH  14  15
ATOM     15  C   UNL     1      -7.240   3.503  15.609  1.00  0.00    -0.000 C 
BRANCH  15  16
ATOM     16  C   UNL     1      -7.445   4.935  16.137  1.00  0.00    -0.000 C 
BRANCH  16  17
ATOM     17  C   UNL     1      -6.553   6.005  15.483  1.00  0.00    -0.000 C 
BRANCH  17  18
ATOM     18  C   UNL     1      -6.482   5.875  13.954  1.00  0.00    -0.000 C 
BRANCH  18  19
ATOM     19  C   UNL     1      -5.035   5.687  13.485  1.00  0.00    -0.003 C 
ATOM     20  C   UNL     1      -4.057   5.805  14.651  1.00  0.00     0.004 C 
ENDBRANCH  18  19
ENDBRANCH  17  18
ENDBRANCH  16  17
ENDBRANCH  15  16
ENDBRANCH  14  15
ENDBRANCH  13  14
ENDBRANCH  12  13
ENDBRANCH   1  12
TORSDOF 16
ENDMDL
MODEL 3
REMARK VINA RESULT:    -4.588      1.352      2.772
REMARK INTER + INTRA:         -10.682
REMARK INTER:                  -8.658
REMARK INTRA:                  -2.025
REMARK UNBOUND:                -1.803
REMARK SMILES CCCCCCCCCCCCCCCCCC(=O)[O-]
REMARK SMILES IDX 10 1 11 2 12 3 13 4 14 5 15 6 16 7 17 8 18 9 19 10 20 11
REMARK SMILES IDX 9 12 8 13 7 14 6 15 5 16 4 17 3 18 2 19 1 20
REMARK H PARENT
REMARK Flexibility Score: inf
ROOT
ATOM      1  C   UNL     1      -3.493   0.443  12.448  1.00  0.00     0.000 C 
ENDROOT
BRANCH   1   2
ATOM      2  C   UNL     1      -5.010   0.633  12.648  1.00  0.00     0.000 C 
BRANCH   2   3
ATOM      3  C   UNL     1      -5.406   1.722  13.666  1.00  0.00     0.000 C 
BRANCH   3   4
ATOM      4  C   UNL     1      -4.318   2.068  14.698  1.00  0.00     0.000 C 
BRANCH   4   5
ATOM      5  C   UNL     1      -4.029   3.577  14.774  1.00  0.00     0.000 C 
BRANCH   5   6
ATOM      6  C   UNL     1      -4.872   4.390  13.778  1.00  0.00     0.000 C 
BRANCH   6   7
ATOM      7  C   UNL     1      -5.821   5.378  14.477  1.00  0.00     0.006 C 
BRANCH   7   8
ATOM      8  C   UNL     1      -7.224   4.791  14.677  1.00  0.00     0.053 C 
BRANCH   8   9
ATOM      9  C   UNL     1      -7.452   4.374  16.097  1.00  0.00     0.041 C 
ATOM     10  O   UNL     1      -7.889   5.201  16.939  1.00  0.00    -0.550 OA
ATOM     11  O   UNL     1      -7.214   3.061  16.483  1.00  0.00    -0.550 OA
ENDBRANCH   8   9
ENDBRANCH   7   8
ENDBRANCH   6   7
ENDBRANCH   5   6
ENDBRANCH   4   5
ENDBRANCH   3   4
ENDBRANCH   2   3
ENDBRANCH   1   2
BRANCH   1  12
ATOM     12  C   UNL     1      -2.903   1.164  11.223  1.00  0.00     0.000 C 
BRANCH  12  13
ATOM     13  C   UNL     1      -3.801   1.061   9.981  1.00  0.00    -0.000 C 
BRANCH  13  14
ATOM     14  C   UNL     1      -3.279  -0.010   9.015  1.00  0.00    -0.000 C 
BRANCH  14  15
ATOM     15  C   UNL     1      -4.326  -1.112   8.798  1.00  0.00    -0.000 C 
BRANCH  15  16
ATOM     16  C   UNL     1      -3.916  -2.460   9.419  1.00  0.00    -0.000 C 
BRANCH  16  17
ATOM     17  C   UNL     1      -2.696  -2.402  10.355  1.00  0.00    -0.000 C 
BRANCH  17  18
ATOM     18  C   UNL     1      -2.713  -3.496  11.433  1.00  0.00    -0.000 C 
BRANCH  18  19
ATOM     19  C   UNL     1      -1.423  -3.471  12.261  1.00  0.00    -0.003 C 
ATOM     20  C   UNL     1      -0.634  -2.188  12.015  1.00  0.00     0.004 C 
ENDBRANCH  18  19
ENDBRANCH  17  18
ENDBRANCH  16  17
ENDBRANCH  15  16
ENDBRANCH  14  15
ENDBRANCH  13  14
ENDBRANCH  12  13
ENDBRANCH   1  12
TORSDOF 16
ENDMDL
MODEL 4
REMARK VINA RESULT:    -4.512      3.334      5.191
REMARK INTER + INTRA:         -10.535
REMARK INTER:                  -8.307
REMARK INTRA:                  -2.228
REMARK UNBOUND:                -1.803
REMARK SMILES CCCCCCCCCCCCCCCCCC(=O)[O-]
REMARK SMILES IDX 10 1 11 2 12 3 13 4 14 5 15 6 16 7 17 8 18 9 19 10 20 11
REMARK SMILES IDX 9 12 8 13 7 14 6 15 5 16 4 17 3 18 2 19 1 20
REMARK H PARENT
REMARK Flexibility Score: inf
ROOT
ATOM      1  C   UNL     1      -2.761   0.007  11.088  1.00  0.00     0.000 C 
ENDROOT
BRANCH   1   2
ATOM      2  C   UNL     1      -3.563   0.717   9.979  1.00  0.00     0.000 C 
BRANCH   2   3
ATOM      3  C   UNL     1      -4.368   1.950  10.439  1.00  0.00     0.000 C 
BRANCH   3   4
ATOM      4  C   UNL     1      -3.565   2.979  11.254  1.00  0.00     0.000 C 
BRANCH   4   5
ATOM      5  C   UNL     1      -4.127   3.184  12.672  1.00  0.00     0.000 C 
BRANCH   5   6
ATOM      6  C   UNL     1      -4.988   2.001  13.141  1.00  0.00     0.000 C 
BRANCH   6   7
ATOM      7  C   UNL     1      -4.807   1.697  14.638  1.00  0.00     0.006 C 
BRANCH   7   8
ATOM      8  C   UNL     1      -4.550   2.967  15.460  1.00  0.00     0.053 C 
BRANCH   8   9
ATOM      9  C   UNL     1      -5.785   3.422  16.175  1.00  0.00     0.041 C 
ATOM     10  O   UNL     1      -6.718   2.610  16.411  1.00  0.00    -0.550 OA
ATOM     11  O   UNL     1      -5.892   4.737  16.611  1.00  0.00    -0.550 OA
ENDBRANCH   8   9
ENDBRANCH   7   8
ENDBRANCH   6   7
ENDBRANCH   5   6
ENDBRANCH   4   5
ENDBRANCH   3   4
ENDBRANCH   2   3
ENDBRANCH   1   2
BRANCH   1  12
ATOM     12  C   UNL     1      -1.232   0.081  10.934  1.00  0.00     0.000 C 
BRANCH  12  13
ATOM     13  C   UNL     1      -0.499   0.148  12.281  1.00  0.00    -0.000 C 
BRANCH  13  14
ATOM     14  C   UNL     1      -1.496   0.264  13.441  1.00  0.00    -0.000 C 
BRANCH  14  15
ATOM     15  C   UNL     1      -1.157   1.463  14.339  1.00  0.00    -0.000 C 
BRANCH  15  16
ATOM     16  C   UNL     1      -1.353   1.166  15.837  1.00  0.00    -0.000 C 
BRANCH  16  17
ATOM     17  C   UNL     1      -0.896   2.285  16.789  1.00  0.00    -0.000 C 
BRANCH  17  18
ATOM     18  C   UNL     1      -0.181   1.755  18.041  1.00  0.00    -0.000 C 
BRANCH  18  19
ATOM     19  C   UNL     1      -0.403   0.247  18.203  1.00  0.00    -0.003 C 
ATOM     20  C   UNL     1      -0.531  -0.137  19.675  1.00  0.00     0.004 C 
ENDBRANCH  18  19
ENDBRANCH  17  18
ENDBRANCH  16  17
ENDBRANCH  15  16
ENDBRANCH  14  15
ENDBRANCH  13  14
ENDBRANCH  12  13
ENDBRANCH   1  12
TORSDOF 16
ENDMDL
MODEL 5
REMARK VINA RESULT:    -4.504      1.741      3.461
REMARK INTER + INTRA:         -10.521
REMARK INTER:                  -8.979
REMARK INTRA:                  -1.542
REMARK UNBOUND:                -1.803
REMARK SMILES CCCCCCCCCCCCCCCCCC(=O)[O-]
REMARK SMILES IDX 10 1 11 2 12 3 13 4 14 5 15 6 16 7 17 8 18 9 19 10 20 11
REMARK SMILES IDX 9 12 8 13 7 14 6 15 5 16 4 17 3 18 2 19 1 20
REMARK H PARENT
REMARK Flexibility Score: inf
ROOT
ATOM      1  C   UNL     1      -3.383   4.393  10.586  1.00  0.00     0.000 C 
ENDROOT
BRANCH   1   2
ATOM      2  C   UNL     1      -3.153   4.323  12.109  1.00  0.00     0.000 C 
BRANCH   2   3
ATOM      3  C   UNL     1      -4.048   5.255  12.951  1.00  0.00     0.000 C 
BRANCH   3   4
ATOM      4  C   UNL     1      -5.088   4.535  13.828  1.00  0.00     0.000 C 
BRANCH   4   5
ATOM      5  C   UNL     1      -5.099   3.013  13.607  1.00  0.00     0.000 C 
BRANCH   5   6
ATOM      6  C   UNL     1      -5.124   2.226  14.926  1.00  0.00     0.000 C 
BRANCH   6   7
ATOM      7  C   UNL     1      -5.579   3.086  16.118  1.00  0.00     0.006 C 
BRANCH   7   8
ATOM      8  C   UNL     1      -7.054   2.852  16.471  1.00  0.00     0.053 C 
BRANCH   8   9
ATOM      9  C   UNL     1      -7.907   4.021  16.086  1.00  0.00     0.041 C 
ATOM     10  O   UNL     1      -7.888   5.075  16.774  1.00  0.00    -0.550 OA
ATOM     11  O   UNL     1      -8.699   3.958  14.947  1.00  0.00    -0.550 OA
ENDBRANCH   8   9
ENDBRANCH   7   8
ENDBRANCH   6   7
ENDBRANCH   5   6
ENDBRANCH   4   5
ENDBRANCH   3   4
ENDBRANCH   2   3
ENDBRANCH   1   2
BRANCH   1  12
ATOM     12  C   UNL     1      -4.034   3.142   9.968  1.00  0.00     0.000 C 
BRANCH  12  13
ATOM     13  C   UNL     1      -3.116   1.912  10.006  1.00  0.00    -0.000 C 
BRANCH  13  14
ATOM     14  C   UNL     1      -3.936   0.617  10.040  1.00  0.00    -0.000 C 
BRANCH  14  15
ATOM     15  C   UNL     1      -3.989   0.037  11.461  1.00  0.00    -0.000 C 
BRANCH  15  16
ATOM     16  C   UNL     1      -2.727  -0.762  11.831  1.00  0.00    -0.000 C 
BRANCH  16  17
ATOM     17  C   UNL     1      -2.286  -1.803  10.788  1.00  0.00    -0.000 C 
BRANCH  17  18
ATOM     18  C   UNL     1      -2.591  -3.247  11.213  1.00  0.00    -0.000 C 
BRANCH  18  19
ATOM     19  C   UNL     1      -3.714  -3.846  10.360  1.00  0.00    -0.003 C 
ATOM     20  C   UNL     1      -4.548  -4.840  11.163  1.00  0.00     0.004 C 
ENDBRANCH  18  19
ENDBRANCH  17  18
ENDBRANCH  16  17
ENDBRANCH  15  16
ENDBRANCH  14  15
ENDBRANCH  13  14
ENDBRANCH  12  13
ENDBRANCH   1  12
TORSDOF 16
ENDMDL
MODEL 6
REMARK VINA RESULT:    -4.504      3.274      4.864
REMARK INTER + INTRA:         -10.520
REMARK INTER:                  -8.107
REMARK INTRA:                  -2.412
REMARK UNBOUND:                -1.803
REMARK SMILES CCCCCCCCCCCCCCCCCC(=O)[O-]
REMARK SMILES IDX 10 1 11 2 12 3 13 4 14 5 15 6 16 7 17 8 18 9 19 10 20 11
REMARK SMILES IDX 9 12 8 13 7 14 6 15 5 16 4 17 3 18 2 19 1 20
REMARK H PARENT
REMARK Flexibility Score: inf
ROOT
ATOM      1  C   UNL     1      -3.979   2.112  10.255  1.00  0.00     0.000 C 
ENDROOT
BRANCH   1   2
ATOM      2  C   UNL     1      -3.959   3.647  10.118  1.00  0.00     0.000 C 
BRANCH   2   3
ATOM      3  C   UNL     1      -2.938   4.373  11.018  1.00  0.00     0.000 C 
BRANCH   3   4
ATOM      4  C   UNL     1      -3.538   5.453  11.936  1.00  0.00     0.000 C 
BRANCH   4   5
ATOM      5  C   UNL     1      -4.467   4.868  13.014  1.00  0.00     0.000 C 
BRANCH   5   6
ATOM      6  C   UNL     1      -5.517   5.880  13.499  1.00  0.00     0.000 C 
BRANCH   6   7
ATOM      7  C   UNL     1      -6.727   5.201  14.163  1.00  0.00     0.006 C 
BRANCH   7   8
ATOM      8  C   UNL     1      -6.431   4.775  15.607  1.00  0.00     0.053 C 
BRANCH   8   9
ATOM      9  C   UNL     1      -7.346   3.678  16.058  1.00  0.00     0.041 C 
ATOM     10  O   UNL     1      -8.574   3.722  15.783  1.00  0.00    -0.550 OA
ATOM     11  O   UNL     1      -6.837   2.590  16.755  1.00  0.00    -0.550 OA
ENDBRANCH   8   9
ENDBRANCH   7   8
ENDBRANCH   6   7
ENDBRANCH   5   6
ENDBRANCH   4   5
ENDBRANCH   3   4
ENDBRANCH   2   3
ENDBRANCH   1   2
BRANCH   1  12
ATOM     12  C   UNL     1      -2.850   1.521  11.118  1.00  0.00     0.000 C 
BRANCH  12  13
ATOM     13  C   UNL     1      -3.373   0.680  12.291  1.00  0.00    -0.000 C 
BRANCH  13  14
ATOM     14  C   UNL     1      -4.880   0.891  12.486  1.00  0.00    -0.000 C 
BRANCH  14  15
ATOM     15  C   UNL     1      -5.170   1.572  13.832  1.00  0.00    -0.000 C 
BRANCH  15  16
ATOM     16  C   UNL     1      -4.018   1.422  14.841  1.00  0.00    -0.000 C 
BRANCH  16  17
ATOM     17  C   UNL     1      -3.451   2.746  15.384  1.00  0.00    -0.000 C 
BRANCH  17  18
ATOM     18  C   UNL     1      -1.923   2.724  15.546  1.00  0.00    -0.000 C 
BRANCH  18  19
ATOM     19  C   UNL     1      -1.395   1.285  15.576  1.00  0.00    -0.003 C 
ATOM     20  C   UNL     1      -0.695   0.982  16.898  1.00  0.00     0.004 C 
ENDBRANCH  18  19
ENDBRANCH  17  18
ENDBRANCH  16  17
ENDBRANCH  15  16
ENDBRANCH  14  15
ENDBRANCH  13  14
ENDBRANCH  12  13
ENDBRANCH   1  12
TORSDOF 16
ENDMDL
MODEL 7
REMARK VINA RESULT:    -4.501      1.744      3.767
REMARK INTER + INTRA:         -10.515
REMARK INTER:                  -8.420
REMARK INTRA:                  -2.095
REMARK UNBOUND:                -1.803
REMARK SMILES CCCCCCCCCCCCCCCCCC(=O)[O-]
REMARK SMILES IDX 10 1 11 2 12 3 13 4 14 5 15 6 16 7 17 8 18 9 19 10 20 11
REMARK SMILES IDX 9 12 8 13 7 14 6 15 5 16 4 17 3 18 2 19 1 20
REMARK H PARENT
REMARK Flexibility Score: inf
ROOT
ATOM      1  C   UNL     1      -0.652   0.299  12.565  1.00  0.00     0.000 C 
ENDROOT
BRANCH   1   2
ATOM      2  C   UNL     1      -1.471   0.608  13.834  1.00  0.00     0.000 C 
BRANCH   2   3
ATOM      3  C   UNL     1      -2.593   1.651  13.652  1.00  0.00     0.000 C 
BRANCH   3   4
ATOM      4  C   UNL     1      -3.896   1.338  14.409  1.00  0.00     0.000 C 
BRANCH   4   5
ATOM      5  C   UNL     1      -5.154   1.725  13.614  1.00  0.00     0.000 C 
BRANCH   5   6
ATOM      6  C   UNL     1      -5.981   2.815  14.313  1.00  0.00     0.000 C 
BRANCH   6   7
ATOM      7  C   UNL     1      -5.802   2.803  15.841  1.00  0.00     0.006 C 
BRANCH   7   8
ATOM      8  C   UNL     1      -7.142   2.905  16.581  1.00  0.00     0.053 C 
BRANCH   8   9
ATOM      9  C   UNL     1      -7.914   4.118  16.162  1.00  0.00     0.041 C 
ATOM     10  O   UNL     1      -7.756   5.211  16.765  1.00  0.00    -0.550 OA
ATOM     11  O   UNL     1      -8.785   4.049  15.083  1.00  0.00    -0.550 OA
ENDBRANCH   8   9
ENDBRANCH   7   8
ENDBRANCH   6   7
ENDBRANCH   5   6
ENDBRANCH   4   5
ENDBRANCH   3   4
ENDBRANCH   2   3
ENDBRANCH   1   2
BRANCH   1  12
ATOM     12  C   UNL     1      -0.478  -1.198  12.251  1.00  0.00     0.000 C 
BRANCH  12  13
ATOM     13  C   UNL     1      -1.134  -1.609  10.925  1.00  0.00    -0.000 C 
BRANCH  13  14
ATOM     14  C   UNL     1      -2.453  -2.350  11.173  1.00  0.00    -0.000 C 
BRANCH  14  15
ATOM     15  C   UNL     1      -3.655  -1.414  10.979  1.00  0.00    -0.000 C 
BRANCH  15  16
ATOM     16  C   UNL     1      -3.409  -0.335   9.909  1.00  0.00    -0.000 C 
BRANCH  16  17
ATOM     17  C   UNL     1      -4.037   1.037  10.210  1.00  0.00    -0.000 C 
BRANCH  17  18
ATOM     18  C   UNL     1      -3.039   2.197  10.081  1.00  0.00    -0.000 C 
BRANCH  18  19
ATOM     19  C   UNL     1      -3.768   3.538   9.946  1.00  0.00    -0.003 C 
ATOM     20  C   UNL     1      -3.643   4.366  11.222  1.00  0.00     0.004 C 
ENDBRANCH  18  19
ENDBRANCH  17  18
ENDBRANCH  16  17
ENDBRANCH  15  16
ENDBRANCH  14  15
ENDBRANCH  13  14
ENDBRANCH  12  13
ENDBRANCH   1  12
TORSDOF 16
ENDMDL
MODEL 8
REMARK VINA RESULT:    -4.478      4.077      8.178
REMARK INTER + INTRA:         -10.470
REMARK INTER:                  -8.667
REMARK INTRA:                  -1.803
REMARK UNBOUND:                -1.803
REMARK SMILES CCCCCCCCCCCCCCCCCC(=O)[O-]
REMARK SMILES IDX 10 1 11 2 12 3 13 4 14 5 15 6 16 7 17 8 18 9 19 10 20 11
REMARK SMILES IDX 9 12 8 13 7 14 6 15 5 16 4 17 3 18 2 19 1 20
REMARK H PARENT
REMARK Flexibility Score: inf
ROOT
ATOM      1  C   UNL     1      -2.944   3.855  11.460  1.00  0.00     0.000 C 
ENDROOT
BRANCH   1   2
ATOM      2  C   UNL     1      -3.543   3.077  10.271  1.00  0.00     0.000 C 
BRANCH   2   3
ATOM      3  C   UNL     1      -2.949   1.673  10.041  1.00  0.00     0.000 C 
BRANCH   3   4
ATOM      4  C   UNL     1      -3.985   0.572   9.750  1.00  0.00     0.000 C 
BRANCH   4   5
ATOM      5  C   UNL     1      -3.375  -0.840   9.777  1.00  0.00     0.000 C 
BRANCH   5   6
ATOM      6  C   UNL     1      -3.535  -1.526  11.142  1.00  0.00     0.000 C 
BRANCH   6   7
ATOM      7  C   UNL     1      -2.847  -2.901  11.196  1.00  0.00     0.006 C 
BRANCH   7   8
ATOM      8  C   UNL     1      -3.828  -4.026  11.553  1.00  0.00     0.053 C 
BRANCH   8   9
ATOM      9  C   UNL     1      -4.492  -4.588  10.334  1.00  0.00     0.041 C 
ATOM     10  O   UNL     1      -5.507  -5.324  10.446  1.00  0.00    -0.550 OA
ATOM     11  O   UNL     1      -4.008  -4.273   9.071  1.00  0.00    -0.550 OA
ENDBRANCH   8   9
ENDBRANCH   7   8
ENDBRANCH   6   7
ENDBRANCH   5   6
ENDBRANCH   4   5
ENDBRANCH   3   4
ENDBRANCH   2   3
ENDBRANCH   1   2
BRANCH   1  12
ATOM     12  C   UNL     1      -3.656   5.178  11.797  1.00  0.00     0.000 C 
BRANCH  12  13
ATOM     13  C   UNL     1      -3.969   5.322  13.293  1.00  0.00    -0.000 C 
BRANCH  13  14
ATOM     14  C   UNL     1      -5.471   5.536  13.520  1.00  0.00    -0.000 C 
BRANCH  14  15
ATOM     15  C   UNL     1      -5.804   5.553  15.019  1.00  0.00    -0.000 C 
BRANCH  15  16
ATOM     16  C   UNL     1      -6.739   4.405  15.439  1.00  0.00    -0.000 C 
BRANCH  16  17
ATOM     17  C   UNL     1      -6.444   3.048  14.776  1.00  0.00    -0.000 C 
BRANCH  17  18
ATOM     18  C   UNL     1      -5.174   2.376  15.320  1.00  0.00    -0.000 C 
BRANCH  18  19
ATOM     19  C   UNL     1      -4.488   1.539  14.235  1.00  0.00    -0.003 C 
ATOM     20  C   UNL     1      -5.396   1.355  13.022  1.00  0.00     0.004 C 
ENDBRANCH  18  19
ENDBRANCH  17  18
ENDBRANCH  16  17
ENDBRANCH  15  16
ENDBRANCH  14  15
ENDBRANCH  13  14
ENDBRANCH  12  13
ENDBRANCH   1  12
TORSDOF 16
ENDMDL
MODEL 9
REMARK VINA RESULT:    -4.443      3.205      5.317
REMARK INTER + INTRA:         -10.402
REMARK INTER:                  -8.037
REMARK INTRA:                  -2.364
REMARK UNBOUND:                -1.803
REMARK SMILES CCCCCCCCCCCCCCCCCC(=O)[O-]
REMARK SMILES IDX 10 1 11 2 12 3 13 4 14 5 15 6 16 7 17 8 18 9 19 10 20 11
REMARK SMILES IDX 9 12 8 13 7 14 6 15 5 16 4 17 3 18 2 19 1 20
REMARK H PARENT
REMARK Flexibility Score: inf
ROOT
ATOM      1  C   UNL     1      -2.473   2.745  15.423  1.00  0.00     0.000 C 
ENDROOT
BRANCH   1   2
ATOM      2  C   UNL     1      -3.798   3.441  15.792  1.00  0.00     0.000 C 
BRANCH   2   3
ATOM      3  C   UNL     1      -5.067   2.590  15.581  1.00  0.00     0.000 C 
BRANCH   3   4
ATOM      4  C   UNL     1      -5.906   2.974  14.349  1.00  0.00     0.000 C 
BRANCH   4   5
ATOM      5  C   UNL     1      -7.229   3.665  14.723  1.00  0.00     0.000 C 
BRANCH   5   6
ATOM      6  C   UNL     1      -7.475   3.686  16.239  1.00  0.00     0.000 C 
BRANCH   6   7
ATOM      7  C   UNL     1      -7.732   5.104  16.776  1.00  0.00     0.006 C 
BRANCH   7   8
ATOM      8  C   UNL     1      -6.433   5.818  17.174  1.00  0.00     0.053 C 
BRANCH   8   9
ATOM      9  C   UNL     1      -6.082   6.906  16.207  1.00  0.00     0.041 C 
ATOM     10  O   UNL     1      -6.482   8.084  16.404  1.00  0.00    -0.550 OA
ATOM     11  O   UNL     1      -5.284   6.627  15.105  1.00  0.00    -0.550 OA
ENDBRANCH   8   9
ENDBRANCH   7   8
ENDBRANCH   6   7
ENDBRANCH   5   6
ENDBRANCH   4   5
ENDBRANCH   3   4
ENDBRANCH   2   3
ENDBRANCH   1   2
BRANCH   1  12
ATOM     12  C   UNL     1      -2.625   1.360  14.771  1.00  0.00     0.000 C 
BRANCH  12  13
ATOM     13  C   UNL     1      -1.526   1.062  13.741  1.00  0.00    -0.000 C 
BRANCH  13  14
ATOM     14  C   UNL     1      -2.113   0.403  12.487  1.00  0.00    -0.000 C 
BRANCH  14  15
ATOM     15  C   UNL     1      -3.628   0.640  12.400  1.00  0.00    -0.000 C 
BRANCH  15  16
ATOM     16  C   UNL     1      -4.093   1.037  10.987  1.00  0.00    -0.000 C 
BRANCH  16  17
ATOM     17  C   UNL     1      -3.228   2.102  10.291  1.00  0.00    -0.000 C 
BRANCH  17  18
ATOM     18  C   UNL     1      -3.990   3.405  10.009  1.00  0.00    -0.000 C 
BRANCH  18  19
ATOM     19  C   UNL     1      -3.311   4.597  10.692  1.00  0.00    -0.003 C 
ATOM     20  C   UNL     1      -3.432   4.506  12.211  1.00  0.00     0.004 C 
ENDBRANCH  18  19
ENDBRANCH  17  18
ENDBRANCH  16  17
ENDBRANCH  15  16
ENDBRANCH  14  15
ENDBRANCH  13  14
ENDBRANCH  12  13
ENDBRANCH   1  12
TORSDOF 16
ENDMDL
