MODEL 1
REMARK VINA RESULT:    -4.417      0.000      0.000
REMARK INTER + INTRA:          -4.546
REMARK INTER:                  -4.546
REMARK INTRA:                   0.000
REMARK UNBOUND:                 0.000
REMARK SMILES CC1(C)[C@H]2CC[C@](C)(C2)[C@@H]1O
REMARK SMILES IDX 1 1 2 2 4 3 5 4 6 5 7 6 9 7 10 8 8 9 3 10 11 11
REMARK H PARENT 11 12
REMARK Flexibility Score: inf
ROOT
ATOM      1  C   UNL     1     103.930 104.907 104.024  1.00  0.00     0.014 C 
ATOM      2  C   UNL     1     105.200 105.532 103.388  1.00  0.00    -0.006 C 
ATOM      3  C   UNL     1     105.852 106.541 104.394  1.00  0.00    -0.002 C 
ATOM      4  C   UNL     1     107.261 106.965 103.930  1.00  0.00     0.005 C 
ATOM      5  C   UNL     1     106.969 107.799 102.674  1.00  0.00     0.010 C 
ATOM      6  C   UNL     1     105.423 107.837 102.642  1.00  0.00    -0.006 C 
ATOM      7  C   UNL     1     105.084 107.821 104.115  1.00  0.00     0.013 C 
ATOM      8  C   UNL     1     104.895 106.459 102.160  1.00  0.00     0.126 C 
ATOM      9  C   UNL     1     104.864 109.046 101.879  1.00  0.00     0.014 C 
ATOM     10  C   UNL     1     106.135 104.365 102.987  1.00  0.00     0.014 C 
ENDROOT
BRANCH   8  11
ATOM     11  O   UNL     1     103.519 106.530 101.875  1.00  0.00    -0.392 OA
ATOM     12  H   UNL     1     103.404 107.268 101.220  1.00  0.00     0.211 HD
ENDBRANCH   8  11
TORSDOF 1
ENDMDL
MODEL 2
REMARK VINA RESULT:    -4.401      1.626      2.790
REMARK INTER + INTRA:          -4.530
REMARK INTER:                  -4.530
REMARK INTRA:                   0.000
REMARK UNBOUND:                 0.000
REMARK SMILES CC1(C)[C@H]2CC[C@](C)(C2)[C@@H]1O
REMARK SMILES IDX 1 1 2 2 4 3 5 4 6 5 7 6 9 7 10 8 8 9 3 10 11 11
REMARK H PARENT 11 12
REMARK Flexibility Score: inf
ROOT
ATOM      1  C   UNL     1     107.095 104.037 103.968  1.00  0.00     0.014 C 
ATOM      2  C   UNL     1     106.443 105.255 103.260  1.00  0.00    -0.006 C 
ATOM      3  C   UNL     1     105.458 105.971 104.245  1.00  0.00    -0.002 C 
ATOM      4  C   UNL     1     105.009 107.342 103.695  1.00  0.00     0.005 C 
ATOM      5  C   UNL     1     104.143 106.956 102.487  1.00  0.00     0.010 C 
ATOM      6  C   UNL     1     104.116 105.411 102.565  1.00  0.00    -0.006 C 
ATOM      7  C   UNL     1     104.176 105.178 104.059  1.00  0.00     0.013 C 
ATOM      8  C   UNL     1     105.485 104.858 102.084  1.00  0.00     0.126 C 
ATOM      9  C   UNL     1     102.891 104.792 101.879  1.00  0.00     0.014 C 
ATOM     10  C   UNL     1     107.591 106.166 102.761  1.00  0.00     0.014 C 
ENDROOT
BRANCH   8  11
ATOM     11  O   UNL     1     105.417 103.465 101.900  1.00  0.00    -0.392 OA
ATOM     12  H   UNL     1     104.452 103.231 101.865  1.00  0.00     0.211 HD
ENDBRANCH   8  11
TORSDOF 1
ENDMDL
MODEL 3
REMARK VINA RESULT:    -4.381      1.608      2.777
REMARK INTER + INTRA:          -4.509
REMARK INTER:                  -4.509
REMARK INTRA:                   0.000
REMARK UNBOUND:                 0.000
REMARK SMILES CC1(C)[C@H]2CC[C@](C)(C2)[C@@H]1O
REMARK SMILES IDX 1 1 2 2 4 3 5 4 6 5 7 6 9 7 10 8 8 9 3 10 11 11
REMARK H PARENT 11 12
REMARK Flexibility Score: inf
ROOT
ATOM      1  C   UNL     1     104.791 108.096 103.906  1.00  0.00     0.014 C 
ATOM      2  C   UNL     1     105.383 106.851 103.194  1.00  0.00    -0.006 C 
ATOM      3  C   UNL     1     106.308 106.066 104.186  1.00  0.00    -0.002 C 
ATOM      4  C   UNL     1     106.685 104.679 103.625  1.00  0.00     0.005 C 
ATOM      5  C   UNL     1     107.593 105.028 102.437  1.00  0.00     0.010 C 
ATOM      6  C   UNL     1     107.709 106.567 102.536  1.00  0.00    -0.006 C 
ATOM      7  C   UNL     1     107.636 106.785 104.032  1.00  0.00     0.013 C 
ATOM      8  C   UNL     1     106.383 107.205 102.039  1.00  0.00     0.126 C 
ATOM      9  C   UNL     1     108.980 107.122 101.879  1.00  0.00     0.014 C 
ATOM     10  C   UNL     1     104.193 106.015 102.663  1.00  0.00     0.014 C 
ENDROOT
BRANCH   8  11
ATOM     11  O   UNL     1     106.536 108.595 101.875  1.00  0.00    -0.392 OA
ATOM     12  H   UNL     1     107.125 108.903 102.613  1.00  0.00     0.211 HD
ENDBRANCH   8  11
TORSDOF 1
ENDMDL
MODEL 4
REMARK VINA RESULT:    -4.346      1.963      3.968
REMARK INTER + INTRA:          -4.473
REMARK INTER:                  -4.473
REMARK INTRA:                   0.000
REMARK UNBOUND:                 0.000
REMARK SMILES CC1(C)[C@H]2CC[C@](C)(C2)[C@@H]1O
REMARK SMILES IDX 1 1 2 2 4 3 5 4 6 5 7 6 9 7 10 8 8 9 3 10 11 11
REMARK H PARENT 11 12
REMARK Flexibility Score: inf
ROOT
ATOM      1  C   UNL     1     108.143 107.115 104.050  1.00  0.00     0.014 C 
ATOM      2  C   UNL     1     106.884 106.448 103.432  1.00  0.00    -0.006 C 
ATOM      3  C   UNL     1     106.293 105.405 104.439  1.00  0.00    -0.002 C 
ATOM      4  C   UNL     1     104.891 104.931 103.999  1.00  0.00     0.005 C 
ATOM      5  C   UNL     1     105.189 104.123 102.728  1.00  0.00     0.010 C 
ATOM      6  C   UNL     1     106.735 104.145 102.664  1.00  0.00    -0.006 C 
ATOM      7  C   UNL     1     107.103 104.158 104.131  1.00  0.00     0.013 C 
ATOM      8  C   UNL     1     107.200 105.548 102.188  1.00  0.00     0.126 C 
ATOM      9  C   UNL     1     107.324 102.967 101.876  1.00  0.00     0.014 C 
ATOM     10  C   UNL     1     105.897 107.583 103.064  1.00  0.00     0.014 C 
ENDROOT
BRANCH   8  11
ATOM     11  O   UNL     1     108.571 105.533 101.875  1.00  0.00    -0.392 OA
ATOM     12  H   UNL     1     108.840 106.480 101.737  1.00  0.00     0.211 HD
ENDBRANCH   8  11
TORSDOF 1
ENDMDL
MODEL 5
REMARK VINA RESULT:    -4.344      1.381      2.401
REMARK INTER + INTRA:          -4.471
REMARK INTER:                  -4.471
REMARK INTRA:                   0.000
REMARK UNBOUND:                 0.000
REMARK SMILES CC1(C)[C@H]2CC[C@](C)(C2)[C@@H]1O
REMARK SMILES IDX 1 1 2 2 4 3 5 4 6 5 7 6 9 7 10 8 8 9 3 10 11 11
REMARK H PARENT 11 12
REMARK Flexibility Score: inf
ROOT
ATOM      1  C   UNL     1     103.683 105.472 101.880  1.00  0.00     0.014 C 
ATOM      2  C   UNL     1     104.488 105.914 103.131  1.00  0.00    -0.006 C 
ATOM      3  C   UNL     1     104.551 107.479 103.190  1.00  0.00    -0.002 C 
ATOM      4  C   UNL     1     105.083 107.968 104.554  1.00  0.00     0.005 C 
ATOM      5  C   UNL     1     106.551 107.518 104.527  1.00  0.00     0.010 C 
ATOM      6  C   UNL     1     106.701 106.926 103.106  1.00  0.00    -0.006 C 
ATOM      7  C   UNL     1     105.749 107.791 102.310  1.00  0.00     0.013 C 
ATOM      8  C   UNL     1     106.009 105.537 103.064  1.00  0.00     0.126 C 
ATOM      9  C   UNL     1     108.147 106.943 102.593  1.00  0.00     0.014 C 
ATOM     10  C   UNL     1     103.809 105.274 104.366  1.00  0.00     0.014 C 
ENDROOT
BRANCH   8  11
ATOM     11  O   UNL     1     106.337 104.858 101.875  1.00  0.00    -0.392 OA
ATOM     12  H   UNL     1     105.720 105.200 101.175  1.00  0.00     0.211 HD
ENDBRANCH   8  11
TORSDOF 1
ENDMDL
MODEL 6
REMARK VINA RESULT:    -4.333      1.190      3.201
REMARK INTER + INTRA:          -4.460
REMARK INTER:                  -4.460
REMARK INTRA:                   0.000
REMARK UNBOUND:                 0.000
REMARK SMILES CC1(C)[C@H]2CC[C@](C)(C2)[C@@H]1O
REMARK SMILES IDX 1 1 2 2 4 3 5 4 6 5 7 6 9 7 10 8 8 9 3 10 11 11
REMARK H PARENT 11 12
REMARK Flexibility Score: inf
ROOT
ATOM      1  C   UNL     1     105.437 108.297 101.893  1.00  0.00     0.014 C 
ATOM      2  C   UNL     1     105.881 107.499 103.148  1.00  0.00    -0.006 C 
ATOM      3  C   UNL     1     107.445 107.470 103.229  1.00  0.00    -0.002 C 
ATOM      4  C   UNL     1     107.928 106.945 104.598  1.00  0.00     0.005 C 
ATOM      5  C   UNL     1     107.511 105.468 104.562  1.00  0.00     0.010 C 
ATOM      6  C   UNL     1     106.941 105.308 103.133  1.00  0.00    -0.006 C 
ATOM      7  C   UNL     1     107.795 106.282 102.351  1.00  0.00     0.013 C 
ATOM      8  C   UNL     1     105.538 105.970 103.073  1.00  0.00     0.126 C 
ATOM      9  C   UNL     1     106.998 103.864 102.617  1.00  0.00     0.014 C 
ATOM     10  C   UNL     1     105.209 108.161 104.376  1.00  0.00     0.014 C 
ENDROOT
BRANCH   8  11
ATOM     11  O   UNL     1     104.883 105.630 101.875  1.00  0.00    -0.392 OA
ATOM     12  H   UNL     1     104.271 104.877 102.091  1.00  0.00     0.211 HD
ENDBRANCH   8  11
TORSDOF 1
ENDMDL
MODEL 7
REMARK VINA RESULT:    -4.302      1.677      3.383
REMARK INTER + INTRA:          -4.428
REMARK INTER:                  -4.428
REMARK INTRA:                   0.000
REMARK UNBOUND:                 0.000
REMARK SMILES CC1(C)[C@H]2CC[C@](C)(C2)[C@@H]1O
REMARK SMILES IDX 1 1 2 2 4 3 5 4 6 5 7 6 9 7 10 8 8 9 3 10 11 11
REMARK H PARENT 11 12
REMARK Flexibility Score: inf
ROOT
ATOM      1  C   UNL     1     108.357 106.825 101.898  1.00  0.00     0.014 C 
ATOM      2  C   UNL     1     107.530 106.244 103.077  1.00  0.00    -0.006 C 
ATOM      3  C   UNL     1     107.494 104.681 102.974  1.00  0.00    -0.002 C 
ATOM      4  C   UNL     1     106.939 104.046 104.267  1.00  0.00     0.005 C 
ATOM      5  C   UNL     1     105.464 104.473 104.249  1.00  0.00     0.010 C 
ATOM      6  C   UNL     1     105.337 105.206 102.892  1.00  0.00    -0.006 C 
ATOM      7  C   UNL     1     106.323 104.442 102.037  1.00  0.00     0.013 C 
ATOM      8  C   UNL     1     106.005 106.603 103.010  1.00  0.00     0.126 C 
ATOM      9  C   UNL     1     103.904 105.219 102.343  1.00  0.00     0.014 C 
ATOM     10  C   UNL     1     108.169 106.765 104.387  1.00  0.00     0.014 C 
ENDROOT
BRANCH   8  11
ATOM     11  O   UNL     1     105.693 107.395 101.889  1.00  0.00    -0.392 OA
ATOM     12  H   UNL     1     106.229 108.227 101.973  1.00  0.00     0.211 HD
ENDBRANCH   8  11
TORSDOF 1
ENDMDL
MODEL 8
REMARK VINA RESULT:    -4.295      1.650      2.799
REMARK INTER + INTRA:          -4.420
REMARK INTER:                  -4.420
REMARK INTRA:                   0.000
REMARK UNBOUND:                 0.000
REMARK SMILES CC1(C)[C@H]2CC[C@](C)(C2)[C@@H]1O
REMARK SMILES IDX 1 1 2 2 4 3 5 4 6 5 7 6 9 7 10 8 8 9 3 10 11 11
REMARK H PARENT 11 12
REMARK Flexibility Score: inf
ROOT
ATOM      1  C   UNL     1     106.999 103.528 101.970  1.00  0.00     0.014 C 
ATOM      2  C   UNL     1     106.361 104.405 103.081  1.00  0.00    -0.006 C 
ATOM      3  C   UNL     1     104.814 104.499 102.854  1.00  0.00    -0.002 C 
ATOM      4  C   UNL     1     104.102 105.110 104.079  1.00  0.00     0.005 C 
ATOM      5  C   UNL     1     104.589 106.567 104.064  1.00  0.00     0.010 C 
ATOM      6  C   UNL     1     105.431 106.632 102.768  1.00  0.00    -0.006 C 
ATOM      7  C   UNL     1     104.697 105.655 101.876  1.00  0.00     0.013 C 
ATOM      8  C   UNL     1     106.785 105.913 103.011  1.00  0.00     0.126 C 
ATOM      9  C   UNL     1     105.545 108.050 102.192  1.00  0.00     0.014 C 
ATOM     10  C   UNL     1     106.750 103.779 104.442  1.00  0.00     0.014 C 
ENDROOT
BRANCH   8  11
ATOM     11  O   UNL     1     107.675 106.167 101.950  1.00  0.00    -0.392 OA
ATOM     12  H   UNL     1     107.130 106.533 101.205  1.00  0.00     0.211 HD
ENDBRANCH   8  11
TORSDOF 1
ENDMDL
MODEL 9
REMARK VINA RESULT:    -4.251      1.549      3.129
REMARK INTER + INTRA:          -4.375
REMARK INTER:                  -4.375
REMARK INTRA:                   0.000
REMARK UNBOUND:                 0.000
REMARK SMILES CC1(C)[C@H]2CC[C@](C)(C2)[C@@H]1O
REMARK SMILES IDX 1 1 2 2 4 3 5 4 6 5 7 6 9 7 10 8 8 9 3 10 11 11
REMARK H PARENT 11 12
REMARK Flexibility Score: inf
ROOT
ATOM      1  C   UNL     1     107.877 106.783 104.986  1.00  0.00     0.014 C 
ATOM      2  C   UNL     1     106.964 106.920 103.738  1.00  0.00    -0.006 C 
ATOM      3  C   UNL     1     105.733 107.825 104.083  1.00  0.00    -0.002 C 
ATOM      4  C   UNL     1     104.957 108.227 102.810  1.00  0.00     0.005 C 
ATOM      5  C   UNL     1     104.347 106.895 102.350  1.00  0.00     0.010 C 
ATOM      6  C   UNL     1     104.760 105.922 103.479  1.00  0.00    -0.006 C 
ATOM      7  C   UNL     1     104.756 106.832 104.687  1.00  0.00     0.013 C 
ATOM      8  C   UNL     1     106.266 105.578 103.323  1.00  0.00     0.126 C 
ATOM      9  C   UNL     1     103.830 104.707 103.603  1.00  0.00     0.014 C 
ATOM     10  C   UNL     1     107.839 107.474 102.587  1.00  0.00     0.014 C 
ENDROOT
BRANCH   8  11
ATOM     11  O   UNL     1     106.620 104.510 104.168  1.00  0.00    -0.392 OA
ATOM     12  H   UNL     1     107.372 104.832 104.730  1.00  0.00     0.211 HD
ENDBRANCH   8  11
TORSDOF 1
ENDMDL
