MODEL 1
REMARK VINA RESULT:    -3.395      0.000      0.000
REMARK INTER + INTRA:         -11.041
REMARK INTER:                  -7.365
REMARK INTRA:                  -3.676
REMARK UNBOUND:                -3.676
REMARK SMILES CCCCCCCCCCCCCCCCCCCCCC(=O)[O-]
REMARK SMILES IDX 12 1 11 2 10 3 9 4 8 5 7 6 6 7 5 8 4 9 3 10 2 11 1 12 13 13
REMARK SMILES IDX 14 14 15 15 16 16 17 17 18 18 19 19 20 20 21 21 22 22 23 23
REMARK SMILES IDX 24 24
REMARK H PARENT
REMARK Flexibility Score: inf
ROOT
ATOM      1  C   UNL     1     -97.514  72.066  23.932  1.00  0.00     0.000 C 
ENDROOT
BRANCH   1   2
ATOM      2  C   UNL     1     -97.116  73.529  24.206  1.00  0.00     0.000 C 
BRANCH   2   3
ATOM      3  C   UNL     1     -95.785  73.980  23.576  1.00  0.00     0.000 C 
BRANCH   3   4
ATOM      4  C   UNL     1     -95.205  72.948  22.594  1.00  0.00    -0.000 C 
BRANCH   4   5
ATOM      5  C   UNL     1     -95.456  73.329  21.125  1.00  0.00    -0.000 C 
BRANCH   5   6
ATOM      6  C   UNL     1     -96.158  72.211  20.335  1.00  0.00    -0.000 C 
BRANCH   6   7
ATOM      7  C   UNL     1     -97.434  72.701  19.631  1.00  0.00    -0.000 C 
BRANCH   7   8
ATOM      8  C   UNL     1     -97.899  74.075  20.144  1.00  0.00    -0.000 C 
BRANCH   8   9
ATOM      9  C   UNL     1     -99.429  74.186  20.227  1.00  0.00    -0.000 C 
BRANCH   9  10
ATOM     10  C   UNL     1    -100.140  72.906  19.752  1.00  0.00    -0.000 C 
BRANCH  10  11
ATOM     11  C   UNL     1    -101.562  72.778  20.323  1.00  0.00    -0.003 C 
ATOM     12  C   UNL     1    -102.038  71.327  20.397  1.00  0.00     0.004 C 
ENDBRANCH  10  11
ENDBRANCH   9  10
ENDBRANCH   8   9
ENDBRANCH   7   8
ENDBRANCH   6   7
ENDBRANCH   5   6
ENDBRANCH   4   5
ENDBRANCH   3   4
ENDBRANCH   2   3
ENDBRANCH   1   2
BRANCH   1  13
ATOM     13  C   UNL     1     -98.759  71.939  23.040  1.00  0.00     0.000 C 
BRANCH  13  14
ATOM     14  C   UNL     1     -98.862  70.568  22.347  1.00  0.00     0.000 C 
BRANCH  14  15
ATOM     15  C   UNL     1     -99.859  69.577  22.985  1.00  0.00     0.000 C 
BRANCH  15  16
ATOM     16  C   UNL     1     -99.220  68.466  23.837  1.00  0.00     0.000 C 
BRANCH  16  17
ATOM     17  C   UNL     1     -99.475  68.645  25.340  1.00  0.00     0.000 C 
BRANCH  17  18
ATOM     18  C   UNL     1    -100.384  69.851  25.604  1.00  0.00     0.000 C 
BRANCH  18  19
ATOM     19  C   UNL     1     -99.696  70.866  26.529  1.00  0.00     0.000 C 
BRANCH  19  20
ATOM     20  C   UNL     1     -98.410  70.314  27.170  1.00  0.00     0.006 C 
BRANCH  20  21
ATOM     21  C   UNL     1     -98.515  70.063  28.684  1.00  0.00     0.053 C 
BRANCH  21  22
ATOM     22  C   UNL     1     -99.007  68.683  28.992  1.00  0.00     0.041 C 
ATOM     23  O   UNL     1     -98.200  67.788  29.357  1.00  0.00    -0.550 OA
ATOM     24  O   UNL     1    -100.364  68.394  28.909  1.00  0.00    -0.550 OA
ENDBRANCH  21  22
ENDBRANCH  20  21
ENDBRANCH  19  20
ENDBRANCH  18  19
ENDBRANCH  17  18
ENDBRANCH  16  17
ENDBRANCH  15  16
ENDBRANCH  14  15
ENDBRANCH  13  14
ENDBRANCH   1  13
TORSDOF 20
ENDMDL
MODEL 2
REMARK VINA RESULT:    -3.284      3.330      7.752
REMARK INTER + INTRA:         -10.800
REMARK INTER:                  -6.907
REMARK INTRA:                  -3.893
REMARK UNBOUND:                -3.676
REMARK SMILES CCCCCCCCCCCCCCCCCCCCCC(=O)[O-]
REMARK SMILES IDX 12 1 11 2 10 3 9 4 8 5 7 6 6 7 5 8 4 9 3 10 2 11 1 12 13 13
REMARK SMILES IDX 14 14 15 15 16 16 17 17 18 18 19 19 20 20 21 21 22 22 23 23
REMARK SMILES IDX 24 24
REMARK H PARENT
REMARK Flexibility Score: inf
ROOT
ATOM      1  C   UNL     1    -100.706  69.249  26.069  1.00  0.00     0.000 C 
ENDROOT
BRANCH   1   2
ATOM      2  C   UNL     1    -101.034  70.727  26.353  1.00  0.00     0.000 C 
BRANCH   2   3
ATOM      3  C   UNL     1    -102.532  71.056  26.493  1.00  0.00     0.000 C 
BRANCH   3   4
ATOM      4  C   UNL     1    -103.049  70.899  27.933  1.00  0.00    -0.000 C 
BRANCH   4   5
ATOM      5  C   UNL     1    -101.960  71.175  28.983  1.00  0.00    -0.000 C 
BRANCH   5   6
ATOM      6  C   UNL     1    -101.695  69.965  29.895  1.00  0.00    -0.000 C 
BRANCH   6   7
ATOM      7  C   UNL     1    -100.267  69.959  30.464  1.00  0.00    -0.000 C 
BRANCH   7   8
ATOM      8  C   UNL     1     -99.314  69.063  29.655  1.00  0.00    -0.000 C 
BRANCH   8   9
ATOM      9  C   UNL     1     -98.259  69.870  28.881  1.00  0.00    -0.000 C 
BRANCH   9  10
ATOM     10  C   UNL     1     -98.302  71.371  29.218  1.00  0.00    -0.000 C 
BRANCH  10  11
ATOM     11  C   UNL     1     -98.271  72.256  27.962  1.00  0.00    -0.003 C 
ATOM     12  C   UNL     1     -99.231  73.443  28.053  1.00  0.00     0.004 C 
ENDBRANCH  10  11
ENDBRANCH   9  10
ENDBRANCH   8   9
ENDBRANCH   7   8
ENDBRANCH   6   7
ENDBRANCH   5   6
ENDBRANCH   4   5
ENDBRANCH   3   4
ENDBRANCH   2   3
ENDBRANCH   1   2
BRANCH   1  13
ATOM     13  C   UNL     1     -99.240  69.026  25.662  1.00  0.00     0.000 C 
BRANCH  13  14
ATOM     14  C   UNL     1     -99.095  68.377  24.274  1.00  0.00     0.000 C 
BRANCH  14  15
ATOM     15  C   UNL     1     -99.682  69.190  23.099  1.00  0.00     0.000 C 
BRANCH  15  16
ATOM     16  C   UNL     1     -98.841  70.401  22.659  1.00  0.00     0.000 C 
BRANCH  16  17
ATOM     17  C   UNL     1     -99.585  71.734  22.819  1.00  0.00     0.000 C 
BRANCH  17  18
ATOM     18  C   UNL     1     -98.954  72.586  23.927  1.00  0.00     0.000 C 
BRANCH  18  19
ATOM     19  C   UNL     1     -97.543  72.087  24.268  1.00  0.00     0.000 C 
BRANCH  19  20
ATOM     20  C   UNL     1     -96.446  73.105  23.912  1.00  0.00     0.006 C 
BRANCH  20  21
ATOM     21  C   UNL     1     -95.481  72.638  22.809  1.00  0.00     0.053 C 
BRANCH  21  22
ATOM     22  C   UNL     1     -96.137  72.611  21.463  1.00  0.00     0.041 C 
ATOM     23  O   UNL     1     -96.057  71.585  20.738  1.00  0.00    -0.550 OA
ATOM     24  O   UNL     1     -96.869  73.708  21.024  1.00  0.00    -0.550 OA
ENDBRANCH  21  22
ENDBRANCH  20  21
ENDBRANCH  19  20
ENDBRANCH  18  19
ENDBRANCH  17  18
ENDBRANCH  16  17
ENDBRANCH  15  16
ENDBRANCH  14  15
ENDBRANCH  13  14
ENDBRANCH   1  13
TORSDOF 20
ENDMDL
MODEL 3
REMARK VINA RESULT:    -3.207      1.701      3.217
REMARK INTER + INTRA:         -10.632
REMARK INTER:                  -7.201
REMARK INTRA:                  -3.431
REMARK UNBOUND:                -3.676
REMARK SMILES CCCCCCCCCCCCCCCCCCCCCC(=O)[O-]
REMARK SMILES IDX 12 1 11 2 10 3 9 4 8 5 7 6 6 7 5 8 4 9 3 10 2 11 1 12 13 13
REMARK SMILES IDX 14 14 15 15 16 16 17 17 18 18 19 19 20 20 21 21 22 22 23 23
REMARK SMILES IDX 24 24
REMARK H PARENT
REMARK Flexibility Score: inf
ROOT
ATOM      1  C   UNL     1     -96.090  72.210  21.188  1.00  0.00     0.000 C 
ENDROOT
BRANCH   1   2
ATOM      2  C   UNL     1     -95.467  73.603  21.396  1.00  0.00     0.000 C 
BRANCH   2   3
ATOM      3  C   UNL     1     -95.660  74.210  22.797  1.00  0.00     0.000 C 
BRANCH   3   4
ATOM      4  C   UNL     1     -96.064  73.168  23.854  1.00  0.00    -0.000 C 
BRANCH   4   5
ATOM      5  C   UNL     1     -97.432  73.471  24.486  1.00  0.00    -0.000 C 
BRANCH   5   6
ATOM      6  C   UNL     1     -98.056  74.773  23.954  1.00  0.00    -0.000 C 
BRANCH   6   7
ATOM      7  C   UNL     1     -99.557  74.626  23.653  1.00  0.00    -0.000 C 
BRANCH   7   8
ATOM      8  C   UNL     1    -100.132  73.294  24.165  1.00  0.00    -0.000 C 
BRANCH   8   9
ATOM      9  C   UNL     1    -101.040  73.477  25.391  1.00  0.00    -0.000 C 
BRANCH   9  10
ATOM     10  C   UNL     1    -102.468  72.958  25.150  1.00  0.00    -0.000 C 
BRANCH  10  11
ATOM     11  C   UNL     1    -102.543  71.423  25.146  1.00  0.00    -0.003 C 
ATOM     12  C   UNL     1    -102.993  70.858  23.798  1.00  0.00     0.004 C 
ENDBRANCH  10  11
ENDBRANCH   9  10
ENDBRANCH   8   9
ENDBRANCH   7   8
ENDBRANCH   6   7
ENDBRANCH   5   6
ENDBRANCH   4   5
ENDBRANCH   3   4
ENDBRANCH   2   3
ENDBRANCH   1   2
BRANCH   1  13
ATOM     13  C   UNL     1     -97.432  72.257  20.438  1.00  0.00     0.000 C 
BRANCH  13  14
ATOM     14  C   UNL     1     -98.612  71.752  21.288  1.00  0.00     0.000 C 
BRANCH  14  15
ATOM     15  C   UNL     1     -98.276  70.615  22.276  1.00  0.00     0.000 C 
BRANCH  15  16
ATOM     16  C   UNL     1     -99.483  70.016  23.019  1.00  0.00     0.000 C 
BRANCH  16  17
ATOM     17  C   UNL     1     -99.157  68.686  23.713  1.00  0.00     0.000 C 
BRANCH  17  18
ATOM     18  C   UNL     1     -99.362  68.793  25.229  1.00  0.00     0.000 C 
BRANCH  18  19
ATOM     19  C   UNL     1     -99.145  70.234  25.713  1.00  0.00     0.000 C 
BRANCH  19  20
ATOM     20  C   UNL     1     -98.588  70.306  27.146  1.00  0.00     0.006 C 
BRANCH  20  21
ATOM     21  C   UNL     1     -98.340  68.937  27.800  1.00  0.00     0.053 C 
BRANCH  21  22
ATOM     22  C   UNL     1     -99.345  68.633  28.867  1.00  0.00     0.041 C 
ATOM     23  O   UNL     1    -100.555  68.454  28.567  1.00  0.00    -0.550 OA
ATOM     24  O   UNL     1     -98.940  68.513  30.191  1.00  0.00    -0.550 OA
ENDBRANCH  21  22
ENDBRANCH  20  21
ENDBRANCH  19  20
ENDBRANCH  18  19
ENDBRANCH  17  18
ENDBRANCH  16  17
ENDBRANCH  15  16
ENDBRANCH  14  15
ENDBRANCH  13  14
ENDBRANCH   1  13
TORSDOF 20
ENDMDL
MODEL 4
REMARK VINA RESULT:    -3.206      1.808      3.258
REMARK INTER + INTRA:         -10.630
REMARK INTER:                  -6.907
REMARK INTRA:                  -3.723
REMARK UNBOUND:                -3.676
REMARK SMILES CCCCCCCCCCCCCCCCCCCCCC(=O)[O-]
REMARK SMILES IDX 12 1 11 2 10 3 9 4 8 5 7 6 6 7 5 8 4 9 3 10 2 11 1 12 13 13
REMARK SMILES IDX 14 14 15 15 16 16 17 17 18 18 19 19 20 20 21 21 22 22 23 23
REMARK SMILES IDX 24 24
REMARK H PARENT
REMARK Flexibility Score: inf
ROOT
ATOM      1  C   UNL     1     -96.775  71.803  21.158  1.00  0.00     0.000 C 
ENDROOT
BRANCH   1   2
ATOM      2  C   UNL     1     -95.814  73.003  21.060  1.00  0.00     0.000 C 
BRANCH   2   3
ATOM      3  C   UNL     1     -95.739  73.893  22.313  1.00  0.00     0.000 C 
BRANCH   3   4
ATOM      4  C   UNL     1     -96.017  73.123  23.615  1.00  0.00    -0.000 C 
BRANCH   4   5
ATOM      5  C   UNL     1     -97.333  73.554  24.284  1.00  0.00    -0.000 C 
BRANCH   5   6
ATOM      6  C   UNL     1     -97.943  72.446  25.160  1.00  0.00    -0.000 C 
BRANCH   6   7
ATOM      7  C   UNL     1     -99.434  72.682  25.453  1.00  0.00    -0.000 C 
BRANCH   7   8
ATOM      8  C   UNL     1    -100.147  73.429  24.313  1.00  0.00    -0.000 C 
BRANCH   8   9
ATOM      9  C   UNL     1    -101.638  73.071  24.214  1.00  0.00    -0.000 C 
BRANCH   9  10
ATOM     10  C   UNL     1    -101.941  71.657  24.740  1.00  0.00    -0.000 C 
BRANCH  10  11
ATOM     11  C   UNL     1    -103.066  70.966  23.954  1.00  0.00    -0.003 C 
ATOM     12  C   UNL     1    -102.862  71.043  22.441  1.00  0.00     0.004 C 
ENDBRANCH  10  11
ENDBRANCH   9  10
ENDBRANCH   8   9
ENDBRANCH   7   8
ENDBRANCH   6   7
ENDBRANCH   5   6
ENDBRANCH   4   5
ENDBRANCH   3   4
ENDBRANCH   2   3
ENDBRANCH   1   2
BRANCH   1  13
ATOM     13  C   UNL     1     -98.233  72.174  20.843  1.00  0.00     0.000 C 
BRANCH  13  14
ATOM     14  C   UNL     1     -99.250  71.330  21.633  1.00  0.00     0.000 C 
BRANCH  14  15
ATOM     15  C   UNL     1     -98.641  70.251  22.553  1.00  0.00     0.000 C 
BRANCH  15  16
ATOM     16  C   UNL     1     -99.654  69.272  23.172  1.00  0.00     0.000 C 
BRANCH  16  17
ATOM     17  C   UNL     1     -99.092  68.520  24.386  1.00  0.00     0.000 C 
BRANCH  17  18
ATOM     18  C   UNL     1     -99.672  69.073  25.693  1.00  0.00     0.000 C 
BRANCH  18  19
ATOM     19  C   UNL     1     -98.603  69.114  26.795  1.00  0.00     0.000 C 
BRANCH  19  20
ATOM     20  C   UNL     1     -99.093  69.805  28.079  1.00  0.00     0.006 C 
BRANCH  20  21
ATOM     21  C   UNL     1    -100.136  69.001  28.873  1.00  0.00     0.053 C 
BRANCH  21  22
ATOM     22  C   UNL     1    -101.383  69.792  29.124  1.00  0.00     0.041 C 
ATOM     23  O   UNL     1    -101.919  69.787  30.264  1.00  0.00    -0.550 OA
ATOM     24  O   UNL     1    -101.934  70.562  28.108  1.00  0.00    -0.550 OA
ENDBRANCH  21  22
ENDBRANCH  20  21
ENDBRANCH  19  20
ENDBRANCH  18  19
ENDBRANCH  17  18
ENDBRANCH  16  17
ENDBRANCH  15  16
ENDBRANCH  14  15
ENDBRANCH  13  14
ENDBRANCH   1  13
TORSDOF 20
ENDMDL
MODEL 5
REMARK VINA RESULT:    -3.179      1.510      4.215
REMARK INTER + INTRA:         -10.572
REMARK INTER:                  -6.782
REMARK INTRA:                  -3.790
REMARK UNBOUND:                -3.676
REMARK SMILES CCCCCCCCCCCCCCCCCCCCCC(=O)[O-]
REMARK SMILES IDX 12 1 11 2 10 3 9 4 8 5 7 6 6 7 5 8 4 9 3 10 2 11 1 12 13 13
REMARK SMILES IDX 14 14 15 15 16 16 17 17 18 18 19 19 20 20 21 21 22 22 23 23
REMARK SMILES IDX 24 24
REMARK H PARENT
REMARK Flexibility Score: inf
ROOT
ATOM      1  C   UNL     1     -99.315  68.588  24.303  1.00  0.00     0.000 C 
ENDROOT
BRANCH   1   2
ATOM      2  C   UNL     1     -99.104  69.691  23.249  1.00  0.00     0.000 C 
BRANCH   2   3
ATOM      3  C   UNL     1    -100.322  69.994  22.357  1.00  0.00     0.000 C 
BRANCH   3   4
ATOM      4  C   UNL     1    -100.596  71.499  22.204  1.00  0.00    -0.000 C 
BRANCH   4   5
ATOM      5  C   UNL     1     -99.799  72.128  21.049  1.00  0.00    -0.000 C 
BRANCH   5   6
ATOM      6  C   UNL     1     -99.049  73.404  21.472  1.00  0.00    -0.000 C 
BRANCH   6   7
ATOM      7  C   UNL     1     -99.327  73.792  22.933  1.00  0.00    -0.000 C 
BRANCH   7   8
ATOM      8  C   UNL     1     -98.035  74.021  23.737  1.00  0.00    -0.000 C 
BRANCH   8   9
ATOM      9  C   UNL     1     -97.248  72.722  23.971  1.00  0.00    -0.000 C 
BRANCH   9  10
ATOM     10  C   UNL     1     -95.809  72.799  23.431  1.00  0.00    -0.000 C 
BRANCH  10  11
ATOM     11  C   UNL     1     -95.579  74.033  22.544  1.00  0.00    -0.003 C 
ATOM     12  C   UNL     1     -95.253  73.666  21.096  1.00  0.00     0.004 C 
ENDBRANCH  10  11
ENDBRANCH   9  10
ENDBRANCH   8   9
ENDBRANCH   7   8
ENDBRANCH   6   7
ENDBRANCH   5   6
ENDBRANCH   4   5
ENDBRANCH   3   4
ENDBRANCH   2   3
ENDBRANCH   1   2
BRANCH   1  13
ATOM     13  C   UNL     1     -99.308  69.126  25.744  1.00  0.00     0.000 C 
BRANCH  13  14
ATOM     14  C   UNL     1    -100.606  68.808  26.508  1.00  0.00     0.000 C 
BRANCH  14  15
ATOM     15  C   UNL     1    -101.486  70.028  26.852  1.00  0.00     0.000 C 
BRANCH  15  16
ATOM     16  C   UNL     1    -101.704  71.023  25.698  1.00  0.00     0.000 C 
BRANCH  16  17
ATOM     17  C   UNL     1    -100.854  72.294  25.838  1.00  0.00     0.000 C 
BRANCH  17  18
ATOM     18  C   UNL     1    -100.385  72.486  27.285  1.00  0.00     0.000 C 
BRANCH  18  19
ATOM     19  C   UNL     1     -98.856  72.613  27.354  1.00  0.00     0.000 C 
BRANCH  19  20
ATOM     20  C   UNL     1     -98.202  71.506  28.200  1.00  0.00     0.006 C 
BRANCH  20  21
ATOM     21  C   UNL     1     -98.945  71.184  29.506  1.00  0.00     0.053 C 
BRANCH  21  22
ATOM     22  C   UNL     1     -99.037  69.709  29.751  1.00  0.00     0.041 C 
ATOM     23  O   UNL     1     -98.331  68.909  29.082  1.00  0.00    -0.550 OA
ATOM     24  O   UNL     1     -99.877  69.220  30.744  1.00  0.00    -0.550 OA
ENDBRANCH  21  22
ENDBRANCH  20  21
ENDBRANCH  19  20
ENDBRANCH  18  19
ENDBRANCH  17  18
ENDBRANCH  16  17
ENDBRANCH  15  16
ENDBRANCH  14  15
ENDBRANCH  13  14
ENDBRANCH   1  13
TORSDOF 20
ENDMDL
MODEL 6
REMARK VINA RESULT:    -3.166      1.846      3.348
REMARK INTER + INTRA:         -10.544
REMARK INTER:                  -7.185
REMARK INTRA:                  -3.359
REMARK UNBOUND:                -3.676
REMARK SMILES CCCCCCCCCCCCCCCCCCCCCC(=O)[O-]
REMARK SMILES IDX 12 1 11 2 10 3 9 4 8 5 7 6 6 7 5 8 4 9 3 10 2 11 1 12 13 13
REMARK SMILES IDX 14 14 15 15 16 16 17 17 18 18 19 19 20 20 21 21 22 22 23 23
REMARK SMILES IDX 24 24
REMARK H PARENT
REMARK Flexibility Score: inf
ROOT
ATOM      1  C   UNL     1     -98.698  73.834  24.641  1.00  0.00     0.000 C 
ENDROOT
BRANCH   1   2
ATOM      2  C   UNL     1     -97.376  74.622  24.681  1.00  0.00     0.000 C 
BRANCH   2   3
ATOM      3  C   UNL     1     -96.528  74.555  23.398  1.00  0.00     0.000 C 
BRANCH   3   4
ATOM      4  C   UNL     1     -95.785  73.218  23.236  1.00  0.00    -0.000 C 
BRANCH   4   5
ATOM      5  C   UNL     1     -95.595  72.825  21.762  1.00  0.00    -0.000 C 
BRANCH   5   6
ATOM      6  C   UNL     1     -96.512  71.665  21.335  1.00  0.00    -0.000 C 
BRANCH   6   7
ATOM      7  C   UNL     1     -97.895  72.150  20.870  1.00  0.00    -0.000 C 
BRANCH   7   8
ATOM      8  C   UNL     1     -99.043  71.516  21.675  1.00  0.00    -0.000 C 
BRANCH   8   9
ATOM      9  C   UNL     1     -98.564  70.375  22.586  1.00  0.00    -0.000 C 
BRANCH   9  10
ATOM     10  C   UNL     1     -99.713  69.453  23.030  1.00  0.00    -0.000 C 
BRANCH  10  11
ATOM     11  C   UNL     1     -99.231  68.305  23.931  1.00  0.00    -0.003 C 
ATOM     12  C   UNL     1     -98.873  68.772  25.342  1.00  0.00     0.004 C 
ENDBRANCH  10  11
ENDBRANCH   9  10
ENDBRANCH   8   9
ENDBRANCH   7   8
ENDBRANCH   6   7
ENDBRANCH   5   6
ENDBRANCH   4   5
ENDBRANCH   3   4
ENDBRANCH   2   3
ENDBRANCH   1   2
BRANCH   1  13
ATOM     13  C   UNL     1     -98.644  72.527  25.449  1.00  0.00     0.000 C 
BRANCH  13  14
ATOM     14  C   UNL     1    -100.015  72.117  26.017  1.00  0.00     0.000 C 
BRANCH  14  15
ATOM     15  C   UNL     1    -101.193  72.194  25.023  1.00  0.00     0.000 C 
BRANCH  15  16
ATOM     16  C   UNL     1    -102.343  71.208  25.294  1.00  0.00     0.000 C 
BRANCH  16  17
ATOM     17  C   UNL     1    -102.015  70.199  26.403  1.00  0.00     0.000 C 
BRANCH  17  18
ATOM     18  C   UNL     1    -102.621  70.635  27.742  1.00  0.00     0.000 C 
BRANCH  18  19
ATOM     19  C   UNL     1    -101.884  69.980  28.919  1.00  0.00     0.000 C 
BRANCH  19  20
ATOM     20  C   UNL     1    -100.799  68.986  28.466  1.00  0.00     0.006 C 
BRANCH  20  21
ATOM     21  C   UNL     1     -99.578  68.912  29.398  1.00  0.00     0.053 C 
BRANCH  21  22
ATOM     22  C   UNL     1     -98.751  70.159  29.341  1.00  0.00     0.041 C 
ATOM     23  O   UNL     1     -98.779  70.984  30.292  1.00  0.00    -0.550 OA
ATOM     24  O   UNL     1     -97.921  70.393  28.251  1.00  0.00    -0.550 OA
ENDBRANCH  21  22
ENDBRANCH  20  21
ENDBRANCH  19  20
ENDBRANCH  18  19
ENDBRANCH  17  18
ENDBRANCH  16  17
ENDBRANCH  15  16
ENDBRANCH  14  15
ENDBRANCH  13  14
ENDBRANCH   1  13
TORSDOF 20
ENDMDL
MODEL 7
REMARK VINA RESULT:    -3.067      3.012      6.655
REMARK INTER + INTRA:         -10.329
REMARK INTER:                  -6.048
REMARK INTRA:                  -4.281
REMARK UNBOUND:                -3.676
REMARK SMILES CCCCCCCCCCCCCCCCCCCCCC(=O)[O-]
REMARK SMILES IDX 12 1 11 2 10 3 9 4 8 5 7 6 6 7 5 8 4 9 3 10 2 11 1 12 13 13
REMARK SMILES IDX 14 14 15 15 16 16 17 17 18 18 19 19 20 20 21 21 22 22 23 23
REMARK SMILES IDX 24 24
REMARK H PARENT
REMARK Flexibility Score: inf
ROOT
ATOM      1  C   UNL     1     -98.119  71.424  21.701  1.00  0.00     0.000 C 
ENDROOT
BRANCH   1   2
ATOM      2  C   UNL     1     -99.649  71.279  21.808  1.00  0.00     0.000 C 
BRANCH   2   3
ATOM      3  C   UNL     1    -100.142  70.098  22.663  1.00  0.00     0.000 C 
BRANCH   3   4
ATOM      4  C   UNL     1     -99.000  69.188  23.146  1.00  0.00    -0.000 C 
BRANCH   4   5
ATOM      5  C   UNL     1     -99.375  68.393  24.408  1.00  0.00    -0.000 C 
BRANCH   5   6
ATOM      6  C   UNL     1     -98.969  69.114  25.705  1.00  0.00    -0.000 C 
BRANCH   6   7
ATOM      7  C   UNL     1     -99.992  68.911  26.835  1.00  0.00    -0.000 C 
BRANCH   7   8
ATOM      8  C   UNL     1     -99.521  69.513  28.170  1.00  0.00    -0.000 C 
BRANCH   8   9
ATOM      9  C   UNL     1     -98.242  70.352  28.021  1.00  0.00    -0.000 C 
BRANCH   9  10
ATOM     10  C   UNL     1     -98.239  71.590  28.936  1.00  0.00    -0.000 C 
BRANCH  10  11
ATOM     11  C   UNL     1     -99.655  72.118  29.215  1.00  0.00    -0.003 C 
ATOM     12  C   UNL     1     -99.687  73.629  29.446  1.00  0.00     0.004 C 
ENDBRANCH  10  11
ENDBRANCH   9  10
ENDBRANCH   8   9
ENDBRANCH   7   8
ENDBRANCH   6   7
ENDBRANCH   5   6
ENDBRANCH   4   5
ENDBRANCH   3   4
ENDBRANCH   2   3
ENDBRANCH   1   2
BRANCH   1  13
ATOM     13  C   UNL     1     -97.599  72.750  22.282  1.00  0.00     0.000 C 
BRANCH  13  14
ATOM     14  C   UNL     1     -96.931  72.581  23.658  1.00  0.00     0.000 C 
BRANCH  14  15
ATOM     15  C   UNL     1     -97.897  72.322  24.834  1.00  0.00     0.000 C 
BRANCH  15  16
ATOM     16  C   UNL     1     -98.256  73.562  25.671  1.00  0.00     0.000 C 
BRANCH  16  17
ATOM     17  C   UNL     1     -99.768  73.826  25.728  1.00  0.00     0.000 C 
BRANCH  17  18
ATOM     18  C   UNL     1    -100.551  72.681  25.073  1.00  0.00     0.000 C 
BRANCH  18  19
ATOM     19  C   UNL     1    -101.506  72.024  26.079  1.00  0.00     0.000 C 
BRANCH  19  20
ATOM     20  C   UNL     1    -102.572  71.142  25.404  1.00  0.00     0.006 C 
BRANCH  20  21
ATOM     21  C   UNL     1    -103.569  71.915  24.524  1.00  0.00     0.053 C 
BRANCH  21  22
ATOM     22  C   UNL     1    -103.506  71.483  23.092  1.00  0.00     0.041 C 
ATOM     23  O   UNL     1    -103.081  72.275  22.209  1.00  0.00    -0.550 OA
ATOM     24  O   UNL     1    -103.883  70.194  22.736  1.00  0.00    -0.550 OA
ENDBRANCH  21  22
ENDBRANCH  20  21
ENDBRANCH  19  20
ENDBRANCH  18  19
ENDBRANCH  17  18
ENDBRANCH  16  17
ENDBRANCH  15  16
ENDBRANCH  14  15
ENDBRANCH  13  14
ENDBRANCH   1  13
TORSDOF 20
ENDMDL
MODEL 8
REMARK VINA RESULT:    -3.049      3.327      7.087
REMARK INTER + INTRA:         -10.290
REMARK INTER:                  -6.558
REMARK INTRA:                  -3.731
REMARK UNBOUND:                -3.676
REMARK SMILES CCCCCCCCCCCCCCCCCCCCCC(=O)[O-]
REMARK SMILES IDX 12 1 11 2 10 3 9 4 8 5 7 6 6 7 5 8 4 9 3 10 2 11 1 12 13 13
REMARK SMILES IDX 14 14 15 15 16 16 17 17 18 18 19 19 20 20 21 21 22 22 23 23
REMARK SMILES IDX 24 24
REMARK H PARENT
REMARK Flexibility Score: inf
ROOT
ATOM      1  C   UNL     1    -100.766  70.247  22.160  1.00  0.00     0.000 C 
ENDROOT
BRANCH   1   2
ATOM      2  C   UNL     1     -99.298  70.609  22.450  1.00  0.00     0.000 C 
BRANCH   2   3
ATOM      3  C   UNL     1     -98.756  70.132  23.810  1.00  0.00     0.000 C 
BRANCH   3   4
ATOM      4  C   UNL     1     -99.377  68.802  24.270  1.00  0.00    -0.000 C 
BRANCH   4   5
ATOM      5  C   UNL     1     -99.730  68.805  25.767  1.00  0.00    -0.000 C 
BRANCH   5   6
ATOM      6  C   UNL     1     -98.589  69.347  26.645  1.00  0.00    -0.000 C 
BRANCH   6   7
ATOM      7  C   UNL     1     -98.749  68.958  28.123  1.00  0.00    -0.000 C 
BRANCH   7   8
ATOM      8  C   UNL     1     -98.886  70.184  29.043  1.00  0.00    -0.000 C 
BRANCH   8   9
ATOM      9  C   UNL     1     -97.821  71.255  28.760  1.00  0.00    -0.000 C 
BRANCH   9  10
ATOM     10  C   UNL     1     -97.878  72.422  29.761  1.00  0.00    -0.000 C 
BRANCH  10  11
ATOM     11  C   UNL     1     -96.506  73.081  29.975  1.00  0.00    -0.003 C 
ATOM     12  C   UNL     1     -96.172  74.112  28.897  1.00  0.00     0.004 C 
ENDBRANCH  10  11
ENDBRANCH   9  10
ENDBRANCH   8   9
ENDBRANCH   7   8
ENDBRANCH   6   7
ENDBRANCH   5   6
ENDBRANCH   4   5
ENDBRANCH   3   4
ENDBRANCH   2   3
ENDBRANCH   1   2
BRANCH   1  13
ATOM     13  C   UNL     1    -101.747  71.373  22.525  1.00  0.00     0.000 C 
BRANCH  13  14
ATOM     14  C   UNL     1    -102.821  70.929  23.534  1.00  0.00     0.000 C 
BRANCH  14  15
ATOM     15  C   UNL     1    -102.412  71.024  25.020  1.00  0.00     0.000 C 
BRANCH  15  16
ATOM     16  C   UNL     1    -101.882  72.399  25.465  1.00  0.00     0.000 C 
BRANCH  16  17
ATOM     17  C   UNL     1    -100.727  72.295  26.471  1.00  0.00     0.000 C 
BRANCH  17  18
ATOM     18  C   UNL     1     -99.478  73.018  25.952  1.00  0.00     0.000 C 
BRANCH  18  19
ATOM     19  C   UNL     1     -99.751  73.680  24.594  1.00  0.00     0.000 C 
BRANCH  19  20
ATOM     20  C   UNL     1     -98.463  74.023  23.826  1.00  0.00     0.006 C 
BRANCH  20  21
ATOM     21  C   UNL     1     -97.180  73.455  24.455  1.00  0.00     0.053 C 
BRANCH  21  22
ATOM     22  C   UNL     1     -95.988  73.646  23.569  1.00  0.00     0.041 C 
ATOM     23  O   UNL     1     -95.243  72.669  23.287  1.00  0.00    -0.550 OA
ATOM     24  O   UNL     1     -95.718  74.895  23.024  1.00  0.00    -0.550 OA
ENDBRANCH  21  22
ENDBRANCH  20  21
ENDBRANCH  19  20
ENDBRANCH  18  19
ENDBRANCH  17  18
ENDBRANCH  16  17
ENDBRANCH  15  16
ENDBRANCH  14  15
ENDBRANCH  13  14
ENDBRANCH   1  13
TORSDOF 20
ENDMDL
MODEL 9
REMARK VINA RESULT:    -3.037      3.277      6.024
REMARK INTER + INTRA:         -10.263
REMARK INTER:                  -6.073
REMARK INTRA:                  -4.190
REMARK UNBOUND:                -3.676
REMARK SMILES CCCCCCCCCCCCCCCCCCCCCC(=O)[O-]
REMARK SMILES IDX 12 1 11 2 10 3 9 4 8 5 7 6 6 7 5 8 4 9 3 10 2 11 1 12 13 13
REMARK SMILES IDX 14 14 15 15 16 16 17 17 18 18 19 19 20 20 21 21 22 22 23 23
REMARK SMILES IDX 24 24
REMARK H PARENT
REMARK Flexibility Score: inf
ROOT
ATOM      1  C   UNL     1    -100.793  68.777  27.288  1.00  0.00     0.000 C 
ENDROOT
BRANCH   1   2
ATOM      2  C   UNL     1    -101.728  69.727  26.516  1.00  0.00     0.000 C 
BRANCH   2   3
ATOM      3  C   UNL     1    -102.404  70.820  27.362  1.00  0.00     0.000 C 
BRANCH   3   4
ATOM      4  C   UNL     1    -101.652  72.161  27.325  1.00  0.00    -0.000 C 
BRANCH   4   5
ATOM      5  C   UNL     1    -100.810  72.328  26.048  1.00  0.00    -0.000 C 
BRANCH   5   6
ATOM      6  C   UNL     1     -99.425  72.937  26.327  1.00  0.00    -0.000 C 
BRANCH   6   7
ATOM      7  C   UNL     1     -98.314  72.279  25.492  1.00  0.00    -0.000 C 
BRANCH   7   8
ATOM      8  C   UNL     1     -98.314  72.759  24.030  1.00  0.00    -0.000 C 
BRANCH   8   9
ATOM      9  C   UNL     1     -98.413  71.597  23.029  1.00  0.00    -0.000 C 
BRANCH   9  10
ATOM     10  C   UNL     1     -98.766  70.262  23.707  1.00  0.00    -0.000 C 
BRANCH  10  11
ATOM     11  C   UNL     1     -99.914  69.527  22.997  1.00  0.00    -0.003 C 
ATOM     12  C   UNL     1    -101.178  70.380  22.880  1.00  0.00     0.004 C 
ENDBRANCH  10  11
ENDBRANCH   9  10
ENDBRANCH   8   9
ENDBRANCH   7   8
ENDBRANCH   6   7
ENDBRANCH   5   6
ENDBRANCH   4   5
ENDBRANCH   3   4
ENDBRANCH   2   3
ENDBRANCH   1   2
BRANCH   1  13
ATOM     13  C   UNL     1     -99.305  69.031  26.999  1.00  0.00     0.000 C 
BRANCH  13  14
ATOM     14  C   UNL     1     -98.453  69.125  28.278  1.00  0.00     0.000 C 
BRANCH  14  15
ATOM     15  C   UNL     1     -98.231  70.553  28.821  1.00  0.00     0.000 C 
BRANCH  15  16
ATOM     16  C   UNL     1     -99.230  71.003  29.902  1.00  0.00     0.000 C 
BRANCH  16  17
ATOM     17  C   UNL     1     -99.777  69.834  30.733  1.00  0.00     0.000 C 
BRANCH  17  18
ATOM     18  C   UNL     1    -101.304  69.915  30.857  1.00  0.00     0.000 C 
BRANCH  18  19
ATOM     19  C   UNL     1    -101.763  71.367  31.053  1.00  0.00     0.000 C 
BRANCH  19  20
ATOM     20  C   UNL     1    -103.279  71.546  30.859  1.00  0.00     0.006 C 
BRANCH  20  21
ATOM     21  C   UNL     1    -104.048  70.234  30.628  1.00  0.00     0.053 C 
BRANCH  21  22
ATOM     22  C   UNL     1    -104.833  69.823  31.835  1.00  0.00     0.041 C 
ATOM     23  O   UNL     1    -104.991  68.603  32.104  1.00  0.00    -0.550 OA
ATOM     24  O   UNL     1    -105.360  70.789  32.684  1.00  0.00    -0.550 OA
ENDBRANCH  21  22
ENDBRANCH  20  21
ENDBRANCH  19  20
ENDBRANCH  18  19
ENDBRANCH  17  18
ENDBRANCH  16  17
ENDBRANCH  15  16
ENDBRANCH  14  15
ENDBRANCH  13  14
ENDBRANCH   1  13
TORSDOF 20
ENDMDL
