MODEL 1
REMARK VINA RESULT:    -6.207      0.000      0.000
REMARK INTER + INTRA:         -10.357
REMARK INTER:                  -8.203
REMARK INTRA:                  -2.155
REMARK UNBOUND:                -2.155
REMARK SMILES CC[C@@H](C=C[C@H](C)[C@@H]1CC[C@@H]2[C@H]3CC=C4C[C@@H](O)CC[C@]4(C)[C@H]3CC[C@@]21C)C(C)C
REMARK SMILES IDX 6 1 7 2 5 3 4 4 3 5 2 6 1 7 28 8 29 9 30 10 8 11 9 12 26 13
REMARK SMILES IDX 10 14 11 15 25 16 27 17 12 18 24 19 23 20 13 21 21 22 14 23
REMARK SMILES IDX 15 24 20 25 22 26 16 27 19 28 17 29 18 30
REMARK H PARENT 18 31
REMARK Flexibility Score: inf
ROOT
ATOM      1  C   UNL     1     161.755 177.367 186.757  1.00  0.00     0.012 C 
ATOM      2  C   UNL     1     160.864 178.260 187.632  1.00  0.00     0.012 C 
ENDROOT
BRANCH   1   3
ATOM      3  C   UNL     1     162.949 178.182 186.293  1.00  0.00    -0.028 C 
ATOM      4  C   UNL     1     163.574 178.029 185.108  1.00  0.00    -0.027 C 
BRANCH   4   5
ATOM      5  C   UNL     1     163.248 176.962 184.071  1.00  0.00     0.014 C 
BRANCH   5   6
ATOM      6  C   UNL     1     164.562 176.290 183.608  1.00  0.00     0.004 C 
ATOM      7  C   UNL     1     164.710 174.849 184.097  1.00  0.00     0.004 C 
ENDBRANCH   5   6
BRANCH   5   8
ATOM      8  C   UNL     1     162.372 177.522 182.905  1.00  0.00    -0.011 C 
ATOM      9  C   UNL     1     162.841 176.970 181.550  1.00  0.00     0.008 C 
ATOM     10  C   UNL     1     160.861 177.303 183.077  1.00  0.00     0.008 C 
ENDBRANCH   5   8
ENDBRANCH   4   5
ENDBRANCH   1   3
BRANCH   1  11
ATOM     11  C   UNL     1     162.106 176.034 187.504  1.00  0.00     0.002 C 
ATOM     12  C   UNL     1     163.588 175.646 187.518  1.00  0.00     0.005 C 
ATOM     13  C   UNL     1     161.325 174.733 187.140  1.00  0.00    -0.026 C 
ATOM     14  C   UNL     1     163.628 174.147 187.809  1.00  0.00     0.005 C 
ATOM     15  C   UNL     1     162.169 173.656 187.882  1.00  0.00    -0.001 C 
ATOM     16  C   UNL     1     161.303 174.457 185.610  1.00  0.00     0.007 C 
ATOM     17  C   UNL     1     159.875 174.828 187.686  1.00  0.00     0.012 C 
ATOM     18  C   UNL     1     162.023 172.179 187.403  1.00  0.00     0.000 C 
ATOM     19  C   UNL     1     160.980 172.999 185.245  1.00  0.00     0.005 C 
ATOM     20  C   UNL     1     162.024 172.031 185.860  1.00  0.00     0.003 C 
ATOM     21  C   UNL     1     160.782 171.507 188.012  1.00  0.00     0.031 C 
ATOM     22  C   UNL     1     161.919 170.507 185.412  1.00  0.00    -0.008 C 
ATOM     23  C   UNL     1     160.652 170.087 187.571  1.00  0.00    -0.027 C 
ATOM     24  C   UNL     1     161.087 169.642 186.375  1.00  0.00    -0.065 C 
ATOM     25  C   UNL     1     163.360 169.897 185.401  1.00  0.00     0.014 C 
ATOM     26  C   UNL     1     161.326 170.399 183.981  1.00  0.00     0.016 C 
ATOM     27  C   UNL     1     161.052 168.150 186.116  1.00  0.00     0.063 C 
ATOM     28  C   UNL     1     163.404 168.372 185.164  1.00  0.00     0.033 C 
ATOM     29  C   UNL     1     162.492 167.608 186.144  1.00  0.00     0.118 C 
BRANCH  29  30
ATOM     30  O   UNL     1     162.519 166.230 185.865  1.00  0.00    -0.393 OA
ATOM     31  H   UNL     1     161.869 165.787 186.468  1.00  0.00     0.210 HD
ENDBRANCH  29  30
ENDBRANCH   1  11
TORSDOF 6
ENDMDL
MODEL 2
REMARK VINA RESULT:    -5.950      5.220      8.568
REMARK INTER + INTRA:         -10.018
REMARK INTER:                  -9.034
REMARK INTRA:                  -0.985
REMARK UNBOUND:                -2.155
REMARK SMILES CC[C@@H](C=C[C@H](C)[C@@H]1CC[C@@H]2[C@H]3CC=C4C[C@@H](O)CC[C@]4(C)[C@H]3CC[C@@]21C)C(C)C
REMARK SMILES IDX 6 1 7 2 5 3 4 4 3 5 2 6 1 7 28 8 29 9 30 10 8 11 9 12 26 13
REMARK SMILES IDX 10 14 11 15 25 16 27 17 12 18 24 19 23 20 13 21 21 22 14 23
REMARK SMILES IDX 15 24 20 25 22 26 16 27 19 28 17 29 18 30
REMARK H PARENT 18 31
REMARK Flexibility Score: inf
ROOT
ATOM      1  C   UNL     1     163.087 175.764 184.636  1.00  0.00     0.012 C 
ATOM      2  C   UNL     1     163.151 174.260 184.935  1.00  0.00     0.012 C 
ENDROOT
BRANCH   1   3
ATOM      3  C   UNL     1     161.632 176.161 184.460  1.00  0.00    -0.028 C 
ATOM      4  C   UNL     1     160.730 176.250 185.458  1.00  0.00    -0.027 C 
BRANCH   4   5
ATOM      5  C   UNL     1     160.989 175.887 186.914  1.00  0.00     0.014 C 
BRANCH   5   6
ATOM      6  C   UNL     1     160.046 174.732 187.322  1.00  0.00     0.004 C 
ATOM      7  C   UNL     1     160.764 173.391 187.482  1.00  0.00     0.004 C 
ENDBRANCH   5   6
BRANCH   5   8
ATOM      8  C   UNL     1     160.914 177.134 187.854  1.00  0.00    -0.011 C 
ATOM      9  C   UNL     1     162.233 177.329 188.616  1.00  0.00     0.008 C 
ATOM     10  C   UNL     1     160.504 178.439 187.153  1.00  0.00     0.008 C 
ENDBRANCH   5   8
ENDBRANCH   4   5
ENDBRANCH   1   3
BRANCH   1  11
ATOM     11  C   UNL     1     163.875 176.579 185.719  1.00  0.00     0.002 C 
ATOM     12  C   UNL     1     163.882 178.099 185.538  1.00  0.00     0.005 C 
ATOM     13  C   UNL     1     165.348 176.178 186.044  1.00  0.00    -0.026 C 
ATOM     14  C   UNL     1     165.074 178.614 186.342  1.00  0.00     0.005 C 
ATOM     15  C   UNL     1     165.802 177.384 186.917  1.00  0.00    -0.001 C 
ATOM     16  C   UNL     1     166.231 176.059 184.770  1.00  0.00     0.007 C 
ATOM     17  C   UNL     1     165.362 174.840 186.831  1.00  0.00     0.012 C 
ATOM     18  C   UNL     1     167.337 177.625 187.060  1.00  0.00     0.000 C 
ATOM     19  C   UNL     1     167.740 176.140 185.049  1.00  0.00     0.005 C 
ATOM     20  C   UNL     1     168.106 177.488 185.722  1.00  0.00     0.003 C 
ATOM     21  C   UNL     1     167.954 176.718 188.137  1.00  0.00     0.031 C 
ATOM     22  C   UNL     1     169.660 177.785 185.901  1.00  0.00    -0.008 C 
ATOM     23  C   UNL     1     169.419 176.962 188.289  1.00  0.00    -0.027 C 
ATOM     24  C   UNL     1     170.211 177.365 187.275  1.00  0.00    -0.065 C 
ATOM     25  C   UNL     1     169.882 179.330 185.788  1.00  0.00     0.014 C 
ATOM     26  C   UNL     1     170.481 177.086 184.783  1.00  0.00     0.016 C 
ATOM     27  C   UNL     1     171.642 177.742 187.597  1.00  0.00     0.063 C 
ATOM     28  C   UNL     1     171.316 179.794 186.123  1.00  0.00     0.033 C 
ATOM     29  C   UNL     1     171.787 179.270 187.494  1.00  0.00     0.118 C 
BRANCH  29  30
ATOM     30  O   UNL     1     173.112 179.669 187.742  1.00  0.00    -0.393 OA
ATOM     31  H   UNL     1     173.683 178.859 187.715  1.00  0.00     0.210 HD
ENDBRANCH  29  30
ENDBRANCH   1  11
TORSDOF 6
ENDMDL
MODEL 3
REMARK VINA RESULT:    -5.933      7.979     10.545
REMARK INTER + INTRA:          -9.995
REMARK INTER:                  -7.973
REMARK INTRA:                  -2.021
REMARK UNBOUND:                -2.155
REMARK SMILES CC[C@@H](C=C[C@H](C)[C@@H]1CC[C@@H]2[C@H]3CC=C4C[C@@H](O)CC[C@]4(C)[C@H]3CC[C@@]21C)C(C)C
REMARK SMILES IDX 6 1 7 2 5 3 4 4 3 5 2 6 1 7 28 8 29 9 30 10 8 11 9 12 26 13
REMARK SMILES IDX 10 14 11 15 25 16 27 17 12 18 24 19 23 20 13 21 21 22 14 23
REMARK SMILES IDX 15 24 20 25 22 26 16 27 19 28 17 29 18 30
REMARK H PARENT 18 31
REMARK Flexibility Score: inf
ROOT
ATOM      1  C   UNL     1     174.481 179.261 186.842  1.00  0.00     0.012 C 
ATOM      2  C   UNL     1     175.198 180.125 187.888  1.00  0.00     0.012 C 
ENDROOT
BRANCH   1   3
ATOM      3  C   UNL     1     175.521 178.448 186.091  1.00  0.00    -0.028 C 
ATOM      4  C   UNL     1     175.398 178.028 184.816  1.00  0.00    -0.027 C 
BRANCH   4   5
ATOM      5  C   UNL     1     174.168 178.221 183.939  1.00  0.00     0.014 C 
BRANCH   5   6
ATOM      6  C   UNL     1     173.885 176.908 183.171  1.00  0.00     0.004 C 
ATOM      7  C   UNL     1     172.708 176.115 183.741  1.00  0.00     0.004 C 
ENDBRANCH   5   6
BRANCH   5   8
ATOM      8  C   UNL     1     174.289 179.481 183.024  1.00  0.00    -0.011 C 
ATOM      9  C   UNL     1     175.252 179.224 181.855  1.00  0.00     0.008 C 
ATOM     10  C   UNL     1     172.949 180.024 182.501  1.00  0.00     0.008 C 
ENDBRANCH   5   8
ENDBRANCH   4   5
ENDBRANCH   1   3
BRANCH   1  11
ATOM     11  C   UNL     1     173.332 178.426 187.507  1.00  0.00     0.002 C 
ATOM     12  C   UNL     1     173.454 176.904 187.382  1.00  0.00     0.005 C 
ATOM     13  C   UNL     1     171.850 178.768 187.161  1.00  0.00    -0.026 C 
ATOM     14  C   UNL     1     172.050 176.349 187.614  1.00  0.00     0.005 C 
ATOM     15  C   UNL     1     171.106 177.553 187.789  1.00  0.00    -0.001 C 
ATOM     16  C   UNL     1     171.593 178.837 185.629  1.00  0.00     0.007 C 
ATOM     17  C   UNL     1     171.457 180.112 187.829  1.00  0.00     0.012 C 
ATOM     18  C   UNL     1     169.666 177.251 187.269  1.00  0.00     0.000 C 
ATOM     19  C   UNL     1     170.113 178.696 185.239  1.00  0.00     0.005 C 
ATOM     20  C   UNL     1     169.539 177.341 185.728  1.00  0.00     0.003 C 
ATOM     21  C   UNL     1     168.619 178.142 187.955  1.00  0.00     0.031 C 
ATOM     22  C   UNL     1     168.069 176.982 185.234  1.00  0.00    -0.008 C 
ATOM     23  C   UNL     1     167.238 177.839 187.473  1.00  0.00    -0.027 C 
ATOM     24  C   UNL     1     166.970 177.393 186.230  1.00  0.00    -0.065 C 
ATOM     25  C   UNL     1     167.968 175.428 185.080  1.00  0.00     0.014 C 
ATOM     26  C   UNL     1     167.782 177.634 183.854  1.00  0.00     0.016 C 
ATOM     27  C   UNL     1     165.552 176.960 185.920  1.00  0.00     0.063 C 
ATOM     28  C   UNL     1     166.544 174.908 184.783  1.00  0.00     0.033 C 
ATOM     29  C   UNL     1     165.515 175.426 185.807  1.00  0.00     0.118 C 
BRANCH  29  30
ATOM     30  O   UNL     1     164.226 174.975 185.476  1.00  0.00    -0.393 OA
ATOM     31  H   UNL     1     163.573 175.617 185.856  1.00  0.00     0.210 HD
ENDBRANCH  29  30
ENDBRANCH   1  11
TORSDOF 6
ENDMDL
MODEL 4
REMARK VINA RESULT:    -5.866      3.613      6.560
REMARK INTER + INTRA:          -9.907
REMARK INTER:                  -7.890
REMARK INTRA:                  -2.016
REMARK UNBOUND:                -2.155
REMARK SMILES CC[C@@H](C=C[C@H](C)[C@@H]1CC[C@@H]2[C@H]3CC=C4C[C@@H](O)CC[C@]4(C)[C@H]3CC[C@@]21C)C(C)C
REMARK SMILES IDX 6 1 7 2 5 3 4 4 3 5 2 6 1 7 28 8 29 9 30 10 8 11 9 12 26 13
REMARK SMILES IDX 10 14 11 15 25 16 27 17 12 18 24 19 23 20 13 21 21 22 14 23
REMARK SMILES IDX 15 24 20 25 22 26 16 27 19 28 17 29 18 30
REMARK H PARENT 18 31
REMARK Flexibility Score: inf
ROOT
ATOM      1  C   UNL     1     161.557 174.284 186.604  1.00  0.00     0.012 C 
ATOM      2  C   UNL     1     160.799 173.297 187.502  1.00  0.00     0.012 C 
ENDROOT
BRANCH   1   3
ATOM      3  C   UNL     1     162.651 174.944 187.425  1.00  0.00    -0.028 C 
ATOM      4  C   UNL     1     163.074 176.215 187.268  1.00  0.00    -0.027 C 
BRANCH   4   5
ATOM      5  C   UNL     1     162.591 177.177 186.190  1.00  0.00     0.014 C 
BRANCH   5   6
ATOM      6  C   UNL     1     163.817 177.858 185.537  1.00  0.00     0.004 C 
ATOM      7  C   UNL     1     163.848 177.717 184.014  1.00  0.00     0.004 C 
ENDBRANCH   5   6
BRANCH   5   8
ATOM      8  C   UNL     1     161.519 178.177 186.731  1.00  0.00    -0.011 C 
ATOM      9  C   UNL     1     160.317 178.262 185.779  1.00  0.00     0.008 C 
ATOM     10  C   UNL     1     161.046 177.893 188.166  1.00  0.00     0.008 C 
ENDBRANCH   5   8
ENDBRANCH   4   5
ENDBRANCH   1   3
BRANCH   1  11
ATOM     11  C   UNL     1     162.041 173.579 185.289  1.00  0.00     0.002 C 
ATOM     12  C   UNL     1     163.517 173.775 184.931  1.00  0.00     0.005 C 
ATOM     13  C   UNL     1     161.243 173.809 183.969  1.00  0.00    -0.026 C 
ATOM     14  C   UNL     1     163.631 173.472 183.439  1.00  0.00     0.005 C 
ATOM     15  C   UNL     1     162.209 173.184 182.920  1.00  0.00    -0.001 C 
ATOM     16  C   UNL     1     161.007 175.317 183.667  1.00  0.00     0.007 C 
ATOM     17  C   UNL     1     159.886 173.061 184.043  1.00  0.00     0.012 C 
ATOM     18  C   UNL     1     162.027 173.617 181.433  1.00  0.00     0.000 C 
ATOM     19  C   UNL     1     160.667 175.612 182.198  1.00  0.00     0.005 C 
ATOM     20  C   UNL     1     161.809 175.142 181.261  1.00  0.00     0.003 C 
ATOM     21  C   UNL     1     160.902 172.826 180.747  1.00  0.00     0.031 C 
ATOM     22  C   UNL     1     161.674 175.550 179.728  1.00  0.00    -0.008 C 
ATOM     23  C   UNL     1     160.741 173.226 179.318  1.00  0.00    -0.027 C 
ATOM     24  C   UNL     1     161.008 174.466 178.862  1.00  0.00    -0.065 C 
ATOM     25  C   UNL     1     163.111 175.761 179.146  1.00  0.00     0.014 C 
ATOM     26  C   UNL     1     160.884 176.879 179.585  1.00  0.00     0.016 C 
ATOM     27  C   UNL     1     160.969 174.697 177.366  1.00  0.00     0.063 C 
ATOM     28  C   UNL     1     163.154 175.983 177.618  1.00  0.00     0.033 C 
ATOM     29  C   UNL     1     162.410 174.871 176.852  1.00  0.00     0.118 C 
BRANCH  29  30
ATOM     30  O   UNL     1     162.426 175.133 175.471  1.00  0.00    -0.393 OA
ATOM     31  H   UNL     1     161.504 175.011 175.129  1.00  0.00     0.210 HD
ENDBRANCH  29  30
ENDBRANCH   1  11
TORSDOF 6
ENDMDL
MODEL 5
REMARK VINA RESULT:    -5.861      4.610      7.572
REMARK INTER + INTRA:          -9.900
REMARK INTER:                  -8.051
REMARK INTRA:                  -1.850
REMARK UNBOUND:                -2.155
REMARK SMILES CC[C@@H](C=C[C@H](C)[C@@H]1CC[C@@H]2[C@H]3CC=C4C[C@@H](O)CC[C@]4(C)[C@H]3CC[C@@]21C)C(C)C
REMARK SMILES IDX 6 1 7 2 5 3 4 4 3 5 2 6 1 7 28 8 29 9 30 10 8 11 9 12 26 13
REMARK SMILES IDX 10 14 11 15 25 16 27 17 12 18 24 19 23 20 13 21 21 22 14 23
REMARK SMILES IDX 15 24 20 25 22 26 16 27 19 28 17 29 18 30
REMARK H PARENT 18 31
REMARK Flexibility Score: inf
ROOT
ATOM      1  C   UNL     1     161.552 176.371 185.888  1.00  0.00     0.012 C 
ATOM      2  C   UNL     1     160.721 175.488 186.829  1.00  0.00     0.012 C 
ENDROOT
BRANCH   1   3
ATOM      3  C   UNL     1     160.625 177.367 185.213  1.00  0.00    -0.028 C 
ATOM      4  C   UNL     1     160.471 177.497 183.880  1.00  0.00    -0.027 C 
BRANCH   4   5
ATOM      5  C   UNL     1     161.257 176.732 182.823  1.00  0.00     0.014 C 
BRANCH   5   6
ATOM      6  C   UNL     1     161.873 177.740 181.825  1.00  0.00     0.004 C 
ATOM      7  C   UNL     1     163.250 178.250 182.250  1.00  0.00     0.004 C 
ENDBRANCH   5   6
BRANCH   5   8
ATOM      8  C   UNL     1     160.403 175.610 182.152  1.00  0.00    -0.011 C 
ATOM      9  C   UNL     1     160.894 175.324 180.725  1.00  0.00     0.008 C 
ATOM     10  C   UNL     1     160.316 174.303 182.958  1.00  0.00     0.008 C 
ENDBRANCH   5   8
ENDBRANCH   4   5
ENDBRANCH   1   3
BRANCH   1  11
ATOM     11  C   UNL     1     162.768 177.001 186.651  1.00  0.00     0.002 C 
ATOM     12  C   UNL     1     162.923 178.519 186.523  1.00  0.00     0.005 C 
ATOM     13  C   UNL     1     164.192 176.403 186.431  1.00  0.00    -0.026 C 
ATOM     14  C   UNL     1     164.377 178.825 186.875  1.00  0.00     0.005 C 
ATOM     15  C   UNL     1     165.080 177.477 187.125  1.00  0.00    -0.001 C 
ATOM     16  C   UNL     1     164.561 176.275 184.926  1.00  0.00     0.007 C 
ATOM     17  C   UNL     1     164.288 175.019 187.125  1.00  0.00     0.012 C 
ATOM     18  C   UNL     1     166.589 177.520 186.731  1.00  0.00     0.000 C 
ATOM     19  C   UNL     1     166.071 176.152 184.664  1.00  0.00     0.005 C 
ATOM     20  C   UNL     1     166.828 177.392 185.205  1.00  0.00     0.003 C 
ATOM     21  C   UNL     1     167.404 176.468 187.500  1.00  0.00     0.031 C 
ATOM     22  C   UNL     1     168.375 177.486 184.839  1.00  0.00    -0.008 C 
ATOM     23  C   UNL     1     168.852 176.522 187.138  1.00  0.00    -0.027 C 
ATOM     24  C   UNL     1     169.298 176.901 185.923  1.00  0.00    -0.065 C 
ATOM     25  C   UNL     1     168.757 178.997 184.701  1.00  0.00     0.014 C 
ATOM     26  C   UNL     1     168.660 176.779 183.487  1.00  0.00     0.016 C 
ATOM     27  C   UNL     1     170.790 177.078 185.737  1.00  0.00     0.063 C 
ATOM     28  C   UNL     1     170.269 179.259 184.528  1.00  0.00     0.033 C 
ATOM     29  C   UNL     1     171.103 178.581 185.633  1.00  0.00     0.118 C 
BRANCH  29  30
ATOM     30  O   UNL     1     172.474 178.798 185.415  1.00  0.00    -0.393 OA
ATOM     31  H   UNL     1     172.574 179.242 184.534  1.00  0.00     0.210 HD
ENDBRANCH  29  30
ENDBRANCH   1  11
TORSDOF 6
ENDMDL
MODEL 6
REMARK VINA RESULT:    -5.650      6.649      9.848
REMARK INTER + INTRA:          -9.621
REMARK INTER:                  -8.928
REMARK INTRA:                  -0.693
REMARK UNBOUND:                -2.155
REMARK SMILES CC[C@@H](C=C[C@H](C)[C@@H]1CC[C@@H]2[C@H]3CC=C4C[C@@H](O)CC[C@]4(C)[C@H]3CC[C@@]21C)C(C)C
REMARK SMILES IDX 6 1 7 2 5 3 4 4 3 5 2 6 1 7 28 8 29 9 30 10 8 11 9 12 26 13
REMARK SMILES IDX 10 14 11 15 25 16 27 17 12 18 24 19 23 20 13 21 21 22 14 23
REMARK SMILES IDX 15 24 20 25 22 26 16 27 19 28 17 29 18 30
REMARK H PARENT 18 31
REMARK Flexibility Score: inf
ROOT
ATOM      1  C   UNL     1     165.203 177.099 184.838  1.00  0.00     0.012 C 
ATOM      2  C   UNL     1     164.522 175.770 184.481  1.00  0.00     0.012 C 
ENDROOT
BRANCH   1   3
ATOM      3  C   UNL     1     164.129 178.147 185.070  1.00  0.00    -0.028 C 
ATOM      4  C   UNL     1     162.898 177.895 185.561  1.00  0.00    -0.027 C 
BRANCH   4   5
ATOM      5  C   UNL     1     162.346 176.513 185.887  1.00  0.00     0.014 C 
BRANCH   5   6
ATOM      6  C   UNL     1     161.013 176.312 185.129  1.00  0.00     0.004 C 
ATOM      7  C   UNL     1     160.305 177.624 184.788  1.00  0.00     0.004 C 
ENDBRANCH   5   6
BRANCH   5   8
ATOM      8  C   UNL     1     162.248 176.266 187.426  1.00  0.00    -0.011 C 
ATOM      9  C   UNL     1     163.220 175.163 187.870  1.00  0.00     0.008 C 
ATOM     10  C   UNL     1     162.436 177.524 188.290  1.00  0.00     0.008 C 
ENDBRANCH   5   8
ENDBRANCH   4   5
ENDBRANCH   1   3
BRANCH   1  11
ATOM     11  C   UNL     1     166.213 176.903 186.021  1.00  0.00     0.002 C 
ATOM     12  C   UNL     1     166.173 177.972 187.117  1.00  0.00     0.005 C 
ATOM     13  C   UNL     1     167.722 176.676 185.698  1.00  0.00    -0.026 C 
ATOM     14  C   UNL     1     167.514 177.883 187.842  1.00  0.00     0.005 C 
ATOM     15  C   UNL     1     168.358 176.821 187.112  1.00  0.00    -0.001 C 
ATOM     16  C   UNL     1     168.295 177.746 184.726  1.00  0.00     0.007 C 
ATOM     17  C   UNL     1     167.919 175.255 185.104  1.00  0.00     0.012 C 
ATOM     18  C   UNL     1     169.884 177.136 187.180  1.00  0.00     0.000 C 
ATOM     19  C   UNL     1     169.828 177.854 184.752  1.00  0.00     0.005 C 
ATOM     20  C   UNL     1     170.332 178.224 186.171  1.00  0.00     0.003 C 
ATOM     21  C   UNL     1     170.732 175.864 187.019  1.00  0.00     0.031 C 
ATOM     22  C   UNL     1     171.885 178.549 186.303  1.00  0.00    -0.008 C 
ATOM     23  C   UNL     1     172.193 176.162 187.105  1.00  0.00    -0.027 C 
ATOM     24  C   UNL     1     172.733 177.333 186.714  1.00  0.00    -0.065 C 
ATOM     25  C   UNL     1     172.069 179.619 187.430  1.00  0.00     0.014 C 
ATOM     26  C   UNL     1     172.434 179.134 184.974  1.00  0.00     0.016 C 
ATOM     27  C   UNL     1     174.198 177.575 187.010  1.00  0.00     0.063 C 
ATOM     28  C   UNL     1     173.540 179.904 187.803  1.00  0.00     0.033 C 
ATOM     29  C   UNL     1     174.311 178.613 188.141  1.00  0.00     0.118 C 
BRANCH  29  30
ATOM     30  O   UNL     1     175.656 178.906 188.425  1.00  0.00    -0.393 OA
ATOM     31  H   UNL     1     175.827 179.842 188.149  1.00  0.00     0.210 HD
ENDBRANCH  29  30
ENDBRANCH   1  11
TORSDOF 6
ENDMDL
MODEL 7
REMARK VINA RESULT:    -5.639     12.804     14.760
REMARK INTER + INTRA:          -9.606
REMARK INTER:                  -8.606
REMARK INTRA:                  -1.000
REMARK UNBOUND:                -2.155
REMARK SMILES CC[C@@H](C=C[C@H](C)[C@@H]1CC[C@@H]2[C@H]3CC=C4C[C@@H](O)CC[C@]4(C)[C@H]3CC[C@@]21C)C(C)C
REMARK SMILES IDX 6 1 7 2 5 3 4 4 3 5 2 6 1 7 28 8 29 9 30 10 8 11 9 12 26 13
REMARK SMILES IDX 10 14 11 15 25 16 27 17 12 18 24 19 23 20 13 21 21 22 14 23
REMARK SMILES IDX 15 24 20 25 22 26 16 27 19 28 17 29 18 30
REMARK H PARENT 18 31
REMARK Flexibility Score: inf
ROOT
ATOM      1  C   UNL     1     176.031 175.433 186.773  1.00  0.00     0.012 C 
ATOM      2  C   UNL     1     176.668 176.786 187.121  1.00  0.00     0.012 C 
ENDROOT
BRANCH   1   3
ATOM      3  C   UNL     1     174.911 175.669 185.775  1.00  0.00    -0.028 C 
ATOM      4  C   UNL     1     173.834 176.450 185.994  1.00  0.00    -0.027 C 
BRANCH   4   5
ATOM      5  C   UNL     1     173.512 177.160 187.303  1.00  0.00     0.014 C 
BRANCH   5   6
ATOM      6  C   UNL     1     172.174 176.616 187.856  1.00  0.00     0.004 C 
ATOM      7  C   UNL     1     170.995 177.562 187.628  1.00  0.00     0.004 C 
ENDBRANCH   5   6
BRANCH   5   8
ATOM      8  C   UNL     1     173.557 178.715 187.156  1.00  0.00    -0.011 C 
ATOM      9  C   UNL     1     174.463 179.343 188.224  1.00  0.00     0.008 C 
ATOM     10  C   UNL     1     173.954 179.214 185.757  1.00  0.00     0.008 C 
ENDBRANCH   5   8
ENDBRANCH   4   5
ENDBRANCH   1   3
BRANCH   1  11
ATOM     11  C   UNL     1     177.126 174.407 186.318  1.00  0.00     0.002 C 
ATOM     12  C   UNL     1     177.145 174.069 184.824  1.00  0.00     0.005 C 
ATOM     13  C   UNL     1     177.245 173.045 187.069  1.00  0.00    -0.026 C 
ATOM     14  C   UNL     1     177.884 172.737 184.704  1.00  0.00     0.005 C 
ATOM     15  C   UNL     1     178.217 172.269 186.133  1.00  0.00    -0.001 C 
ATOM     16  C   UNL     1     175.883 172.303 187.183  1.00  0.00     0.007 C 
ATOM     17  C   UNL     1     177.845 173.280 188.481  1.00  0.00     0.012 C 
ATOM     18  C   UNL     1     178.234 170.713 186.252  1.00  0.00     0.000 C 
ATOM     19  C   UNL     1     176.016 170.799 187.471  1.00  0.00     0.005 C 
ATOM     20  C   UNL     1     176.818 170.091 186.349  1.00  0.00     0.003 C 
ATOM     21  C   UNL     1     179.116 170.245 187.420  1.00  0.00     0.031 C 
ATOM     22  C   UNL     1     176.875 168.501 186.422  1.00  0.00    -0.008 C 
ATOM     23  C   UNL     1     179.148 168.755 187.522  1.00  0.00    -0.027 C 
ATOM     24  C   UNL     1     178.120 167.966 187.151  1.00  0.00    -0.065 C 
ATOM     25  C   UNL     1     176.943 167.943 184.962  1.00  0.00     0.014 C 
ATOM     26  C   UNL     1     175.599 167.940 187.106  1.00  0.00     0.016 C 
ATOM     27  C   UNL     1     178.341 166.468 187.143  1.00  0.00     0.063 C 
ATOM     28  C   UNL     1     177.189 166.421 184.872  1.00  0.00     0.033 C 
ATOM     29  C   UNL     1     178.425 165.987 185.683  1.00  0.00     0.118 C 
BRANCH  29  30
ATOM     30  O   UNL     1     178.587 164.592 185.619  1.00  0.00    -0.393 OA
ATOM     31  H   UNL     1     178.396 164.223 186.520  1.00  0.00     0.210 HD
ENDBRANCH  29  30
ENDBRANCH   1  11
TORSDOF 6
ENDMDL
MODEL 8
REMARK VINA RESULT:    -5.548      4.043      7.469
REMARK INTER + INTRA:          -9.487
REMARK INTER:                  -7.758
REMARK INTRA:                  -1.729
REMARK UNBOUND:                -2.155
REMARK SMILES CC[C@@H](C=C[C@H](C)[C@@H]1CC[C@@H]2[C@H]3CC=C4C[C@@H](O)CC[C@]4(C)[C@H]3CC[C@@]21C)C(C)C
REMARK SMILES IDX 6 1 7 2 5 3 4 4 3 5 2 6 1 7 28 8 29 9 30 10 8 11 9 12 26 13
REMARK SMILES IDX 10 14 11 15 25 16 27 17 12 18 24 19 23 20 13 21 21 22 14 23
REMARK SMILES IDX 15 24 20 25 22 26 16 27 19 28 17 29 18 30
REMARK H PARENT 18 31
REMARK Flexibility Score: inf
ROOT
ATOM      1  C   UNL     1     162.054 173.266 178.821  1.00  0.00     0.012 C 
ATOM      2  C   UNL     1     162.647 171.929 178.356  1.00  0.00     0.012 C 
ENDROOT
BRANCH   1   3
ATOM      3  C   UNL     1     161.082 173.758 177.764  1.00  0.00    -0.028 C 
ATOM      4  C   UNL     1     160.975 175.036 177.348  1.00  0.00    -0.027 C 
BRANCH   4   5
ATOM      5  C   UNL     1     161.746 176.217 177.924  1.00  0.00     0.014 C 
BRANCH   5   6
ATOM      6  C   UNL     1     160.906 176.870 179.046  1.00  0.00     0.004 C 
ATOM      7  C   UNL     1     161.301 178.318 179.334  1.00  0.00     0.004 C 
ENDBRANCH   5   6
BRANCH   5   8
ATOM      8  C   UNL     1     162.213 177.213 176.814  1.00  0.00    -0.011 C 
ATOM      9  C   UNL     1     163.568 176.790 176.229  1.00  0.00     0.008 C 
ATOM     10  C   UNL     1     161.192 177.440 175.688  1.00  0.00     0.008 C 
ENDBRANCH   5   8
ENDBRANCH   4   5
ENDBRANCH   1   3
BRANCH   1  11
ATOM     11  C   UNL     1     161.459 173.134 180.266  1.00  0.00     0.002 C 
ATOM     12  C   UNL     1     160.038 173.671 180.455  1.00  0.00     0.005 C 
ATOM     13  C   UNL     1     162.286 173.670 181.476  1.00  0.00    -0.026 C 
ATOM     14  C   UNL     1     159.876 173.916 181.954  1.00  0.00     0.005 C 
ATOM     15  C   UNL     1     161.229 173.598 182.617  1.00  0.00    -0.001 C 
ATOM     16  C   UNL     1     162.772 175.132 181.269  1.00  0.00     0.007 C 
ATOM     17  C   UNL     1     163.498 172.735 181.733  1.00  0.00     0.012 C 
ATOM     18  C   UNL     1     161.483 174.476 183.882  1.00  0.00     0.000 C 
ATOM     19  C   UNL     1     163.159 175.850 182.571  1.00  0.00     0.005 C 
ATOM     20  C   UNL     1     161.955 175.913 183.546  1.00  0.00     0.003 C 
ATOM     21  C   UNL     1     162.460 173.797 184.855  1.00  0.00     0.031 C 
ATOM     22  C   UNL     1     162.159 176.791 184.859  1.00  0.00    -0.008 C 
ATOM     23  C   UNL     1     162.688 174.627 186.075  1.00  0.00    -0.027 C 
ATOM     24  C   UNL     1     162.633 175.974 186.074  1.00  0.00    -0.065 C 
ATOM     25  C   UNL     1     160.778 177.412 185.255  1.00  0.00     0.014 C 
ATOM     26  C   UNL     1     163.161 177.946 184.593  1.00  0.00     0.016 C 
ATOM     27  C   UNL     1     162.712 176.690 187.406  1.00  0.00     0.063 C 
ATOM     28  C   UNL     1     160.775 178.143 186.615  1.00  0.00     0.033 C 
ATOM     29  C   UNL     1     161.322 177.254 187.749  1.00  0.00     0.118 C 
BRANCH  29  30
ATOM     30  O   UNL     1     161.352 177.968 188.960  1.00  0.00    -0.393 OA
ATOM     31  H   UNL     1     161.458 178.929 188.742  1.00  0.00     0.210 HD
ENDBRANCH  29  30
ENDBRANCH   1  11
TORSDOF 6
ENDMDL
