MODEL 1
REMARK VINA RESULT:    -4.536      0.000      0.000
REMARK INTER + INTRA:         -12.182
REMARK INTER:                  -9.840
REMARK INTRA:                  -2.342
REMARK UNBOUND:                -2.342
REMARK SMILES CCCCCCCCCCCCCCCCCCCCCC(=O)[O-]
REMARK SMILES IDX 12 1 11 2 10 3 9 4 8 5 7 6 6 7 5 8 4 9 3 10 2 11 1 12 13 13
REMARK SMILES IDX 14 14 15 15 16 16 17 17 18 18 19 19 20 20 21 21 22 22 23 23
REMARK SMILES IDX 24 24
REMARK H PARENT
REMARK Flexibility Score: inf
ROOT
ATOM      1  C   UNL     1       1.576  -3.746  -7.932  1.00  0.00     0.000 C 
ENDROOT
BRANCH   1   2
ATOM      2  C   UNL     1       1.032  -4.035  -9.341  1.00  0.00     0.000 C 
BRANCH   2   3
ATOM      3  C   UNL     1       1.166  -5.513  -9.766  1.00  0.00     0.000 C 
BRANCH   3   4
ATOM      4  C   UNL     1       2.612  -6.022  -9.648  1.00  0.00    -0.000 C 
BRANCH   4   5
ATOM      5  C   UNL     1       2.777  -7.107  -8.570  1.00  0.00    -0.000 C 
BRANCH   5   6
ATOM      6  C   UNL     1       4.204  -7.184  -7.987  1.00  0.00    -0.000 C 
BRANCH   6   7
ATOM      7  C   UNL     1       4.570  -5.930  -7.179  1.00  0.00    -0.000 C 
BRANCH   7   8
ATOM      8  C   UNL     1       3.789  -5.876  -5.861  1.00  0.00    -0.000 C 
BRANCH   8   9
ATOM      9  C   UNL     1       4.468  -6.729  -4.783  1.00  0.00    -0.000 C 
BRANCH   9  10
ATOM     10  C   UNL     1       5.955  -6.362  -4.647  1.00  0.00    -0.000 C 
BRANCH  10  11
ATOM     11  C   UNL     1       6.885  -7.543  -4.964  1.00  0.00    -0.003 C 
ATOM     12  C   UNL     1       6.145  -8.877  -5.040  1.00  0.00     0.004 C 
ENDBRANCH  10  11
ENDBRANCH   9  10
ENDBRANCH   8   9
ENDBRANCH   7   8
ENDBRANCH   6   7
ENDBRANCH   5   6
ENDBRANCH   4   5
ENDBRANCH   3   4
ENDBRANCH   2   3
ENDBRANCH   1   2
BRANCH   1  13
ATOM     13  C   UNL     1       2.633  -2.628  -7.916  1.00  0.00     0.000 C 
BRANCH  13  14
ATOM     14  C   UNL     1       3.470  -2.593  -9.203  1.00  0.00     0.000 C 
BRANCH  14  15
ATOM     15  C   UNL     1       4.983  -2.651  -8.923  1.00  0.00     0.000 C 
BRANCH  15  16
ATOM     16  C   UNL     1       5.788  -1.710  -9.834  1.00  0.00     0.000 C 
BRANCH  16  17
ATOM     17  C   UNL     1       6.603  -0.677  -9.039  1.00  0.00     0.000 C 
BRANCH  17  18
ATOM     18  C   UNL     1       5.896  -0.217  -7.751  1.00  0.00     0.000 C 
BRANCH  18  19
ATOM     19  C   UNL     1       6.604   0.917  -6.988  1.00  0.00     0.000 C 
BRANCH  19  20
ATOM     20  C   UNL     1       7.088   2.048  -7.908  1.00  0.00     0.006 C 
BRANCH  20  21
ATOM     21  C   UNL     1       5.952   3.032  -8.207  1.00  0.00     0.053 C 
BRANCH  21  22
ATOM     22  C   UNL     1       6.475   4.425  -8.384  1.00  0.00     0.041 C 
ATOM     23  O   UNL     1       5.837   5.404  -7.909  1.00  0.00    -0.550 OA
ATOM     24  O   UNL     1       7.626   4.652  -9.129  1.00  0.00    -0.550 OA
ENDBRANCH  21  22
ENDBRANCH  20  21
ENDBRANCH  19  20
ENDBRANCH  18  19
ENDBRANCH  17  18
ENDBRANCH  16  17
ENDBRANCH  15  16
ENDBRANCH  14  15
ENDBRANCH  13  14
ENDBRANCH   1  13
TORSDOF 20
ENDMDL
MODEL 2
REMARK VINA RESULT:    -4.499      4.355      8.289
REMARK INTER + INTRA:         -12.102
REMARK INTER:                  -9.491
REMARK INTRA:                  -2.611
REMARK UNBOUND:                -2.342
REMARK SMILES CCCCCCCCCCCCCCCCCCCCCC(=O)[O-]
REMARK SMILES IDX 12 1 11 2 10 3 9 4 8 5 7 6 6 7 5 8 4 9 3 10 2 11 1 12 13 13
REMARK SMILES IDX 14 14 15 15 16 16 17 17 18 18 19 19 20 20 21 21 22 22 23 23
REMARK SMILES IDX 24 24
REMARK H PARENT
REMARK Flexibility Score: inf
ROOT
ATOM      1  C   UNL     1       2.544  -3.017  -7.661  1.00  0.00     0.000 C 
ENDROOT
BRANCH   1   2
ATOM      2  C   UNL     1       3.909  -2.404  -8.017  1.00  0.00     0.000 C 
BRANCH   2   3
ATOM      3  C   UNL     1       4.306  -2.591  -9.497  1.00  0.00     0.000 C 
BRANCH   3   4
ATOM      4  C   UNL     1       5.301  -3.747  -9.690  1.00  0.00    -0.000 C 
BRANCH   4   5
ATOM      5  C   UNL     1       6.766  -3.279  -9.703  1.00  0.00    -0.000 C 
BRANCH   5   6
ATOM      6  C   UNL     1       6.930  -1.774 -10.003  1.00  0.00    -0.000 C 
BRANCH   6   7
ATOM      7  C   UNL     1       8.215  -1.197  -9.393  1.00  0.00    -0.000 C 
BRANCH   7   8
ATOM      8  C   UNL     1       7.919  -0.447  -8.089  1.00  0.00    -0.000 C 
BRANCH   8   9
ATOM      9  C   UNL     1       6.470   0.056  -8.060  1.00  0.00    -0.000 C 
BRANCH   9  10
ATOM     10  C   UNL     1       6.393   1.477  -7.478  1.00  0.00    -0.000 C 
BRANCH  10  11
ATOM     11  C   UNL     1       6.884   2.546  -8.465  1.00  0.00    -0.003 C 
ATOM     12  C   UNL     1       6.077   3.841  -8.384  1.00  0.00     0.004 C 
ENDBRANCH  10  11
ENDBRANCH   9  10
ENDBRANCH   8   9
ENDBRANCH   7   8
ENDBRANCH   6   7
ENDBRANCH   5   6
ENDBRANCH   4   5
ENDBRANCH   3   4
ENDBRANCH   2   3
ENDBRANCH   1   2
BRANCH   1  13
ATOM     13  C   UNL     1       1.436  -2.630  -8.655  1.00  0.00     0.000 C 
BRANCH  13  14
ATOM     14  C   UNL     1       0.686  -3.852  -9.204  1.00  0.00     0.000 C 
BRANCH  14  15
ATOM     15  C   UNL     1       1.620  -4.843  -9.922  1.00  0.00     0.000 C 
BRANCH  15  16
ATOM     16  C   UNL     1       1.648  -6.223  -9.245  1.00  0.00     0.000 C 
BRANCH  16  17
ATOM     17  C   UNL     1       3.074  -6.671  -8.882  1.00  0.00     0.000 C 
BRANCH  17  18
ATOM     18  C   UNL     1       3.313  -6.734  -7.362  1.00  0.00     0.000 C 
BRANCH  18  19
ATOM     19  C   UNL     1       4.469  -5.857  -6.848  1.00  0.00     0.000 C 
BRANCH  19  20
ATOM     20  C   UNL     1       4.699  -5.993  -5.335  1.00  0.00     0.006 C 
BRANCH  20  21
ATOM     21  C   UNL     1       3.797  -7.080  -4.742  1.00  0.00     0.053 C 
BRANCH  21  22
ATOM     22  C   UNL     1       4.603  -8.245  -4.252  1.00  0.00     0.041 C 
ATOM     23  O   UNL     1       5.339  -8.120  -3.236  1.00  0.00    -0.550 OA
ATOM     24  O   UNL     1       4.596  -9.445  -4.952  1.00  0.00    -0.550 OA
ENDBRANCH  21  22
ENDBRANCH  20  21
ENDBRANCH  19  20
ENDBRANCH  18  19
ENDBRANCH  17  18
ENDBRANCH  16  17
ENDBRANCH  15  16
ENDBRANCH  14  15
ENDBRANCH  13  14
ENDBRANCH   1  13
TORSDOF 20
ENDMDL
MODEL 3
REMARK VINA RESULT:    -4.442      2.401      4.859
REMARK INTER + INTRA:         -11.979
REMARK INTER:                 -10.754
REMARK INTRA:                  -1.224
REMARK UNBOUND:                -2.342
REMARK SMILES CCCCCCCCCCCCCCCCCCCCCC(=O)[O-]
REMARK SMILES IDX 12 1 11 2 10 3 9 4 8 5 7 6 6 7 5 8 4 9 3 10 2 11 1 12 13 13
REMARK SMILES IDX 14 14 15 15 16 16 17 17 18 18 19 19 20 20 21 21 22 22 23 23
REMARK SMILES IDX 24 24
REMARK H PARENT
REMARK Flexibility Score: inf
ROOT
ATOM      1  C   UNL     1       6.601  -0.117  -8.289  1.00  0.00     0.000 C 
ENDROOT
BRANCH   1   2
ATOM      2  C   UNL     1       5.393  -1.065  -8.189  1.00  0.00     0.000 C 
BRANCH   2   3
ATOM      3  C   UNL     1       5.390  -2.179  -9.258  1.00  0.00     0.000 C 
BRANCH   3   4
ATOM      4  C   UNL     1       4.174  -3.109  -9.123  1.00  0.00    -0.000 C 
BRANCH   4   5
ATOM      5  C   UNL     1       3.284  -2.760  -7.917  1.00  0.00    -0.000 C 
BRANCH   5   6
ATOM      6  C   UNL     1       2.854  -3.990  -7.091  1.00  0.00    -0.000 C 
BRANCH   6   7
ATOM      7  C   UNL     1       3.043  -5.304  -7.865  1.00  0.00    -0.000 C 
BRANCH   7   8
ATOM      8  C   UNL     1       3.304  -6.474  -6.910  1.00  0.00    -0.000 C 
BRANCH   8   9
ATOM      9  C   UNL     1       3.817  -5.975  -5.554  1.00  0.00    -0.000 C 
BRANCH   9  10
ATOM     10  C   UNL     1       4.107  -7.153  -4.609  1.00  0.00    -0.000 C 
BRANCH  10  11
ATOM     11  C   UNL     1       5.465  -7.814  -4.889  1.00  0.00    -0.003 C 
ATOM     12  C   UNL     1       6.636  -6.842  -4.753  1.00  0.00     0.004 C 
ENDBRANCH  10  11
ENDBRANCH   9  10
ENDBRANCH   8   9
ENDBRANCH   7   8
ENDBRANCH   6   7
ENDBRANCH   5   6
ENDBRANCH   4   5
ENDBRANCH   3   4
ENDBRANCH   2   3
ENDBRANCH   1   2
BRANCH   1  13
ATOM     13  C   UNL     1       6.458   1.131  -7.402  1.00  0.00     0.000 C 
BRANCH  13  14
ATOM     14  C   UNL     1       7.169   2.357  -7.994  1.00  0.00     0.000 C 
BRANCH  14  15
ATOM     15  C   UNL     1       6.839   2.567  -9.483  1.00  0.00     0.000 C 
BRANCH  15  16
ATOM     16  C   UNL     1       6.281   3.971  -9.770  1.00  0.00     0.000 C 
BRANCH  16  17
ATOM     17  C   UNL     1       6.964   5.060  -8.925  1.00  0.00     0.000 C 
BRANCH  17  18
ATOM     18  C   UNL     1       5.960   5.948  -8.168  1.00  0.00     0.000 C 
BRANCH  18  19
ATOM     19  C   UNL     1       6.133   7.462  -8.391  1.00  0.00     0.000 C 
BRANCH  19  20
ATOM     20  C   UNL     1       6.061   8.273  -7.088  1.00  0.00     0.006 C 
BRANCH  20  21
ATOM     21  C   UNL     1       6.694   7.497  -5.927  1.00  0.00     0.053 C 
BRANCH  21  22
ATOM     22  C   UNL     1       6.153   7.960  -4.608  1.00  0.00     0.041 C 
ATOM     23  O   UNL     1       6.610   9.004  -4.069  1.00  0.00    -0.550 OA
ATOM     24  O   UNL     1       5.195   7.206  -3.941  1.00  0.00    -0.550 OA
ENDBRANCH  21  22
ENDBRANCH  20  21
ENDBRANCH  19  20
ENDBRANCH  18  19
ENDBRANCH  17  18
ENDBRANCH  16  17
ENDBRANCH  15  16
ENDBRANCH  14  15
ENDBRANCH  13  14
ENDBRANCH   1  13
TORSDOF 20
ENDMDL
MODEL 4
REMARK VINA RESULT:    -4.440      4.275     10.569
REMARK INTER + INTRA:         -11.973
REMARK INTER:                 -10.487
REMARK INTRA:                  -1.485
REMARK UNBOUND:                -2.342
REMARK SMILES CCCCCCCCCCCCCCCCCCCCCC(=O)[O-]
REMARK SMILES IDX 12 1 11 2 10 3 9 4 8 5 7 6 6 7 5 8 4 9 3 10 2 11 1 12 13 13
REMARK SMILES IDX 14 14 15 15 16 16 17 17 18 18 19 19 20 20 21 21 22 22 23 23
REMARK SMILES IDX 24 24
REMARK H PARENT
REMARK Flexibility Score: inf
ROOT
ATOM      1  C   UNL     1       6.829  -0.385  -8.860  1.00  0.00     0.000 C 
ENDROOT
BRANCH   1   2
ATOM      2  C   UNL     1       6.337   0.324  -7.586  1.00  0.00     0.000 C 
BRANCH   2   3
ATOM      3  C   UNL     1       6.769   1.803  -7.494  1.00  0.00     0.000 C 
BRANCH   3   4
ATOM      4  C   UNL     1       6.561   2.553  -8.820  1.00  0.00    -0.000 C 
BRANCH   4   5
ATOM      5  C   UNL     1       5.847   3.903  -8.637  1.00  0.00    -0.000 C 
BRANCH   5   6
ATOM      6  C   UNL     1       6.633   5.099  -9.213  1.00  0.00    -0.000 C 
BRANCH   6   7
ATOM      7  C   UNL     1       7.966   5.323  -8.483  1.00  0.00    -0.000 C 
BRANCH   7   8
ATOM      8  C   UNL     1       8.066   6.754  -7.943  1.00  0.00    -0.000 C 
BRANCH   8   9
ATOM      9  C   UNL     1       6.838   7.581  -8.343  1.00  0.00    -0.000 C 
BRANCH   9  10
ATOM     10  C   UNL     1       6.163   8.198  -7.107  1.00  0.00    -0.000 C 
BRANCH  10  11
ATOM     11  C   UNL     1       6.964   7.960  -5.817  1.00  0.00    -0.003 C 
ATOM     12  C   UNL     1       6.071   7.808  -4.587  1.00  0.00     0.004 C 
ENDBRANCH  10  11
ENDBRANCH   9  10
ENDBRANCH   8   9
ENDBRANCH   7   8
ENDBRANCH   6   7
ENDBRANCH   5   6
ENDBRANCH   4   5
ENDBRANCH   3   4
ENDBRANCH   2   3
ENDBRANCH   1   2
BRANCH   1  13
ATOM     13  C   UNL     1       5.918  -1.546  -9.291  1.00  0.00     0.000 C 
BRANCH  13  14
ATOM     14  C   UNL     1       4.777  -1.798  -8.294  1.00  0.00     0.000 C 
BRANCH  14  15
ATOM     15  C   UNL     1       3.675  -2.703  -8.875  1.00  0.00     0.000 C 
BRANCH  15  16
ATOM     16  C   UNL     1       2.365  -2.624  -8.074  1.00  0.00     0.000 C 
BRANCH  16  17
ATOM     17  C   UNL     1       2.010  -3.958  -7.396  1.00  0.00     0.000 C 
BRANCH  17  18
ATOM     18  C   UNL     1       2.483  -5.184  -8.199  1.00  0.00     0.000 C 
BRANCH  18  19
ATOM     19  C   UNL     1       3.262  -6.234  -7.386  1.00  0.00     0.000 C 
BRANCH  19  20
ATOM     20  C   UNL     1       4.021  -5.628  -6.196  1.00  0.00     0.006 C 
BRANCH  20  21
ATOM     21  C   UNL     1       3.759  -6.430  -4.916  1.00  0.00     0.053 C 
BRANCH  21  22
ATOM     22  C   UNL     1       5.023  -7.037  -4.389  1.00  0.00     0.041 C 
ATOM     23  O   UNL     1       4.987  -8.141  -3.779  1.00  0.00    -0.550 OA
ATOM     24  O   UNL     1       6.230  -6.358  -4.508  1.00  0.00    -0.550 OA
ENDBRANCH  21  22
ENDBRANCH  20  21
ENDBRANCH  19  20
ENDBRANCH  18  19
ENDBRANCH  17  18
ENDBRANCH  16  17
ENDBRANCH  15  16
ENDBRANCH  14  15
ENDBRANCH  13  14
ENDBRANCH   1  13
TORSDOF 20
ENDMDL
MODEL 5
REMARK VINA RESULT:    -4.420      1.782      4.231
REMARK INTER + INTRA:         -11.930
REMARK INTER:                  -8.788
REMARK INTRA:                  -3.143
REMARK UNBOUND:                -2.342
REMARK SMILES CCCCCCCCCCCCCCCCCCCCCC(=O)[O-]
REMARK SMILES IDX 12 1 11 2 10 3 9 4 8 5 7 6 6 7 5 8 4 9 3 10 2 11 1 12 13 13
REMARK SMILES IDX 14 14 15 15 16 16 17 17 18 18 19 19 20 20 21 21 22 22 23 23
REMARK SMILES IDX 24 24
REMARK H PARENT
REMARK Flexibility Score: inf
ROOT
ATOM      1  C   UNL     1       3.828  -5.434  -6.346  1.00  0.00     0.000 C 
ENDROOT
BRANCH   1   2
ATOM      2  C   UNL     1       3.340  -6.417  -5.267  1.00  0.00     0.000 C 
BRANCH   2   3
ATOM      3  C   UNL     1       4.480  -7.020  -4.418  1.00  0.00     0.000 C 
BRANCH   3   4
ATOM      4  C   UNL     1       5.859  -6.480  -4.829  1.00  0.00    -0.000 C 
BRANCH   4   5
ATOM      5  C   UNL     1       6.895  -7.594  -5.055  1.00  0.00    -0.000 C 
BRANCH   5   6
ATOM      6  C   UNL     1       7.787  -7.366  -6.293  1.00  0.00    -0.000 C 
BRANCH   6   7
ATOM      7  C   UNL     1       7.021  -6.701  -7.446  1.00  0.00    -0.000 C 
BRANCH   7   8
ATOM      8  C   UNL     1       6.702  -7.713  -8.552  1.00  0.00    -0.000 C 
BRANCH   8   9
ATOM      9  C   UNL     1       5.246  -7.581  -9.016  1.00  0.00    -0.000 C 
BRANCH   9  10
ATOM     10  C   UNL     1       4.414  -8.794  -8.569  1.00  0.00    -0.000 C 
BRANCH  10  11
ATOM     11  C   UNL     1       2.939  -8.442  -8.329  1.00  0.00    -0.003 C 
ATOM     12  C   UNL     1       2.375  -7.500  -9.391  1.00  0.00     0.004 C 
ENDBRANCH  10  11
ENDBRANCH   9  10
ENDBRANCH   8   9
ENDBRANCH   7   8
ENDBRANCH   6   7
ENDBRANCH   5   6
ENDBRANCH   4   5
ENDBRANCH   3   4
ENDBRANCH   2   3
ENDBRANCH   1   2
BRANCH   1  13
ATOM     13  C   UNL     1       2.674  -4.751  -7.099  1.00  0.00     0.000 C 
BRANCH  13  14
ATOM     14  C   UNL     1       2.960  -3.271  -7.394  1.00  0.00     0.000 C 
BRANCH  14  15
ATOM     15  C   UNL     1       2.913  -2.950  -8.899  1.00  0.00     0.000 C 
BRANCH  15  16
ATOM     16  C   UNL     1       3.662  -3.990  -9.747  1.00  0.00     0.000 C 
BRANCH  16  17
ATOM     17  C   UNL     1       5.190  -3.848  -9.637  1.00  0.00     0.000 C 
BRANCH  17  18
ATOM     18  C   UNL     1       5.678  -2.410  -9.891  1.00  0.00     0.000 C 
BRANCH  18  19
ATOM     19  C   UNL     1       7.177  -2.175  -9.631  1.00  0.00     0.000 C 
BRANCH  19  20
ATOM     20  C   UNL     1       7.456  -0.880  -8.852  1.00  0.00     0.006 C 
BRANCH  20  21
ATOM     21  C   UNL     1       6.173  -0.346  -8.205  1.00  0.00     0.053 C 
BRANCH  21  22
ATOM     22  C   UNL     1       6.475   0.747  -7.226  1.00  0.00     0.041 C 
ATOM     23  O   UNL     1       7.099   0.488  -6.162  1.00  0.00    -0.550 OA
ATOM     24  O   UNL     1       6.012   2.038  -7.453  1.00  0.00    -0.550 OA
ENDBRANCH  21  22
ENDBRANCH  20  21
ENDBRANCH  19  20
ENDBRANCH  18  19
ENDBRANCH  17  18
ENDBRANCH  16  17
ENDBRANCH  15  16
ENDBRANCH  14  15
ENDBRANCH  13  14
ENDBRANCH   1  13
TORSDOF 20
ENDMDL
MODEL 6
REMARK VINA RESULT:    -4.393      1.619      3.785
REMARK INTER + INTRA:         -11.871
REMARK INTER:                  -9.703
REMARK INTRA:                  -2.169
REMARK UNBOUND:                -2.342
REMARK SMILES CCCCCCCCCCCCCCCCCCCCCC(=O)[O-]
REMARK SMILES IDX 12 1 11 2 10 3 9 4 8 5 7 6 6 7 5 8 4 9 3 10 2 11 1 12 13 13
REMARK SMILES IDX 14 14 15 15 16 16 17 17 18 18 19 19 20 20 21 21 22 22 23 23
REMARK SMILES IDX 24 24
REMARK H PARENT
REMARK Flexibility Score: inf
ROOT
ATOM      1  C   UNL     1       5.734  -2.687  -9.446  1.00  0.00     0.000 C 
ENDROOT
BRANCH   1   2
ATOM      2  C   UNL     1       4.197  -2.633  -9.410  1.00  0.00     0.000 C 
BRANCH   2   3
ATOM      3  C   UNL     1       3.611  -2.617  -7.982  1.00  0.00     0.000 C 
BRANCH   3   4
ATOM      4  C   UNL     1       2.074  -2.619  -7.985  1.00  0.00    -0.000 C 
BRANCH   4   5
ATOM      5  C   UNL     1       1.477  -4.036  -8.029  1.00  0.00    -0.000 C 
BRANCH   5   6
ATOM      6  C   UNL     1       1.208  -4.548  -9.459  1.00  0.00    -0.000 C 
BRANCH   6   7
ATOM      7  C   UNL     1       2.187  -5.657  -9.873  1.00  0.00    -0.000 C 
BRANCH   7   8
ATOM      8  C   UNL     1       1.923  -6.947  -9.087  1.00  0.00    -0.000 C 
BRANCH   8   9
ATOM      9  C   UNL     1       3.199  -7.441  -8.394  1.00  0.00    -0.000 C 
BRANCH   9  10
ATOM     10  C   UNL     1       3.272  -6.929  -6.946  1.00  0.00    -0.000 C 
BRANCH  10  11
ATOM     11  C   UNL     1       4.483  -6.015  -6.704  1.00  0.00    -0.003 C 
ATOM     12  C   UNL     1       5.464  -6.010  -7.875  1.00  0.00     0.004 C 
ENDBRANCH  10  11
ENDBRANCH   9  10
ENDBRANCH   8   9
ENDBRANCH   7   8
ENDBRANCH   6   7
ENDBRANCH   5   6
ENDBRANCH   4   5
ENDBRANCH   3   4
ENDBRANCH   2   3
ENDBRANCH   1   2
BRANCH   1  13
ATOM     13  C   UNL     1       6.373  -1.333  -9.797  1.00  0.00     0.000 C 
BRANCH  13  14
ATOM     14  C   UNL     1       7.103  -0.701  -8.602  1.00  0.00     0.000 C 
BRANCH  14  15
ATOM     15  C   UNL     1       6.139  -0.011  -7.621  1.00  0.00     0.000 C 
BRANCH  15  16
ATOM     16  C   UNL     1       6.416   1.495  -7.483  1.00  0.00     0.000 C 
BRANCH  16  17
ATOM     17  C   UNL     1       6.997   2.106  -8.769  1.00  0.00     0.000 C 
BRANCH  17  18
ATOM     18  C   UNL     1       7.437   3.571  -8.592  1.00  0.00     0.000 C 
BRANCH  18  19
ATOM     19  C   UNL     1       6.778   4.570  -9.559  1.00  0.00     0.000 C 
BRANCH  19  20
ATOM     20  C   UNL     1       5.371   4.999  -9.114  1.00  0.00     0.006 C 
BRANCH  20  21
ATOM     21  C   UNL     1       5.164   6.501  -9.332  1.00  0.00     0.053 C 
BRANCH  21  22
ATOM     22  C   UNL     1       5.748   7.298  -8.205  1.00  0.00     0.041 C 
ATOM     23  O   UNL     1       6.150   8.477  -8.406  1.00  0.00    -0.550 OA
ATOM     24  O   UNL     1       5.914   6.721  -6.952  1.00  0.00    -0.550 OA
ENDBRANCH  21  22
ENDBRANCH  20  21
ENDBRANCH  19  20
ENDBRANCH  18  19
ENDBRANCH  17  18
ENDBRANCH  16  17
ENDBRANCH  15  16
ENDBRANCH  14  15
ENDBRANCH  13  14
ENDBRANCH   1  13
TORSDOF 20
ENDMDL
MODEL 7
REMARK VINA RESULT:    -4.334      4.265      9.614
REMARK INTER + INTRA:         -11.743
REMARK INTER:                  -9.915
REMARK INTRA:                  -1.828
REMARK UNBOUND:                -2.342
REMARK SMILES CCCCCCCCCCCCCCCCCCCCCC(=O)[O-]
REMARK SMILES IDX 12 1 11 2 10 3 9 4 8 5 7 6 6 7 5 8 4 9 3 10 2 11 1 12 13 13
REMARK SMILES IDX 14 14 15 15 16 16 17 17 18 18 19 19 20 20 21 21 22 22 23 23
REMARK SMILES IDX 24 24
REMARK H PARENT
REMARK Flexibility Score: inf
ROOT
ATOM      1  C   UNL     1       3.600  -3.084  -8.330  1.00  0.00     0.000 C 
ENDROOT
BRANCH   1   2
ATOM      2  C   UNL     1       4.491  -1.836  -8.212  1.00  0.00     0.000 C 
BRANCH   2   3
ATOM      3  C   UNL     1       5.641  -1.796  -9.242  1.00  0.00     0.000 C 
BRANCH   3   4
ATOM      4  C   UNL     1       6.509  -0.535  -9.095  1.00  0.00    -0.000 C 
BRANCH   4   5
ATOM      5  C   UNL     1       6.590  -0.032  -7.643  1.00  0.00    -0.000 C 
BRANCH   5   6
ATOM      6  C   UNL     1       6.359   1.487  -7.504  1.00  0.00    -0.000 C 
BRANCH   6   7
ATOM      7  C   UNL     1       7.584   2.304  -7.942  1.00  0.00    -0.000 C 
BRANCH   7   8
ATOM      8  C   UNL     1       7.176   3.462  -8.860  1.00  0.00    -0.000 C 
BRANCH   8   9
ATOM      9  C   UNL     1       5.937   4.185  -8.316  1.00  0.00    -0.000 C 
BRANCH   9  10
ATOM     10  C   UNL     1       5.948   5.670  -8.714  1.00  0.00    -0.000 C 
BRANCH  10  11
ATOM     11  C   UNL     1       6.296   6.594  -7.538  1.00  0.00    -0.003 C 
ATOM     12  C   UNL     1       5.990   8.062  -7.828  1.00  0.00     0.004 C 
ENDBRANCH  10  11
ENDBRANCH   9  10
ENDBRANCH   8   9
ENDBRANCH   7   8
ENDBRANCH   6   7
ENDBRANCH   5   6
ENDBRANCH   4   5
ENDBRANCH   3   4
ENDBRANCH   2   3
ENDBRANCH   1   2
BRANCH   1  13
ATOM     13  C   UNL     1       2.215  -2.894  -7.688  1.00  0.00     0.000 C 
BRANCH  13  14
ATOM     14  C   UNL     1       1.141  -3.781  -8.335  1.00  0.00     0.000 C 
BRANCH  14  15
ATOM     15  C   UNL     1       1.641  -4.472  -9.616  1.00  0.00     0.000 C 
BRANCH  15  16
ATOM     16  C   UNL     1       1.661  -6.005  -9.490  1.00  0.00     0.000 C 
BRANCH  16  17
ATOM     17  C   UNL     1       3.061  -6.549  -9.158  1.00  0.00     0.000 C 
BRANCH  17  18
ATOM     18  C   UNL     1       3.115  -7.283  -7.806  1.00  0.00     0.000 C 
BRANCH  18  19
ATOM     19  C   UNL     1       3.104  -6.368  -6.568  1.00  0.00     0.000 C 
BRANCH  19  20
ATOM     20  C   UNL     1       4.513  -5.981  -6.095  1.00  0.00     0.006 C 
BRANCH  20  21
ATOM     21  C   UNL     1       5.432  -7.207  -6.057  1.00  0.00     0.053 C 
BRANCH  21  22
ATOM     22  C   UNL     1       5.227  -7.999  -4.802  1.00  0.00     0.041 C 
ATOM     23  O   UNL     1       5.332  -9.256  -4.823  1.00  0.00    -0.550 OA
ATOM     24  O   UNL     1       4.855  -7.361  -3.624  1.00  0.00    -0.550 OA
ENDBRANCH  21  22
ENDBRANCH  20  21
ENDBRANCH  19  20
ENDBRANCH  18  19
ENDBRANCH  17  18
ENDBRANCH  16  17
ENDBRANCH  15  16
ENDBRANCH  14  15
ENDBRANCH  13  14
ENDBRANCH   1  13
TORSDOF 20
ENDMDL
MODEL 8
REMARK VINA RESULT:    -4.317      2.084      4.909
REMARK INTER + INTRA:         -11.708
REMARK INTER:                  -8.547
REMARK INTRA:                  -3.160
REMARK UNBOUND:                -2.342
REMARK SMILES CCCCCCCCCCCCCCCCCCCCCC(=O)[O-]
REMARK SMILES IDX 12 1 11 2 10 3 9 4 8 5 7 6 6 7 5 8 4 9 3 10 2 11 1 12 13 13
REMARK SMILES IDX 14 14 15 15 16 16 17 17 18 18 19 19 20 20 21 21 22 22 23 23
REMARK SMILES IDX 24 24
REMARK H PARENT
REMARK Flexibility Score: inf
ROOT
ATOM      1  C   UNL     1       5.232  -6.259  -5.516  1.00  0.00     0.000 C 
ENDROOT
BRANCH   1   2
ATOM      2  C   UNL     1       6.267  -6.705  -4.469  1.00  0.00     0.000 C 
BRANCH   2   3
ATOM      3  C   UNL     1       7.514  -7.379  -5.079  1.00  0.00     0.000 C 
BRANCH   3   4
ATOM      4  C   UNL     1       7.150  -8.582  -5.964  1.00  0.00    -0.000 C 
BRANCH   4   5
ATOM      5  C   UNL     1       7.720  -8.470  -7.389  1.00  0.00    -0.000 C 
BRANCH   5   6
ATOM      6  C   UNL     1       7.842  -7.017  -7.891  1.00  0.00    -0.000 C 
BRANCH   6   7
ATOM      7  C   UNL     1       6.718  -6.644  -8.870  1.00  0.00    -0.000 C 
BRANCH   7   8
ATOM      8  C   UNL     1       6.573  -7.699  -9.972  1.00  0.00    -0.000 C 
BRANCH   8   9
ATOM      9  C   UNL     1       5.118  -8.162 -10.104  1.00  0.00    -0.000 C 
BRANCH   9  10
ATOM     10  C   UNL     1       4.206  -7.395  -9.133  1.00  0.00    -0.000 C 
BRANCH  10  11
ATOM     11  C   UNL     1       3.209  -8.312  -8.409  1.00  0.00    -0.003 C 
ATOM     12  C   UNL     1       3.895  -9.410  -7.598  1.00  0.00     0.004 C 
ENDBRANCH  10  11
ENDBRANCH   9  10
ENDBRANCH   8   9
ENDBRANCH   7   8
ENDBRANCH   6   7
ENDBRANCH   5   6
ENDBRANCH   4   5
ENDBRANCH   3   4
ENDBRANCH   2   3
ENDBRANCH   1   2
BRANCH   1  13
ATOM     13  C   UNL     1       3.787  -6.604  -5.116  1.00  0.00     0.000 C 
BRANCH  13  14
ATOM     14  C   UNL     1       2.748  -5.880  -5.984  1.00  0.00     0.000 C 
BRANCH  14  15
ATOM     15  C   UNL     1       3.363  -4.733  -6.806  1.00  0.00     0.000 C 
BRANCH  15  16
ATOM     16  C   UNL     1       2.308  -3.726  -7.293  1.00  0.00     0.000 C 
BRANCH  16  17
ATOM     17  C   UNL     1       2.836  -2.820  -8.419  1.00  0.00     0.000 C 
BRANCH  17  18
ATOM     18  C   UNL     1       4.126  -3.358  -9.066  1.00  0.00     0.000 C 
BRANCH  18  19
ATOM     19  C   UNL     1       5.187  -2.290  -9.388  1.00  0.00     0.000 C 
BRANCH  19  20
ATOM     20  C   UNL     1       5.311  -1.218  -8.294  1.00  0.00     0.006 C 
BRANCH  20  21
ATOM     21  C   UNL     1       6.620  -0.436  -8.441  1.00  0.00     0.053 C 
BRANCH  21  22
ATOM     22  C   UNL     1       6.827   0.497  -7.287  1.00  0.00     0.041 C 
ATOM     23  O   UNL     1       6.075   1.499  -7.143  1.00  0.00    -0.550 OA
ATOM     24  O   UNL     1       7.888   0.303  -6.411  1.00  0.00    -0.550 OA
ENDBRANCH  21  22
ENDBRANCH  20  21
ENDBRANCH  19  20
ENDBRANCH  18  19
ENDBRANCH  17  18
ENDBRANCH  16  17
ENDBRANCH  15  16
ENDBRANCH  14  15
ENDBRANCH  13  14
ENDBRANCH   1  13
TORSDOF 20
ENDMDL
MODEL 9
REMARK VINA RESULT:    -4.240      2.031      5.487
REMARK INTER + INTRA:         -11.540
REMARK INTER:                  -9.375
REMARK INTRA:                  -2.165
REMARK UNBOUND:                -2.342
REMARK SMILES CCCCCCCCCCCCCCCCCCCCCC(=O)[O-]
REMARK SMILES IDX 12 1 11 2 10 3 9 4 8 5 7 6 6 7 5 8 4 9 3 10 2 11 1 12 13 13
REMARK SMILES IDX 14 14 15 15 16 16 17 17 18 18 19 19 20 20 21 21 22 22 23 23
REMARK SMILES IDX 24 24
REMARK H PARENT
REMARK Flexibility Score: inf
ROOT
ATOM      1  C   UNL     1       7.062  -7.115  -5.631  1.00  0.00     0.000 C 
ENDROOT
BRANCH   1   2
ATOM      2  C   UNL     1       6.053  -6.549  -4.617  1.00  0.00     0.000 C 
BRANCH   2   3
ATOM      3  C   UNL     1       4.755  -7.378  -4.506  1.00  0.00     0.000 C 
BRANCH   3   4
ATOM      4  C   UNL     1       3.498  -6.522  -4.730  1.00  0.00    -0.000 C 
BRANCH   4   5
ATOM      5  C   UNL     1       3.182  -6.304  -6.220  1.00  0.00    -0.000 C 
BRANCH   5   6
ATOM      6  C   UNL     1       3.493  -4.875  -6.713  1.00  0.00    -0.000 C 
BRANCH   6   7
ATOM      7  C   UNL     1       2.224  -4.114  -7.125  1.00  0.00    -0.000 C 
BRANCH   7   8
ATOM      8  C   UNL     1       2.573  -2.844  -7.909  1.00  0.00    -0.000 C 
BRANCH   8   9
ATOM      9  C   UNL     1       2.256  -3.012  -9.400  1.00  0.00    -0.000 C 
BRANCH   9  10
ATOM     10  C   UNL     1       1.002  -3.878  -9.601  1.00  0.00    -0.000 C 
BRANCH  10  11
ATOM     11  C   UNL     1      -0.196  -3.071 -10.122  1.00  0.00    -0.003 C 
ATOM     12  C   UNL     1      -0.444  -1.796  -9.319  1.00  0.00     0.004 C 
ENDBRANCH  10  11
ENDBRANCH   9  10
ENDBRANCH   8   9
ENDBRANCH   7   8
ENDBRANCH   6   7
ENDBRANCH   5   6
ENDBRANCH   4   5
ENDBRANCH   3   4
ENDBRANCH   2   3
ENDBRANCH   1   2
BRANCH   1  13
ATOM     13  C   UNL     1       6.565  -7.027  -7.083  1.00  0.00     0.000 C 
BRANCH  13  14
ATOM     14  C   UNL     1       7.707  -6.784  -8.081  1.00  0.00     0.000 C 
BRANCH  14  15
ATOM     15  C   UNL     1       7.280  -5.888  -9.258  1.00  0.00     0.000 C 
BRANCH  15  16
ATOM     16  C   UNL     1       5.857  -5.331  -9.089  1.00  0.00     0.000 C 
BRANCH  16  17
ATOM     17  C   UNL     1       5.791  -3.810  -9.311  1.00  0.00     0.000 C 
BRANCH  17  18
ATOM     18  C   UNL     1       7.037  -3.254 -10.025  1.00  0.00     0.000 C 
BRANCH  18  19
ATOM     19  C   UNL     1       7.507  -1.873  -9.533  1.00  0.00     0.000 C 
BRANCH  19  20
ATOM     20  C   UNL     1       6.353  -0.989  -9.036  1.00  0.00     0.006 C 
BRANCH  20  21
ATOM     21  C   UNL     1       6.800   0.472  -8.913  1.00  0.00     0.053 C 
BRANCH  21  22
ATOM     22  C   UNL     1       6.456   1.032  -7.566  1.00  0.00     0.041 C 
ATOM     23  O   UNL     1       5.882   2.152  -7.476  1.00  0.00    -0.550 OA
ATOM     24  O   UNL     1       6.826   0.355  -6.411  1.00  0.00    -0.550 OA
ENDBRANCH  21  22
ENDBRANCH  20  21
ENDBRANCH  19  20
ENDBRANCH  18  19
ENDBRANCH  17  18
ENDBRANCH  16  17
ENDBRANCH  15  16
ENDBRANCH  14  15
ENDBRANCH  13  14
ENDBRANCH   1  13
TORSDOF 20
ENDMDL
