MODEL 1
REMARK VINA RESULT:    -4.208      0.000      0.000
REMARK INTER + INTRA:          -9.728
REMARK INTER:                  -7.652
REMARK INTRA:                  -2.076
REMARK UNBOUND:                -2.076
REMARK SMILES CCCCCCCCCCCCCCCC(=O)[O-]
REMARK SMILES IDX 9 1 10 2 11 3 12 4 13 5 14 6 15 7 16 8 17 9 18 10 8 11 7 12
REMARK SMILES IDX 6 13 5 14 4 15 3 16 2 17 1 18
REMARK H PARENT
REMARK Flexibility Score: inf
ROOT
ATOM      1  C   UNL     1     109.601 116.835 127.336  1.00  0.00     0.000 C 
ENDROOT
BRANCH   1   2
ATOM      2  C   UNL     1     110.607 116.332 126.287  1.00  0.00     0.000 C 
BRANCH   2   3
ATOM      3  C   UNL     1     109.924 115.720 125.051  1.00  0.00     0.000 C 
BRANCH   3   4
ATOM      4  C   UNL     1     110.776 115.711 123.765  1.00  0.00     0.000 C 
BRANCH   4   5
ATOM      5  C   UNL     1     110.150 116.436 122.560  1.00  0.00     0.000 C 
BRANCH   5   6
ATOM      6  C   UNL     1     109.157 117.532 122.973  1.00  0.00     0.006 C 
BRANCH   6   7
ATOM      7  C   UNL     1     109.776 118.922 122.811  1.00  0.00     0.053 C 
BRANCH   7   8
ATOM      8  C   UNL     1     110.337 119.402 124.112  1.00  0.00     0.041 C 
ATOM      9  O   UNL     1     109.569 119.684 125.068  1.00  0.00    -0.550 OA
ATOM     10  O   UNL     1     111.712 119.490 124.285  1.00  0.00    -0.550 OA
ENDBRANCH   7   8
ENDBRANCH   6   7
ENDBRANCH   5   6
ENDBRANCH   4   5
ENDBRANCH   3   4
ENDBRANCH   2   3
ENDBRANCH   1   2
BRANCH   1  11
ATOM     11  C   UNL     1     109.492 115.893 128.547  1.00  0.00     0.000 C 
BRANCH  11  12
ATOM     12  C   UNL     1     110.011 116.537 129.844  1.00  0.00    -0.000 C 
BRANCH  12  13
ATOM     13  C   UNL     1     111.156 115.734 130.484  1.00  0.00    -0.000 C 
BRANCH  13  14
ATOM     14  C   UNL     1     112.478 115.865 129.712  1.00  0.00    -0.000 C 
BRANCH  14  15
ATOM     15  C   UNL     1     112.857 117.339 129.520  1.00  0.00    -0.000 C 
BRANCH  15  16
ATOM     16  C   UNL     1     113.591 117.548 128.187  1.00  0.00    -0.000 C 
BRANCH  16  17
ATOM     17  C   UNL     1     113.149 118.829 127.464  1.00  0.00    -0.003 C 
ATOM     18  C   UNL     1     111.854 119.410 128.029  1.00  0.00     0.004 C 
ENDBRANCH  16  17
ENDBRANCH  15  16
ENDBRANCH  14  15
ENDBRANCH  13  14
ENDBRANCH  12  13
ENDBRANCH  11  12
ENDBRANCH   1  11
TORSDOF 14
ENDMDL
MODEL 2
REMARK VINA RESULT:    -4.187      1.305      2.698
REMARK INTER + INTRA:          -9.690
REMARK INTER:                  -7.680
REMARK INTRA:                  -2.010
REMARK UNBOUND:                -2.076
REMARK SMILES CCCCCCCCCCCCCCCC(=O)[O-]
REMARK SMILES IDX 9 1 10 2 11 3 12 4 13 5 14 6 15 7 16 8 17 9 18 10 8 11 7 12
REMARK SMILES IDX 6 13 5 14 4 15 3 16 2 17 1 18
REMARK H PARENT
REMARK Flexibility Score: inf
ROOT
ATOM      1  C   UNL     1     109.985 115.692 125.112  1.00  0.00     0.000 C 
ENDROOT
BRANCH   1   2
ATOM      2  C   UNL     1     110.728 116.105 123.830  1.00  0.00     0.000 C 
BRANCH   2   3
ATOM      3  C   UNL     1     109.785 116.660 122.747  1.00  0.00     0.000 C 
BRANCH   3   4
ATOM      4  C   UNL     1     109.007 117.931 123.143  1.00  0.00     0.000 C 
BRANCH   4   5
ATOM      5  C   UNL     1     109.857 119.211 123.249  1.00  0.00     0.000 C 
BRANCH   5   6
ATOM      6  C   UNL     1     109.844 119.820 124.659  1.00  0.00     0.006 C 
BRANCH   6   7
ATOM      7  C   UNL     1     111.215 119.682 125.327  1.00  0.00     0.053 C 
BRANCH   7   8
ATOM      8  C   UNL     1     111.330 120.623 126.484  1.00  0.00     0.041 C 
ATOM      9  O   UNL     1     111.020 120.243 127.644  1.00  0.00    -0.550 OA
ATOM     10  O   UNL     1     111.827 121.906 126.290  1.00  0.00    -0.550 OA
ENDBRANCH   7   8
ENDBRANCH   6   7
ENDBRANCH   5   6
ENDBRANCH   4   5
ENDBRANCH   3   4
ENDBRANCH   2   3
ENDBRANCH   1   2
BRANCH   1  11
ATOM     11  C   UNL     1     110.671 116.217 126.385  1.00  0.00     0.000 C 
BRANCH  11  12
ATOM     12  C   UNL     1     109.683 116.896 127.349  1.00  0.00    -0.000 C 
BRANCH  12  13
ATOM     13  C   UNL     1     109.280 115.983 128.520  1.00  0.00    -0.000 C 
BRANCH  13  14
ATOM     14  C   UNL     1     110.390 115.840 129.571  1.00  0.00    -0.000 C 
BRANCH  14  15
ATOM     15  C   UNL     1     110.512 117.113 130.418  1.00  0.00    -0.000 C 
BRANCH  15  16
ATOM     16  C   UNL     1     111.939 117.678 130.360  1.00  0.00    -0.000 C 
BRANCH  16  17
ATOM     17  C   UNL     1     112.841 116.905 129.386  1.00  0.00    -0.003 C 
ATOM     18  C   UNL     1     113.480 117.806 128.330  1.00  0.00     0.004 C 
ENDBRANCH  16  17
ENDBRANCH  15  16
ENDBRANCH  14  15
ENDBRANCH  13  14
ENDBRANCH  12  13
ENDBRANCH  11  12
ENDBRANCH   1  11
TORSDOF 14
ENDMDL
MODEL 3
REMARK VINA RESULT:    -4.151      2.629      5.372
REMARK INTER + INTRA:          -9.624
REMARK INTER:                  -7.476
REMARK INTRA:                  -2.149
REMARK UNBOUND:                -2.076
REMARK SMILES CCCCCCCCCCCCCCCC(=O)[O-]
REMARK SMILES IDX 9 1 10 2 11 3 12 4 13 5 14 6 15 7 16 8 17 9 18 10 8 11 7 12
REMARK SMILES IDX 6 13 5 14 4 15 3 16 2 17 1 18
REMARK H PARENT
REMARK Flexibility Score: inf
ROOT
ATOM      1  C   UNL     1     110.640 116.593 122.886  1.00  0.00     0.000 C 
ENDROOT
BRANCH   1   2
ATOM      2  C   UNL     1     111.092 115.808 124.130  1.00  0.00     0.000 C 
BRANCH   2   3
ATOM      3  C   UNL     1     109.993 115.705 125.202  1.00  0.00     0.000 C 
BRANCH   3   4
ATOM      4  C   UNL     1     110.399 116.193 126.608  1.00  0.00     0.000 C 
BRANCH   4   5
ATOM      5  C   UNL     1     109.411 117.170 127.272  1.00  0.00     0.000 C 
BRANCH   5   6
ATOM      6  C   UNL     1     110.108 118.212 128.158  1.00  0.00     0.006 C 
BRANCH   6   7
ATOM      7  C   UNL     1     111.274 117.586 128.928  1.00  0.00     0.053 C 
BRANCH   7   8
ATOM      8  C   UNL     1     110.770 116.818 130.108  1.00  0.00     0.041 C 
ATOM      9  O   UNL     1     109.997 117.365 130.938  1.00  0.00    -0.550 OA
ATOM     10  O   UNL     1     111.115 115.482 130.267  1.00  0.00    -0.550 OA
ENDBRANCH   7   8
ENDBRANCH   6   7
ENDBRANCH   5   6
ENDBRANCH   4   5
ENDBRANCH   3   4
ENDBRANCH   2   3
ENDBRANCH   1   2
BRANCH   1  11
ATOM     11  C   UNL     1     109.164 117.016 122.961  1.00  0.00     0.000 C 
BRANCH  11  12
ATOM     12  C   UNL     1     108.985 118.543 122.918  1.00  0.00    -0.000 C 
BRANCH  12  13
ATOM     13  C   UNL     1     108.875 119.164 124.321  1.00  0.00    -0.000 C 
BRANCH  13  14
ATOM     14  C   UNL     1     109.960 120.217 124.592  1.00  0.00    -0.000 C 
BRANCH  14  15
ATOM     15  C   UNL     1     111.311 119.551 124.881  1.00  0.00    -0.000 C 
BRANCH  15  16
ATOM     16  C   UNL     1     112.385 120.602 125.202  1.00  0.00    -0.000 C 
BRANCH  16  17
ATOM     17  C   UNL     1     111.849 121.745 126.077  1.00  0.00    -0.003 C 
ATOM     18  C   UNL     1     111.806 121.385 127.561  1.00  0.00     0.004 C 
ENDBRANCH  16  17
ENDBRANCH  15  16
ENDBRANCH  14  15
ENDBRANCH  13  14
ENDBRANCH  12  13
ENDBRANCH  11  12
ENDBRANCH   1  11
TORSDOF 14
ENDMDL
MODEL 4
REMARK VINA RESULT:    -4.119      1.948      5.708
REMARK INTER + INTRA:          -9.566
REMARK INTER:                  -7.438
REMARK INTRA:                  -2.128
REMARK UNBOUND:                -2.076
REMARK SMILES CCCCCCCCCCCCCCCC(=O)[O-]
REMARK SMILES IDX 9 1 10 2 11 3 12 4 13 5 14 6 15 7 16 8 17 9 18 10 8 11 7 12
REMARK SMILES IDX 6 13 5 14 4 15 3 16 2 17 1 18
REMARK H PARENT
REMARK Flexibility Score: inf
ROOT
ATOM      1  C   UNL     1     109.991 115.591 125.176  1.00  0.00     0.000 C 
ENDROOT
BRANCH   1   2
ATOM      2  C   UNL     1     110.621 116.417 126.311  1.00  0.00     0.000 C 
BRANCH   2   3
ATOM      3  C   UNL     1     109.588 116.882 127.354  1.00  0.00     0.000 C 
BRANCH   3   4
ATOM      4  C   UNL     1     109.381 115.925 128.545  1.00  0.00     0.000 C 
BRANCH   4   5
ATOM      5  C   UNL     1     109.962 116.413 129.885  1.00  0.00     0.000 C 
BRANCH   5   6
ATOM      6  C   UNL     1     111.366 115.857 130.164  1.00  0.00     0.006 C 
BRANCH   6   7
ATOM      7  C   UNL     1     112.375 116.991 130.362  1.00  0.00     0.053 C 
BRANCH   7   8
ATOM      8  C   UNL     1     112.858 117.499 129.041  1.00  0.00     0.041 C 
ATOM      9  O   UNL     1     112.457 118.610 128.605  1.00  0.00    -0.550 OA
ATOM     10  O   UNL     1     113.789 116.769 128.313  1.00  0.00    -0.550 OA
ENDBRANCH   7   8
ENDBRANCH   6   7
ENDBRANCH   5   6
ENDBRANCH   4   5
ENDBRANCH   3   4
ENDBRANCH   2   3
ENDBRANCH   1   2
BRANCH   1  11
ATOM     11  C   UNL     1     110.409 116.089 123.783  1.00  0.00     0.000 C 
BRANCH  11  12
ATOM     12  C   UNL     1     109.276 116.839 123.061  1.00  0.00    -0.000 C 
BRANCH  12  13
ATOM     13  C   UNL     1     109.638 118.303 122.757  1.00  0.00    -0.000 C 
BRANCH  13  14
ATOM     14  C   UNL     1     108.982 119.292 123.732  1.00  0.00    -0.000 C 
BRANCH  14  15
ATOM     15  C   UNL     1     109.987 119.767 124.790  1.00  0.00    -0.000 C 
BRANCH  15  16
ATOM     16  C   UNL     1     111.356 120.056 124.157  1.00  0.00    -0.000 C 
BRANCH  16  17
ATOM     17  C   UNL     1     112.525 119.691 125.085  1.00  0.00    -0.003 C 
ATOM     18  C   UNL     1     113.233 118.403 124.665  1.00  0.00     0.004 C 
ENDBRANCH  16  17
ENDBRANCH  15  16
ENDBRANCH  14  15
ENDBRANCH  13  14
ENDBRANCH  12  13
ENDBRANCH  11  12
ENDBRANCH   1  11
TORSDOF 14
ENDMDL
MODEL 5
REMARK VINA RESULT:    -4.115      2.578      5.847
REMARK INTER + INTRA:          -9.560
REMARK INTER:                  -7.144
REMARK INTRA:                  -2.416
REMARK UNBOUND:                -2.076
REMARK SMILES CCCCCCCCCCCCCCCC(=O)[O-]
REMARK SMILES IDX 9 1 10 2 11 3 12 4 13 5 14 6 15 7 16 8 17 9 18 10 8 11 7 12
REMARK SMILES IDX 6 13 5 14 4 15 3 16 2 17 1 18
REMARK H PARENT
REMARK Flexibility Score: inf
ROOT
ATOM      1  C   UNL     1     111.256 119.428 124.137  1.00  0.00     0.000 C 
ENDROOT
BRANCH   1   2
ATOM      2  C   UNL     1     110.906 120.452 125.231  1.00  0.00     0.000 C 
BRANCH   2   3
ATOM      3  C   UNL     1     111.380 120.017 126.629  1.00  0.00     0.000 C 
BRANCH   3   4
ATOM      4  C   UNL     1     111.277 118.505 126.917  1.00  0.00     0.000 C 
BRANCH   4   5
ATOM      5  C   UNL     1     109.879 118.011 127.331  1.00  0.00     0.000 C 
BRANCH   5   6
ATOM      6  C   UNL     1     109.763 116.480 127.331  1.00  0.00     0.006 C 
BRANCH   6   7
ATOM      7  C   UNL     1     109.271 115.967 128.686  1.00  0.00     0.053 C 
BRANCH   7   8
ATOM      8  C   UNL     1     110.298 116.213 129.745  1.00  0.00     0.041 C 
ATOM      9  O   UNL     1     111.424 115.653 129.678  1.00  0.00    -0.550 OA
ATOM     10  O   UNL     1     110.031 117.098 130.781  1.00  0.00    -0.550 OA
ENDBRANCH   7   8
ENDBRANCH   6   7
ENDBRANCH   5   6
ENDBRANCH   4   5
ENDBRANCH   3   4
ENDBRANCH   2   3
ENDBRANCH   1   2
BRANCH   1  11
ATOM     11  C   UNL     1     110.137 119.273 123.095  1.00  0.00     0.000 C 
BRANCH  11  12
ATOM     12  C   UNL     1     108.963 118.423 123.612  1.00  0.00    -0.000 C 
BRANCH  12  13
ATOM     13  C   UNL     1     109.316 116.929 123.715  1.00  0.00    -0.000 C 
BRANCH  13  14
ATOM     14  C   UNL     1     110.032 116.400 122.463  1.00  0.00    -0.000 C 
BRANCH  14  15
ATOM     15  C   UNL     1     111.292 115.613 122.843  1.00  0.00    -0.000 C 
BRANCH  15  16
ATOM     16  C   UNL     1     111.214 115.117 124.295  1.00  0.00    -0.000 C 
BRANCH  16  17
ATOM     17  C   UNL     1     112.469 115.469 125.107  1.00  0.00    -0.003 C 
ATOM     18  C   UNL     1     113.423 116.393 124.351  1.00  0.00     0.004 C 
ENDBRANCH  16  17
ENDBRANCH  15  16
ENDBRANCH  14  15
ENDBRANCH  13  14
ENDBRANCH  12  13
ENDBRANCH  11  12
ENDBRANCH   1  11
TORSDOF 14
ENDMDL
MODEL 6
REMARK VINA RESULT:    -4.092      2.107      4.378
REMARK INTER + INTRA:          -9.518
REMARK INTER:                  -7.323
REMARK INTRA:                  -2.195
REMARK UNBOUND:                -2.076
REMARK SMILES CCCCCCCCCCCCCCCC(=O)[O-]
REMARK SMILES IDX 9 1 10 2 11 3 12 4 13 5 14 6 15 7 16 8 17 9 18 10 8 11 7 12
REMARK SMILES IDX 6 13 5 14 4 15 3 16 2 17 1 18
REMARK H PARENT
REMARK Flexibility Score: inf
ROOT
ATOM      1  C   UNL     1     112.702 116.011 129.207  1.00  0.00     0.000 C 
ENDROOT
BRANCH   1   2
ATOM      2  C   UNL     1     112.805 117.532 128.998  1.00  0.00     0.000 C 
BRANCH   2   3
ATOM      3  C   UNL     1     113.295 117.908 127.588  1.00  0.00     0.000 C 
BRANCH   3   4
ATOM      4  C   UNL     1     112.443 118.965 126.857  1.00  0.00     0.000 C 
BRANCH   4   5
ATOM      5  C   UNL     1     111.626 119.895 127.773  1.00  0.00     0.000 C 
BRANCH   5   6
ATOM      6  C   UNL     1     111.744 121.374 127.380  1.00  0.00     0.006 C 
BRANCH   6   7
ATOM      7  C   UNL     1     111.693 121.543 125.859  1.00  0.00     0.053 C 
BRANCH   7   8
ATOM      8  C   UNL     1     112.191 122.898 125.465  1.00  0.00     0.041 C 
ATOM      9  O   UNL     1     111.377 123.808 125.161  1.00  0.00    -0.550 OA
ATOM     10  O   UNL     1     113.553 123.170 125.481  1.00  0.00    -0.550 OA
ENDBRANCH   7   8
ENDBRANCH   6   7
ENDBRANCH   5   6
ENDBRANCH   4   5
ENDBRANCH   3   4
ENDBRANCH   2   3
ENDBRANCH   1   2
BRANCH   1  11
ATOM     11  C   UNL     1     111.586 115.625 130.191  1.00  0.00     0.000 C 
BRANCH  11  12
ATOM     12  C   UNL     1     110.324 116.489 130.020  1.00  0.00    -0.000 C 
BRANCH  12  13
ATOM     13  C   UNL     1     109.391 115.959 128.918  1.00  0.00    -0.000 C 
BRANCH  13  14
ATOM     14  C   UNL     1     109.385 116.848 127.665  1.00  0.00    -0.000 C 
BRANCH  14  15
ATOM     15  C   UNL     1     109.987 116.108 126.464  1.00  0.00    -0.000 C 
BRANCH  15  16
ATOM     16  C   UNL     1     109.759 116.893 125.164  1.00  0.00    -0.000 C 
BRANCH  16  17
ATOM     17  C   UNL     1     109.099 118.259 125.406  1.00  0.00    -0.003 C 
ATOM     18  C   UNL     1     109.169 119.175 124.185  1.00  0.00     0.004 C 
ENDBRANCH  16  17
ENDBRANCH  15  16
ENDBRANCH  14  15
ENDBRANCH  13  14
ENDBRANCH  12  13
ENDBRANCH  11  12
ENDBRANCH   1  11
TORSDOF 14
ENDMDL
MODEL 7
REMARK VINA RESULT:    -4.087      2.020      3.987
REMARK INTER + INTRA:          -9.509
REMARK INTER:                  -7.918
REMARK INTRA:                  -1.590
REMARK UNBOUND:                -2.076
REMARK SMILES CCCCCCCCCCCCCCCC(=O)[O-]
REMARK SMILES IDX 9 1 10 2 11 3 12 4 13 5 14 6 15 7 16 8 17 9 18 10 8 11 7 12
REMARK SMILES IDX 6 13 5 14 4 15 3 16 2 17 1 18
REMARK H PARENT
REMARK Flexibility Score: inf
ROOT
ATOM      1  C   UNL     1     110.919 116.524 123.034  1.00  0.00     0.000 C 
ENDROOT
BRANCH   1   2
ATOM      2  C   UNL     1     109.414 116.716 122.780  1.00  0.00     0.000 C 
BRANCH   2   3
ATOM      3  C   UNL     1     108.933 118.142 123.099  1.00  0.00     0.000 C 
BRANCH   3   4
ATOM      4  C   UNL     1     110.052 119.164 123.387  1.00  0.00     0.000 C 
BRANCH   4   5
ATOM      5  C   UNL     1     109.876 119.978 124.682  1.00  0.00     0.000 C 
BRANCH   5   6
ATOM      6  C   UNL     1     111.168 120.682 125.123  1.00  0.00     0.006 C 
BRANCH   6   7
ATOM      7  C   UNL     1     112.314 120.384 124.154  1.00  0.00     0.053 C 
BRANCH   7   8
ATOM      8  C   UNL     1     113.113 121.620 123.890  1.00  0.00     0.041 C 
ATOM      9  O   UNL     1     112.868 122.681 124.522  1.00  0.00    -0.550 OA
ATOM     10  O   UNL     1     114.163 121.588 122.981  1.00  0.00    -0.550 OA
ENDBRANCH   7   8
ENDBRANCH   6   7
ENDBRANCH   5   6
ENDBRANCH   4   5
ENDBRANCH   3   4
ENDBRANCH   2   3
ENDBRANCH   1   2
BRANCH   1  11
ATOM     11  C   UNL     1     111.214 115.328 123.955  1.00  0.00     0.000 C 
BRANCH  11  12
ATOM     12  C   UNL     1     110.300 115.299 125.193  1.00  0.00    -0.000 C 
BRANCH  12  13
ATOM     13  C   UNL     1     110.774 116.258 126.299  1.00  0.00    -0.000 C 
BRANCH  13  14
ATOM     14  C   UNL     1     109.610 116.906 127.062  1.00  0.00    -0.000 C 
BRANCH  14  15
ATOM     15  C   UNL     1     109.291 116.126 128.343  1.00  0.00    -0.000 C 
BRANCH  15  16
ATOM     16  C   UNL     1     110.537 115.993 129.231  1.00  0.00    -0.000 C 
BRANCH  16  17
ATOM     17  C   UNL     1     110.610 117.081 130.313  1.00  0.00    -0.003 C 
ATOM     18  C   UNL     1     112.033 117.589 130.545  1.00  0.00     0.004 C 
ENDBRANCH  16  17
ENDBRANCH  15  16
ENDBRANCH  14  15
ENDBRANCH  13  14
ENDBRANCH  12  13
ENDBRANCH  11  12
ENDBRANCH   1  11
TORSDOF 14
ENDMDL
MODEL 8
REMARK VINA RESULT:    -4.074      1.939      2.699
REMARK INTER + INTRA:          -9.485
REMARK INTER:                  -7.227
REMARK INTRA:                  -2.258
REMARK UNBOUND:                -2.076
REMARK SMILES CCCCCCCCCCCCCCCC(=O)[O-]
REMARK SMILES IDX 9 1 10 2 11 3 12 4 13 5 14 6 15 7 16 8 17 9 18 10 8 11 7 12
REMARK SMILES IDX 6 13 5 14 4 15 3 16 2 17 1 18
REMARK H PARENT
REMARK Flexibility Score: inf
ROOT
ATOM      1  C   UNL     1     110.149 116.026 126.634  1.00  0.00     0.000 C 
ENDROOT
BRANCH   1   2
ATOM      2  C   UNL     1     109.754 116.922 125.446  1.00  0.00     0.000 C 
BRANCH   2   3
ATOM      3  C   UNL     1     108.946 118.159 125.876  1.00  0.00     0.000 C 
BRANCH   3   4
ATOM      4  C   UNL     1     109.004 119.352 124.901  1.00  0.00     0.000 C 
BRANCH   4   5
ATOM      5  C   UNL     1     110.298 119.460 124.074  1.00  0.00     0.000 C 
BRANCH   5   6
ATOM      6  C   UNL     1     111.091 120.740 124.371  1.00  0.00     0.006 C 
BRANCH   6   7
ATOM      7  C   UNL     1     112.591 120.518 124.159  1.00  0.00     0.053 C 
BRANCH   7   8
ATOM      8  C   UNL     1     113.367 121.718 124.602  1.00  0.00     0.041 C 
ATOM      9  O   UNL     1     113.561 122.675 123.808  1.00  0.00    -0.550 OA
ATOM     10  O   UNL     1     113.833 121.801 125.908  1.00  0.00    -0.550 OA
ENDBRANCH   7   8
ENDBRANCH   6   7
ENDBRANCH   5   6
ENDBRANCH   4   5
ENDBRANCH   3   4
ENDBRANCH   2   3
ENDBRANCH   1   2
BRANCH   1  11
ATOM     11  C   UNL     1     109.477 116.459 127.947  1.00  0.00     0.000 C 
BRANCH  11  12
ATOM     12  C   UNL     1     110.241 115.968 129.189  1.00  0.00    -0.000 C 
BRANCH  12  13
ATOM     13  C   UNL     1     110.372 117.056 130.270  1.00  0.00    -0.000 C 
BRANCH  13  14
ATOM     14  C   UNL     1     111.827 117.485 130.507  1.00  0.00    -0.000 C 
BRANCH  14  15
ATOM     15  C   UNL     1     112.729 117.030 129.353  1.00  0.00    -0.000 C 
BRANCH  15  16
ATOM     16  C   UNL     1     113.357 118.236 128.638  1.00  0.00    -0.000 C 
BRANCH  16  17
ATOM     17  C   UNL     1     112.521 118.717 127.443  1.00  0.00    -0.003 C 
ATOM     18  C   UNL     1     111.550 119.837 127.814  1.00  0.00     0.004 C 
ENDBRANCH  16  17
ENDBRANCH  15  16
ENDBRANCH  14  15
ENDBRANCH  13  14
ENDBRANCH  12  13
ENDBRANCH  11  12
ENDBRANCH   1  11
TORSDOF 14
ENDMDL
MODEL 9
REMARK VINA RESULT:    -4.028      1.908      2.839
REMARK INTER + INTRA:          -9.401
REMARK INTER:                  -6.812
REMARK INTRA:                  -2.589
REMARK UNBOUND:                -2.076
REMARK SMILES CCCCCCCCCCCCCCCC(=O)[O-]
REMARK SMILES IDX 9 1 10 2 11 3 12 4 13 5 14 6 15 7 16 8 17 9 18 10 8 11 7 12
REMARK SMILES IDX 6 13 5 14 4 15 3 16 2 17 1 18
REMARK H PARENT
REMARK Flexibility Score: inf
ROOT
ATOM      1  C   UNL     1     109.609 116.004 128.747  1.00  0.00     0.000 C 
ENDROOT
BRANCH   1   2
ATOM      2  C   UNL     1     109.408 117.089 127.676  1.00  0.00     0.000 C 
BRANCH   2   3
ATOM      3  C   UNL     1     110.005 118.448 128.085  1.00  0.00     0.000 C 
BRANCH   3   4
ATOM      4  C   UNL     1     110.218 119.446 126.928  1.00  0.00     0.000 C 
BRANCH   4   5
ATOM      5  C   UNL     1     109.883 118.905 125.527  1.00  0.00     0.000 C 
BRANCH   5   6
ATOM      6  C   UNL     1     110.408 119.805 124.399  1.00  0.00     0.006 C 
BRANCH   6   7
ATOM      7  C   UNL     1     111.939 119.809 124.368  1.00  0.00     0.053 C 
BRANCH   7   8
ATOM      8  C   UNL     1     112.460 121.211 124.361  1.00  0.00     0.041 C 
ATOM      9  O   UNL     1     112.031 122.050 125.195  1.00  0.00    -0.550 OA
ATOM     10  O   UNL     1     113.455 121.578 123.464  1.00  0.00    -0.550 OA
ENDBRANCH   7   8
ENDBRANCH   6   7
ENDBRANCH   5   6
ENDBRANCH   4   5
ENDBRANCH   3   4
ENDBRANCH   2   3
ENDBRANCH   1   2
BRANCH   1  11
ATOM     11  C   UNL     1     110.127 116.576 130.077  1.00  0.00     0.000 C 
BRANCH  11  12
ATOM     12  C   UNL     1     111.143 115.646 130.763  1.00  0.00    -0.000 C 
BRANCH  12  13
ATOM     13  C   UNL     1     112.568 115.818 130.210  1.00  0.00    -0.000 C 
BRANCH  13  14
ATOM     14  C   UNL     1     112.978 117.292 130.070  1.00  0.00    -0.000 C 
BRANCH  14  15
ATOM     15  C   UNL     1     113.461 117.594 128.646  1.00  0.00    -0.000 C 
BRANCH  15  16
ATOM     16  C   UNL     1     113.225 116.394 127.718  1.00  0.00    -0.000 C 
BRANCH  16  17
ATOM     17  C   UNL     1     112.959 116.814 126.265  1.00  0.00    -0.003 C 
ATOM     18  C   UNL     1     112.078 115.816 125.513  1.00  0.00     0.004 C 
ENDBRANCH  16  17
ENDBRANCH  15  16
ENDBRANCH  14  15
ENDBRANCH  13  14
ENDBRANCH  12  13
ENDBRANCH  11  12
ENDBRANCH   1  11
TORSDOF 14
ENDMDL
