MODEL 1
REMARK VINA RESULT:    -4.254      0.000      0.000
REMARK INTER + INTRA:         -15.874
REMARK INTER:                 -10.720
REMARK INTRA:                  -5.153
REMARK UNBOUND:                -5.153
REMARK SMILES CCCCCCCCCCCCCCCCCCCCCCCCCCCC(=O)[O-]
REMARK SMILES IDX 15 1 16 2 17 3 18 4 19 5 20 6 21 7 22 8 23 9 24 10 25 11
REMARK SMILES IDX 26 12 27 13 28 14 29 15 30 16 14 17 13 18 12 19 11 20 10 21
REMARK SMILES IDX 9 22 8 23 7 24 6 25 5 26 4 27 3 28 2 29 1 30
REMARK H PARENT
REMARK Flexibility Score: inf
ROOT
ATOM      1  C   UNL     1      34.055  78.336  10.378  1.00  0.00     0.000 C 
ENDROOT
BRANCH   1   2
ATOM      2  C   UNL     1      32.700  78.863  10.876  1.00  0.00     0.000 C 
BRANCH   2   3
ATOM      3  C   UNL     1      31.523  78.398  10.001  1.00  0.00     0.000 C 
BRANCH   3   4
ATOM      4  C   UNL     1      31.981  77.524   8.821  1.00  0.00     0.000 C 
BRANCH   4   5
ATOM      5  C   UNL     1      31.334  76.131   8.831  1.00  0.00     0.000 C 
BRANCH   5   6
ATOM      6  C   UNL     1      30.923  75.730  10.256  1.00  0.00     0.000 C 
BRANCH   6   7
ATOM      7  C   UNL     1      32.086  75.122  11.056  1.00  0.00     0.000 C 
BRANCH   7   8
ATOM      8  C   UNL     1      32.083  75.568  12.526  1.00  0.00     0.000 C 
BRANCH   8   9
ATOM      9  C   UNL     1      30.730  76.179  12.912  1.00  0.00     0.000 C 
BRANCH   9  10
ATOM     10  C   UNL     1      30.915  77.336  13.901  1.00  0.00     0.000 C 
BRANCH  10  11
ATOM     11  C   UNL     1      32.395  77.525  14.262  1.00  0.00     0.000 C 
BRANCH  11  12
ATOM     12  C   UNL     1      32.748  78.985  14.585  1.00  0.00     0.006 C 
BRANCH  12  13
ATOM     13  C   UNL     1      31.617  79.962  14.235  1.00  0.00     0.053 C 
BRANCH  13  14
ATOM     14  C   UNL     1      31.272  80.815  15.414  1.00  0.00     0.041 C 
ATOM     15  O   UNL     1      32.125  81.604  15.899  1.00  0.00    -0.550 OA
ATOM     16  O   UNL     1      30.010  80.724  15.993  1.00  0.00    -0.550 OA
ENDBRANCH  13  14
ENDBRANCH  12  13
ENDBRANCH  11  12
ENDBRANCH  10  11
ENDBRANCH   9  10
ENDBRANCH   8   9
ENDBRANCH   7   8
ENDBRANCH   6   7
ENDBRANCH   5   6
ENDBRANCH   4   5
ENDBRANCH   3   4
ENDBRANCH   2   3
ENDBRANCH   1   2
BRANCH   1  17
ATOM     17  C   UNL     1      34.916  77.748  11.509  1.00  0.00     0.000 C 
BRANCH  17  18
ATOM     18  C   UNL     1      35.890  76.662  11.016  1.00  0.00     0.000 C 
BRANCH  18  19
ATOM     19  C   UNL     1      35.434  75.884   9.764  1.00  0.00     0.000 C 
BRANCH  19  20
ATOM     20  C   UNL     1      36.559  75.447   8.809  1.00  0.00     0.000 C 
BRANCH  20  21
ATOM     21  C   UNL     1      36.048  75.089   7.404  1.00  0.00     0.000 C 
BRANCH  21  22
ATOM     22  C   UNL     1      34.545  75.369   7.225  1.00  0.00    -0.000 C 
BRANCH  22  23
ATOM     23  C   UNL     1      33.923  74.669   5.998  1.00  0.00    -0.000 C 
BRANCH  23  24
ATOM     24  C   UNL     1      32.825  73.669   6.398  1.00  0.00    -0.000 C 
BRANCH  24  25
ATOM     25  C   UNL     1      33.044  73.075   7.798  1.00  0.00    -0.000 C 
BRANCH  25  26
ATOM     26  C   UNL     1      31.782  72.398   8.357  1.00  0.00    -0.000 C 
BRANCH  26  27
ATOM     27  C   UNL     1      32.088  71.667   9.673  1.00  0.00    -0.000 C 
BRANCH  27  28
ATOM     28  C   UNL     1      31.679  70.183   9.644  1.00  0.00    -0.000 C 
BRANCH  28  29
ATOM     29  C   UNL     1      32.143  69.410   8.396  1.00  0.00    -0.003 C 
ATOM     30  C   UNL     1      33.578  68.897   8.511  1.00  0.00     0.004 C 
ENDBRANCH  28  29
ENDBRANCH  27  28
ENDBRANCH  26  27
ENDBRANCH  25  26
ENDBRANCH  24  25
ENDBRANCH  23  24
ENDBRANCH  22  23
ENDBRANCH  21  22
ENDBRANCH  20  21
ENDBRANCH  19  20
ENDBRANCH  18  19
ENDBRANCH  17  18
ENDBRANCH   1  17
TORSDOF 26
ENDMDL
MODEL 2
REMARK VINA RESULT:    -4.179      1.520      3.202
REMARK INTER + INTRA:         -15.685
REMARK INTER:                 -11.211
REMARK INTRA:                  -4.474
REMARK UNBOUND:                -5.153
REMARK SMILES CCCCCCCCCCCCCCCCCCCCCCCCCCCC(=O)[O-]
REMARK SMILES IDX 15 1 16 2 17 3 18 4 19 5 20 6 21 7 22 8 23 9 24 10 25 11
REMARK SMILES IDX 26 12 27 13 28 14 29 15 30 16 14 17 13 18 12 19 11 20 10 21
REMARK SMILES IDX 9 22 8 23 7 24 6 25 5 26 4 27 3 28 2 29 1 30
REMARK H PARENT
REMARK Flexibility Score: inf
ROOT
ATOM      1  C   UNL     1      35.902  76.201  10.608  1.00  0.00     0.000 C 
ENDROOT
BRANCH   1   2
ATOM      2  C   UNL     1      34.423  76.299  11.017  1.00  0.00     0.000 C 
BRANCH   2   3
ATOM      3  C   UNL     1      33.931  75.052  11.772  1.00  0.00     0.000 C 
BRANCH   3   4
ATOM      4  C   UNL     1      32.566  74.561  11.263  1.00  0.00     0.000 C 
BRANCH   4   5
ATOM      5  C   UNL     1      32.638  73.979   9.845  1.00  0.00     0.000 C 
BRANCH   5   6
ATOM      6  C   UNL     1      31.368  74.318   9.049  1.00  0.00     0.000 C 
BRANCH   6   7
ATOM      7  C   UNL     1      30.879  75.752   9.303  1.00  0.00     0.000 C 
BRANCH   7   8
ATOM      8  C   UNL     1      31.533  76.772   8.359  1.00  0.00     0.000 C 
BRANCH   8   9
ATOM      9  C   UNL     1      31.481  78.185   8.953  1.00  0.00     0.000 C 
BRANCH   9  10
ATOM     10  C   UNL     1      31.245  78.134  10.467  1.00  0.00     0.000 C 
BRANCH  10  11
ATOM     11  C   UNL     1      32.341  78.898  11.224  1.00  0.00     0.000 C 
BRANCH  11  12
ATOM     12  C   UNL     1      31.985  79.147  12.698  1.00  0.00     0.006 C 
BRANCH  12  13
ATOM     13  C   UNL     1      32.723  78.202  13.656  1.00  0.00     0.053 C 
BRANCH  13  14
ATOM     14  C   UNL     1      32.715  78.751  15.048  1.00  0.00     0.041 C 
ATOM     15  O   UNL     1      33.725  78.615  15.788  1.00  0.00    -0.550 OA
ATOM     16  O   UNL     1      31.585  79.396  15.537  1.00  0.00    -0.550 OA
ENDBRANCH  13  14
ENDBRANCH  12  13
ENDBRANCH  11  12
ENDBRANCH  10  11
ENDBRANCH   9  10
ENDBRANCH   8   9
ENDBRANCH   7   8
ENDBRANCH   6   7
ENDBRANCH   5   6
ENDBRANCH   4   5
ENDBRANCH   3   4
ENDBRANCH   2   3
ENDBRANCH   1   2
BRANCH   1  17
ATOM     17  C   UNL     1      36.087  75.673   9.176  1.00  0.00     0.000 C 
BRANCH  17  18
ATOM     18  C   UNL     1      35.025  76.209   8.198  1.00  0.00     0.000 C 
BRANCH  18  19
ATOM     19  C   UNL     1      34.783  75.341   6.945  1.00  0.00     0.000 C 
BRANCH  19  20
ATOM     20  C   UNL     1      35.835  74.250   6.683  1.00  0.00     0.000 C 
BRANCH  20  21
ATOM     21  C   UNL     1      35.216  72.915   6.236  1.00  0.00     0.000 C 
BRANCH  21  22
ATOM     22  C   UNL     1      33.770  72.732   6.731  1.00  0.00    -0.000 C 
BRANCH  22  23
ATOM     23  C   UNL     1      33.168  71.350   6.397  1.00  0.00    -0.000 C 
BRANCH  23  24
ATOM     24  C   UNL     1      34.255  70.296   6.124  1.00  0.00    -0.000 C 
BRANCH  24  25
ATOM     25  C   UNL     1      33.967  68.953   6.815  1.00  0.00    -0.000 C 
BRANCH  25  26
ATOM     26  C   UNL     1      33.705  69.108   8.321  1.00  0.00    -0.000 C 
BRANCH  26  27
ATOM     27  C   UNL     1      32.609  68.140   8.791  1.00  0.00    -0.000 C 
BRANCH  27  28
ATOM     28  C   UNL     1      31.383  68.862   9.380  1.00  0.00    -0.000 C 
BRANCH  28  29
ATOM     29  C   UNL     1      31.599  70.355   9.689  1.00  0.00    -0.003 C 
ATOM     30  C   UNL     1      30.394  71.004  10.366  1.00  0.00     0.004 C 
ENDBRANCH  28  29
ENDBRANCH  27  28
ENDBRANCH  26  27
ENDBRANCH  25  26
ENDBRANCH  24  25
ENDBRANCH  23  24
ENDBRANCH  22  23
ENDBRANCH  21  22
ENDBRANCH  20  21
ENDBRANCH  19  20
ENDBRANCH  18  19
ENDBRANCH  17  18
ENDBRANCH   1  17
TORSDOF 26
ENDMDL
MODEL 3
REMARK VINA RESULT:    -4.116      1.505      3.666
REMARK INTER + INTRA:         -15.525
REMARK INTER:                 -10.594
REMARK INTRA:                  -4.931
REMARK UNBOUND:                -5.153
REMARK SMILES CCCCCCCCCCCCCCCCCCCCCCCCCCCC(=O)[O-]
REMARK SMILES IDX 15 1 16 2 17 3 18 4 19 5 20 6 21 7 22 8 23 9 24 10 25 11
REMARK SMILES IDX 26 12 27 13 28 14 29 15 30 16 14 17 13 18 12 19 11 20 10 21
REMARK SMILES IDX 9 22 8 23 7 24 6 25 5 26 4 27 3 28 2 29 1 30
REMARK H PARENT
REMARK Flexibility Score: inf
ROOT
ATOM      1  C   UNL     1      34.456  77.667  11.522  1.00  0.00     0.000 C 
ENDROOT
BRANCH   1   2
ATOM      2  C   UNL     1      33.957  78.505  10.334  1.00  0.00     0.000 C 
BRANCH   2   3
ATOM      3  C   UNL     1      33.597  77.645   9.109  1.00  0.00     0.000 C 
BRANCH   3   4
ATOM      4  C   UNL     1      32.089  77.358   9.019  1.00  0.00     0.000 C 
BRANCH   4   5
ATOM      5  C   UNL     1      31.255  78.298   9.900  1.00  0.00     0.000 C 
BRANCH   5   6
ATOM      6  C   UNL     1      29.964  77.608  10.367  1.00  0.00     0.000 C 
BRANCH   6   7
ATOM      7  C   UNL     1      29.712  77.786  11.872  1.00  0.00     0.000 C 
BRANCH   7   8
ATOM      8  C   UNL     1      30.973  78.224  12.630  1.00  0.00     0.000 C 
BRANCH   8   9
ATOM      9  C   UNL     1      30.974  77.675  14.062  1.00  0.00     0.000 C 
BRANCH   9  10
ATOM     10  C   UNL     1      32.405  77.523  14.590  1.00  0.00     0.000 C 
BRANCH  10  11
ATOM     11  C   UNL     1      32.960  78.868  15.079  1.00  0.00     0.000 C 
BRANCH  11  12
ATOM     12  C   UNL     1      31.982  79.617  15.998  1.00  0.00     0.006 C 
BRANCH  12  13
ATOM     13  C   UNL     1      31.761  81.075  15.570  1.00  0.00     0.053 C 
BRANCH  13  14
ATOM     14  C   UNL     1      32.273  82.015  16.616  1.00  0.00     0.041 C 
ATOM     15  O   UNL     1      32.126  81.746  17.837  1.00  0.00    -0.550 OA
ATOM     16  O   UNL     1      32.897  83.200  16.242  1.00  0.00    -0.550 OA
ENDBRANCH  13  14
ENDBRANCH  12  13
ENDBRANCH  11  12
ENDBRANCH  10  11
ENDBRANCH   9  10
ENDBRANCH   8   9
ENDBRANCH   7   8
ENDBRANCH   6   7
ENDBRANCH   5   6
ENDBRANCH   4   5
ENDBRANCH   3   4
ENDBRANCH   2   3
ENDBRANCH   1   2
BRANCH   1  17
ATOM     17  C   UNL     1      35.202  76.397  11.079  1.00  0.00     0.000 C 
BRANCH  17  18
ATOM     18  C   UNL     1      34.388  75.111  11.317  1.00  0.00     0.000 C 
BRANCH  18  19
ATOM     19  C   UNL     1      33.053  75.304  12.068  1.00  0.00     0.000 C 
BRANCH  19  20
ATOM     20  C   UNL     1      32.244  74.020  12.319  1.00  0.00     0.000 C 
BRANCH  20  21
ATOM     21  C   UNL     1      30.804  74.105  11.789  1.00  0.00     0.000 C 
BRANCH  21  22
ATOM     22  C   UNL     1      30.694  73.750  10.296  1.00  0.00    -0.000 C 
BRANCH  22  23
ATOM     23  C   UNL     1      31.220  72.340   9.951  1.00  0.00    -0.000 C 
BRANCH  23  24
ATOM     24  C   UNL     1      32.229  72.367   8.790  1.00  0.00    -0.000 C 
BRANCH  24  25
ATOM     25  C   UNL     1      32.785  73.774   8.520  1.00  0.00    -0.000 C 
BRANCH  25  26
ATOM     26  C   UNL     1      32.668  74.182   7.043  1.00  0.00    -0.000 C 
BRANCH  26  27
ATOM     27  C   UNL     1      33.940  74.900   6.568  1.00  0.00    -0.000 C 
BRANCH  27  28
ATOM     28  C   UNL     1      35.072  73.927   6.190  1.00  0.00    -0.000 C 
BRANCH  28  29
ATOM     29  C   UNL     1      36.469  74.334   6.692  1.00  0.00    -0.003 C 
ATOM     30  C   UNL     1      36.420  75.247   7.916  1.00  0.00     0.004 C 
ENDBRANCH  28  29
ENDBRANCH  27  28
ENDBRANCH  26  27
ENDBRANCH  25  26
ENDBRANCH  24  25
ENDBRANCH  23  24
ENDBRANCH  22  23
ENDBRANCH  21  22
ENDBRANCH  20  21
ENDBRANCH  19  20
ENDBRANCH  18  19
ENDBRANCH  17  18
ENDBRANCH   1  17
TORSDOF 26
ENDMDL
MODEL 4
REMARK VINA RESULT:    -4.103      1.164      2.228
REMARK INTER + INTRA:         -15.493
REMARK INTER:                 -10.213
REMARK INTRA:                  -5.280
REMARK UNBOUND:                -5.153
REMARK SMILES CCCCCCCCCCCCCCCCCCCCCCCCCCCC(=O)[O-]
REMARK SMILES IDX 15 1 16 2 17 3 18 4 19 5 20 6 21 7 22 8 23 9 24 10 25 11
REMARK SMILES IDX 26 12 27 13 28 14 29 15 30 16 14 17 13 18 12 19 11 20 10 21
REMARK SMILES IDX 9 22 8 23 7 24 6 25 5 26 4 27 3 28 2 29 1 30
REMARK H PARENT
REMARK Flexibility Score: inf
ROOT
ATOM      1  C   UNL     1      31.899  78.112   8.637  1.00  0.00     0.000 C 
ENDROOT
BRANCH   1   2
ATOM      2  C   UNL     1      30.380  77.877   8.639  1.00  0.00     0.000 C 
BRANCH   2   3
ATOM      3  C   UNL     1      29.838  77.503  10.030  1.00  0.00     0.000 C 
BRANCH   3   4
ATOM      4  C   UNL     1      29.269  76.074  10.071  1.00  0.00     0.000 C 
BRANCH   4   5
ATOM      5  C   UNL     1      30.135  75.071   9.296  1.00  0.00     0.000 C 
BRANCH   5   6
ATOM      6  C   UNL     1      30.840  74.101  10.257  1.00  0.00     0.000 C 
BRANCH   6   7
ATOM      7  C   UNL     1      32.289  74.518  10.557  1.00  0.00     0.000 C 
BRANCH   7   8
ATOM      8  C   UNL     1      32.578  74.588  12.064  1.00  0.00     0.000 C 
BRANCH   8   9
ATOM      9  C   UNL     1      31.537  75.453  12.785  1.00  0.00     0.000 C 
BRANCH   9  10
ATOM     10  C   UNL     1      32.182  76.719  13.362  1.00  0.00     0.000 C 
BRANCH  10  11
ATOM     11  C   UNL     1      31.141  77.831  13.555  1.00  0.00     0.000 C 
BRANCH  11  12
ATOM     12  C   UNL     1      31.742  79.239  13.419  1.00  0.00     0.006 C 
BRANCH  12  13
ATOM     13  C   UNL     1      31.254  80.202  14.510  1.00  0.00     0.053 C 
BRANCH  13  14
ATOM     14  C   UNL     1      31.945  79.924  15.807  1.00  0.00     0.041 C 
ATOM     15  O   UNL     1      33.135  79.513  15.816  1.00  0.00    -0.550 OA
ATOM     16  O   UNL     1      31.269  80.102  17.009  1.00  0.00    -0.550 OA
ENDBRANCH  13  14
ENDBRANCH  12  13
ENDBRANCH  11  12
ENDBRANCH  10  11
ENDBRANCH   9  10
ENDBRANCH   8   9
ENDBRANCH   7   8
ENDBRANCH   6   7
ENDBRANCH   5   6
ENDBRANCH   4   5
ENDBRANCH   3   4
ENDBRANCH   2   3
ENDBRANCH   1   2
BRANCH   1  17
ATOM     17  C   UNL     1      32.502  78.104  10.052  1.00  0.00     0.000 C 
BRANCH  17  18
ATOM     18  C   UNL     1      34.026  78.331  10.054  1.00  0.00     0.000 C 
BRANCH  18  19
ATOM     19  C   UNL     1      34.786  77.704  11.242  1.00  0.00     0.000 C 
BRANCH  19  20
ATOM     20  C   UNL     1      36.018  76.862  10.868  1.00  0.00     0.000 C 
BRANCH  20  21
ATOM     21  C   UNL     1      35.664  75.617  10.039  1.00  0.00     0.000 C 
BRANCH  21  22
ATOM     22  C   UNL     1      36.552  75.458   8.792  1.00  0.00    -0.000 C 
BRANCH  22  23
ATOM     23  C   UNL     1      35.768  75.096   7.511  1.00  0.00    -0.000 C 
BRANCH  23  24
ATOM     24  C   UNL     1      34.399  75.797   7.454  1.00  0.00    -0.000 C 
BRANCH  24  25
ATOM     25  C   UNL     1      33.284  74.878   6.930  1.00  0.00    -0.000 C 
BRANCH  25  26
ATOM     26  C   UNL     1      33.764  73.436   6.703  1.00  0.00    -0.000 C 
BRANCH  26  27
ATOM     27  C   UNL     1      32.930  72.443   7.526  1.00  0.00    -0.000 C 
BRANCH  27  28
ATOM     28  C   UNL     1      33.426  70.991   7.397  1.00  0.00    -0.000 C 
BRANCH  28  29
ATOM     29  C   UNL     1      32.860  70.019   8.448  1.00  0.00    -0.003 C 
ATOM     30  C   UNL     1      32.106  70.728   9.572  1.00  0.00     0.004 C 
ENDBRANCH  28  29
ENDBRANCH  27  28
ENDBRANCH  26  27
ENDBRANCH  25  26
ENDBRANCH  24  25
ENDBRANCH  23  24
ENDBRANCH  22  23
ENDBRANCH  21  22
ENDBRANCH  20  21
ENDBRANCH  19  20
ENDBRANCH  18  19
ENDBRANCH  17  18
ENDBRANCH   1  17
TORSDOF 26
ENDMDL
MODEL 5
REMARK VINA RESULT:    -4.079      1.864      2.422
REMARK INTER + INTRA:         -15.431
REMARK INTER:                 -10.277
REMARK INTRA:                  -5.155
REMARK UNBOUND:                -5.153
REMARK SMILES CCCCCCCCCCCCCCCCCCCCCCCCCCCC(=O)[O-]
REMARK SMILES IDX 15 1 16 2 17 3 18 4 19 5 20 6 21 7 22 8 23 9 24 10 25 11
REMARK SMILES IDX 26 12 27 13 28 14 29 15 30 16 14 17 13 18 12 19 11 20 10 21
REMARK SMILES IDX 9 22 8 23 7 24 6 25 5 26 4 27 3 28 2 29 1 30
REMARK H PARENT
REMARK Flexibility Score: inf
ROOT
ATOM      1  C   UNL     1      33.316  78.502  11.878  1.00  0.00     0.000 C 
ENDROOT
BRANCH   1   2
ATOM      2  C   UNL     1      32.327  78.824  10.746  1.00  0.00     0.000 C 
BRANCH   2   3
ATOM      3  C   UNL     1      32.480  77.884   9.537  1.00  0.00     0.000 C 
BRANCH   3   4
ATOM      4  C   UNL     1      31.171  77.733   8.745  1.00  0.00     0.000 C 
BRANCH   4   5
ATOM      5  C   UNL     1      29.925  77.924   9.621  1.00  0.00     0.000 C 
BRANCH   5   6
ATOM      6  C   UNL     1      29.440  76.579  10.184  1.00  0.00     0.000 C 
BRANCH   6   7
ATOM      7  C   UNL     1      29.454  76.544  11.720  1.00  0.00     0.000 C 
BRANCH   7   8
ATOM      8  C   UNL     1      29.175  77.921  12.341  1.00  0.00     0.000 C 
BRANCH   8   9
ATOM      9  C   UNL     1      29.802  78.034  13.735  1.00  0.00     0.000 C 
BRANCH   9  10
ATOM     10  C   UNL     1      30.912  76.992  13.922  1.00  0.00     0.000 C 
BRANCH  10  11
ATOM     11  C   UNL     1      31.879  77.409  15.039  1.00  0.00     0.000 C 
BRANCH  11  12
ATOM     12  C   UNL     1      31.520  78.768  15.662  1.00  0.00     0.006 C 
BRANCH  12  13
ATOM     13  C   UNL     1      32.692  79.759  15.643  1.00  0.00     0.053 C 
BRANCH  13  14
ATOM     14  C   UNL     1      32.198  81.162  15.802  1.00  0.00     0.041 C 
ATOM     15  O   UNL     1      31.340  81.627  15.006  1.00  0.00    -0.550 OA
ATOM     16  O   UNL     1      32.701  81.967  16.819  1.00  0.00    -0.550 OA
ENDBRANCH  13  14
ENDBRANCH  12  13
ENDBRANCH  11  12
ENDBRANCH  10  11
ENDBRANCH   9  10
ENDBRANCH   8   9
ENDBRANCH   7   8
ENDBRANCH   6   7
ENDBRANCH   5   6
ENDBRANCH   4   5
ENDBRANCH   3   4
ENDBRANCH   2   3
ENDBRANCH   1   2
BRANCH   1  17
ATOM     17  C   UNL     1      34.194  77.278  11.568  1.00  0.00     0.000 C 
BRANCH  17  18
ATOM     18  C   UNL     1      35.689  77.629  11.451  1.00  0.00     0.000 C 
BRANCH  18  19
ATOM     19  C   UNL     1      36.542  76.624  10.647  1.00  0.00     0.000 C 
BRANCH  19  20
ATOM     20  C   UNL     1      35.769  75.765   9.631  1.00  0.00     0.000 C 
BRANCH  20  21
ATOM     21  C   UNL     1      36.667  75.202   8.517  1.00  0.00     0.000 C 
BRANCH  21  22
ATOM     22  C   UNL     1      35.927  75.036   7.179  1.00  0.00    -0.000 C 
BRANCH  22  23
ATOM     23  C   UNL     1      34.542  75.717   7.144  1.00  0.00    -0.000 C 
BRANCH  23  24
ATOM     24  C   UNL     1      33.619  75.098   6.080  1.00  0.00    -0.000 C 
BRANCH  24  25
ATOM     25  C   UNL     1      32.154  75.017   6.538  1.00  0.00    -0.000 C 
BRANCH  25  26
ATOM     26  C   UNL     1      31.846  73.720   7.303  1.00  0.00    -0.000 C 
BRANCH  26  27
ATOM     27  C   UNL     1      31.464  74.020   8.761  1.00  0.00    -0.000 C 
BRANCH  27  28
ATOM     28  C   UNL     1      32.649  73.877   9.733  1.00  0.00    -0.000 C 
BRANCH  28  29
ATOM     29  C   UNL     1      32.313  74.161  11.208  1.00  0.00    -0.003 C 
ATOM     30  C   UNL     1      33.508  73.967  12.140  1.00  0.00     0.004 C 
ENDBRANCH  28  29
ENDBRANCH  27  28
ENDBRANCH  26  27
ENDBRANCH  25  26
ENDBRANCH  24  25
ENDBRANCH  23  24
ENDBRANCH  22  23
ENDBRANCH  21  22
ENDBRANCH  20  21
ENDBRANCH  19  20
ENDBRANCH  18  19
ENDBRANCH  17  18
ENDBRANCH   1  17
TORSDOF 26
ENDMDL
MODEL 6
REMARK VINA RESULT:    -4.035      1.271      2.667
REMARK INTER + INTRA:         -15.321
REMARK INTER:                 -10.487
REMARK INTRA:                  -4.834
REMARK UNBOUND:                -5.153
REMARK SMILES CCCCCCCCCCCCCCCCCCCCCCCCCCCC(=O)[O-]
REMARK SMILES IDX 15 1 16 2 17 3 18 4 19 5 20 6 21 7 22 8 23 9 24 10 25 11
REMARK SMILES IDX 26 12 27 13 28 14 29 15 30 16 14 17 13 18 12 19 11 20 10 21
REMARK SMILES IDX 9 22 8 23 7 24 6 25 5 26 4 27 3 28 2 29 1 30
REMARK H PARENT
REMARK Flexibility Score: inf
ROOT
ATOM      1  C   UNL     1      30.990  74.342  11.525  1.00  0.00     0.000 C 
ENDROOT
BRANCH   1   2
ATOM      2  C   UNL     1      30.393  75.612  10.898  1.00  0.00     0.000 C 
BRANCH   2   3
ATOM      3  C   UNL     1      30.355  75.554   9.360  1.00  0.00     0.000 C 
BRANCH   3   4
ATOM      4  C   UNL     1      31.356  76.528   8.714  1.00  0.00     0.000 C 
BRANCH   4   5
ATOM      5  C   UNL     1      31.376  77.899   9.404  1.00  0.00     0.000 C 
BRANCH   5   6
ATOM      6  C   UNL     1      32.774  78.213   9.956  1.00  0.00     0.000 C 
BRANCH   6   7
ATOM      7  C   UNL     1      32.725  78.942  11.308  1.00  0.00     0.000 C 
BRANCH   7   8
ATOM      8  C   UNL     1      33.460  78.174  12.416  1.00  0.00     0.000 C 
BRANCH   8   9
ATOM      9  C   UNL     1      32.571  78.008  13.654  1.00  0.00     0.000 C 
BRANCH   9  10
ATOM     10  C   UNL     1      31.292  78.844  13.526  1.00  0.00     0.000 C 
BRANCH  10  11
ATOM     11  C   UNL     1      31.275  79.989  14.549  1.00  0.00     0.000 C 
BRANCH  11  12
ATOM     12  C   UNL     1      32.319  79.808  15.663  1.00  0.00     0.006 C 
BRANCH  12  13
ATOM     13  C   UNL     1      31.727  79.994  17.068  1.00  0.00     0.053 C 
BRANCH  13  14
ATOM     14  C   UNL     1      32.085  81.339  17.617  1.00  0.00     0.041 C 
ATOM     15  O   UNL     1      32.705  82.171  16.902  1.00  0.00    -0.550 OA
ATOM     16  O   UNL     1      31.750  81.669  18.925  1.00  0.00    -0.550 OA
ENDBRANCH  13  14
ENDBRANCH  12  13
ENDBRANCH  11  12
ENDBRANCH  10  11
ENDBRANCH   9  10
ENDBRANCH   8   9
ENDBRANCH   7   8
ENDBRANCH   6   7
ENDBRANCH   5   6
ENDBRANCH   4   5
ENDBRANCH   3   4
ENDBRANCH   2   3
ENDBRANCH   1   2
BRANCH   1  17
ATOM     17  C   UNL     1      32.140  74.645  12.500  1.00  0.00     0.000 C 
BRANCH  17  18
ATOM     18  C   UNL     1      33.507  74.160  11.982  1.00  0.00     0.000 C 
BRANCH  18  19
ATOM     19  C   UNL     1      33.938  74.735  10.616  1.00  0.00     0.000 C 
BRANCH  19  20
ATOM     20  C   UNL     1      35.179  75.645  10.644  1.00  0.00     0.000 C 
BRANCH  20  21
ATOM     21  C   UNL     1      35.955  75.641   9.317  1.00  0.00     0.000 C 
BRANCH  21  22
ATOM     22  C   UNL     1      35.073  75.996   8.107  1.00  0.00    -0.000 C 
BRANCH  22  23
ATOM     23  C   UNL     1      34.945  74.856   7.074  1.00  0.00    -0.000 C 
BRANCH  23  24
ATOM     24  C   UNL     1      33.693  75.012   6.193  1.00  0.00    -0.000 C 
BRANCH  24  25
ATOM     25  C   UNL     1      32.688  73.865   6.382  1.00  0.00    -0.000 C 
BRANCH  25  26
ATOM     26  C   UNL     1      33.141  72.851   7.444  1.00  0.00    -0.000 C 
BRANCH  26  27
ATOM     27  C   UNL     1      31.988  72.500   8.397  1.00  0.00    -0.000 C 
BRANCH  27  28
ATOM     28  C   UNL     1      32.412  71.541   9.524  1.00  0.00    -0.000 C 
BRANCH  28  29
ATOM     29  C   UNL     1      31.898  70.098   9.372  1.00  0.00    -0.003 C 
ATOM     30  C   UNL     1      30.536  69.877  10.028  1.00  0.00     0.004 C 
ENDBRANCH  28  29
ENDBRANCH  27  28
ENDBRANCH  26  27
ENDBRANCH  25  26
ENDBRANCH  24  25
ENDBRANCH  23  24
ENDBRANCH  22  23
ENDBRANCH  21  22
ENDBRANCH  20  21
ENDBRANCH  19  20
ENDBRANCH  18  19
ENDBRANCH  17  18
ENDBRANCH   1  17
TORSDOF 26
ENDMDL
MODEL 7
REMARK VINA RESULT:    -3.984      1.303      1.943
REMARK INTER + INTRA:         -15.194
REMARK INTER:                  -9.977
REMARK INTRA:                  -5.217
REMARK UNBOUND:                -5.153
REMARK SMILES CCCCCCCCCCCCCCCCCCCCCCCCCCCC(=O)[O-]
REMARK SMILES IDX 15 1 16 2 17 3 18 4 19 5 20 6 21 7 22 8 23 9 24 10 25 11
REMARK SMILES IDX 26 12 27 13 28 14 29 15 30 16 14 17 13 18 12 19 11 20 10 21
REMARK SMILES IDX 9 22 8 23 7 24 6 25 5 26 4 27 3 28 2 29 1 30
REMARK H PARENT
REMARK Flexibility Score: inf
ROOT
ATOM      1  C   UNL     1      34.250  78.080  10.266  1.00  0.00     0.000 C 
ENDROOT
BRANCH   1   2
ATOM      2  C   UNL     1      32.802  78.257  10.751  1.00  0.00     0.000 C 
BRANCH   2   3
ATOM      3  C   UNL     1      31.766  77.840   9.692  1.00  0.00     0.000 C 
BRANCH   3   4
ATOM      4  C   UNL     1      32.418  77.198   8.456  1.00  0.00     0.000 C 
BRANCH   4   5
ATOM      5  C   UNL     1      31.794  75.842   8.097  1.00  0.00     0.000 C 
BRANCH   5   6
ATOM      6  C   UNL     1      31.403  75.067   9.364  1.00  0.00     0.000 C 
BRANCH   6   7
ATOM      7  C   UNL     1      32.603  74.369  10.023  1.00  0.00     0.000 C 
BRANCH   7   8
ATOM      8  C   UNL     1      32.616  74.540  11.549  1.00  0.00     0.000 C 
BRANCH   8   9
ATOM      9  C   UNL     1      31.404  73.855  12.190  1.00  0.00     0.000 C 
BRANCH   9  10
ATOM     10  C   UNL     1      30.765  74.755  13.254  1.00  0.00     0.000 C 
BRANCH  10  11
ATOM     11  C   UNL     1      30.696  76.213  12.776  1.00  0.00     0.000 C 
BRANCH  11  12
ATOM     12  C   UNL     1      30.573  77.215  13.936  1.00  0.00     0.006 C 
BRANCH  12  13
ATOM     13  C   UNL     1      31.883  77.384  14.718  1.00  0.00     0.053 C 
BRANCH  13  14
ATOM     14  C   UNL     1      32.510  78.708  14.417  1.00  0.00     0.041 C 
ATOM     15  O   UNL     1      33.720  78.916  14.698  1.00  0.00    -0.550 OA
ATOM     16  O   UNL     1      31.752  79.723  13.842  1.00  0.00    -0.550 OA
ENDBRANCH  13  14
ENDBRANCH  12  13
ENDBRANCH  11  12
ENDBRANCH  10  11
ENDBRANCH   9  10
ENDBRANCH   8   9
ENDBRANCH   7   8
ENDBRANCH   6   7
ENDBRANCH   5   6
ENDBRANCH   4   5
ENDBRANCH   3   4
ENDBRANCH   2   3
ENDBRANCH   1   2
BRANCH   1  17
ATOM     17  C   UNL     1      35.152  77.418  11.320  1.00  0.00     0.000 C 
BRANCH  17  18
ATOM     18  C   UNL     1      36.027  76.293  10.737  1.00  0.00     0.000 C 
BRANCH  18  19
ATOM     19  C   UNL     1      35.758  75.945   9.258  1.00  0.00     0.000 C 
BRANCH  19  20
ATOM     20  C   UNL     1      36.909  75.235   8.525  1.00  0.00     0.000 C 
BRANCH  20  21
ATOM     21  C   UNL     1      36.535  74.805   7.096  1.00  0.00     0.000 C 
BRANCH  21  22
ATOM     22  C   UNL     1      35.128  75.268   6.682  1.00  0.00    -0.000 C 
BRANCH  22  23
ATOM     23  C   UNL     1      34.271  74.157   6.038  1.00  0.00    -0.000 C 
BRANCH  23  24
ATOM     24  C   UNL     1      34.906  72.766   6.207  1.00  0.00    -0.000 C 
BRANCH  24  25
ATOM     25  C   UNL     1      33.886  71.693   6.620  1.00  0.00    -0.000 C 
BRANCH  25  26
ATOM     26  C   UNL     1      32.433  72.157   6.432  1.00  0.00    -0.000 C 
BRANCH  26  27
ATOM     27  C   UNL     1      31.466  71.278   7.240  1.00  0.00    -0.000 C 
BRANCH  27  28
ATOM     28  C   UNL     1      32.190  70.244   8.122  1.00  0.00    -0.000 C 
BRANCH  28  29
ATOM     29  C   UNL     1      31.995  70.437   9.637  1.00  0.00    -0.003 C 
ATOM     30  C   UNL     1      30.638  71.043   9.990  1.00  0.00     0.004 C 
ENDBRANCH  28  29
ENDBRANCH  27  28
ENDBRANCH  26  27
ENDBRANCH  25  26
ENDBRANCH  24  25
ENDBRANCH  23  24
ENDBRANCH  22  23
ENDBRANCH  21  22
ENDBRANCH  20  21
ENDBRANCH  19  20
ENDBRANCH  18  19
ENDBRANCH  17  18
ENDBRANCH   1  17
TORSDOF 26
ENDMDL
MODEL 8
REMARK VINA RESULT:    -3.973      1.517      3.685
REMARK INTER + INTRA:         -15.165
REMARK INTER:                  -9.523
REMARK INTRA:                  -5.642
REMARK UNBOUND:                -5.153
REMARK SMILES CCCCCCCCCCCCCCCCCCCCCCCCCCCC(=O)[O-]
REMARK SMILES IDX 15 1 16 2 17 3 18 4 19 5 20 6 21 7 22 8 23 9 24 10 25 11
REMARK SMILES IDX 26 12 27 13 28 14 29 15 30 16 14 17 13 18 12 19 11 20 10 21
REMARK SMILES IDX 9 22 8 23 7 24 6 25 5 26 4 27 3 28 2 29 1 30
REMARK H PARENT
REMARK Flexibility Score: inf
ROOT
ATOM      1  C   UNL     1      32.855  75.063  12.398  1.00  0.00     0.000 C 
ENDROOT
BRANCH   1   2
ATOM      2  C   UNL     1      34.003  74.474  11.562  1.00  0.00     0.000 C 
BRANCH   2   3
ATOM      3  C   UNL     1      34.839  75.556  10.855  1.00  0.00     0.000 C 
BRANCH   3   4
ATOM      4  C   UNL     1      34.325  75.858   9.437  1.00  0.00     0.000 C 
BRANCH   4   5
ATOM      5  C   UNL     1      34.053  77.352   9.213  1.00  0.00     0.000 C 
BRANCH   5   6
ATOM      6  C   UNL     1      34.293  78.151  10.503  1.00  0.00     0.000 C 
BRANCH   6   7
ATOM      7  C   UNL     1      33.003  78.772  11.061  1.00  0.00     0.000 C 
BRANCH   7   8
ATOM      8  C   UNL     1      32.849  78.545  12.572  1.00  0.00     0.000 C 
BRANCH   8   9
ATOM      9  C   UNL     1      31.373  78.582  12.987  1.00  0.00     0.000 C 
BRANCH   9  10
ATOM     10  C   UNL     1      31.180  77.970  14.380  1.00  0.00     0.000 C 
BRANCH  10  11
ATOM     11  C   UNL     1      32.528  77.769  15.087  1.00  0.00     0.000 C 
BRANCH  11  12
ATOM     12  C   UNL     1      32.766  78.787  16.215  1.00  0.00     0.006 C 
BRANCH  12  13
ATOM     13  C   UNL     1      31.584  79.746  16.410  1.00  0.00     0.053 C 
BRANCH  13  14
ATOM     14  C   UNL     1      31.974  81.144  16.049  1.00  0.00     0.041 C 
ATOM     15  O   UNL     1      31.627  81.634  14.942  1.00  0.00    -0.550 OA
ATOM     16  O   UNL     1      32.738  81.904  16.929  1.00  0.00    -0.550 OA
ENDBRANCH  13  14
ENDBRANCH  12  13
ENDBRANCH  11  12
ENDBRANCH  10  11
ENDBRANCH   9  10
ENDBRANCH   8   9
ENDBRANCH   7   8
ENDBRANCH   6   7
ENDBRANCH   5   6
ENDBRANCH   4   5
ENDBRANCH   3   4
ENDBRANCH   2   3
ENDBRANCH   1   2
BRANCH   1  17
ATOM     17  C   UNL     1      31.559  74.242  12.288  1.00  0.00     0.000 C 
BRANCH  17  18
ATOM     18  C   UNL     1      30.384  75.054  11.710  1.00  0.00     0.000 C 
BRANCH  18  19
ATOM     19  C   UNL     1      30.731  75.948  10.501  1.00  0.00     0.000 C 
BRANCH  19  20
ATOM     20  C   UNL     1      29.617  76.908  10.047  1.00  0.00     0.000 C 
BRANCH  20  21
ATOM     21  C   UNL     1      30.133  78.041   9.146  1.00  0.00     0.000 C 
BRANCH  21  22
ATOM     22  C   UNL     1      30.626  77.539   7.777  1.00  0.00    -0.000 C 
BRANCH  22  23
ATOM     23  C   UNL     1      29.575  76.720   6.998  1.00  0.00    -0.000 C 
BRANCH  23  24
ATOM     24  C   UNL     1      30.077  75.304   6.664  1.00  0.00    -0.000 C 
BRANCH  24  25
ATOM     25  C   UNL     1      31.577  75.124   6.945  1.00  0.00    -0.000 C 
BRANCH  25  26
ATOM     26  C   UNL     1      31.990  73.646   7.024  1.00  0.00    -0.000 C 
BRANCH  26  27
ATOM     27  C   UNL     1      32.192  73.210   8.483  1.00  0.00    -0.000 C 
BRANCH  27  28
ATOM     28  C   UNL     1      30.969  72.477   9.065  1.00  0.00    -0.000 C 
BRANCH  28  29
ATOM     29  C   UNL     1      31.302  71.222   9.893  1.00  0.00    -0.003 C 
ATOM     30  C   UNL     1      32.423  70.384   9.281  1.00  0.00     0.004 C 
ENDBRANCH  28  29
ENDBRANCH  27  28
ENDBRANCH  26  27
ENDBRANCH  25  26
ENDBRANCH  24  25
ENDBRANCH  23  24
ENDBRANCH  22  23
ENDBRANCH  21  22
ENDBRANCH  20  21
ENDBRANCH  19  20
ENDBRANCH  18  19
ENDBRANCH  17  18
ENDBRANCH   1  17
TORSDOF 26
ENDMDL
MODEL 9
REMARK VINA RESULT:    -3.963      2.139      3.547
REMARK INTER + INTRA:         -15.141
REMARK INTER:                 -10.359
REMARK INTRA:                  -4.781
REMARK UNBOUND:                -5.153
REMARK SMILES CCCCCCCCCCCCCCCCCCCCCCCCCCCC(=O)[O-]
REMARK SMILES IDX 15 1 16 2 17 3 18 4 19 5 20 6 21 7 22 8 23 9 24 10 25 11
REMARK SMILES IDX 26 12 27 13 28 14 29 15 30 16 14 17 13 18 12 19 11 20 10 21
REMARK SMILES IDX 9 22 8 23 7 24 6 25 5 26 4 27 3 28 2 29 1 30
REMARK H PARENT
REMARK Flexibility Score: inf
ROOT
ATOM      1  C   UNL     1      31.635  78.012   8.586  1.00  0.00     0.000 C 
ENDROOT
BRANCH   1   2
ATOM      2  C   UNL     1      30.115  77.801   8.506  1.00  0.00     0.000 C 
BRANCH   2   3
ATOM      3  C   UNL     1      29.396  78.141   9.824  1.00  0.00     0.000 C 
BRANCH   3   4
ATOM      4  C   UNL     1      28.453  77.015  10.283  1.00  0.00     0.000 C 
BRANCH   4   5
ATOM      5  C   UNL     1      28.367  76.904  11.811  1.00  0.00     0.000 C 
BRANCH   5   6
ATOM      6  C   UNL     1      29.185  78.015  12.488  1.00  0.00     0.000 C 
BRANCH   6   7
ATOM      7  C   UNL     1      30.241  77.462  13.458  1.00  0.00     0.000 C 
BRANCH   7   8
ATOM      8  C   UNL     1      31.438  78.410  13.624  1.00  0.00     0.000 C 
BRANCH   8   9
ATOM      9  C   UNL     1      32.525  77.776  14.500  1.00  0.00     0.000 C 
BRANCH   9  10
ATOM     10  C   UNL     1      33.368  78.853  15.192  1.00  0.00     0.000 C 
BRANCH  10  11
ATOM     11  C   UNL     1      32.506  80.061  15.587  1.00  0.00     0.000 C 
BRANCH  11  12
ATOM     12  C   UNL     1      32.239  80.132  17.099  1.00  0.00     0.006 C 
BRANCH  12  13
ATOM     13  C   UNL     1      31.577  81.450  17.525  1.00  0.00     0.053 C 
BRANCH  13  14
ATOM     14  C   UNL     1      31.459  81.524  19.014  1.00  0.00     0.041 C 
ATOM     15  O   UNL     1      30.820  82.466  19.554  1.00  0.00    -0.550 OA
ATOM     16  O   UNL     1      32.070  80.562  19.811  1.00  0.00    -0.550 OA
ENDBRANCH  13  14
ENDBRANCH  12  13
ENDBRANCH  11  12
ENDBRANCH  10  11
ENDBRANCH   9  10
ENDBRANCH   8   9
ENDBRANCH   7   8
ENDBRANCH   6   7
ENDBRANCH   5   6
ENDBRANCH   4   5
ENDBRANCH   3   4
ENDBRANCH   2   3
ENDBRANCH   1   2
BRANCH   1  17
ATOM     17  C   UNL     1      32.141  78.138  10.033  1.00  0.00     0.000 C 
BRANCH  17  18
ATOM     18  C   UNL     1      33.662  78.363  10.117  1.00  0.00     0.000 C 
BRANCH  18  19
ATOM     19  C   UNL     1      34.360  77.708  11.328  1.00  0.00     0.000 C 
BRANCH  19  20
ATOM     20  C   UNL     1      35.806  77.241  11.085  1.00  0.00     0.000 C 
BRANCH  20  21
ATOM     21  C   UNL     1      35.886  75.836  10.465  1.00  0.00     0.000 C 
BRANCH  21  22
ATOM     22  C   UNL     1      36.661  75.812   9.136  1.00  0.00    -0.000 C 
BRANCH  22  23
ATOM     23  C   UNL     1      35.857  75.223   7.957  1.00  0.00    -0.000 C 
BRANCH  23  24
ATOM     24  C   UNL     1      34.353  75.527   8.074  1.00  0.00    -0.000 C 
BRANCH  24  25
ATOM     25  C   UNL     1      33.498  74.257   8.197  1.00  0.00    -0.000 C 
BRANCH  25  26
ATOM     26  C   UNL     1      32.030  74.563   8.535  1.00  0.00    -0.000 C 
BRANCH  26  27
ATOM     27  C   UNL     1      31.605  73.856   9.831  1.00  0.00    -0.000 C 
BRANCH  27  28
ATOM     28  C   UNL     1      31.332  74.835  10.987  1.00  0.00    -0.000 C 
BRANCH  28  29
ATOM     29  C   UNL     1      32.135  74.558  12.271  1.00  0.00    -0.003 C 
ATOM     30  C   UNL     1      33.517  73.969  11.995  1.00  0.00     0.004 C 
ENDBRANCH  28  29
ENDBRANCH  27  28
ENDBRANCH  26  27
ENDBRANCH  25  26
ENDBRANCH  24  25
ENDBRANCH  23  24
ENDBRANCH  22  23
ENDBRANCH  21  22
ENDBRANCH  20  21
ENDBRANCH  19  20
ENDBRANCH  18  19
ENDBRANCH  17  18
ENDBRANCH   1  17
TORSDOF 26
ENDMDL
