MODEL 1
REMARK VINA RESULT:    -5.423      0.000      0.000
REMARK INTER + INTRA:          -9.937
REMARK INTER:                  -9.227
REMARK INTRA:                  -0.711
REMARK UNBOUND:                -0.711
REMARK SMILES CCCCCCCCCCCCCC(=O)[O-]
REMARK SMILES IDX 8 1 9 2 10 3 11 4 12 5 13 6 14 7 15 8 16 9 7 10 6 11 5 12
REMARK SMILES IDX 4 13 3 14 2 15 1 16
REMARK H PARENT
REMARK Flexibility Score: inf
ROOT
ATOM      1  C   UNL     1     -12.124  -0.177 -10.045  1.00  0.00     0.000 C 
ENDROOT
BRANCH   1   2
ATOM      2  C   UNL     1     -10.834  -0.945 -10.355  1.00  0.00     0.000 C 
BRANCH   2   3
ATOM      3  C   UNL     1     -10.769  -2.256  -9.565  1.00  0.00     0.000 C 
BRANCH   3   4
ATOM      4  C   UNL     1      -9.473  -3.020  -9.871  1.00  0.00     0.000 C 
BRANCH   4   5
ATOM      5  C   UNL     1      -9.393  -4.370  -9.142  1.00  0.00     0.006 C 
BRANCH   5   6
ATOM      6  C   UNL     1      -9.600  -4.237  -7.627  1.00  0.00     0.053 C 
BRANCH   6   7
ATOM      7  C   UNL     1     -10.336  -5.427  -7.095  1.00  0.00     0.041 C 
ATOM      8  O   UNL     1     -10.104  -6.574  -7.558  1.00  0.00    -0.550 OA
ATOM      9  O   UNL     1     -11.241  -5.275  -6.052  1.00  0.00    -0.550 OA
ENDBRANCH   6   7
ENDBRANCH   5   6
ENDBRANCH   4   5
ENDBRANCH   3   4
ENDBRANCH   2   3
ENDBRANCH   1   2
BRANCH   1  10
ATOM     10  C   UNL     1     -13.362  -1.012 -10.398  1.00  0.00     0.000 C 
BRANCH  10  11
ATOM     11  C   UNL     1     -14.598  -0.120 -10.570  1.00  0.00    -0.000 C 
BRANCH  11  12
ATOM     12  C   UNL     1     -14.802   0.776  -9.340  1.00  0.00    -0.000 C 
BRANCH  12  13
ATOM     13  C   UNL     1     -14.773   2.274  -9.687  1.00  0.00    -0.000 C 
BRANCH  13  14
ATOM     14  C   UNL     1     -14.589   3.164  -8.450  1.00  0.00    -0.000 C 
BRANCH  14  15
ATOM     15  C   UNL     1     -13.443   4.161  -8.658  1.00  0.00    -0.003 C 
ATOM     16  C   UNL     1     -12.122   3.441  -8.907  1.00  0.00     0.004 C 
ENDBRANCH  14  15
ENDBRANCH  13  14
ENDBRANCH  12  13
ENDBRANCH  11  12
ENDBRANCH  10  11
ENDBRANCH   1  10
TORSDOF 12
ENDMDL
MODEL 2
REMARK VINA RESULT:    -5.274      3.493      7.671
REMARK INTER + INTRA:          -9.684
REMARK INTER:                  -8.911
REMARK INTRA:                  -0.773
REMARK UNBOUND:                -0.711
REMARK SMILES CCCCCCCCCCCCCC(=O)[O-]
REMARK SMILES IDX 8 1 9 2 10 3 11 4 12 5 13 6 14 7 15 8 16 9 7 10 6 11 5 12
REMARK SMILES IDX 4 13 3 14 2 15 1 16
REMARK H PARENT
REMARK Flexibility Score: inf
ROOT
ATOM      1  C   UNL     1     -10.706  -1.069 -10.022  1.00  0.00     0.000 C 
ENDROOT
BRANCH   1   2
ATOM      2  C   UNL     1     -11.975  -0.230 -10.211  1.00  0.00     0.000 C 
BRANCH   2   3
ATOM      3  C   UNL     1     -13.200  -1.125 -10.429  1.00  0.00     0.000 C 
BRANCH   3   4
ATOM      4  C   UNL     1     -14.487  -0.289 -10.495  1.00  0.00     0.000 C 
BRANCH   4   5
ATOM      5  C   UNL     1     -14.613   0.700  -9.326  1.00  0.00     0.006 C 
BRANCH   5   6
ATOM      6  C   UNL     1     -14.874   2.138  -9.795  1.00  0.00     0.053 C 
BRANCH   6   7
ATOM      7  C   UNL     1     -13.955   3.089  -9.095  1.00  0.00     0.041 C 
ATOM      8  O   UNL     1     -14.391   3.830  -8.176  1.00  0.00    -0.550 OA
ATOM      9  O   UNL     1     -12.606   3.122  -9.425  1.00  0.00    -0.550 OA
ENDBRANCH   6   7
ENDBRANCH   5   6
ENDBRANCH   4   5
ENDBRANCH   3   4
ENDBRANCH   2   3
ENDBRANCH   1   2
BRANCH   1  10
ATOM     10  C   UNL     1     -11.051  -2.513  -9.637  1.00  0.00     0.000 C 
BRANCH  10  11
ATOM     11  C   UNL     1      -9.896  -3.464  -9.974  1.00  0.00    -0.000 C 
BRANCH  11  12
ATOM     12  C   UNL     1      -9.053  -3.768  -8.727  1.00  0.00    -0.000 C 
BRANCH  12  13
ATOM     13  C   UNL     1      -9.915  -4.039  -7.482  1.00  0.00    -0.000 C 
BRANCH  13  14
ATOM     14  C   UNL     1     -10.210  -5.532  -7.282  1.00  0.00    -0.000 C 
BRANCH  14  15
ATOM     15  C   UNL     1     -11.604  -5.739  -6.678  1.00  0.00    -0.003 C 
ATOM     16  C   UNL     1     -11.522  -6.021  -5.182  1.00  0.00     0.004 C 
ENDBRANCH  14  15
ENDBRANCH  13  14
ENDBRANCH  12  13
ENDBRANCH  11  12
ENDBRANCH  10  11
ENDBRANCH   1  10
TORSDOF 12
ENDMDL
MODEL 3
REMARK VINA RESULT:    -4.839      1.303      2.590
REMARK INTER + INTRA:          -8.944
REMARK INTER:                  -8.202
REMARK INTRA:                  -0.743
REMARK UNBOUND:                -0.711
REMARK SMILES CCCCCCCCCCCCCC(=O)[O-]
REMARK SMILES IDX 8 1 9 2 10 3 11 4 12 5 13 6 14 7 15 8 16 9 7 10 6 11 5 12
REMARK SMILES IDX 4 13 3 14 2 15 1 16
REMARK H PARENT
REMARK Flexibility Score: inf
ROOT
ATOM      1  C   UNL     1     -10.485  -1.772 -10.005  1.00  0.00     0.000 C 
ENDROOT
BRANCH   1   2
ATOM      2  C   UNL     1     -10.267  -2.862  -8.949  1.00  0.00     0.000 C 
BRANCH   2   3
ATOM      3  C   UNL     1     -10.477  -4.257  -9.546  1.00  0.00     0.000 C 
BRANCH   3   4
ATOM      4  C   UNL     1     -11.141  -5.197  -8.528  1.00  0.00     0.000 C 
BRANCH   4   5
ATOM      5  C   UNL     1     -10.444  -5.176  -7.159  1.00  0.00     0.006 C 
BRANCH   5   6
ATOM      6  C   UNL     1     -11.384  -5.572  -6.012  1.00  0.00     0.053 C 
BRANCH   6   7
ATOM      7  C   UNL     1     -11.597  -7.053  -6.001  1.00  0.00     0.041 C 
ATOM      8  O   UNL     1     -12.755  -7.527  -6.139  1.00  0.00    -0.550 OA
ATOM      9  O   UNL     1     -10.511  -7.911  -5.887  1.00  0.00    -0.550 OA
ENDBRANCH   6   7
ENDBRANCH   5   6
ENDBRANCH   4   5
ENDBRANCH   3   4
ENDBRANCH   2   3
ENDBRANCH   1   2
BRANCH   1  10
ATOM     10  C   UNL     1     -11.012  -0.481  -9.364  1.00  0.00     0.000 C 
BRANCH  10  11
ATOM     11  C   UNL     1     -12.140   0.130 -10.204  1.00  0.00    -0.000 C 
BRANCH  11  12
ATOM     12  C   UNL     1     -13.267  -0.888 -10.434  1.00  0.00    -0.000 C 
BRANCH  12  13
ATOM     13  C   UNL     1     -14.656  -0.231 -10.490  1.00  0.00    -0.000 C 
BRANCH  13  14
ATOM     14  C   UNL     1     -14.937   0.661  -9.273  1.00  0.00    -0.000 C 
BRANCH  14  15
ATOM     15  C   UNL     1     -15.064   2.132  -9.689  1.00  0.00    -0.003 C 
ATOM     16  C   UNL     1     -14.380   3.051  -8.683  1.00  0.00     0.004 C 
ENDBRANCH  14  15
ENDBRANCH  13  14
ENDBRANCH  12  13
ENDBRANCH  11  12
ENDBRANCH  10  11
ENDBRANCH   1  10
TORSDOF 12
ENDMDL
MODEL 4
REMARK VINA RESULT:    -4.759     16.055     17.987
REMARK INTER + INTRA:          -8.809
REMARK INTER:                  -7.842
REMARK INTRA:                  -0.967
REMARK UNBOUND:                -0.711
REMARK SMILES CCCCCCCCCCCCCC(=O)[O-]
REMARK SMILES IDX 8 1 9 2 10 3 11 4 12 5 13 6 14 7 15 8 16 9 7 10 6 11 5 12
REMARK SMILES IDX 4 13 3 14 2 15 1 16
REMARK H PARENT
REMARK Flexibility Score: inf
ROOT
ATOM      1  C   UNL     1     -10.077   5.288   7.943  1.00  0.00     0.000 C 
ENDROOT
BRANCH   1   2
ATOM      2  C   UNL     1     -10.688   3.885   8.015  1.00  0.00     0.000 C 
BRANCH   2   3
ATOM      3  C   UNL     1     -11.906   3.860   8.945  1.00  0.00     0.000 C 
BRANCH   3   4
ATOM      4  C   UNL     1     -12.927   4.935   8.543  1.00  0.00     0.000 C 
BRANCH   4   5
ATOM      5  C   UNL     1     -13.673   4.588   7.245  1.00  0.00     0.006 C 
BRANCH   5   6
ATOM      6  C   UNL     1     -13.504   5.663   6.162  1.00  0.00     0.053 C 
BRANCH   6   7
ATOM      7  C   UNL     1     -13.222   5.027   4.837  1.00  0.00     0.041 C 
ATOM      8  O   UNL     1     -14.036   5.160   3.886  1.00  0.00    -0.550 OA
ATOM      9  O   UNL     1     -12.037   4.330   4.638  1.00  0.00    -0.550 OA
ENDBRANCH   6   7
ENDBRANCH   5   6
ENDBRANCH   4   5
ENDBRANCH   3   4
ENDBRANCH   2   3
ENDBRANCH   1   2
BRANCH   1  10
ATOM     10  C   UNL     1      -9.476   5.558   6.557  1.00  0.00     0.000 C 
BRANCH  10  11
ATOM     11  C   UNL     1      -9.740   7.002   6.113  1.00  0.00    -0.000 C 
BRANCH  11  12
ATOM     12  C   UNL     1      -8.532   7.900   6.420  1.00  0.00    -0.000 C 
BRANCH  12  13
ATOM     13  C   UNL     1      -8.064   8.701   5.194  1.00  0.00    -0.000 C 
BRANCH  13  14
ATOM     14  C   UNL     1      -7.981  10.209   5.470  1.00  0.00    -0.000 C 
BRANCH  14  15
ATOM     15  C   UNL     1      -6.536  10.708   5.356  1.00  0.00    -0.003 C 
ATOM     16  C   UNL     1      -5.655  10.104   6.445  1.00  0.00     0.004 C 
ENDBRANCH  14  15
ENDBRANCH  13  14
ENDBRANCH  12  13
ENDBRANCH  11  12
ENDBRANCH  10  11
ENDBRANCH   1  10
TORSDOF 12
ENDMDL
MODEL 5
REMARK VINA RESULT:    -4.693     15.097     16.882
REMARK INTER + INTRA:          -8.696
REMARK INTER:                  -7.510
REMARK INTRA:                  -1.186
REMARK UNBOUND:                -0.711
REMARK SMILES CCCCCCCCCCCCCC(=O)[O-]
REMARK SMILES IDX 8 1 9 2 10 3 11 4 12 5 13 6 14 7 15 8 16 9 7 10 6 11 5 12
REMARK SMILES IDX 4 13 3 14 2 15 1 16
REMARK H PARENT
REMARK Flexibility Score: inf
ROOT
ATOM      1  C   UNL     1     -14.247   6.048   7.504  1.00  0.00     0.000 C 
ENDROOT
BRANCH   1   2
ATOM      2  C   UNL     1     -13.647   4.640   7.595  1.00  0.00     0.000 C 
BRANCH   2   3
ATOM      3  C   UNL     1     -12.771   4.495   8.844  1.00  0.00     0.000 C 
BRANCH   3   4
ATOM      4  C   UNL     1     -11.692   3.421   8.637  1.00  0.00     0.000 C 
BRANCH   4   5
ATOM      5  C   UNL     1     -10.580   3.874   7.679  1.00  0.00     0.006 C 
BRANCH   5   6
ATOM      6  C   UNL     1     -10.226   5.359   7.845  1.00  0.00     0.053 C 
BRANCH   6   7
ATOM      7  C   UNL     1      -9.558   5.877   6.610  1.00  0.00     0.041 C 
ATOM      8  O   UNL     1      -8.701   6.795   6.692  1.00  0.00    -0.550 OA
ATOM      9  O   UNL     1      -9.847   5.311   5.375  1.00  0.00    -0.550 OA
ENDBRANCH   6   7
ENDBRANCH   5   6
ENDBRANCH   4   5
ENDBRANCH   3   4
ENDBRANCH   2   3
ENDBRANCH   1   2
BRANCH   1  10
ATOM     10  C   UNL     1     -14.157   6.594   6.073  1.00  0.00     0.000 C 
BRANCH  10  11
ATOM     11  C   UNL     1     -13.263   5.706   5.199  1.00  0.00    -0.000 C 
BRANCH  11  12
ATOM     12  C   UNL     1     -13.981   5.314   3.900  1.00  0.00    -0.000 C 
BRANCH  12  13
ATOM     13  C   UNL     1     -14.858   6.447   3.342  1.00  0.00    -0.000 C 
BRANCH  13  14
ATOM     14  C   UNL     1     -14.376   6.947   1.973  1.00  0.00    -0.000 C 
BRANCH  14  15
ATOM     15  C   UNL     1     -13.997   8.431   2.034  1.00  0.00    -0.003 C 
ATOM     16  C   UNL     1     -14.310   9.026   3.403  1.00  0.00     0.004 C 
ENDBRANCH  14  15
ENDBRANCH  13  14
ENDBRANCH  12  13
ENDBRANCH  11  12
ENDBRANCH  10  11
ENDBRANCH   1  10
TORSDOF 12
ENDMDL
MODEL 6
REMARK VINA RESULT:    -4.649      2.906      5.443
REMARK INTER + INTRA:          -8.621
REMARK INTER:                  -7.199
REMARK INTRA:                  -1.422
REMARK UNBOUND:                -0.711
REMARK SMILES CCCCCCCCCCCCCC(=O)[O-]
REMARK SMILES IDX 8 1 9 2 10 3 11 4 12 5 13 6 14 7 15 8 16 9 7 10 6 11 5 12
REMARK SMILES IDX 4 13 3 14 2 15 1 16
REMARK H PARENT
REMARK Flexibility Score: inf
ROOT
ATOM      1  C   UNL     1     -10.571  -4.672  -6.665  1.00  0.00     0.000 C 
ENDROOT
BRANCH   1   2
ATOM      2  C   UNL     1     -10.268  -6.121  -7.062  1.00  0.00     0.000 C 
BRANCH   2   3
ATOM      3  C   UNL     1     -11.544  -6.855  -7.489  1.00  0.00     0.000 C 
BRANCH   3   4
ATOM      4  C   UNL     1     -11.407  -7.414  -8.913  1.00  0.00     0.000 C 
BRANCH   4   5
ATOM      5  C   UNL     1     -12.484  -6.876  -9.867  1.00  0.00     0.006 C 
BRANCH   5   6
ATOM      6  C   UNL     1     -12.797  -5.392  -9.629  1.00  0.00     0.053 C 
BRANCH   6   7
ATOM      7  C   UNL     1     -14.273  -5.153  -9.700  1.00  0.00     0.041 C 
ATOM      8  O   UNL     1     -15.078  -6.084  -9.438  1.00  0.00    -0.550 OA
ATOM      9  O   UNL     1     -14.758  -3.888 -10.005  1.00  0.00    -0.550 OA
ENDBRANCH   6   7
ENDBRANCH   5   6
ENDBRANCH   4   5
ENDBRANCH   3   4
ENDBRANCH   2   3
ENDBRANCH   1   2
BRANCH   1  10
ATOM     10  C   UNL     1      -9.709  -3.688  -7.467  1.00  0.00     0.000 C 
BRANCH  10  11
ATOM     11  C   UNL     1      -9.287  -4.295  -8.811  1.00  0.00    -0.000 C 
BRANCH  11  12
ATOM     12  C   UNL     1      -9.649  -3.359  -9.973  1.00  0.00    -0.000 C 
BRANCH  12  13
ATOM     13  C   UNL     1     -10.784  -2.384  -9.617  1.00  0.00    -0.000 C 
BRANCH  13  14
ATOM     14  C   UNL     1     -10.609  -1.008 -10.276  1.00  0.00    -0.000 C 
BRANCH  14  15
ATOM     15  C   UNL     1     -11.806  -0.099  -9.972  1.00  0.00    -0.003 C 
ATOM     16  C   UNL     1     -13.110  -0.724 -10.459  1.00  0.00     0.004 C 
ENDBRANCH  14  15
ENDBRANCH  13  14
ENDBRANCH  12  13
ENDBRANCH  11  12
ENDBRANCH  10  11
ENDBRANCH   1  10
TORSDOF 12
ENDMDL
MODEL 7
REMARK VINA RESULT:    -4.640     15.198     17.379
REMARK INTER + INTRA:          -8.606
REMARK INTER:                  -7.609
REMARK INTRA:                  -0.997
REMARK UNBOUND:                -0.711
REMARK SMILES CCCCCCCCCCCCCC(=O)[O-]
REMARK SMILES IDX 8 1 9 2 10 3 11 4 12 5 13 6 14 7 15 8 16 9 7 10 6 11 5 12
REMARK SMILES IDX 4 13 3 14 2 15 1 16
REMARK H PARENT
REMARK Flexibility Score: inf
ROOT
ATOM      1  C   UNL     1     -13.669   5.942   4.990  1.00  0.00     0.000 C 
ENDROOT
BRANCH   1   2
ATOM      2  C   UNL     1     -14.025   5.716   3.516  1.00  0.00     0.000 C 
BRANCH   2   3
ATOM      3  C   UNL     1     -14.384   7.036   2.827  1.00  0.00     0.000 C 
BRANCH   3   4
ATOM      4  C   UNL     1     -14.464   8.184   3.844  1.00  0.00     0.000 C 
BRANCH   4   5
ATOM      5  C   UNL     1     -14.014   9.530   3.256  1.00  0.00     0.006 C 
BRANCH   5   6
ATOM      6  C   UNL     1     -13.661   9.435   1.765  1.00  0.00     0.053 C 
BRANCH   6   7
ATOM      7  C   UNL     1     -12.950  10.674   1.318  1.00  0.00     0.041 C 
ATOM      8  O   UNL     1     -11.917  10.588   0.605  1.00  0.00    -0.550 OA
ATOM      9  O   UNL     1     -13.459  11.924   1.647  1.00  0.00    -0.550 OA
ENDBRANCH   6   7
ENDBRANCH   5   6
ENDBRANCH   4   5
ENDBRANCH   3   4
ENDBRANCH   2   3
ENDBRANCH   1   2
BRANCH   1  10
ATOM     10  C   UNL     1     -13.304   4.620   5.678  1.00  0.00     0.000 C 
BRANCH  10  11
ATOM     11  C   UNL     1     -13.586   4.686   7.184  1.00  0.00    -0.000 C 
BRANCH  11  12
ATOM     12  C   UNL     1     -12.453   4.027   7.984  1.00  0.00    -0.000 C 
BRANCH  12  13
ATOM     13  C   UNL     1     -11.097   4.105   7.264  1.00  0.00    -0.000 C 
BRANCH  13  14
ATOM     14  C   UNL     1     -10.183   5.196   7.842  1.00  0.00    -0.000 C 
BRANCH  14  15
ATOM     15  C   UNL     1      -9.477   5.969   6.721  1.00  0.00    -0.003 C 
ATOM     16  C   UNL     1      -9.792   5.371   5.354  1.00  0.00     0.004 C 
ENDBRANCH  14  15
ENDBRANCH  13  14
ENDBRANCH  12  13
ENDBRANCH  11  12
ENDBRANCH  10  11
ENDBRANCH   1  10
TORSDOF 12
ENDMDL
MODEL 8
REMARK VINA RESULT:    -4.627     17.315     19.303
REMARK INTER + INTRA:          -8.584
REMARK INTER:                  -7.617
REMARK INTRA:                  -0.966
REMARK UNBOUND:                -0.711
REMARK SMILES CCCCCCCCCCCCCC(=O)[O-]
REMARK SMILES IDX 8 1 9 2 10 3 11 4 12 5 13 6 14 7 15 8 16 9 7 10 6 11 5 12
REMARK SMILES IDX 4 13 3 14 2 15 1 16
REMARK H PARENT
REMARK Flexibility Score: inf
ROOT
ATOM      1  C   UNL     1     -10.156   6.524   6.773  1.00  0.00     0.000 C 
ENDROOT
BRANCH   1   2
ATOM      2  C   UNL     1      -9.111   6.966   5.742  1.00  0.00     0.000 C 
BRANCH   2   3
ATOM      3  C   UNL     1      -8.413   8.257   6.183  1.00  0.00     0.000 C 
BRANCH   3   4
ATOM      4  C   UNL     1      -7.957   9.079   4.968  1.00  0.00     0.000 C 
BRANCH   4   5
ATOM      5  C   UNL     1      -7.055  10.260   5.357  1.00  0.00     0.006 C 
BRANCH   5   6
ATOM      6  C   UNL     1      -6.095   9.918   6.504  1.00  0.00     0.053 C 
BRANCH   6   7
ATOM      7  C   UNL     1      -6.252  10.896   7.625  1.00  0.00     0.041 C 
ATOM      8  O   UNL     1      -7.299  10.895   8.324  1.00  0.00    -0.550 OA
ATOM      9  O   UNL     1      -5.222  11.776   7.930  1.00  0.00    -0.550 OA
ENDBRANCH   6   7
ENDBRANCH   5   6
ENDBRANCH   4   5
ENDBRANCH   3   4
ENDBRANCH   2   3
ENDBRANCH   1   2
BRANCH   1  10
ATOM     10  C   UNL     1      -9.854   5.113   7.295  1.00  0.00     0.000 C 
BRANCH  10  11
ATOM     11  C   UNL     1     -10.355   4.939   8.734  1.00  0.00    -0.000 C 
BRANCH  11  12
ATOM     12  C   UNL     1     -11.174   3.648   8.877  1.00  0.00    -0.000 C 
BRANCH  12  13
ATOM     13  C   UNL     1     -12.212   3.478   7.756  1.00  0.00    -0.000 C 
BRANCH  13  14
ATOM     14  C   UNL     1     -13.308   4.552   7.797  1.00  0.00    -0.000 C 
BRANCH  14  15
ATOM     15  C   UNL     1     -13.685   5.005   6.382  1.00  0.00    -0.003 C 
ATOM     16  C   UNL     1     -12.819   4.315   5.332  1.00  0.00     0.004 C 
ENDBRANCH  14  15
ENDBRANCH  13  14
ENDBRANCH  12  13
ENDBRANCH  11  12
ENDBRANCH  10  11
ENDBRANCH   1  10
TORSDOF 12
ENDMDL
MODEL 9
REMARK VINA RESULT:    -4.614     16.996     18.829
REMARK INTER + INTRA:          -8.562
REMARK INTER:                  -7.112
REMARK INTRA:                  -1.450
REMARK UNBOUND:                -0.711
REMARK SMILES CCCCCCCCCCCCCC(=O)[O-]
REMARK SMILES IDX 8 1 9 2 10 3 11 4 12 5 13 6 14 7 15 8 16 9 7 10 6 11 5 12
REMARK SMILES IDX 4 13 3 14 2 15 1 16
REMARK H PARENT
REMARK Flexibility Score: inf
ROOT
ATOM      1  C   UNL     1     -10.728   4.976   5.371  1.00  0.00     0.000 C 
ENDROOT
BRANCH   1   2
ATOM      2  C   UNL     1      -9.635   5.410   6.354  1.00  0.00     0.000 C 
BRANCH   2   3
ATOM      3  C   UNL     1      -9.688   6.920   6.606  1.00  0.00     0.000 C 
BRANCH   3   4
ATOM      4  C   UNL     1      -8.751   7.671   5.649  1.00  0.00     0.000 C 
BRANCH   4   5
ATOM      5  C   UNL     1      -8.398   9.081   6.148  1.00  0.00     0.006 C 
BRANCH   5   6
ATOM      6  C   UNL     1      -7.020   9.552   5.663  1.00  0.00     0.053 C 
BRANCH   6   7
ATOM      7  C   UNL     1      -6.232  10.118   6.803  1.00  0.00     0.041 C 
ATOM      8  O   UNL     1      -5.000  10.335   6.673  1.00  0.00    -0.550 OA
ATOM      9  O   UNL     1      -6.869  10.451   7.991  1.00  0.00    -0.550 OA
ENDBRANCH   6   7
ENDBRANCH   5   6
ENDBRANCH   4   5
ENDBRANCH   3   4
ENDBRANCH   2   3
ENDBRANCH   1   2
BRANCH   1  10
ATOM     10  C   UNL     1     -11.550   3.812   5.938  1.00  0.00     0.000 C 
BRANCH  10  11
ATOM     11  C   UNL     1     -10.995   3.355   7.293  1.00  0.00    -0.000 C 
BRANCH  11  12
ATOM     12  C   UNL     1     -12.066   3.463   8.389  1.00  0.00    -0.000 C 
BRANCH  12  13
ATOM     13  C   UNL     1     -12.994   4.673   8.193  1.00  0.00    -0.000 C 
BRANCH  13  14
ATOM     14  C   UNL     1     -12.476   5.935   8.896  1.00  0.00    -0.000 C 
BRANCH  14  15
ATOM     15  C   UNL     1     -13.046   7.200   8.243  1.00  0.00    -0.003 C 
ATOM     16  C   UNL     1     -13.477   6.933   6.805  1.00  0.00     0.004 C 
ENDBRANCH  14  15
ENDBRANCH  13  14
ENDBRANCH  12  13
ENDBRANCH  11  12
ENDBRANCH  10  11
ENDBRANCH   1  10
TORSDOF 12
ENDMDL
