MODEL 1
REMARK VINA RESULT:   152.290      0.000      0.000
REMARK INTER + INTRA:         156.742
REMARK INTER:                 156.742
REMARK INTRA:                   0.000
REMARK UNBOUND:                 0.000
REMARK SMILES CC1(C)CC[C@@]2(C)CC[C@@]3(C)C(=CC[C@@H]4[C@@]5(C)CC[C@@H](O)C(C)(C)[C@H]5CC[C@]43C)[C@H]2C1
REMARK SMILES IDX 1 1 2 2 4 3 5 4 6 5 8 6 9 7 10 8 12 9 13 10 14 11 15 12
REMARK SMILES IDX 28 13 27 14 26 15 25 16 16 17 18 18 19 19 20 20 22 21 23 22
REMARK SMILES IDX 24 23 17 24 29 25 30 26 31 27 11 28 7 29 3 30 21 31
REMARK H PARENT 21 32
REMARK Flexibility Score: inf
ROOT
ATOM      1  C   UNL     1     -34.076  31.716 -18.250  1.00  0.00     0.011 C 
ATOM      2  C   UNL     1     -32.566  31.774 -18.595  1.00  0.00    -0.035 C 
ATOM      3  C   UNL     1     -32.333  31.042 -19.951  1.00  0.00     0.007 C 
ATOM      4  C   UNL     1     -30.998  30.285 -19.983  1.00  0.00     0.008 C 
ATOM      5  C   UNL     1     -30.971  29.124 -18.939  1.00  0.00    -0.026 C 
ATOM      6  C   UNL     1     -29.504  28.620 -18.782  1.00  0.00     0.008 C 
ATOM      7  C   UNL     1     -28.738  29.347 -17.659  1.00  0.00     0.012 C 
ATOM      8  C   UNL     1     -29.296  28.989 -16.240  1.00  0.00    -0.006 C 
ATOM      9  C   UNL     1     -30.853  29.019 -16.339  1.00  0.00    -0.064 C 
ATOM     10  C   UNL     1     -31.603  28.447 -15.371  1.00  0.00    -0.027 C 
ATOM     11  C   UNL     1     -31.004  27.451 -14.435  1.00  0.00     0.032 C 
ATOM     12  C   UNL     1     -29.950  26.629 -15.227  1.00  0.00     0.006 C 
ATOM     13  C   UNL     1     -28.717  27.561 -15.603  1.00  0.00    -0.020 C 
ATOM     14  C   UNL     1     -27.728  26.747 -16.540  1.00  0.00     0.008 C 
ATOM     15  C   UNL     1     -28.020  25.238 -16.654  1.00  0.00     0.005 C 
ATOM     16  C   UNL     1     -28.383  24.531 -15.314  1.00  0.00     0.003 C 
ATOM     17  C   UNL     1     -29.661  25.183 -14.625  1.00  0.00    -0.025 C 
ATOM     18  C   UNL     1     -30.900  24.276 -14.912  1.00  0.00     0.010 C 
ATOM     19  C   UNL     1     -30.762  22.823 -14.419  1.00  0.00     0.033 C 
ATOM     20  C   UNL     1     -29.324  22.274 -14.418  1.00  0.00     0.120 C 
ATOM     21  C   UNL     1     -28.419  22.937 -15.500  1.00  0.00    -0.006 C 
ATOM     22  C   UNL     1     -26.978  22.385 -15.327  1.00  0.00     0.014 C 
ATOM     23  C   UNL     1     -28.903  22.489 -16.912  1.00  0.00     0.014 C 
ATOM     24  C   UNL     1     -29.499  25.274 -13.070  1.00  0.00     0.012 C 
ATOM     25  C   UNL     1     -27.842  27.829 -14.325  1.00  0.00     0.012 C 
ATOM     26  C   UNL     1     -31.589  29.595 -17.559  1.00  0.00     0.022 C 
ATOM     27  C   UNL     1     -31.728  31.136 -17.438  1.00  0.00     0.015 C 
ATOM     28  C   UNL     1     -28.940  30.219 -15.341  1.00  0.00     0.017 C 
ATOM     29  C   UNL     1     -31.813  27.942 -19.513  1.00  0.00     0.012 C 
ATOM     30  C   UNL     1     -32.160  33.257 -18.736  1.00  0.00     0.011 C 
ENDROOT
BRANCH  20  31
ATOM     31  O   UNL     1     -29.384  20.875 -14.593  1.00  0.00    -0.393 OA
ATOM     32  H   UNL     1     -28.745  20.458 -13.958  1.00  0.00     0.210 HD
ENDBRANCH  20  31
TORSDOF 1
ENDMDL
MODEL 2
REMARK VINA RESULT:   152.485      2.497      7.771
REMARK INTER + INTRA:         156.942
REMARK INTER:                 156.942
REMARK INTRA:                   0.000
REMARK UNBOUND:                 0.000
REMARK SMILES CC1(C)CC[C@@]2(C)CC[C@@]3(C)C(=CC[C@@H]4[C@@]5(C)CC[C@@H](O)C(C)(C)[C@H]5CC[C@]43C)[C@H]2C1
REMARK SMILES IDX 1 1 2 2 4 3 5 4 6 5 8 6 9 7 10 8 12 9 13 10 14 11 15 12
REMARK SMILES IDX 28 13 27 14 26 15 25 16 16 17 18 18 19 19 20 20 22 21 23 22
REMARK SMILES IDX 24 23 17 24 29 25 30 26 31 27 11 28 7 29 3 30 21 31
REMARK H PARENT 21 32
REMARK Flexibility Score: inf
ROOT
ATOM      1  C   UNL     1     -28.151  20.875 -15.250  1.00  0.00     0.011 C 
ATOM      2  C   UNL     1     -28.771  21.730 -14.116  1.00  0.00    -0.035 C 
ATOM      3  C   UNL     1     -30.315  21.518 -14.117  1.00  0.00     0.007 C 
ATOM      4  C   UNL     1     -31.079  22.799 -13.753  1.00  0.00     0.008 C 
ATOM      5  C   UNL     1     -30.869  23.917 -14.823  1.00  0.00    -0.026 C 
ATOM      6  C   UNL     1     -31.378  25.273 -14.244  1.00  0.00     0.008 C 
ATOM      7  C   UNL     1     -30.273  26.068 -13.523  1.00  0.00     0.012 C 
ATOM      8  C   UNL     1     -29.183  26.595 -14.517  1.00  0.00    -0.006 C 
ATOM      9  C   UNL     1     -28.860  25.430 -15.503  1.00  0.00    -0.064 C 
ATOM     10  C   UNL     1     -28.202  25.682 -16.656  1.00  0.00    -0.027 C 
ATOM     11  C   UNL     1     -28.133  27.069 -17.203  1.00  0.00     0.032 C 
ATOM     12  C   UNL     1     -29.474  27.778 -16.870  1.00  0.00     0.006 C 
ATOM     13  C   UNL     1     -29.581  28.012 -15.300  1.00  0.00    -0.020 C 
ATOM     14  C   UNL     1     -31.019  28.595 -14.967  1.00  0.00     0.008 C 
ATOM     15  C   UNL     1     -31.851  29.036 -16.189  1.00  0.00     0.005 C 
ATOM     16  C   UNL     1     -31.061  29.822 -17.277  1.00  0.00     0.003 C 
ATOM     17  C   UNL     1     -29.838  28.981 -17.850  1.00  0.00    -0.025 C 
ATOM     18  C   UNL     1     -30.250  28.379 -19.231  1.00  0.00     0.010 C 
ATOM     19  C   UNL     1     -30.669  29.420 -20.287  1.00  0.00     0.033 C 
ATOM     20  C   UNL     1     -31.319  30.693 -19.717  1.00  0.00     0.120 C 
ATOM     21  C   UNL     1     -32.059  30.447 -18.368  1.00  0.00    -0.006 C 
ATOM     22  C   UNL     1     -32.574  31.815 -17.844  1.00  0.00     0.014 C 
ATOM     23  C   UNL     1     -33.318  29.566 -18.631  1.00  0.00     0.014 C 
ATOM     24  C   UNL     1     -28.576  29.877 -18.087  1.00  0.00     0.012 C 
ATOM     25  C   UNL     1     -28.624  29.182 -14.869  1.00  0.00     0.012 C 
ATOM     26  C   UNL     1     -29.351  23.992 -15.267  1.00  0.00     0.022 C 
ATOM     27  C   UNL     1     -28.391  23.235 -14.311  1.00  0.00     0.015 C 
ATOM     28  C   UNL     1     -27.886  26.746 -13.656  1.00  0.00     0.017 C 
ATOM     29  C   UNL     1     -31.759  23.573 -16.059  1.00  0.00     0.012 C 
ATOM     30  C   UNL     1     -28.188  21.246 -12.772  1.00  0.00     0.011 C 
ENDROOT
BRANCH  20  31
ATOM     31  O   UNL     1     -32.198  31.215 -20.691  1.00  0.00    -0.393 OA
ATOM     32  H   UNL     1     -32.693  31.973 -20.284  1.00  0.00     0.210 HD
ENDBRANCH  20  31
TORSDOF 1
ENDMDL
MODEL 3
REMARK VINA RESULT:   153.638      2.105      4.158
REMARK INTER + INTRA:         158.129
REMARK INTER:                 158.129
REMARK INTRA:                   0.000
REMARK UNBOUND:                 0.000
REMARK SMILES CC1(C)CC[C@@]2(C)CC[C@@]3(C)C(=CC[C@@H]4[C@@]5(C)CC[C@@H](O)C(C)(C)[C@H]5CC[C@]43C)[C@H]2C1
REMARK SMILES IDX 1 1 2 2 4 3 5 4 6 5 8 6 9 7 10 8 12 9 13 10 14 11 15 12
REMARK SMILES IDX 28 13 27 14 26 15 25 16 16 17 18 18 19 19 20 20 22 21 23 22
REMARK SMILES IDX 24 23 17 24 29 25 30 26 31 27 11 28 7 29 3 30 21 31
REMARK H PARENT 21 32
REMARK Flexibility Score: inf
ROOT
ATOM      1  C   UNL     1     -29.550  34.787 -17.133  1.00  0.00     0.011 C 
ATOM      2  C   UNL     1     -30.569  34.320 -16.063  1.00  0.00    -0.035 C 
ATOM      3  C   UNL     1     -29.861  34.293 -14.675  1.00  0.00     0.007 C 
ATOM      4  C   UNL     1     -30.350  33.135 -13.794  1.00  0.00     0.008 C 
ATOM      5  C   UNL     1     -29.982  31.749 -14.411  1.00  0.00    -0.026 C 
ATOM      6  C   UNL     1     -30.781  30.636 -13.666  1.00  0.00     0.008 C 
ATOM      7  C   UNL     1     -32.134  30.322 -14.333  1.00  0.00     0.012 C 
ATOM      8  C   UNL     1     -31.956  29.634 -15.729  1.00  0.00    -0.006 C 
ATOM      9  C   UNL     1     -30.818  30.397 -16.474  1.00  0.00    -0.064 C 
ATOM     10  C   UNL     1     -30.227  29.842 -17.556  1.00  0.00    -0.027 C 
ATOM     11  C   UNL     1     -30.340  28.377 -17.814  1.00  0.00     0.032 C 
ATOM     12  C   UNL     1     -30.348  27.651 -16.441  1.00  0.00     0.006 C 
ATOM     13  C   UNL     1     -31.694  27.988 -15.665  1.00  0.00    -0.020 C 
ATOM     14  C   UNL     1     -31.614  27.365 -14.208  1.00  0.00     0.008 C 
ATOM     15  C   UNL     1     -30.437  26.399 -13.968  1.00  0.00     0.005 C 
ATOM     16  C   UNL     1     -30.160  25.394 -15.125  1.00  0.00     0.003 C 
ATOM     17  C   UNL     1     -29.855  26.137 -16.498  1.00  0.00    -0.025 C 
ATOM     18  C   UNL     1     -28.310  26.134 -16.735  1.00  0.00     0.010 C 
ATOM     19  C   UNL     1     -27.670  24.733 -16.780  1.00  0.00     0.033 C 
ATOM     20  C   UNL     1     -28.372  23.673 -15.913  1.00  0.00     0.120 C 
ATOM     21  C   UNL     1     -29.095  24.282 -14.674  1.00  0.00    -0.006 C 
ATOM     22  C   UNL     1     -29.850  23.137 -13.946  1.00  0.00     0.014 C 
ATOM     23  C   UNL     1     -28.026  24.818 -13.674  1.00  0.00     0.014 C 
ATOM     24  C   UNL     1     -30.516  25.406 -17.715  1.00  0.00     0.012 C 
ATOM     25  C   UNL     1     -32.892  27.203 -16.312  1.00  0.00     0.012 C 
ATOM     26  C   UNL     1     -30.258  31.737 -15.970  1.00  0.00     0.022 C 
ATOM     27  C   UNL     1     -31.145  32.917 -16.449  1.00  0.00     0.015 C 
ATOM     28  C   UNL     1     -33.252  29.991 -16.527  1.00  0.00     0.017 C 
ATOM     29  C   UNL     1     -28.465  31.493 -14.146  1.00  0.00     0.012 C 
ATOM     30  C   UNL     1     -31.731  35.335 -16.027  1.00  0.00     0.011 C 
ENDROOT
BRANCH  20  31
ATOM     31  O   UNL     1     -27.412  22.715 -15.522  1.00  0.00    -0.393 OA
ATOM     32  H   UNL     1     -27.240  22.117 -16.296  1.00  0.00     0.210 HD
ENDBRANCH  20  31
TORSDOF 1
ENDMDL
