MODEL 1
REMARK VINA RESULT:    -5.706      0.000      0.000
REMARK INTER + INTRA:         -15.459
REMARK INTER:                 -13.044
REMARK INTRA:                  -2.415
REMARK UNBOUND:                -2.415
REMARK SMILES CCCCCCCCCCCCCCCCCCCCCCCC(=O)[O-]
REMARK SMILES IDX 13 1 14 2 15 3 16 4 17 5 18 6 19 7 20 8 21 9 22 10 23 11
REMARK SMILES IDX 24 12 25 13 26 14 12 15 11 16 10 17 9 18 8 19 7 20 6 21 5 22
REMARK SMILES IDX 4 23 3 24 2 25 1 26
REMARK H PARENT
REMARK Flexibility Score: inf
ROOT
ATOM      1  C   UNL     1       7.092  -0.857  35.572  1.00  0.00     0.000 C 
ENDROOT
BRANCH   1   2
ATOM      2  C   UNL     1       8.124  -0.529  34.477  1.00  0.00     0.000 C 
BRANCH   2   3
ATOM      3  C   UNL     1       8.633   0.927  34.472  1.00  0.00     0.000 C 
BRANCH   3   4
ATOM      4  C   UNL     1       9.960   1.154  33.726  1.00  0.00     0.000 C 
BRANCH   4   5
ATOM      5  C   UNL     1      10.973   0.018  33.949  1.00  0.00     0.000 C 
BRANCH   5   6
ATOM      6  C   UNL     1      12.352   0.536  34.390  1.00  0.00     0.000 C 
BRANCH   6   7
ATOM      7  C   UNL     1      12.264   1.509  35.578  1.00  0.00     0.000 C 
BRANCH   7   8
ATOM      8  C   UNL     1      12.977   2.846  35.309  1.00  0.00     0.000 C 
BRANCH   8   9
ATOM      9  C   UNL     1      12.123   3.908  34.593  1.00  0.00     0.000 C 
BRANCH   9  10
ATOM     10  C   UNL     1      12.619   4.214  33.172  1.00  0.00     0.006 C 
BRANCH  10  11
ATOM     11  C   UNL     1      11.478   4.111  32.155  1.00  0.00     0.053 C 
BRANCH  11  12
ATOM     12  C   UNL     1      10.618   5.334  32.210  1.00  0.00     0.041 C 
ATOM     13  O   UNL     1      11.143   6.474  32.302  1.00  0.00    -0.550 OA
ATOM     14  O   UNL     1       9.236   5.216  32.101  1.00  0.00    -0.550 OA
ENDBRANCH  11  12
ENDBRANCH  10  11
ENDBRANCH   9  10
ENDBRANCH   8   9
ENDBRANCH   7   8
ENDBRANCH   6   7
ENDBRANCH   5   6
ENDBRANCH   4   5
ENDBRANCH   3   4
ENDBRANCH   2   3
ENDBRANCH   1   2
BRANCH   1  15
ATOM     15  C   UNL     1       6.562   0.395  36.286  1.00  0.00     0.000 C 
BRANCH  15  16
ATOM     16  C   UNL     1       5.026   0.405  36.311  1.00  0.00     0.000 C 
BRANCH  16  17
ATOM     17  C   UNL     1       4.445  -0.485  37.422  1.00  0.00     0.000 C 
BRANCH  17  18
ATOM     18  C   UNL     1       3.034  -0.055  37.849  1.00  0.00    -0.000 C 
BRANCH  18  19
ATOM     19  C   UNL     1       2.652  -0.680  39.196  1.00  0.00    -0.000 C 
BRANCH  19  20
ATOM     20  C   UNL     1       1.982  -2.049  38.997  1.00  0.00    -0.000 C 
BRANCH  20  21
ATOM     21  C   UNL     1       2.650  -3.162  39.819  1.00  0.00    -0.000 C 
BRANCH  21  22
ATOM     22  C   UNL     1       3.128  -4.336  38.947  1.00  0.00    -0.000 C 
BRANCH  22  23
ATOM     23  C   UNL     1       4.164  -3.905  37.895  1.00  0.00    -0.000 C 
BRANCH  23  24
ATOM     24  C   UNL     1       3.670  -4.124  36.453  1.00  0.00    -0.000 C 
BRANCH  24  25
ATOM     25  C   UNL     1       4.708  -3.694  35.404  1.00  0.00    -0.003 C 
ATOM     26  C   UNL     1       6.069  -4.360  35.604  1.00  0.00     0.004 C 
ENDBRANCH  24  25
ENDBRANCH  23  24
ENDBRANCH  22  23
ENDBRANCH  21  22
ENDBRANCH  20  21
ENDBRANCH  19  20
ENDBRANCH  18  19
ENDBRANCH  17  18
ENDBRANCH  16  17
ENDBRANCH  15  16
ENDBRANCH   1  15
TORSDOF 22
ENDMDL
MODEL 2
REMARK VINA RESULT:    -5.697      3.299      9.812
REMARK INTER + INTRA:         -15.439
REMARK INTER:                 -12.642
REMARK INTRA:                  -2.797
REMARK UNBOUND:                -2.415
REMARK SMILES CCCCCCCCCCCCCCCCCCCCCCCC(=O)[O-]
REMARK SMILES IDX 13 1 14 2 15 3 16 4 17 5 18 6 19 7 20 8 21 9 22 10 23 11
REMARK SMILES IDX 24 12 25 13 26 14 12 15 11 16 10 17 9 18 8 19 7 20 6 21 5 22
REMARK SMILES IDX 4 23 3 24 2 25 1 26
REMARK H PARENT
REMARK Flexibility Score: inf
ROOT
ATOM      1  C   UNL     1       6.020  -0.978  36.059  1.00  0.00     0.000 C 
ENDROOT
BRANCH   1   2
ATOM      2  C   UNL     1       5.087   0.188  36.435  1.00  0.00     0.000 C 
BRANCH   2   3
ATOM      3  C   UNL     1       4.236  -0.038  37.702  1.00  0.00     0.000 C 
BRANCH   3   4
ATOM      4  C   UNL     1       2.725   0.192  37.524  1.00  0.00     0.000 C 
BRANCH   4   5
ATOM      5  C   UNL     1       1.871  -0.816  38.313  1.00  0.00     0.000 C 
BRANCH   5   6
ATOM      6  C   UNL     1       2.687  -1.583  39.366  1.00  0.00     0.000 C 
BRANCH   6   7
ATOM      7  C   UNL     1       2.639  -3.106  39.154  1.00  0.00     0.000 C 
BRANCH   7   8
ATOM      8  C   UNL     1       3.882  -3.648  38.427  1.00  0.00     0.000 C 
BRANCH   8   9
ATOM      9  C   UNL     1       3.590  -4.449  37.144  1.00  0.00     0.000 C 
BRANCH   9  10
ATOM     10  C   UNL     1       4.029  -3.714  35.869  1.00  0.00     0.006 C 
BRANCH  10  11
ATOM     11  C   UNL     1       4.237  -4.694  34.710  1.00  0.00     0.053 C 
BRANCH  11  12
ATOM     12  C   UNL     1       5.693  -4.823  34.390  1.00  0.00     0.041 C 
ATOM     13  O   UNL     1       6.085  -4.775  33.195  1.00  0.00    -0.550 OA
ATOM     14  O   UNL     1       6.623  -4.936  35.418  1.00  0.00    -0.550 OA
ENDBRANCH  11  12
ENDBRANCH  10  11
ENDBRANCH   9  10
ENDBRANCH   8   9
ENDBRANCH   7   8
ENDBRANCH   6   7
ENDBRANCH   5   6
ENDBRANCH   4   5
ENDBRANCH   3   4
ENDBRANCH   2   3
ENDBRANCH   1   2
BRANCH   1  15
ATOM     15  C   UNL     1       7.417  -0.508  35.627  1.00  0.00     0.000 C 
BRANCH  15  16
ATOM     16  C   UNL     1       7.719   0.896  36.174  1.00  0.00     0.000 C 
BRANCH  16  17
ATOM     17  C   UNL     1       9.102   1.414  35.745  1.00  0.00     0.000 C 
BRANCH  17  18
ATOM     18  C   UNL     1       9.129   1.891  34.286  1.00  0.00    -0.000 C 
BRANCH  18  19
ATOM     19  C   UNL     1      10.121   1.066  33.455  1.00  0.00    -0.000 C 
BRANCH  19  20
ATOM     20  C   UNL     1      10.907   0.092  34.346  1.00  0.00    -0.000 C 
BRANCH  20  21
ATOM     21  C   UNL     1      12.407   0.422  34.407  1.00  0.00    -0.000 C 
BRANCH  21  22
ATOM     22  C   UNL     1      12.800   1.154  35.702  1.00  0.00    -0.000 C 
BRANCH  22  23
ATOM     23  C   UNL     1      13.313   2.580  35.440  1.00  0.00    -0.000 C 
BRANCH  23  24
ATOM     24  C   UNL     1      12.186   3.627  35.449  1.00  0.00    -0.000 C 
BRANCH  24  25
ATOM     25  C   UNL     1      12.330   4.658  34.319  1.00  0.00    -0.003 C 
ATOM     26  C   UNL     1      11.868   4.125  32.963  1.00  0.00     0.004 C 
ENDBRANCH  24  25
ENDBRANCH  23  24
ENDBRANCH  22  23
ENDBRANCH  21  22
ENDBRANCH  20  21
ENDBRANCH  19  20
ENDBRANCH  18  19
ENDBRANCH  17  18
ENDBRANCH  16  17
ENDBRANCH  15  16
ENDBRANCH   1  15
TORSDOF 22
ENDMDL
MODEL 3
REMARK VINA RESULT:    -5.628      1.816      4.394
REMARK INTER + INTRA:         -15.282
REMARK INTER:                 -12.844
REMARK INTRA:                  -2.438
REMARK UNBOUND:                -2.415
REMARK SMILES CCCCCCCCCCCCCCCCCCCCCCCC(=O)[O-]
REMARK SMILES IDX 13 1 14 2 15 3 16 4 17 5 18 6 19 7 20 8 21 9 22 10 23 11
REMARK SMILES IDX 24 12 25 13 26 14 12 15 11 16 10 17 9 18 8 19 7 20 6 21 5 22
REMARK SMILES IDX 4 23 3 24 2 25 1 26
REMARK H PARENT
REMARK Flexibility Score: inf
ROOT
ATOM      1  C   UNL     1       3.514   0.103  38.259  1.00  0.00     0.000 C 
ENDROOT
BRANCH   1   2
ATOM      2  C   UNL     1       4.021   0.380  36.831  1.00  0.00     0.000 C 
BRANCH   2   3
ATOM      3  C   UNL     1       5.239  -0.460  36.395  1.00  0.00     0.000 C 
BRANCH   3   4
ATOM      4  C   UNL     1       6.528   0.342  36.138  1.00  0.00     0.000 C 
BRANCH   4   5
ATOM      5  C   UNL     1       7.721  -0.552  35.758  1.00  0.00     0.000 C 
BRANCH   5   6
ATOM      6  C   UNL     1       7.922  -0.649  34.236  1.00  0.00     0.000 C 
BRANCH   6   7
ATOM      7  C   UNL     1       8.938   0.380  33.710  1.00  0.00     0.000 C 
BRANCH   7   8
ATOM      8  C   UNL     1      10.397  -0.062  33.915  1.00  0.00     0.000 C 
BRANCH   8   9
ATOM      9  C   UNL     1      11.169   0.720  34.994  1.00  0.00     0.000 C 
BRANCH   9  10
ATOM     10  C   UNL     1      12.672   0.826  34.694  1.00  0.00     0.006 C 
BRANCH  10  11
ATOM     11  C   UNL     1      13.344   1.863  35.601  1.00  0.00     0.053 C 
BRANCH  11  12
ATOM     12  C   UNL     1      13.005   3.248  35.149  1.00  0.00     0.041 C 
ATOM     13  O   UNL     1      13.054   3.545  33.926  1.00  0.00    -0.550 OA
ATOM     14  O   UNL     1      12.579   4.195  36.074  1.00  0.00    -0.550 OA
ENDBRANCH  11  12
ENDBRANCH  10  11
ENDBRANCH   9  10
ENDBRANCH   8   9
ENDBRANCH   7   8
ENDBRANCH   6   7
ENDBRANCH   5   6
ENDBRANCH   4   5
ENDBRANCH   3   4
ENDBRANCH   2   3
ENDBRANCH   1   2
BRANCH   1  15
ATOM     15  C   UNL     1       2.437  -0.989  38.309  1.00  0.00     0.000 C 
BRANCH  15  16
ATOM     16  C   UNL     1       2.604  -1.870  39.557  1.00  0.00     0.000 C 
BRANCH  16  17
ATOM     17  C   UNL     1       2.971  -3.322  39.213  1.00  0.00     0.000 C 
BRANCH  17  18
ATOM     18  C   UNL     1       4.209  -3.422  38.310  1.00  0.00    -0.000 C 
BRANCH  18  19
ATOM     19  C   UNL     1       4.022  -4.501  37.236  1.00  0.00    -0.000 C 
BRANCH  19  20
ATOM     20  C   UNL     1       4.417  -3.971  35.849  1.00  0.00    -0.000 C 
BRANCH  20  21
ATOM     21  C   UNL     1       5.936  -3.995  35.615  1.00  0.00    -0.000 C 
BRANCH  21  22
ATOM     22  C   UNL     1       6.306  -4.420  34.183  1.00  0.00    -0.000 C 
BRANCH  22  23
ATOM     23  C   UNL     1       6.550  -5.934  34.063  1.00  0.00    -0.000 C 
BRANCH  23  24
ATOM     24  C   UNL     1       7.077  -6.555  35.369  1.00  0.00    -0.000 C 
BRANCH  24  25
ATOM     25  C   UNL     1       6.202  -7.717  35.864  1.00  0.00    -0.003 C 
ATOM     26  C   UNL     1       4.776  -7.665  35.315  1.00  0.00     0.004 C 
ENDBRANCH  24  25
ENDBRANCH  23  24
ENDBRANCH  22  23
ENDBRANCH  21  22
ENDBRANCH  20  21
ENDBRANCH  19  20
ENDBRANCH  18  19
ENDBRANCH  17  18
ENDBRANCH  16  17
ENDBRANCH  15  16
ENDBRANCH   1  15
TORSDOF 22
ENDMDL
MODEL 4
REMARK VINA RESULT:    -5.610      1.568      3.242
REMARK INTER + INTRA:         -15.242
REMARK INTER:                 -12.797
REMARK INTRA:                  -2.445
REMARK UNBOUND:                -2.415
REMARK SMILES CCCCCCCCCCCCCCCCCCCCCCCC(=O)[O-]
REMARK SMILES IDX 13 1 14 2 15 3 16 4 17 5 18 6 19 7 20 8 21 9 22 10 23 11
REMARK SMILES IDX 24 12 25 13 26 14 12 15 11 16 10 17 9 18 8 19 7 20 6 21 5 22
REMARK SMILES IDX 4 23 3 24 2 25 1 26
REMARK H PARENT
REMARK Flexibility Score: inf
ROOT
ATOM      1  C   UNL     1       4.048  -0.029  36.747  1.00  0.00     0.000 C 
ENDROOT
BRANCH   1   2
ATOM      2  C   UNL     1       5.536   0.212  36.432  1.00  0.00     0.000 C 
BRANCH   2   3
ATOM      3  C   UNL     1       6.322  -1.040  35.990  1.00  0.00     0.000 C 
BRANCH   3   4
ATOM      4  C   UNL     1       7.825  -0.816  35.747  1.00  0.00     0.000 C 
BRANCH   4   5
ATOM      5  C   UNL     1       8.120  -0.182  34.376  1.00  0.00     0.000 C 
BRANCH   5   6
ATOM      6  C   UNL     1       8.818   1.183  34.497  1.00  0.00     0.000 C 
BRANCH   6   7
ATOM      7  C   UNL     1       9.032   1.607  35.960  1.00  0.00     0.000 C 
BRANCH   7   8
ATOM      8  C   UNL     1      10.519   1.652  36.357  1.00  0.00     0.000 C 
BRANCH   8   9
ATOM      9  C   UNL     1      11.489   1.064  35.316  1.00  0.00     0.000 C 
BRANCH   9  10
ATOM     10  C   UNL     1      12.963   1.333  35.655  1.00  0.00     0.006 C 
BRANCH  10  11
ATOM     11  C   UNL     1      13.254   2.836  35.705  1.00  0.00     0.053 C 
BRANCH  11  12
ATOM     12  C   UNL     1      13.080   3.446  34.349  1.00  0.00     0.041 C 
ATOM     13  O   UNL     1      13.822   3.091  33.396  1.00  0.00    -0.550 OA
ATOM     14  O   UNL     1      12.060   4.364  34.126  1.00  0.00    -0.550 OA
ENDBRANCH  11  12
ENDBRANCH  10  11
ENDBRANCH   9  10
ENDBRANCH   8   9
ENDBRANCH   7   8
ENDBRANCH   6   7
ENDBRANCH   5   6
ENDBRANCH   4   5
ENDBRANCH   3   4
ENDBRANCH   2   3
ENDBRANCH   1   2
BRANCH   1  15
ATOM     15  C   UNL     1       3.732   0.072  38.247  1.00  0.00     0.000 C 
BRANCH  15  16
ATOM     16  C   UNL     1       2.546  -0.831  38.621  1.00  0.00     0.000 C 
BRANCH  16  17
ATOM     17  C   UNL     1       2.438  -1.071  40.136  1.00  0.00     0.000 C 
BRANCH  17  18
ATOM     18  C   UNL     1       2.360  -2.562  40.495  1.00  0.00    -0.000 C 
BRANCH  18  19
ATOM     19  C   UNL     1       3.439  -3.364  39.754  1.00  0.00    -0.000 C 
BRANCH  19  20
ATOM     20  C   UNL     1       2.829  -4.585  39.049  1.00  0.00    -0.000 C 
BRANCH  20  21
ATOM     21  C   UNL     1       3.712  -5.116  37.909  1.00  0.00    -0.000 C 
BRANCH  21  22
ATOM     22  C   UNL     1       4.520  -4.002  37.220  1.00  0.00    -0.000 C 
BRANCH  22  23
ATOM     23  C   UNL     1       4.183  -3.869  35.726  1.00  0.00    -0.000 C 
BRANCH  23  24
ATOM     24  C   UNL     1       4.971  -4.861  34.851  1.00  0.00    -0.000 C 
BRANCH  24  25
ATOM     25  C   UNL     1       6.442  -4.984  35.278  1.00  0.00    -0.003 C 
ATOM     26  C   UNL     1       6.928  -6.432  35.331  1.00  0.00     0.004 C 
ENDBRANCH  24  25
ENDBRANCH  23  24
ENDBRANCH  22  23
ENDBRANCH  21  22
ENDBRANCH  20  21
ENDBRANCH  19  20
ENDBRANCH  18  19
ENDBRANCH  17  18
ENDBRANCH  16  17
ENDBRANCH  15  16
ENDBRANCH   1  15
TORSDOF 22
ENDMDL
MODEL 5
REMARK VINA RESULT:    -5.565      2.078      3.825
REMARK INTER + INTRA:         -15.137
REMARK INTER:                 -12.655
REMARK INTRA:                  -2.482
REMARK UNBOUND:                -2.415
REMARK SMILES CCCCCCCCCCCCCCCCCCCCCCCC(=O)[O-]
REMARK SMILES IDX 13 1 14 2 15 3 16 4 17 5 18 6 19 7 20 8 21 9 22 10 23 11
REMARK SMILES IDX 24 12 25 13 26 14 12 15 11 16 10 17 9 18 8 19 7 20 6 21 5 22
REMARK SMILES IDX 4 23 3 24 2 25 1 26
REMARK H PARENT
REMARK Flexibility Score: inf
ROOT
ATOM      1  C   UNL     1       3.886   0.006  37.966  1.00  0.00     0.000 C 
ENDROOT
BRANCH   1   2
ATOM      2  C   UNL     1       4.657   0.150  36.640  1.00  0.00     0.000 C 
BRANCH   2   3
ATOM      3  C   UNL     1       5.636  -0.999  36.324  1.00  0.00     0.000 C 
BRANCH   3   4
ATOM      4  C   UNL     1       6.960  -0.568  35.668  1.00  0.00     0.000 C 
BRANCH   4   5
ATOM      5  C   UNL     1       7.476   0.782  36.194  1.00  0.00     0.000 C 
BRANCH   5   6
ATOM      6  C   UNL     1       8.925   1.067  35.765  1.00  0.00     0.000 C 
BRANCH   6   7
ATOM      7  C   UNL     1       9.008   1.738  34.383  1.00  0.00     0.000 C 
BRANCH   7   8
ATOM      8  C   UNL     1      10.167   1.199  33.526  1.00  0.00     0.000 C 
BRANCH   8   9
ATOM      9  C   UNL     1      10.906  -0.015  34.119  1.00  0.00     0.000 C 
BRANCH   9  10
ATOM     10  C   UNL     1      12.408   0.240  34.320  1.00  0.00     0.006 C 
BRANCH  10  11
ATOM     11  C   UNL     1      12.656   1.171  35.511  1.00  0.00     0.053 C 
BRANCH  11  12
ATOM     12  C   UNL     1      13.251   2.463  35.048  1.00  0.00     0.041 C 
ATOM     13  O   UNL     1      13.591   2.609  33.845  1.00  0.00    -0.550 OA
ATOM     14  O   UNL     1      13.376   3.527  35.935  1.00  0.00    -0.550 OA
ENDBRANCH  11  12
ENDBRANCH  10  11
ENDBRANCH   9  10
ENDBRANCH   8   9
ENDBRANCH   7   8
ENDBRANCH   6   7
ENDBRANCH   5   6
ENDBRANCH   4   5
ENDBRANCH   3   4
ENDBRANCH   2   3
ENDBRANCH   1   2
BRANCH   1  15
ATOM     15  C   UNL     1       2.369  -0.115  37.765  1.00  0.00     0.000 C 
BRANCH  15  16
ATOM     16  C   UNL     1       1.780  -1.210  38.668  1.00  0.00     0.000 C 
BRANCH  16  17
ATOM     17  C   UNL     1       2.708  -1.576  39.838  1.00  0.00     0.000 C 
BRANCH  17  18
ATOM     18  C   UNL     1       2.040  -1.379  41.207  1.00  0.00    -0.000 C 
BRANCH  18  19
ATOM     19  C   UNL     1       0.826  -2.304  41.366  1.00  0.00    -0.000 C 
BRANCH  19  20
ATOM     20  C   UNL     1       1.263  -3.776  41.439  1.00  0.00    -0.000 C 
BRANCH  20  21
ATOM     21  C   UNL     1       0.338  -4.710  40.643  1.00  0.00    -0.000 C 
BRANCH  21  22
ATOM     22  C   UNL     1       1.114  -5.670  39.725  1.00  0.00    -0.000 C 
BRANCH  22  23
ATOM     23  C   UNL     1       1.847  -4.935  38.590  1.00  0.00    -0.000 C 
BRANCH  23  24
ATOM     24  C   UNL     1       3.366  -5.184  38.607  1.00  0.00    -0.000 C 
BRANCH  24  25
ATOM     25  C   UNL     1       4.145  -4.128  37.806  1.00  0.00    -0.003 C 
ATOM     26  C   UNL     1       4.435  -4.565  36.370  1.00  0.00     0.004 C 
ENDBRANCH  24  25
ENDBRANCH  23  24
ENDBRANCH  22  23
ENDBRANCH  21  22
ENDBRANCH  20  21
ENDBRANCH  19  20
ENDBRANCH  18  19
ENDBRANCH  17  18
ENDBRANCH  16  17
ENDBRANCH  15  16
ENDBRANCH   1  15
TORSDOF 22
ENDMDL
MODEL 6
REMARK VINA RESULT:    -5.562      2.509      5.745
REMARK INTER + INTRA:         -15.131
REMARK INTER:                 -12.178
REMARK INTRA:                  -2.953
REMARK UNBOUND:                -2.415
REMARK SMILES CCCCCCCCCCCCCCCCCCCCCCCC(=O)[O-]
REMARK SMILES IDX 13 1 14 2 15 3 16 4 17 5 18 6 19 7 20 8 21 9 22 10 23 11
REMARK SMILES IDX 24 12 25 13 26 14 12 15 11 16 10 17 9 18 8 19 7 20 6 21 5 22
REMARK SMILES IDX 4 23 3 24 2 25 1 26
REMARK H PARENT
REMARK Flexibility Score: inf
ROOT
ATOM      1  C   UNL     1       2.774  -1.543  39.956  1.00  0.00     0.000 C 
ENDROOT
BRANCH   1   2
ATOM      2  C   UNL     1       1.814  -1.257  38.786  1.00  0.00     0.000 C 
BRANCH   2   3
ATOM      3  C   UNL     1       2.238  -0.099  37.860  1.00  0.00     0.000 C 
BRANCH   3   4
ATOM      4  C   UNL     1       3.744   0.223  37.863  1.00  0.00     0.000 C 
BRANCH   4   5
ATOM      5  C   UNL     1       4.519  -0.539  36.774  1.00  0.00     0.000 C 
BRANCH   5   6
ATOM      6  C   UNL     1       5.788   0.205  36.325  1.00  0.00     0.000 C 
BRANCH   6   7
ATOM      7  C   UNL     1       6.823  -0.734  35.681  1.00  0.00     0.000 C 
BRANCH   7   8
ATOM      8  C   UNL     1       8.272  -0.258  35.890  1.00  0.00     0.000 C 
BRANCH   8   9
ATOM      9  C   UNL     1       8.418   1.206  36.343  1.00  0.00     0.000 C 
BRANCH   9  10
ATOM     10  C   UNL     1       9.841   1.549  36.809  1.00  0.00     0.006 C 
BRANCH  10  11
ATOM     11  C   UNL     1      10.670   2.139  35.665  1.00  0.00     0.053 C 
BRANCH  11  12
ATOM     12  C   UNL     1      11.797   1.220  35.309  1.00  0.00     0.041 C 
ATOM     13  O   UNL     1      11.676   0.411  34.352  1.00  0.00    -0.550 OA
ATOM     14  O   UNL     1      13.001   1.299  35.999  1.00  0.00    -0.550 OA
ENDBRANCH  11  12
ENDBRANCH  10  11
ENDBRANCH   9  10
ENDBRANCH   8   9
ENDBRANCH   7   8
ENDBRANCH   6   7
ENDBRANCH   5   6
ENDBRANCH   4   5
ENDBRANCH   3   4
ENDBRANCH   2   3
ENDBRANCH   1   2
BRANCH   1  15
ATOM     15  C   UNL     1       3.139  -3.030  40.078  1.00  0.00     0.000 C 
BRANCH  15  16
ATOM     16  C   UNL     1       2.457  -3.856  38.977  1.00  0.00     0.000 C 
BRANCH  16  17
ATOM     17  C   UNL     1       3.443  -4.342  37.903  1.00  0.00     0.000 C 
BRANCH  17  18
ATOM     18  C   UNL     1       2.850  -4.291  36.487  1.00  0.00    -0.000 C 
BRANCH  18  19
ATOM     19  C   UNL     1       3.954  -4.137  35.433  1.00  0.00    -0.000 C 
BRANCH  19  20
ATOM     20  C   UNL     1       5.330  -3.977  36.097  1.00  0.00    -0.000 C 
BRANCH  20  21
ATOM     21  C   UNL     1       6.419  -4.824  35.419  1.00  0.00    -0.000 C 
BRANCH  21  22
ATOM     22  C   UNL     1       5.856  -5.735  34.314  1.00  0.00    -0.000 C 
BRANCH  22  23
ATOM     23  C   UNL     1       5.832  -7.216  34.727  1.00  0.00    -0.000 C 
BRANCH  23  24
ATOM     24  C   UNL     1       6.137  -7.419  36.222  1.00  0.00    -0.000 C 
BRANCH  24  25
ATOM     25  C   UNL     1       4.864  -7.614  37.061  1.00  0.00    -0.003 C 
ATOM     26  C   UNL     1       3.739  -8.300  36.287  1.00  0.00     0.004 C 
ENDBRANCH  24  25
ENDBRANCH  23  24
ENDBRANCH  22  23
ENDBRANCH  21  22
ENDBRANCH  20  21
ENDBRANCH  19  20
ENDBRANCH  18  19
ENDBRANCH  17  18
ENDBRANCH  16  17
ENDBRANCH  15  16
ENDBRANCH   1  15
TORSDOF 22
ENDMDL
MODEL 7
REMARK VINA RESULT:    -5.562      1.691      3.758
REMARK INTER + INTRA:         -15.131
REMARK INTER:                 -13.208
REMARK INTRA:                  -1.923
REMARK UNBOUND:                -2.415
REMARK SMILES CCCCCCCCCCCCCCCCCCCCCCCC(=O)[O-]
REMARK SMILES IDX 13 1 14 2 15 3 16 4 17 5 18 6 19 7 20 8 21 9 22 10 23 11
REMARK SMILES IDX 24 12 25 13 26 14 12 15 11 16 10 17 9 18 8 19 7 20 6 21 5 22
REMARK SMILES IDX 4 23 3 24 2 25 1 26
REMARK H PARENT
REMARK Flexibility Score: inf
ROOT
ATOM      1  C   UNL     1       3.776   0.409  37.105  1.00  0.00     0.000 C 
ENDROOT
BRANCH   1   2
ATOM      2  C   UNL     1       5.009  -0.361  36.596  1.00  0.00     0.000 C 
BRANCH   2   3
ATOM      3  C   UNL     1       6.261   0.504  36.342  1.00  0.00     0.000 C 
BRANCH   3   4
ATOM      4  C   UNL     1       7.386  -0.190  35.553  1.00  0.00     0.000 C 
BRANCH   4   5
ATOM      5  C   UNL     1       8.733   0.545  35.662  1.00  0.00     0.000 C 
BRANCH   5   6
ATOM      6  C   UNL     1       8.948   1.553  34.521  1.00  0.00     0.000 C 
BRANCH   6   7
ATOM      7  C   UNL     1      10.042   1.104  33.537  1.00  0.00     0.000 C 
BRANCH   7   8
ATOM      8  C   UNL     1      10.988   0.048  34.136  1.00  0.00     0.000 C 
BRANCH   8   9
ATOM      9  C   UNL     1      12.384   0.568  34.523  1.00  0.00     0.000 C 
BRANCH   9  10
ATOM     10  C   UNL     1      12.374   1.401  35.814  1.00  0.00     0.006 C 
BRANCH  10  11
ATOM     11  C   UNL     1      13.273   2.635  35.682  1.00  0.00     0.053 C 
BRANCH  11  12
ATOM     12  C   UNL     1      12.449   3.855  35.416  1.00  0.00     0.041 C 
ATOM     13  O   UNL     1      11.891   4.010  34.298  1.00  0.00    -0.550 OA
ATOM     14  O   UNL     1      12.250   4.792  36.424  1.00  0.00    -0.550 OA
ENDBRANCH  11  12
ENDBRANCH  10  11
ENDBRANCH   9  10
ENDBRANCH   8   9
ENDBRANCH   7   8
ENDBRANCH   6   7
ENDBRANCH   5   6
ENDBRANCH   4   5
ENDBRANCH   3   4
ENDBRANCH   2   3
ENDBRANCH   1   2
BRANCH   1  15
ATOM     15  C   UNL     1       3.408   0.055  38.554  1.00  0.00     0.000 C 
BRANCH  15  16
ATOM     16  C   UNL     1       2.359  -1.066  38.596  1.00  0.00     0.000 C 
BRANCH  16  17
ATOM     17  C   UNL     1       2.674  -2.134  39.656  1.00  0.00     0.000 C 
BRANCH  17  18
ATOM     18  C   UNL     1       2.699  -3.555  39.075  1.00  0.00    -0.000 C 
BRANCH  18  19
ATOM     19  C   UNL     1       3.171  -3.545  37.615  1.00  0.00    -0.000 C 
BRANCH  19  20
ATOM     20  C   UNL     1       4.518  -4.268  37.468  1.00  0.00    -0.000 C 
BRANCH  20  21
ATOM     21  C   UNL     1       5.590  -3.396  36.796  1.00  0.00    -0.000 C 
BRANCH  21  22
ATOM     22  C   UNL     1       6.263  -4.099  35.605  1.00  0.00    -0.000 C 
BRANCH  22  23
ATOM     23  C   UNL     1       5.326  -4.231  34.393  1.00  0.00    -0.000 C 
BRANCH  23  24
ATOM     24  C   UNL     1       5.835  -5.251  33.359  1.00  0.00    -0.000 C 
BRANCH  24  25
ATOM     25  C   UNL     1       6.720  -6.338  33.989  1.00  0.00    -0.003 C 
ATOM     26  C   UNL     1       6.194  -7.752  33.740  1.00  0.00     0.004 C 
ENDBRANCH  24  25
ENDBRANCH  23  24
ENDBRANCH  22  23
ENDBRANCH  21  22
ENDBRANCH  20  21
ENDBRANCH  19  20
ENDBRANCH  18  19
ENDBRANCH  17  18
ENDBRANCH  16  17
ENDBRANCH  15  16
ENDBRANCH   1  15
TORSDOF 22
ENDMDL
MODEL 8
REMARK VINA RESULT:    -5.503      2.246      5.000
REMARK INTER + INTRA:         -14.995
REMARK INTER:                 -12.334
REMARK INTRA:                  -2.661
REMARK UNBOUND:                -2.415
REMARK SMILES CCCCCCCCCCCCCCCCCCCCCCCC(=O)[O-]
REMARK SMILES IDX 13 1 14 2 15 3 16 4 17 5 18 6 19 7 20 8 21 9 22 10 23 11
REMARK SMILES IDX 24 12 25 13 26 14 12 15 11 16 10 17 9 18 8 19 7 20 6 21 5 22
REMARK SMILES IDX 4 23 3 24 2 25 1 26
REMARK H PARENT
REMARK Flexibility Score: inf
ROOT
ATOM      1  C   UNL     1       2.788  -1.427  39.395  1.00  0.00     0.000 C 
ENDROOT
BRANCH   1   2
ATOM      2  C   UNL     1       2.089  -0.614  38.290  1.00  0.00     0.000 C 
BRANCH   2   3
ATOM      3  C   UNL     1       3.012   0.323  37.484  1.00  0.00     0.000 C 
BRANCH   3   4
ATOM      4  C   UNL     1       4.503  -0.057  37.498  1.00  0.00     0.000 C 
BRANCH   4   5
ATOM      5  C   UNL     1       5.208   0.240  36.164  1.00  0.00     0.000 C 
BRANCH   5   6
ATOM      6  C   UNL     1       6.714   0.504  36.338  1.00  0.00     0.000 C 
BRANCH   6   7
ATOM      7  C   UNL     1       7.581  -0.533  35.604  1.00  0.00     0.000 C 
BRANCH   7   8
ATOM      8  C   UNL     1       8.152  -0.002  34.277  1.00  0.00     0.000 C 
BRANCH   8   9
ATOM      9  C   UNL     1       8.772   1.406  34.352  1.00  0.00     0.000 C 
BRANCH   9  10
ATOM     10  C   UNL     1      10.112   1.429  35.102  1.00  0.00     0.006 C 
BRANCH  10  11
ATOM     11  C   UNL     1      11.141   0.520  34.423  1.00  0.00     0.053 C 
BRANCH  11  12
ATOM     12  C   UNL     1      12.524   1.055  34.624  1.00  0.00     0.041 C 
ATOM     13  O   UNL     1      13.240   0.623  35.566  1.00  0.00    -0.550 OA
ATOM     14  O   UNL     1      13.043   1.990  33.735  1.00  0.00    -0.550 OA
ENDBRANCH  11  12
ENDBRANCH  10  11
ENDBRANCH   9  10
ENDBRANCH   8   9
ENDBRANCH   7   8
ENDBRANCH   6   7
ENDBRANCH   5   6
ENDBRANCH   4   5
ENDBRANCH   3   4
ENDBRANCH   2   3
ENDBRANCH   1   2
BRANCH   1  15
ATOM     15  C   UNL     1       2.300  -1.061  40.804  1.00  0.00     0.000 C 
BRANCH  15  16
ATOM     16  C   UNL     1       1.881  -2.317  41.584  1.00  0.00     0.000 C 
BRANCH  16  17
ATOM     17  C   UNL     1       0.449  -2.769  41.255  1.00  0.00     0.000 C 
BRANCH  17  18
ATOM     18  C   UNL     1       0.404  -4.146  40.577  1.00  0.00    -0.000 C 
BRANCH  18  19
ATOM     19  C   UNL     1       0.208  -4.006  39.061  1.00  0.00    -0.000 C 
BRANCH  19  20
ATOM     20  C   UNL     1       1.231  -4.858  38.294  1.00  0.00    -0.000 C 
BRANCH  20  21
ATOM     21  C   UNL     1       2.611  -4.880  38.970  1.00  0.00    -0.000 C 
BRANCH  21  22
ATOM     22  C   UNL     1       3.755  -5.120  37.970  1.00  0.00    -0.000 C 
BRANCH  22  23
ATOM     23  C   UNL     1       4.561  -3.843  37.678  1.00  0.00    -0.000 C 
BRANCH  23  24
ATOM     24  C   UNL     1       4.625  -3.514  36.175  1.00  0.00    -0.000 C 
BRANCH  24  25
ATOM     25  C   UNL     1       6.025  -3.741  35.582  1.00  0.00    -0.003 C 
ATOM     26  C   UNL     1       6.327  -5.215  35.315  1.00  0.00     0.004 C 
ENDBRANCH  24  25
ENDBRANCH  23  24
ENDBRANCH  22  23
ENDBRANCH  21  22
ENDBRANCH  20  21
ENDBRANCH  19  20
ENDBRANCH  18  19
ENDBRANCH  17  18
ENDBRANCH  16  17
ENDBRANCH  15  16
ENDBRANCH   1  15
TORSDOF 22
ENDMDL
MODEL 9
REMARK VINA RESULT:    -5.496      2.465      5.459
REMARK INTER + INTRA:         -14.980
REMARK INTER:                 -12.328
REMARK INTRA:                  -2.653
REMARK UNBOUND:                -2.415
REMARK SMILES CCCCCCCCCCCCCCCCCCCCCCCC(=O)[O-]
REMARK SMILES IDX 13 1 14 2 15 3 16 4 17 5 18 6 19 7 20 8 21 9 22 10 23 11
REMARK SMILES IDX 24 12 25 13 26 14 12 15 11 16 10 17 9 18 8 19 7 20 6 21 5 22
REMARK SMILES IDX 4 23 3 24 2 25 1 26
REMARK H PARENT
REMARK Flexibility Score: inf
ROOT
ATOM      1  C   UNL     1       2.951  -1.943  39.313  1.00  0.00     0.000 C 
ENDROOT
BRANCH   1   2
ATOM      2  C   UNL     1       2.918  -1.343  37.895  1.00  0.00     0.000 C 
BRANCH   2   3
ATOM      3  C   UNL     1       3.663  -0.002  37.735  1.00  0.00     0.000 C 
BRANCH   3   4
ATOM      4  C   UNL     1       4.813  -0.012  36.711  1.00  0.00     0.000 C 
BRANCH   4   5
ATOM      5  C   UNL     1       5.325  -1.429  36.401  1.00  0.00     0.000 C 
BRANCH   5   6
ATOM      6  C   UNL     1       6.765  -1.430  35.861  1.00  0.00     0.000 C 
BRANCH   6   7
ATOM      7  C   UNL     1       7.303  -0.010  35.616  1.00  0.00     0.000 C 
BRANCH   7   8
ATOM      8  C   UNL     1       8.836   0.074  35.719  1.00  0.00     0.000 C 
BRANCH   8   9
ATOM      9  C   UNL     1       9.370   1.273  36.524  1.00  0.00     0.000 C 
BRANCH   9  10
ATOM     10  C   UNL     1      10.661   1.862  35.934  1.00  0.00     0.006 C 
BRANCH  10  11
ATOM     11  C   UNL     1      10.956   1.272  34.552  1.00  0.00     0.053 C 
BRANCH  11  12
ATOM     12  C   UNL     1      12.428   1.071  34.373  1.00  0.00     0.041 C 
ATOM     13  O   UNL     1      12.939  -0.064  34.557  1.00  0.00    -0.550 OA
ATOM     14  O   UNL     1      13.225   2.127  33.945  1.00  0.00    -0.550 OA
ENDBRANCH  11  12
ENDBRANCH  10  11
ENDBRANCH   9  10
ENDBRANCH   8   9
ENDBRANCH   7   8
ENDBRANCH   6   7
ENDBRANCH   5   6
ENDBRANCH   4   5
ENDBRANCH   3   4
ENDBRANCH   2   3
ENDBRANCH   1   2
BRANCH   1  15
ATOM     15  C   UNL     1       3.231  -3.453  39.317  1.00  0.00     0.000 C 
BRANCH  15  16
ATOM     16  C   UNL     1       3.377  -3.988  37.884  1.00  0.00     0.000 C 
BRANCH  16  17
ATOM     17  C   UNL     1       2.673  -5.340  37.681  1.00  0.00     0.000 C 
BRANCH  17  18
ATOM     18  C   UNL     1       3.480  -6.518  38.245  1.00  0.00    -0.000 C 
BRANCH  18  19
ATOM     19  C   UNL     1       3.952  -7.450  37.121  1.00  0.00    -0.000 C 
BRANCH  19  20
ATOM     20  C   UNL     1       5.485  -7.447  37.012  1.00  0.00    -0.000 C 
BRANCH  20  21
ATOM     21  C   UNL     1       5.977  -7.601  35.564  1.00  0.00    -0.000 C 
BRANCH  21  22
ATOM     22  C   UNL     1       6.753  -6.369  35.070  1.00  0.00    -0.000 C 
BRANCH  22  23
ATOM     23  C   UNL     1       6.043  -5.049  35.413  1.00  0.00    -0.000 C 
BRANCH  23  24
ATOM     24  C   UNL     1       5.282  -4.456  34.214  1.00  0.00    -0.000 C 
BRANCH  24  25
ATOM     25  C   UNL     1       3.791  -4.828  34.219  1.00  0.00    -0.003 C 
ATOM     26  C   UNL     1       3.177  -4.848  32.820  1.00  0.00     0.004 C 
ENDBRANCH  24  25
ENDBRANCH  23  24
ENDBRANCH  22  23
ENDBRANCH  21  22
ENDBRANCH  20  21
ENDBRANCH  19  20
ENDBRANCH  18  19
ENDBRANCH  17  18
ENDBRANCH  16  17
ENDBRANCH  15  16
ENDBRANCH   1  15
TORSDOF 22
ENDMDL
