MODEL 1
REMARK VINA RESULT:    -5.099      0.000      0.000
REMARK INTER + INTRA:         -12.376
REMARK INTER:                  -9.570
REMARK INTRA:                  -2.806
REMARK UNBOUND:                -2.806
REMARK SMILES CCCCCCCCC=CCCCCCCCC(=O)[O-]
REMARK SMILES IDX 10 1 9 2 11 3 12 4 13 5 14 6 15 7 16 8 17 9 18 10 19 11
REMARK SMILES IDX 20 12 8 13 7 14 6 15 5 16 4 17 3 18 2 19 1 20
REMARK H PARENT
REMARK Flexibility Score: inf
ROOT
ATOM      1  C   UNL     1     -37.891  38.533  42.475  1.00  0.00    -0.031 C 
ATOM      2  C   UNL     1     -37.307  37.345  42.722  1.00  0.00    -0.031 C 
ENDROOT
BRANCH   1   3
ATOM      3  C   UNL     1     -37.477  39.854  43.081  1.00  0.00     0.027 C 
BRANCH   3   4
ATOM      4  C   UNL     1     -38.511  40.424  44.064  1.00  0.00     0.004 C 
BRANCH   4   5
ATOM      5  C   UNL     1     -39.741  39.514  44.224  1.00  0.00     0.000 C 
BRANCH   5   6
ATOM      6  C   UNL     1     -39.966  39.102  45.695  1.00  0.00     0.000 C 
BRANCH   6   7
ATOM      7  C   UNL     1     -38.680  39.074  46.535  1.00  0.00     0.000 C 
BRANCH   7   8
ATOM      8  C   UNL     1     -38.579  37.836  47.439  1.00  0.00     0.006 C 
BRANCH   8   9
ATOM      9  C   UNL     1     -39.917  37.094  47.506  1.00  0.00     0.053 C 
BRANCH   9  10
ATOM     10  C   UNL     1     -40.451  37.093  48.904  1.00  0.00     0.041 C 
ATOM     11  O   UNL     1     -41.575  36.585  49.156  1.00  0.00    -0.550 OA
ATOM     12  O   UNL     1     -39.716  37.677  49.929  1.00  0.00    -0.550 OA
ENDBRANCH   9  10
ENDBRANCH   8   9
ENDBRANCH   7   8
ENDBRANCH   6   7
ENDBRANCH   5   6
ENDBRANCH   4   5
ENDBRANCH   3   4
ENDBRANCH   1   3
BRANCH   2  13
ATOM     13  C   UNL     1     -36.176  37.117  43.693  1.00  0.00     0.027 C 
BRANCH  13  14
ATOM     14  C   UNL     1     -36.556  36.024  44.703  1.00  0.00     0.004 C 
BRANCH  14  15
ATOM     15  C   UNL     1     -35.832  36.182  46.047  1.00  0.00     0.000 C 
BRANCH  15  16
ATOM     16  C   UNL     1     -34.895  37.398  46.077  1.00  0.00     0.000 C 
BRANCH  16  17
ATOM     17  C   UNL     1     -34.759  37.948  47.505  1.00  0.00    -0.000 C 
BRANCH  17  18
ATOM     18  C   UNL     1     -34.756  39.491  47.539  1.00  0.00    -0.000 C 
BRANCH  18  19
ATOM     19  C   UNL     1     -35.241  40.137  46.231  1.00  0.00    -0.003 C 
ATOM     20  C   UNL     1     -35.846  41.523  46.439  1.00  0.00     0.004 C 
ENDBRANCH  18  19
ENDBRANCH  17  18
ENDBRANCH  16  17
ENDBRANCH  15  16
ENDBRANCH  14  15
ENDBRANCH  13  14
ENDBRANCH   2  13
TORSDOF 15
ENDMDL
MODEL 2
REMARK VINA RESULT:    -5.031      1.220      2.482
REMARK INTER + INTRA:         -12.248
REMARK INTER:                  -9.657
REMARK INTRA:                  -2.591
REMARK UNBOUND:                -2.806
REMARK SMILES CCCCCCCCC=CCCCCCCCC(=O)[O-]
REMARK SMILES IDX 10 1 9 2 11 3 12 4 13 5 14 6 15 7 16 8 17 9 18 10 19 11
REMARK SMILES IDX 20 12 8 13 7 14 6 15 5 16 4 17 3 18 2 19 1 20
REMARK H PARENT
REMARK Flexibility Score: inf
ROOT
ATOM      1  C   UNL     1     -37.338  37.685  43.060  1.00  0.00    -0.031 C 
ATOM      2  C   UNL     1     -36.007  37.523  43.188  1.00  0.00    -0.031 C 
ENDROOT
BRANCH   1   3
ATOM      3  C   UNL     1     -38.023  38.941  42.573  1.00  0.00     0.027 C 
BRANCH   3   4
ATOM      4  C   UNL     1     -38.205  40.001  43.671  1.00  0.00     0.004 C 
BRANCH   4   5
ATOM      5  C   UNL     1     -39.509  39.814  44.464  1.00  0.00     0.000 C 
BRANCH   5   6
ATOM      6  C   UNL     1     -39.262  39.139  45.830  1.00  0.00     0.000 C 
BRANCH   6   7
ATOM      7  C   UNL     1     -40.528  38.546  46.468  1.00  0.00     0.000 C 
BRANCH   7   8
ATOM      8  C   UNL     1     -40.233  37.368  47.408  1.00  0.00     0.006 C 
BRANCH   8   9
ATOM      9  C   UNL     1     -39.870  37.861  48.811  1.00  0.00     0.053 C 
BRANCH   9  10
ATOM     10  C   UNL     1     -40.824  37.316  49.827  1.00  0.00     0.041 C 
ATOM     11  O   UNL     1     -41.606  38.087  50.443  1.00  0.00    -0.550 OA
ATOM     12  O   UNL     1     -40.832  35.956  50.113  1.00  0.00    -0.550 OA
ENDBRANCH   9  10
ENDBRANCH   8   9
ENDBRANCH   7   8
ENDBRANCH   6   7
ENDBRANCH   5   6
ENDBRANCH   4   5
ENDBRANCH   3   4
ENDBRANCH   1   3
BRANCH   2  13
ATOM     13  C   UNL     1     -34.972  38.586  42.923  1.00  0.00     0.027 C 
BRANCH  13  14
ATOM     14  C   UNL     1     -34.059  38.754  44.147  1.00  0.00     0.004 C 
BRANCH  14  15
ATOM     15  C   UNL     1     -34.333  40.054  44.917  1.00  0.00     0.000 C 
BRANCH  15  16
ATOM     16  C   UNL     1     -35.458  39.904  45.951  1.00  0.00     0.000 C 
BRANCH  16  17
ATOM     17  C   UNL     1     -35.076  38.877  47.028  1.00  0.00    -0.000 C 
BRANCH  17  18
ATOM     18  C   UNL     1     -36.193  37.840  47.270  1.00  0.00    -0.000 C 
BRANCH  18  19
ATOM     19  C   UNL     1     -35.901  36.464  46.647  1.00  0.00    -0.003 C 
ATOM     20  C   UNL     1     -37.168  35.693  46.286  1.00  0.00     0.004 C 
ENDBRANCH  18  19
ENDBRANCH  17  18
ENDBRANCH  16  17
ENDBRANCH  15  16
ENDBRANCH  14  15
ENDBRANCH  13  14
ENDBRANCH   2  13
TORSDOF 15
ENDMDL
MODEL 3
REMARK VINA RESULT:    -5.020      1.891      3.787
REMARK INTER + INTRA:         -12.228
REMARK INTER:                  -9.139
REMARK INTRA:                  -3.089
REMARK UNBOUND:                -2.806
REMARK SMILES CCCCCCCCC=CCCCCCCCC(=O)[O-]
REMARK SMILES IDX 10 1 9 2 11 3 12 4 13 5 14 6 15 7 16 8 17 9 18 10 19 11
REMARK SMILES IDX 20 12 8 13 7 14 6 15 5 16 4 17 3 18 2 19 1 20
REMARK H PARENT
REMARK Flexibility Score: inf
ROOT
ATOM      1  C   UNL     1     -34.619  38.612  42.616  1.00  0.00    -0.031 C 
ATOM      2  C   UNL     1     -35.796  38.603  41.960  1.00  0.00    -0.031 C 
ENDROOT
BRANCH   1   3
ATOM      3  C   UNL     1     -34.374  38.009  43.980  1.00  0.00     0.027 C 
BRANCH   3   4
ATOM      4  C   UNL     1     -34.639  38.988  45.135  1.00  0.00     0.004 C 
BRANCH   4   5
ATOM      5  C   UNL     1     -35.121  38.281  46.412  1.00  0.00     0.000 C 
BRANCH   5   6
ATOM      6  C   UNL     1     -35.833  36.948  46.100  1.00  0.00     0.000 C 
BRANCH   6   7
ATOM      7  C   UNL     1     -37.367  37.040  46.133  1.00  0.00     0.000 C 
BRANCH   7   8
ATOM      8  C   UNL     1     -37.897  37.820  47.345  1.00  0.00     0.006 C 
BRANCH   8   9
ATOM      9  C   UNL     1     -39.354  38.239  47.135  1.00  0.00     0.053 C 
BRANCH   9  10
ATOM     10  C   UNL     1     -40.272  37.401  47.969  1.00  0.00     0.041 C 
ATOM     11  O   UNL     1     -40.333  36.156  47.791  1.00  0.00    -0.550 OA
ATOM     12  O   UNL     1     -41.080  37.999  48.928  1.00  0.00    -0.550 OA
ENDBRANCH   9  10
ENDBRANCH   8   9
ENDBRANCH   7   8
ENDBRANCH   6   7
ENDBRANCH   5   6
ENDBRANCH   4   5
ENDBRANCH   3   4
ENDBRANCH   1   3
BRANCH   2  13
ATOM     13  C   UNL     1     -37.087  38.042  42.499  1.00  0.00     0.027 C 
BRANCH  13  14
ATOM     14  C   UNL     1     -38.197  39.100  42.422  1.00  0.00     0.004 C 
BRANCH  14  15
ATOM     15  C   UNL     1     -38.731  39.501  43.805  1.00  0.00     0.000 C 
BRANCH  15  16
ATOM     16  C   UNL     1     -37.831  40.524  44.512  1.00  0.00     0.000 C 
BRANCH  16  17
ATOM     17  C   UNL     1     -37.554  41.731  43.602  1.00  0.00    -0.000 C 
BRANCH  17  18
ATOM     18  C   UNL     1     -36.052  42.077  43.530  1.00  0.00    -0.000 C 
BRANCH  18  19
ATOM     19  C   UNL     1     -35.575  42.457  42.118  1.00  0.00    -0.003 C 
ATOM     20  C   UNL     1     -34.105  42.126  41.876  1.00  0.00     0.004 C 
ENDBRANCH  18  19
ENDBRANCH  17  18
ENDBRANCH  16  17
ENDBRANCH  15  16
ENDBRANCH  14  15
ENDBRANCH  13  14
ENDBRANCH   2  13
TORSDOF 15
ENDMDL
MODEL 4
REMARK VINA RESULT:    -4.981      4.345      6.182
REMARK INTER + INTRA:         -12.154
REMARK INTER:                  -9.162
REMARK INTRA:                  -2.992
REMARK UNBOUND:                -2.806
REMARK SMILES CCCCCCCCC=CCCCCCCCC(=O)[O-]
REMARK SMILES IDX 10 1 9 2 11 3 12 4 13 5 14 6 15 7 16 8 17 9 18 10 19 11
REMARK SMILES IDX 20 12 8 13 7 14 6 15 5 16 4 17 3 18 2 19 1 20
REMARK H PARENT
REMARK Flexibility Score: inf
ROOT
ATOM      1  C   UNL     1     -36.259  38.611  41.915  1.00  0.00    -0.031 C 
ATOM      2  C   UNL     1     -34.940  38.655  42.183  1.00  0.00    -0.031 C 
ENDROOT
BRANCH   1   3
ATOM      3  C   UNL     1     -37.335  38.181  42.886  1.00  0.00     0.027 C 
BRANCH   3   4
ATOM      4  C   UNL     1     -38.422  39.245  43.102  1.00  0.00     0.004 C 
BRANCH   4   5
ATOM      5  C   UNL     1     -38.054  40.253  44.204  1.00  0.00     0.000 C 
BRANCH   5   6
ATOM      6  C   UNL     1     -37.776  41.659  43.630  1.00  0.00     0.000 C 
BRANCH   6   7
ATOM      7  C   UNL     1     -36.304  42.090  43.727  1.00  0.00     0.000 C 
BRANCH   7   8
ATOM      8  C   UNL     1     -35.875  43.026  42.588  1.00  0.00     0.006 C 
BRANCH   8   9
ATOM      9  C   UNL     1     -35.468  42.229  41.345  1.00  0.00     0.053 C 
BRANCH   9  10
ATOM     10  C   UNL     1     -34.000  42.365  41.087  1.00  0.00     0.041 C 
ATOM     11  O   UNL     1     -33.167  41.761  41.813  1.00  0.00    -0.550 OA
ATOM     12  O   UNL     1     -33.549  43.182  40.057  1.00  0.00    -0.550 OA
ENDBRANCH   9  10
ENDBRANCH   8   9
ENDBRANCH   7   8
ENDBRANCH   6   7
ENDBRANCH   5   6
ENDBRANCH   4   5
ENDBRANCH   3   4
ENDBRANCH   1   3
BRANCH   2  13
ATOM     13  C   UNL     1     -34.301  38.226  43.479  1.00  0.00     0.027 C 
BRANCH  13  14
ATOM     14  C   UNL     1     -34.047  39.448  44.374  1.00  0.00     0.004 C 
BRANCH  14  15
ATOM     15  C   UNL     1     -34.747  39.342  45.736  1.00  0.00     0.000 C 
BRANCH  15  16
ATOM     16  C   UNL     1     -35.381  37.963  45.970  1.00  0.00     0.000 C 
BRANCH  16  17
ATOM     17  C   UNL     1     -36.572  38.067  46.935  1.00  0.00    -0.000 C 
BRANCH  17  18
ATOM     18  C   UNL     1     -37.760  37.185  46.495  1.00  0.00    -0.000 C 
BRANCH  18  19
ATOM     19  C   UNL     1     -39.127  37.723  46.949  1.00  0.00    -0.003 C 
ATOM     20  C   UNL     1     -39.986  36.664  47.635  1.00  0.00     0.004 C 
ENDBRANCH  18  19
ENDBRANCH  17  18
ENDBRANCH  16  17
ENDBRANCH  15  16
ENDBRANCH  14  15
ENDBRANCH  13  14
ENDBRANCH   2  13
TORSDOF 15
ENDMDL
MODEL 5
REMARK VINA RESULT:    -4.979      7.033      9.028
REMARK INTER + INTRA:         -12.151
REMARK INTER:                  -9.464
REMARK INTRA:                  -2.687
REMARK UNBOUND:                -2.806
REMARK SMILES CCCCCCCCC=CCCCCCCCC(=O)[O-]
REMARK SMILES IDX 10 1 9 2 11 3 12 4 13 5 14 6 15 7 16 8 17 9 18 10 19 11
REMARK SMILES IDX 20 12 8 13 7 14 6 15 5 16 4 17 3 18 2 19 1 20
REMARK H PARENT
REMARK Flexibility Score: inf
ROOT
ATOM      1  C   UNL     1     -36.662  39.869  40.387  1.00  0.00    -0.031 C 
ATOM      2  C   UNL     1     -35.624  39.157  39.910  1.00  0.00    -0.031 C 
ENDROOT
BRANCH   1   3
ATOM      3  C   UNL     1     -36.652  41.357  40.655  1.00  0.00     0.027 C 
BRANCH   3   4
ATOM      4  C   UNL     1     -36.220  41.715  42.086  1.00  0.00     0.004 C 
BRANCH   4   5
ATOM      5  C   UNL     1     -35.172  42.841  42.124  1.00  0.00     0.000 C 
BRANCH   5   6
ATOM      6  C   UNL     1     -35.173  43.674  40.825  1.00  0.00     0.000 C 
BRANCH   6   7
ATOM      7  C   UNL     1     -33.927  43.461  39.950  1.00  0.00     0.000 C 
BRANCH   7   8
ATOM      8  C   UNL     1     -34.115  43.950  38.507  1.00  0.00     0.006 C 
BRANCH   8   9
ATOM      9  C   UNL     1     -33.962  45.471  38.417  1.00  0.00     0.053 C 
BRANCH   9  10
ATOM     10  C   UNL     1     -33.117  45.850  37.242  1.00  0.00     0.041 C 
ATOM     11  O   UNL     1     -33.600  46.540  36.306  1.00  0.00    -0.550 OA
ATOM     12  O   UNL     1     -31.798  45.418  37.167  1.00  0.00    -0.550 OA
ENDBRANCH   9  10
ENDBRANCH   8   9
ENDBRANCH   7   8
ENDBRANCH   6   7
ENDBRANCH   5   6
ENDBRANCH   4   5
ENDBRANCH   3   4
ENDBRANCH   1   3
BRANCH   2  13
ATOM     13  C   UNL     1     -34.252  39.709  39.615  1.00  0.00     0.027 C 
BRANCH  13  14
ATOM     14  C   UNL     1     -33.221  39.113  40.585  1.00  0.00     0.004 C 
BRANCH  14  15
ATOM     15  C   UNL     1     -33.130  39.892  41.905  1.00  0.00     0.000 C 
BRANCH  15  16
ATOM     16  C   UNL     1     -33.086  38.972  43.134  1.00  0.00     0.000 C 
BRANCH  16  17
ATOM     17  C   UNL     1     -34.358  38.114  43.219  1.00  0.00    -0.000 C 
BRANCH  17  18
ATOM     18  C   UNL     1     -35.443  38.762  44.104  1.00  0.00    -0.000 C 
BRANCH  18  19
ATOM     19  C   UNL     1     -36.874  38.339  43.732  1.00  0.00    -0.003 C 
ATOM     20  C   UNL     1     -36.920  37.053  42.911  1.00  0.00     0.004 C 
ENDBRANCH  18  19
ENDBRANCH  17  18
ENDBRANCH  16  17
ENDBRANCH  15  16
ENDBRANCH  14  15
ENDBRANCH  13  14
ENDBRANCH   2  13
TORSDOF 15
ENDMDL
MODEL 6
REMARK VINA RESULT:    -4.972      3.425      5.118
REMARK INTER + INTRA:         -12.138
REMARK INTER:                  -8.718
REMARK INTRA:                  -3.420
REMARK UNBOUND:                -2.806
REMARK SMILES CCCCCCCCC=CCCCCCCCC(=O)[O-]
REMARK SMILES IDX 10 1 9 2 11 3 12 4 13 5 14 6 15 7 16 8 17 9 18 10 19 11
REMARK SMILES IDX 20 12 8 13 7 14 6 15 5 16 4 17 3 18 2 19 1 20
REMARK H PARENT
REMARK Flexibility Score: inf
ROOT
ATOM      1  C   UNL     1     -33.594  39.338  43.971  1.00  0.00    -0.031 C 
ATOM      2  C   UNL     1     -34.038  38.608  42.929  1.00  0.00    -0.031 C 
ENDROOT
BRANCH   1   3
ATOM      3  C   UNL     1     -34.427  40.310  44.775  1.00  0.00     0.027 C 
BRANCH   3   4
ATOM      4  C   UNL     1     -34.452  41.728  44.181  1.00  0.00     0.004 C 
BRANCH   4   5
ATOM      5  C   UNL     1     -35.880  42.261  43.978  1.00  0.00     0.000 C 
BRANCH   5   6
ATOM      6  C   UNL     1     -36.935  41.353  44.646  1.00  0.00     0.000 C 
BRANCH   6   7
ATOM      7  C   UNL     1     -38.088  40.950  43.713  1.00  0.00     0.000 C 
BRANCH   7   8
ATOM      8  C   UNL     1     -38.807  39.671  44.163  1.00  0.00     0.006 C 
BRANCH   8   9
ATOM      9  C   UNL     1     -37.849  38.734  44.905  1.00  0.00     0.053 C 
BRANCH   9  10
ATOM     10  C   UNL     1     -38.429  38.318  46.221  1.00  0.00     0.041 C 
ATOM     11  O   UNL     1     -39.057  39.148  46.930  1.00  0.00    -0.550 OA
ATOM     12  O   UNL     1     -38.255  37.017  46.676  1.00  0.00    -0.550 OA
ENDBRANCH   9  10
ENDBRANCH   8   9
ENDBRANCH   7   8
ENDBRANCH   6   7
ENDBRANCH   5   6
ENDBRANCH   4   5
ENDBRANCH   3   4
ENDBRANCH   1   3
BRANCH   2  13
ATOM     13  C   UNL     1     -35.427  38.677  42.348  1.00  0.00     0.027 C 
BRANCH  13  14
ATOM     14  C   UNL     1     -35.366  39.131  40.882  1.00  0.00     0.004 C 
BRANCH  14  15
ATOM     15  C   UNL     1     -36.218  40.379  40.612  1.00  0.00     0.000 C 
BRANCH  15  16
ATOM     16  C   UNL     1     -35.374  41.655  40.478  1.00  0.00     0.000 C 
BRANCH  16  17
ATOM     17  C   UNL     1     -33.925  41.313  40.098  1.00  0.00    -0.000 C 
BRANCH  17  18
ATOM     18  C   UNL     1     -32.910  42.300  40.713  1.00  0.00    -0.000 C 
BRANCH  18  19
ATOM     19  C   UNL     1     -31.866  41.626  41.618  1.00  0.00    -0.003 C 
ATOM     20  C   UNL     1     -31.323  40.324  41.033  1.00  0.00     0.004 C 
ENDBRANCH  18  19
ENDBRANCH  17  18
ENDBRANCH  16  17
ENDBRANCH  15  16
ENDBRANCH  14  15
ENDBRANCH  13  14
ENDBRANCH   2  13
TORSDOF 15
ENDMDL
MODEL 7
REMARK VINA RESULT:    -4.923      2.323      4.174
REMARK INTER + INTRA:         -12.047
REMARK INTER:                  -9.312
REMARK INTRA:                  -2.734
REMARK UNBOUND:                -2.806
REMARK SMILES CCCCCCCCC=CCCCCCCCC(=O)[O-]
REMARK SMILES IDX 10 1 9 2 11 3 12 4 13 5 14 6 15 7 16 8 17 9 18 10 19 11
REMARK SMILES IDX 20 12 8 13 7 14 6 15 5 16 4 17 3 18 2 19 1 20
REMARK H PARENT
REMARK Flexibility Score: inf
ROOT
ATOM      1  C   UNL     1     -36.464  38.611  42.181  1.00  0.00    -0.031 C 
ATOM      2  C   UNL     1     -37.303  39.664  42.155  1.00  0.00    -0.031 C 
ENDROOT
BRANCH   1   3
ATOM      3  C   UNL     1     -36.198  37.734  43.384  1.00  0.00     0.027 C 
BRANCH   3   4
ATOM      4  C   UNL     1     -34.774  37.883  43.943  1.00  0.00     0.004 C 
BRANCH   4   5
ATOM      5  C   UNL     1     -34.737  38.660  45.270  1.00  0.00     0.000 C 
BRANCH   5   6
ATOM      6  C   UNL     1     -34.742  37.717  46.491  1.00  0.00     0.000 C 
BRANCH   6   7
ATOM      7  C   UNL     1     -36.143  37.460  47.071  1.00  0.00     0.000 C 
BRANCH   7   8
ATOM      8  C   UNL     1     -37.070  38.679  46.966  1.00  0.00     0.006 C 
BRANCH   8   9
ATOM      9  C   UNL     1     -38.438  38.282  46.403  1.00  0.00     0.053 C 
BRANCH   9  10
ATOM     10  C   UNL     1     -39.472  38.269  47.485  1.00  0.00     0.041 C 
ATOM     11  O   UNL     1     -40.696  38.332  47.196  1.00  0.00    -0.550 OA
ATOM     12  O   UNL     1     -39.082  38.215  48.818  1.00  0.00    -0.550 OA
ENDBRANCH   9  10
ENDBRANCH   8   9
ENDBRANCH   7   8
ENDBRANCH   6   7
ENDBRANCH   5   6
ENDBRANCH   4   5
ENDBRANCH   3   4
ENDBRANCH   1   3
BRANCH   2  13
ATOM     13  C   UNL     1     -38.078  40.188  43.337  1.00  0.00     0.027 C 
BRANCH  13  14
ATOM     14  C   UNL     1     -37.654  41.630  43.652  1.00  0.00     0.004 C 
BRANCH  14  15
ATOM     15  C   UNL     1     -36.335  41.702  44.436  1.00  0.00     0.000 C 
BRANCH  15  16
ATOM     16  C   UNL     1     -35.354  42.728  43.851  1.00  0.00     0.000 C 
BRANCH  16  17
ATOM     17  C   UNL     1     -34.730  42.206  42.548  1.00  0.00    -0.000 C 
BRANCH  17  18
ATOM     18  C   UNL     1     -33.571  41.221  42.808  1.00  0.00    -0.000 C 
BRANCH  18  19
ATOM     19  C   UNL     1     -32.690  41.609  44.007  1.00  0.00    -0.003 C 
ATOM     20  C   UNL     1     -31.197  41.475  43.716  1.00  0.00     0.004 C 
ENDBRANCH  18  19
ENDBRANCH  17  18
ENDBRANCH  16  17
ENDBRANCH  15  16
ENDBRANCH  14  15
ENDBRANCH  13  14
ENDBRANCH   2  13
TORSDOF 15
ENDMDL
MODEL 8
REMARK VINA RESULT:    -4.912      3.058      5.032
REMARK INTER + INTRA:         -12.025
REMARK INTER:                  -8.955
REMARK INTRA:                  -3.070
REMARK UNBOUND:                -2.806
REMARK SMILES CCCCCCCCC=CCCCCCCCC(=O)[O-]
REMARK SMILES IDX 10 1 9 2 11 3 12 4 13 5 14 6 15 7 16 8 17 9 18 10 19 11
REMARK SMILES IDX 20 12 8 13 7 14 6 15 5 16 4 17 3 18 2 19 1 20
REMARK H PARENT
REMARK Flexibility Score: inf
ROOT
ATOM      1  C   UNL     1     -34.487  38.687  43.643  1.00  0.00    -0.031 C 
ATOM      2  C   UNL     1     -34.044  39.702  44.409  1.00  0.00    -0.031 C 
ENDROOT
BRANCH   1   3
ATOM      3  C   UNL     1     -34.621  38.722  42.138  1.00  0.00     0.027 C 
BRANCH   3   4
ATOM      4  C   UNL     1     -36.058  38.984  41.659  1.00  0.00     0.004 C 
BRANCH   4   5
ATOM      5  C   UNL     1     -37.113  38.320  42.560  1.00  0.00     0.000 C 
BRANCH   5   6
ATOM      6  C   UNL     1     -38.126  39.344  43.113  1.00  0.00     0.000 C 
BRANCH   6   7
ATOM      7  C   UNL     1     -38.526  39.093  44.576  1.00  0.00     0.000 C 
BRANCH   7   8
ATOM      8  C   UNL     1     -37.603  39.797  45.581  1.00  0.00     0.006 C 
BRANCH   8   9
ATOM      9  C   UNL     1     -37.015  38.797  46.581  1.00  0.00     0.053 C 
BRANCH   9  10
ATOM     10  C   UNL     1     -38.091  37.932  47.159  1.00  0.00     0.041 C 
ATOM     11  O   UNL     1     -38.111  36.696  46.922  1.00  0.00    -0.550 OA
ATOM     12  O   UNL     1     -39.091  38.498  47.942  1.00  0.00    -0.550 OA
ENDBRANCH   9  10
ENDBRANCH   8   9
ENDBRANCH   7   8
ENDBRANCH   6   7
ENDBRANCH   5   6
ENDBRANCH   4   5
ENDBRANCH   3   4
ENDBRANCH   1   3
BRANCH   2  13
ATOM     13  C   UNL     1     -33.659  41.070  43.904  1.00  0.00     0.027 C 
BRANCH  13  14
ATOM     14  C   UNL     1     -34.677  42.116  44.379  1.00  0.00     0.004 C 
BRANCH  14  15
ATOM     15  C   UNL     1     -35.848  42.291  43.400  1.00  0.00     0.000 C 
BRANCH  15  16
ATOM     16  C   UNL     1     -35.890  43.691  42.771  1.00  0.00     0.000 C 
BRANCH  16  17
ATOM     17  C   UNL     1     -35.149  43.708  41.425  1.00  0.00    -0.000 C 
BRANCH  17  18
ATOM     18  C   UNL     1     -35.456  42.458  40.573  1.00  0.00    -0.000 C 
BRANCH  18  19
ATOM     19  C   UNL     1     -34.198  41.755  40.038  1.00  0.00    -0.003 C 
ATOM     20  C   UNL     1     -32.902  42.408  40.513  1.00  0.00     0.004 C 
ENDBRANCH  18  19
ENDBRANCH  17  18
ENDBRANCH  16  17
ENDBRANCH  15  16
ENDBRANCH  14  15
ENDBRANCH  13  14
ENDBRANCH   2  13
TORSDOF 15
ENDMDL
MODEL 9
REMARK VINA RESULT:    -4.862      2.113      3.281
REMARK INTER + INTRA:         -11.931
REMARK INTER:                  -9.197
REMARK INTRA:                  -2.734
REMARK UNBOUND:                -2.806
REMARK SMILES CCCCCCCCC=CCCCCCCCC(=O)[O-]
REMARK SMILES IDX 10 1 9 2 11 3 12 4 13 5 14 6 15 7 16 8 17 9 18 10 19 11
REMARK SMILES IDX 20 12 8 13 7 14 6 15 5 16 4 17 3 18 2 19 1 20
REMARK H PARENT
REMARK Flexibility Score: inf
ROOT
ATOM      1  C   UNL     1     -37.378  39.236  41.843  1.00  0.00    -0.031 C 
ATOM      2  C   UNL     1     -36.046  39.090  41.707  1.00  0.00    -0.031 C 
ENDROOT
BRANCH   1   3
ATOM      3  C   UNL     1     -38.198  38.737  43.011  1.00  0.00     0.027 C 
BRANCH   3   4
ATOM      4  C   UNL     1     -38.533  39.835  44.033  1.00  0.00     0.004 C 
BRANCH   4   5
ATOM      5  C   UNL     1     -37.962  39.538  45.430  1.00  0.00     0.000 C 
BRANCH   5   6
ATOM      6  C   UNL     1     -37.472  38.080  45.555  1.00  0.00     0.000 C 
BRANCH   6   7
ATOM      7  C   UNL     1     -38.182  37.279  46.658  1.00  0.00     0.000 C 
BRANCH   7   8
ATOM      8  C   UNL     1     -39.415  37.998  47.225  1.00  0.00     0.006 C 
BRANCH   8   9
ATOM      9  C   UNL     1     -39.417  37.961  48.756  1.00  0.00     0.053 C 
BRANCH   9  10
ATOM     10  C   UNL     1     -40.680  37.342  49.269  1.00  0.00     0.041 C 
ATOM     11  O   UNL     1     -41.436  37.987  50.042  1.00  0.00    -0.550 OA
ATOM     12  O   UNL     1     -41.010  36.041  48.911  1.00  0.00    -0.550 OA
ENDBRANCH   9  10
ENDBRANCH   8   9
ENDBRANCH   7   8
ENDBRANCH   6   7
ENDBRANCH   5   6
ENDBRANCH   4   5
ENDBRANCH   3   4
ENDBRANCH   1   3
BRANCH   2  13
ATOM     13  C   UNL     1     -35.150  38.351  42.668  1.00  0.00     0.027 C 
BRANCH  13  14
ATOM     14  C   UNL     1     -33.969  39.242  43.082  1.00  0.00     0.004 C 
BRANCH  14  15
ATOM     15  C   UNL     1     -34.215  39.973  44.410  1.00  0.00     0.000 C 
BRANCH  15  16
ATOM     16  C   UNL     1     -34.140  41.500  44.268  1.00  0.00     0.000 C 
BRANCH  16  17
ATOM     17  C   UNL     1     -35.511  42.141  44.532  1.00  0.00    -0.000 C 
BRANCH  17  18
ATOM     18  C   UNL     1     -36.240  42.522  43.226  1.00  0.00    -0.000 C 
BRANCH  18  19
ATOM     19  C   UNL     1     -35.321  43.165  42.173  1.00  0.00    -0.003 C 
ATOM     20  C   UNL     1     -35.437  42.507  40.800  1.00  0.00     0.004 C 
ENDBRANCH  18  19
ENDBRANCH  17  18
ENDBRANCH  16  17
ENDBRANCH  15  16
ENDBRANCH  14  15
ENDBRANCH  13  14
ENDBRANCH   2  13
TORSDOF 15
ENDMDL
