MODEL 1
REMARK VINA RESULT:    -4.151      0.000      0.000
REMARK INTER + INTRA:         -11.491
REMARK INTER:                  -9.490
REMARK INTRA:                  -2.002
REMARK UNBOUND:                -2.002
REMARK SMILES CCCCCCCCCCCCCCCCCCCCCCCC(=O)[O-]
REMARK SMILES IDX 13 1 14 2 15 3 16 4 17 5 18 6 19 7 20 8 21 9 22 10 23 11
REMARK SMILES IDX 24 12 25 13 26 14 12 15 11 16 10 17 9 18 8 19 7 20 6 21 5 22
REMARK SMILES IDX 4 23 3 24 2 25 1 26
REMARK H PARENT
REMARK Flexibility Score: inf
ROOT
ATOM      1  C   UNL     1       0.217 -31.732  23.925  1.00  0.00     0.000 C 
ENDROOT
BRANCH   1   2
ATOM      2  C   UNL     1       1.578 -32.443  24.099  1.00  0.00     0.000 C 
BRANCH   2   3
ATOM      3  C   UNL     1       1.732 -33.762  23.310  1.00  0.00     0.000 C 
BRANCH   3   4
ATOM      4  C   UNL     1       3.093 -34.459  23.524  1.00  0.00     0.000 C 
BRANCH   4   5
ATOM      5  C   UNL     1       3.465 -35.427  22.388  1.00  0.00     0.000 C 
BRANCH   5   6
ATOM      6  C   UNL     1       4.898 -35.972  22.531  1.00  0.00     0.000 C 
BRANCH   6   7
ATOM      7  C   UNL     1       4.977 -37.509  22.440  1.00  0.00     0.000 C 
BRANCH   7   8
ATOM      8  C   UNL     1       5.354 -38.067  21.055  1.00  0.00     0.000 C 
BRANCH   8   9
ATOM      9  C   UNL     1       5.950 -37.006  20.119  1.00  0.00     0.000 C 
BRANCH   9  10
ATOM     10  C   UNL     1       5.196 -36.971  18.779  1.00  0.00     0.006 C 
BRANCH  10  11
ATOM     11  C   UNL     1       3.808 -36.328  18.905  1.00  0.00     0.053 C 
BRANCH  11  12
ATOM     12  C   UNL     1       2.746 -37.152  18.243  1.00  0.00     0.041 C 
ATOM     13  O   UNL     1       2.447 -36.956  17.034  1.00  0.00    -0.550 OA
ATOM     14  O   UNL     1       2.059 -38.115  18.973  1.00  0.00    -0.550 OA
ENDBRANCH  11  12
ENDBRANCH  10  11
ENDBRANCH   9  10
ENDBRANCH   8   9
ENDBRANCH   7   8
ENDBRANCH   6   7
ENDBRANCH   5   6
ENDBRANCH   4   5
ENDBRANCH   3   4
ENDBRANCH   2   3
ENDBRANCH   1   2
BRANCH   1  15
ATOM     15  C   UNL     1      -0.983 -32.550  24.439  1.00  0.00     0.000 C 
BRANCH  15  16
ATOM     16  C   UNL     1      -2.014 -32.837  23.331  1.00  0.00     0.000 C 
BRANCH  16  17
ATOM     17  C   UNL     1      -2.081 -34.330  22.959  1.00  0.00     0.000 C 
BRANCH  17  18
ATOM     18  C   UNL     1      -1.359 -34.706  21.644  1.00  0.00    -0.000 C 
BRANCH  18  19
ATOM     19  C   UNL     1      -0.636 -36.067  21.655  1.00  0.00    -0.000 C 
BRANCH  19  20
ATOM     20  C   UNL     1      -1.445 -37.178  20.962  1.00  0.00    -0.000 C 
BRANCH  20  21
ATOM     21  C   UNL     1      -2.960 -37.033  21.175  1.00  0.00    -0.000 C 
BRANCH  21  22
ATOM     22  C   UNL     1      -3.790 -37.778  20.114  1.00  0.00    -0.000 C 
BRANCH  22  23
ATOM     23  C   UNL     1      -2.973 -38.085  18.848  1.00  0.00    -0.000 C 
BRANCH  23  24
ATOM     24  C   UNL     1      -3.806 -37.969  17.562  1.00  0.00    -0.000 C 
BRANCH  24  25
ATOM     25  C   UNL     1      -4.924 -36.931  17.723  1.00  0.00    -0.003 C 
ATOM     26  C   UNL     1      -4.464 -35.549  17.267  1.00  0.00     0.004 C 
ENDBRANCH  24  25
ENDBRANCH  23  24
ENDBRANCH  22  23
ENDBRANCH  21  22
ENDBRANCH  20  21
ENDBRANCH  19  20
ENDBRANCH  18  19
ENDBRANCH  17  18
ENDBRANCH  16  17
ENDBRANCH  15  16
ENDBRANCH   1  15
TORSDOF 22
ENDMDL
MODEL 2
REMARK VINA RESULT:    -3.538      1.314      3.613
REMARK INTER + INTRA:         -10.090
REMARK INTER:                  -7.727
REMARK INTRA:                  -2.363
REMARK UNBOUND:                -2.002
REMARK SMILES CCCCCCCCCCCCCCCCCCCCCCCC(=O)[O-]
REMARK SMILES IDX 13 1 14 2 15 3 16 4 17 5 18 6 19 7 20 8 21 9 22 10 23 11
REMARK SMILES IDX 24 12 25 13 26 14 12 15 11 16 10 17 9 18 8 19 7 20 6 21 5 22
REMARK SMILES IDX 4 23 3 24 2 25 1 26
REMARK H PARENT
REMARK Flexibility Score: inf
ROOT
ATOM      1  C   UNL     1       3.599 -34.791  23.480  1.00  0.00     0.000 C 
ENDROOT
BRANCH   1   2
ATOM      2  C   UNL     1       4.185 -35.340  22.160  1.00  0.00     0.000 C 
BRANCH   2   3
ATOM      3  C   UNL     1       4.780 -36.762  22.251  1.00  0.00     0.000 C 
BRANCH   3   4
ATOM      4  C   UNL     1       6.040 -36.964  21.380  1.00  0.00     0.000 C 
BRANCH   4   5
ATOM      5  C   UNL     1       5.907 -38.125  20.379  1.00  0.00     0.000 C 
BRANCH   5   6
ATOM      6  C   UNL     1       5.899 -37.640  18.919  1.00  0.00     0.000 C 
BRANCH   6   7
ATOM      7  C   UNL     1       5.276 -36.240  18.745  1.00  0.00     0.000 C 
BRANCH   7   8
ATOM      8  C   UNL     1       4.014 -36.187  17.864  1.00  0.00     0.000 C 
BRANCH   8   9
ATOM      9  C   UNL     1       3.393 -37.570  17.617  1.00  0.00     0.000 C 
BRANCH   9  10
ATOM     10  C   UNL     1       1.952 -37.627  18.149  1.00  0.00     0.006 C 
BRANCH  10  11
ATOM     11  C   UNL     1       1.889 -38.049  19.623  1.00  0.00     0.053 C 
BRANCH  11  12
ATOM     12  C   UNL     1       1.384 -36.944  20.502  1.00  0.00     0.041 C 
ATOM     13  O   UNL     1       1.155 -37.155  21.724  1.00  0.00    -0.550 OA
ATOM     14  O   UNL     1       1.133 -35.688  19.962  1.00  0.00    -0.550 OA
ENDBRANCH  11  12
ENDBRANCH  10  11
ENDBRANCH   9  10
ENDBRANCH   8   9
ENDBRANCH   7   8
ENDBRANCH   6   7
ENDBRANCH   5   6
ENDBRANCH   4   5
ENDBRANCH   3   4
ENDBRANCH   2   3
ENDBRANCH   1   2
BRANCH   1  15
ATOM     15  C   UNL     1       2.328 -33.941  23.292  1.00  0.00     0.000 C 
BRANCH  15  16
ATOM     16  C   UNL     1       1.913 -33.214  24.585  1.00  0.00     0.000 C 
BRANCH  16  17
ATOM     17  C   UNL     1       0.881 -32.099  24.331  1.00  0.00     0.000 C 
BRANCH  17  18
ATOM     18  C   UNL     1      -0.223 -32.455  23.308  1.00  0.00    -0.000 C 
BRANCH  18  19
ATOM     19  C   UNL     1      -1.634 -32.642  23.899  1.00  0.00    -0.000 C 
BRANCH  19  20
ATOM     20  C   UNL     1      -2.192 -34.059  23.675  1.00  0.00    -0.000 C 
BRANCH  20  21
ATOM     21  C   UNL     1      -2.093 -34.514  22.211  1.00  0.00    -0.000 C 
BRANCH  21  22
ATOM     22  C   UNL     1      -2.477 -35.991  22.013  1.00  0.00    -0.000 C 
BRANCH  22  23
ATOM     23  C   UNL     1      -2.476 -36.398  20.530  1.00  0.00    -0.000 C 
BRANCH  23  24
ATOM     24  C   UNL     1      -3.548 -37.450  20.203  1.00  0.00    -0.000 C 
BRANCH  24  25
ATOM     25  C   UNL     1      -3.735 -37.591  18.687  1.00  0.00    -0.003 C 
ATOM     26  C   UNL     1      -4.271 -36.301  18.074  1.00  0.00     0.004 C 
ENDBRANCH  24  25
ENDBRANCH  23  24
ENDBRANCH  22  23
ENDBRANCH  21  22
ENDBRANCH  20  21
ENDBRANCH  19  20
ENDBRANCH  18  19
ENDBRANCH  17  18
ENDBRANCH  16  17
ENDBRANCH  15  16
ENDBRANCH   1  15
TORSDOF 22
ENDMDL
MODEL 3
REMARK VINA RESULT:    -3.351      2.112      6.124
REMARK INTER + INTRA:          -9.663
REMARK INTER:                  -7.339
REMARK INTRA:                  -2.324
REMARK UNBOUND:                -2.002
REMARK SMILES CCCCCCCCCCCCCCCCCCCCCCCC(=O)[O-]
REMARK SMILES IDX 13 1 14 2 15 3 16 4 17 5 18 6 19 7 20 8 21 9 22 10 23 11
REMARK SMILES IDX 24 12 25 13 26 14 12 15 11 16 10 17 9 18 8 19 7 20 6 21 5 22
REMARK SMILES IDX 4 23 3 24 2 25 1 26
REMARK H PARENT
REMARK Flexibility Score: inf
ROOT
ATOM      1  C   UNL     1      -0.632 -31.277  24.193  1.00  0.00     0.000 C 
ENDROOT
BRANCH   1   2
ATOM      2  C   UNL     1      -1.410 -32.604  24.337  1.00  0.00     0.000 C 
BRANCH   2   3
ATOM      3  C   UNL     1      -2.187 -33.047  23.079  1.00  0.00     0.000 C 
BRANCH   3   4
ATOM      4  C   UNL     1      -2.693 -34.505  23.142  1.00  0.00     0.000 C 
BRANCH   4   5
ATOM      5  C   UNL     1      -1.964 -35.445  22.167  1.00  0.00     0.000 C 
BRANCH   5   6
ATOM      6  C   UNL     1      -0.515 -35.000  21.901  1.00  0.00     0.000 C 
BRANCH   6   7
ATOM      7  C   UNL     1       0.074 -35.587  20.602  1.00  0.00     0.000 C 
BRANCH   7   8
ATOM      8  C   UNL     1       0.934 -36.852  20.783  1.00  0.00     0.000 C 
BRANCH   8   9
ATOM      9  C   UNL     1       0.265 -38.119  20.230  1.00  0.00     0.000 C 
BRANCH   9  10
ATOM     10  C   UNL     1      -1.245 -38.113  20.520  1.00  0.00     0.006 C 
BRANCH  10  11
ATOM     11  C   UNL     1      -2.087 -38.113  19.237  1.00  0.00     0.053 C 
BRANCH  11  12
ATOM     12  C   UNL     1      -3.447 -37.521  19.457  1.00  0.00     0.041 C 
ATOM     13  O   UNL     1      -4.014 -36.867  18.541  1.00  0.00    -0.550 OA
ATOM     14  O   UNL     1      -4.072 -37.662  20.690  1.00  0.00    -0.550 OA
ENDBRANCH  11  12
ENDBRANCH  10  11
ENDBRANCH   9  10
ENDBRANCH   8   9
ENDBRANCH   7   8
ENDBRANCH   6   7
ENDBRANCH   5   6
ENDBRANCH   4   5
ENDBRANCH   3   4
ENDBRANCH   2   3
ENDBRANCH   1   2
BRANCH   1  15
ATOM     15  C   UNL     1       0.857 -31.462  23.846  1.00  0.00     0.000 C 
BRANCH  15  16
ATOM     16  C   UNL     1       1.406 -32.820  24.322  1.00  0.00     0.000 C 
BRANCH  16  17
ATOM     17  C   UNL     1       2.532 -33.353  23.416  1.00  0.00     0.000 C 
BRANCH  17  18
ATOM     18  C   UNL     1       2.956 -34.814  23.697  1.00  0.00    -0.000 C 
BRANCH  18  19
ATOM     19  C   UNL     1       3.623 -35.545  22.516  1.00  0.00    -0.000 C 
BRANCH  19  20
ATOM     20  C   UNL     1       5.124 -35.802  22.744  1.00  0.00    -0.000 C 
BRANCH  20  21
ATOM     21  C   UNL     1       5.556 -37.217  22.326  1.00  0.00    -0.000 C 
BRANCH  21  22
ATOM     22  C   UNL     1       5.941 -37.312  20.840  1.00  0.00    -0.000 C 
BRANCH  22  23
ATOM     23  C   UNL     1       4.747 -37.707  19.954  1.00  0.00    -0.000 C 
BRANCH  23  24
ATOM     24  C   UNL     1       4.818 -37.086  18.550  1.00  0.00    -0.000 C 
BRANCH  24  25
ATOM     25  C   UNL     1       3.585 -36.218  18.270  1.00  0.00    -0.003 C 
ATOM     26  C   UNL     1       2.525 -36.999  17.497  1.00  0.00     0.004 C 
ENDBRANCH  24  25
ENDBRANCH  23  24
ENDBRANCH  22  23
ENDBRANCH  21  22
ENDBRANCH  20  21
ENDBRANCH  19  20
ENDBRANCH  18  19
ENDBRANCH  17  18
ENDBRANCH  16  17
ENDBRANCH  15  16
ENDBRANCH   1  15
TORSDOF 22
ENDMDL
MODEL 4
REMARK VINA RESULT:    -3.284      2.388      6.622
REMARK INTER + INTRA:          -9.509
REMARK INTER:                  -7.067
REMARK INTRA:                  -2.442
REMARK UNBOUND:                -2.002
REMARK SMILES CCCCCCCCCCCCCCCCCCCCCCCC(=O)[O-]
REMARK SMILES IDX 13 1 14 2 15 3 16 4 17 5 18 6 19 7 20 8 21 9 22 10 23 11
REMARK SMILES IDX 24 12 25 13 26 14 12 15 11 16 10 17 9 18 8 19 7 20 6 21 5 22
REMARK SMILES IDX 4 23 3 24 2 25 1 26
REMARK H PARENT
REMARK Flexibility Score: inf
ROOT
ATOM      1  C   UNL     1       0.272 -32.175  23.901  1.00  0.00     0.000 C 
ENDROOT
BRANCH   1   2
ATOM      2  C   UNL     1      -1.091 -32.489  24.557  1.00  0.00     0.000 C 
BRANCH   2   3
ATOM      3  C   UNL     1      -2.216 -32.876  23.573  1.00  0.00     0.000 C 
BRANCH   3   4
ATOM      4  C   UNL     1      -1.770 -33.872  22.480  1.00  0.00     0.000 C 
BRANCH   4   5
ATOM      5  C   UNL     1      -2.220 -35.317  22.755  1.00  0.00     0.000 C 
BRANCH   5   6
ATOM      6  C   UNL     1      -3.541 -35.663  22.046  1.00  0.00     0.000 C 
BRANCH   6   7
ATOM      7  C   UNL     1      -3.622 -37.135  21.592  1.00  0.00     0.000 C 
BRANCH   7   8
ATOM      8  C   UNL     1      -2.316 -37.720  21.022  1.00  0.00     0.000 C 
BRANCH   8   9
ATOM      9  C   UNL     1      -2.400 -38.030  19.521  1.00  0.00     0.000 C 
BRANCH   9  10
ATOM     10  C   UNL     1      -3.849 -37.922  19.019  1.00  0.00     0.006 C 
BRANCH  10  11
ATOM     11  C   UNL     1      -3.927 -37.622  17.515  1.00  0.00     0.053 C 
BRANCH  11  12
ATOM     12  C   UNL     1      -4.647 -36.337  17.236  1.00  0.00     0.041 C 
ATOM     13  O   UNL     1      -5.863 -36.347  16.906  1.00  0.00    -0.550 OA
ATOM     14  O   UNL     1      -3.962 -35.130  17.304  1.00  0.00    -0.550 OA
ENDBRANCH  11  12
ENDBRANCH  10  11
ENDBRANCH   9  10
ENDBRANCH   8   9
ENDBRANCH   7   8
ENDBRANCH   6   7
ENDBRANCH   5   6
ENDBRANCH   4   5
ENDBRANCH   3   4
ENDBRANCH   2   3
ENDBRANCH   1   2
BRANCH   1  15
ATOM     15  C   UNL     1       1.423 -33.072  24.395  1.00  0.00     0.000 C 
BRANCH  15  16
ATOM     16  C   UNL     1       2.492 -33.303  23.311  1.00  0.00     0.000 C 
BRANCH  16  17
ATOM     17  C   UNL     1       2.456 -34.733  22.740  1.00  0.00     0.000 C 
BRANCH  17  18
ATOM     18  C   UNL     1       1.119 -35.133  22.074  1.00  0.00    -0.000 C 
BRANCH  18  19
ATOM     19  C   UNL     1       1.238 -35.706  20.648  1.00  0.00    -0.000 C 
BRANCH  19  20
ATOM     20  C   UNL     1       1.468 -37.228  20.635  1.00  0.00    -0.000 C 
BRANCH  20  21
ATOM     21  C   UNL     1       1.373 -37.832  19.225  1.00  0.00    -0.000 C 
BRANCH  21  22
ATOM     22  C   UNL     1       2.749 -38.088  18.587  1.00  0.00    -0.000 C 
BRANCH  22  23
ATOM     23  C   UNL     1       3.308 -36.837  17.889  1.00  0.00    -0.000 C 
BRANCH  23  24
ATOM     24  C   UNL     1       4.673 -36.406  18.447  1.00  0.00    -0.000 C 
BRANCH  24  25
ATOM     25  C   UNL     1       5.119 -37.331  19.586  1.00  0.00    -0.003 C 
ATOM     26  C   UNL     1       5.061 -36.616  20.933  1.00  0.00     0.004 C 
ENDBRANCH  24  25
ENDBRANCH  23  24
ENDBRANCH  22  23
ENDBRANCH  21  22
ENDBRANCH  20  21
ENDBRANCH  19  20
ENDBRANCH  18  19
ENDBRANCH  17  18
ENDBRANCH  16  17
ENDBRANCH  15  16
ENDBRANCH   1  15
TORSDOF 22
ENDMDL
MODEL 5
REMARK VINA RESULT:    -3.240      2.617      7.816
REMARK INTER + INTRA:          -9.408
REMARK INTER:                  -7.331
REMARK INTRA:                  -2.077
REMARK UNBOUND:                -2.002
REMARK SMILES CCCCCCCCCCCCCCCCCCCCCCCC(=O)[O-]
REMARK SMILES IDX 13 1 14 2 15 3 16 4 17 5 18 6 19 7 20 8 21 9 22 10 23 11
REMARK SMILES IDX 24 12 25 13 26 14 12 15 11 16 10 17 9 18 8 19 7 20 6 21 5 22
REMARK SMILES IDX 4 23 3 24 2 25 1 26
REMARK H PARENT
REMARK Flexibility Score: inf
ROOT
ATOM      1  C   UNL     1      -1.260 -36.967  19.839  1.00  0.00     0.000 C 
ENDROOT
BRANCH   1   2
ATOM      2  C   UNL     1      -2.491 -37.600  19.153  1.00  0.00     0.000 C 
BRANCH   2   3
ATOM      3  C   UNL     1      -3.599 -38.084  20.114  1.00  0.00     0.000 C 
BRANCH   3   4
ATOM      4  C   UNL     1      -3.381 -37.652  21.581  1.00  0.00     0.000 C 
BRANCH   4   5
ATOM      5  C   UNL     1      -4.461 -36.684  22.096  1.00  0.00     0.000 C 
BRANCH   5   6
ATOM      6  C   UNL     1      -3.878 -35.317  22.494  1.00  0.00     0.000 C 
BRANCH   6   7
ATOM      7  C   UNL     1      -2.337 -35.297  22.523  1.00  0.00     0.000 C 
BRANCH   7   8
ATOM      8  C   UNL     1      -1.695 -33.900  22.421  1.00  0.00     0.000 C 
BRANCH   8   9
ATOM      9  C   UNL     1      -2.400 -32.848  23.290  1.00  0.00     0.000 C 
BRANCH   9  10
ATOM     10  C   UNL     1      -1.445 -32.290  24.358  1.00  0.00     0.006 C 
BRANCH  10  11
ATOM     11  C   UNL     1      -0.112 -33.050  24.405  1.00  0.00     0.053 C 
BRANCH  11  12
ATOM     12  C   UNL     1       1.064 -32.120  24.395  1.00  0.00     0.041 C 
ATOM     13  O   UNL     1       0.903 -30.885  24.593  1.00  0.00    -0.550 OA
ATOM     14  O   UNL     1       2.336 -32.614  24.131  1.00  0.00    -0.550 OA
ENDBRANCH  11  12
ENDBRANCH  10  11
ENDBRANCH   9  10
ENDBRANCH   8   9
ENDBRANCH   7   8
ENDBRANCH   6   7
ENDBRANCH   5   6
ENDBRANCH   4   5
ENDBRANCH   3   4
ENDBRANCH   2   3
ENDBRANCH   1   2
BRANCH   1  15
ATOM     15  C   UNL     1      -0.242 -37.997  20.365  1.00  0.00     0.000 C 
BRANCH  15  16
ATOM     16  C   UNL     1       1.116 -37.355  20.708  1.00  0.00     0.000 C 
BRANCH  16  17
ATOM     17  C   UNL     1       0.979 -35.890  21.165  1.00  0.00     0.000 C 
BRANCH  17  18
ATOM     18  C   UNL     1       2.204 -35.328  21.924  1.00  0.00    -0.000 C 
BRANCH  18  19
ATOM     19  C   UNL     1       3.575 -35.805  21.406  1.00  0.00    -0.000 C 
BRANCH  19  20
ATOM     20  C   UNL     1       4.183 -36.924  22.271  1.00  0.00    -0.000 C 
BRANCH  20  21
ATOM     21  C   UNL     1       5.703 -37.060  22.086  1.00  0.00    -0.000 C 
BRANCH  21  22
ATOM     22  C   UNL     1       6.109 -37.315  20.624  1.00  0.00    -0.000 C 
BRANCH  22  23
ATOM     23  C   UNL     1       5.043 -38.113  19.855  1.00  0.00    -0.000 C 
BRANCH  23  24
ATOM     24  C   UNL     1       5.215 -38.019  18.331  1.00  0.00    -0.000 C 
BRANCH  24  25
ATOM     25  C   UNL     1       3.858 -38.082  17.619  1.00  0.00    -0.003 C 
ATOM     26  C   UNL     1       3.066 -36.794  17.825  1.00  0.00     0.004 C 
ENDBRANCH  24  25
ENDBRANCH  23  24
ENDBRANCH  22  23
ENDBRANCH  21  22
ENDBRANCH  20  21
ENDBRANCH  19  20
ENDBRANCH  18  19
ENDBRANCH  17  18
ENDBRANCH  16  17
ENDBRANCH  15  16
ENDBRANCH   1  15
TORSDOF 22
ENDMDL
MODEL 6
REMARK VINA RESULT:    -3.223      2.175      5.603
REMARK INTER + INTRA:          -9.370
REMARK INTER:                  -8.587
REMARK INTRA:                  -0.782
REMARK UNBOUND:                -2.002
REMARK SMILES CCCCCCCCCCCCCCCCCCCCCCCC(=O)[O-]
REMARK SMILES IDX 13 1 14 2 15 3 16 4 17 5 18 6 19 7 20 8 21 9 22 10 23 11
REMARK SMILES IDX 24 12 25 13 26 14 12 15 11 16 10 17 9 18 8 19 7 20 6 21 5 22
REMARK SMILES IDX 4 23 3 24 2 25 1 26
REMARK H PARENT
REMARK Flexibility Score: inf
ROOT
ATOM      1  C   UNL     1       0.379 -35.524  20.305  1.00  0.00     0.000 C 
ENDROOT
BRANCH   1   2
ATOM      2  C   UNL     1       1.829 -35.761  19.827  1.00  0.00     0.000 C 
BRANCH   2   3
ATOM      3  C   UNL     1       2.140 -37.203  19.371  1.00  0.00     0.000 C 
BRANCH   3   4
ATOM      4  C   UNL     1       1.854 -37.457  17.874  1.00  0.00     0.000 C 
BRANCH   4   5
ATOM      5  C   UNL     1       3.101 -37.315  16.985  1.00  0.00     0.000 C 
BRANCH   5   6
ATOM      6  C   UNL     1       4.300 -36.726  17.750  1.00  0.00     0.000 C 
BRANCH   6   7
ATOM      7  C   UNL     1       5.183 -37.799  18.417  1.00  0.00     0.000 C 
BRANCH   7   8
ATOM      8  C   UNL     1       6.125 -37.282  19.521  1.00  0.00     0.000 C 
BRANCH   8   9
ATOM      9  C   UNL     1       5.376 -36.753  20.752  1.00  0.00     0.000 C 
BRANCH   9  10
ATOM     10  C   UNL     1       4.826 -37.912  21.600  1.00  0.00     0.006 C 
BRANCH  10  11
ATOM     11  C   UNL     1       3.855 -37.432  22.688  1.00  0.00     0.053 C 
BRANCH  11  12
ATOM     12  C   UNL     1       4.101 -36.003  23.069  1.00  0.00     0.041 C 
ATOM     13  O   UNL     1       5.027 -35.706  23.871  1.00  0.00    -0.550 OA
ATOM     14  O   UNL     1       3.281 -35.000  22.565  1.00  0.00    -0.550 OA
ENDBRANCH  11  12
ENDBRANCH  10  11
ENDBRANCH   9  10
ENDBRANCH   8   9
ENDBRANCH   7   8
ENDBRANCH   6   7
ENDBRANCH   5   6
ENDBRANCH   4   5
ENDBRANCH   3   4
ENDBRANCH   2   3
ENDBRANCH   1   2
BRANCH   1  15
ATOM     15  C   UNL     1      -0.089 -36.514  21.389  1.00  0.00     0.000 C 
BRANCH  15  16
ATOM     16  C   UNL     1      -0.411 -37.906  20.812  1.00  0.00     0.000 C 
BRANCH  16  17
ATOM     17  C   UNL     1      -1.803 -37.965  20.154  1.00  0.00     0.000 C 
BRANCH  17  18
ATOM     18  C   UNL     1      -2.698 -36.731  20.415  1.00  0.00    -0.000 C 
BRANCH  18  19
ATOM     19  C   UNL     1      -3.554 -36.796  21.695  1.00  0.00    -0.000 C 
BRANCH  19  20
ATOM     20  C   UNL     1      -3.533 -35.481  22.495  1.00  0.00    -0.000 C 
BRANCH  20  21
ATOM     21  C   UNL     1      -2.131 -34.858  22.580  1.00  0.00    -0.000 C 
BRANCH  21  22
ATOM     22  C   UNL     1      -2.163 -33.344  22.856  1.00  0.00    -0.000 C 
BRANCH  22  23
ATOM     23  C   UNL     1      -1.943 -33.020  24.343  1.00  0.00    -0.000 C 
BRANCH  23  24
ATOM     24  C   UNL     1      -0.683 -32.175  24.586  1.00  0.00    -0.000 C 
BRANCH  24  25
ATOM     25  C   UNL     1       0.565 -32.879  24.039  1.00  0.00    -0.003 C 
ATOM     26  C   UNL     1       1.822 -32.052  24.293  1.00  0.00     0.004 C 
ENDBRANCH  24  25
ENDBRANCH  23  24
ENDBRANCH  22  23
ENDBRANCH  21  22
ENDBRANCH  20  21
ENDBRANCH  19  20
ENDBRANCH  18  19
ENDBRANCH  17  18
ENDBRANCH  16  17
ENDBRANCH  15  16
ENDBRANCH   1  15
TORSDOF 22
ENDMDL
MODEL 7
REMARK VINA RESULT:    -3.163      2.320      6.595
REMARK INTER + INTRA:          -9.233
REMARK INTER:                  -7.343
REMARK INTRA:                  -1.890
REMARK UNBOUND:                -2.002
REMARK SMILES CCCCCCCCCCCCCCCCCCCCCCCC(=O)[O-]
REMARK SMILES IDX 13 1 14 2 15 3 16 4 17 5 18 6 19 7 20 8 21 9 22 10 23 11
REMARK SMILES IDX 24 12 25 13 26 14 12 15 11 16 10 17 9 18 8 19 7 20 6 21 5 22
REMARK SMILES IDX 4 23 3 24 2 25 1 26
REMARK H PARENT
REMARK Flexibility Score: inf
ROOT
ATOM      1  C   UNL     1       1.619 -33.683  23.645  1.00  0.00     0.000 C 
ENDROOT
BRANCH   1   2
ATOM      2  C   UNL     1       1.104 -32.407  24.348  1.00  0.00     0.000 C 
BRANCH   2   3
ATOM      3  C   UNL     1      -0.368 -32.047  24.054  1.00  0.00     0.000 C 
BRANCH   3   4
ATOM      4  C   UNL     1      -1.312 -33.269  24.021  1.00  0.00     0.000 C 
BRANCH   4   5
ATOM      5  C   UNL     1      -1.576 -33.795  22.600  1.00  0.00     0.000 C 
BRANCH   5   6
ATOM      6  C   UNL     1      -2.439 -35.069  22.599  1.00  0.00     0.000 C 
BRANCH   6   7
ATOM      7  C   UNL     1      -2.446 -35.799  21.241  1.00  0.00     0.000 C 
BRANCH   7   8
ATOM      8  C   UNL     1      -3.162 -37.163  21.232  1.00  0.00     0.000 C 
BRANCH   8   9
ATOM      9  C   UNL     1      -2.886 -37.980  19.962  1.00  0.00     0.000 C 
BRANCH   9  10
ATOM     10  C   UNL     1      -4.153 -38.095  19.098  1.00  0.00     0.006 C 
BRANCH  10  11
ATOM     11  C   UNL     1      -3.907 -37.680  17.641  1.00  0.00     0.053 C 
BRANCH  11  12
ATOM     12  C   UNL     1      -4.619 -36.407  17.293  1.00  0.00     0.041 C 
ATOM     13  O   UNL     1      -5.808 -36.435  16.875  1.00  0.00    -0.550 OA
ATOM     14  O   UNL     1      -3.954 -35.191  17.395  1.00  0.00    -0.550 OA
ENDBRANCH  11  12
ENDBRANCH  10  11
ENDBRANCH   9  10
ENDBRANCH   8   9
ENDBRANCH   7   8
ENDBRANCH   6   7
ENDBRANCH   5   6
ENDBRANCH   4   5
ENDBRANCH   3   4
ENDBRANCH   2   3
ENDBRANCH   1   2
BRANCH   1  15
ATOM     15  C   UNL     1       3.101 -33.612  23.231  1.00  0.00     0.000 C 
BRANCH  15  16
ATOM     16  C   UNL     1       3.555 -34.867  22.462  1.00  0.00     0.000 C 
BRANCH  16  17
ATOM     17  C   UNL     1       3.737 -36.089  23.382  1.00  0.00     0.000 C 
BRANCH  17  18
ATOM     18  C   UNL     1       3.955 -37.431  22.644  1.00  0.00    -0.000 C 
BRANCH  18  19
ATOM     19  C   UNL     1       5.173 -37.474  21.700  1.00  0.00    -0.000 C 
BRANCH  19  20
ATOM     20  C   UNL     1       4.982 -36.610  20.441  1.00  0.00    -0.000 C 
BRANCH  20  21
ATOM     21  C   UNL     1       4.635 -37.440  19.195  1.00  0.00    -0.000 C 
BRANCH  21  22
ATOM     22  C   UNL     1       3.856 -36.638  18.138  1.00  0.00    -0.000 C 
BRANCH  22  23
ATOM     23  C   UNL     1       2.348 -36.937  18.175  1.00  0.00    -0.000 C 
BRANCH  23  24
ATOM     24  C   UNL     1       1.976 -37.978  19.243  1.00  0.00    -0.000 C 
BRANCH  24  25
ATOM     25  C   UNL     1       0.835 -37.469  20.133  1.00  0.00    -0.003 C 
ATOM     26  C   UNL     1       1.020 -35.994  20.477  1.00  0.00     0.004 C 
ENDBRANCH  24  25
ENDBRANCH  23  24
ENDBRANCH  22  23
ENDBRANCH  21  22
ENDBRANCH  20  21
ENDBRANCH  19  20
ENDBRANCH  18  19
ENDBRANCH  17  18
ENDBRANCH  16  17
ENDBRANCH  15  16
ENDBRANCH   1  15
TORSDOF 22
ENDMDL
MODEL 8
REMARK VINA RESULT:    -3.009      1.100      2.069
REMARK INTER + INTRA:          -8.881
REMARK INTER:                  -7.738
REMARK INTRA:                  -1.143
REMARK UNBOUND:                -2.002
REMARK SMILES CCCCCCCCCCCCCCCCCCCCCCCC(=O)[O-]
REMARK SMILES IDX 13 1 14 2 15 3 16 4 17 5 18 6 19 7 20 8 21 9 22 10 23 11
REMARK SMILES IDX 24 12 25 13 26 14 12 15 11 16 10 17 9 18 8 19 7 20 6 21 5 22
REMARK SMILES IDX 4 23 3 24 2 25 1 26
REMARK H PARENT
REMARK Flexibility Score: inf
ROOT
ATOM      1  C   UNL     1      -2.084 -33.152  24.048  1.00  0.00     0.000 C 
ENDROOT
BRANCH   1   2
ATOM      2  C   UNL     1      -0.913 -32.156  23.904  1.00  0.00     0.000 C 
BRANCH   2   3
ATOM      3  C   UNL     1       0.385 -32.563  24.636  1.00  0.00     0.000 C 
BRANCH   3   4
ATOM      4  C   UNL     1       1.639 -32.541  23.735  1.00  0.00     0.000 C 
BRANCH   4   5
ATOM      5  C   UNL     1       2.601 -33.712  24.003  1.00  0.00     0.000 C 
BRANCH   5   6
ATOM      6  C   UNL     1       3.076 -34.387  22.705  1.00  0.00     0.000 C 
BRANCH   6   7
ATOM      7  C   UNL     1       3.840 -35.704  22.946  1.00  0.00     0.000 C 
BRANCH   7   8
ATOM      8  C   UNL     1       4.893 -36.058  21.880  1.00  0.00     0.000 C 
BRANCH   8   9
ATOM      9  C   UNL     1       5.051 -37.571  21.668  1.00  0.00     0.000 C 
BRANCH   9  10
ATOM     10  C   UNL     1       4.356 -38.017  20.371  1.00  0.00     0.006 C 
BRANCH  10  11
ATOM     11  C   UNL     1       4.864 -37.251  19.141  1.00  0.00     0.053 C 
BRANCH  11  12
ATOM     12  C   UNL     1       3.744 -36.616  18.373  1.00  0.00     0.041 C 
ATOM     13  O   UNL     1       3.229 -37.210  17.388  1.00  0.00    -0.550 OA
ATOM     14  O   UNL     1       3.294 -35.349  18.725  1.00  0.00    -0.550 OA
ENDBRANCH  11  12
ENDBRANCH  10  11
ENDBRANCH   9  10
ENDBRANCH   8   9
ENDBRANCH   7   8
ENDBRANCH   6   7
ENDBRANCH   5   6
ENDBRANCH   4   5
ENDBRANCH   3   4
ENDBRANCH   2   3
ENDBRANCH   1   2
BRANCH   1  15
ATOM     15  C   UNL     1      -1.988 -34.368  23.107  1.00  0.00     0.000 C 
BRANCH  15  16
ATOM     16  C   UNL     1      -1.405 -33.999  21.730  1.00  0.00     0.000 C 
BRANCH  16  17
ATOM     17  C   UNL     1      -0.962 -35.235  20.925  1.00  0.00     0.000 C 
BRANCH  17  18
ATOM     18  C   UNL     1       0.540 -35.584  21.044  1.00  0.00    -0.000 C 
BRANCH  18  19
ATOM     19  C   UNL     1       0.922 -37.011  20.603  1.00  0.00    -0.000 C 
BRANCH  19  20
ATOM     20  C   UNL     1       0.093 -38.097  21.312  1.00  0.00    -0.000 C 
BRANCH  20  21
ATOM     21  C   UNL     1      -1.387 -37.714  21.462  1.00  0.00    -0.000 C 
BRANCH  21  22
ATOM     22  C   UNL     1      -2.240 -38.125  20.248  1.00  0.00    -0.000 C 
BRANCH  22  23
ATOM     23  C   UNL     1      -3.747 -38.063  20.549  1.00  0.00    -0.000 C 
BRANCH  23  24
ATOM     24  C   UNL     1      -4.600 -37.926  19.279  1.00  0.00    -0.000 C 
BRANCH  24  25
ATOM     25  C   UNL     1      -3.787 -37.309  18.134  1.00  0.00    -0.003 C 
ATOM     26  C   UNL     1      -4.515 -36.116  17.521  1.00  0.00     0.004 C 
ENDBRANCH  24  25
ENDBRANCH  23  24
ENDBRANCH  22  23
ENDBRANCH  21  22
ENDBRANCH  20  21
ENDBRANCH  19  20
ENDBRANCH  18  19
ENDBRANCH  17  18
ENDBRANCH  16  17
ENDBRANCH  15  16
ENDBRANCH   1  15
TORSDOF 22
ENDMDL
MODEL 9
REMARK VINA RESULT:    -2.936      1.552      4.822
REMARK INTER + INTRA:          -8.713
REMARK INTER:                  -6.781
REMARK INTRA:                  -1.932
REMARK UNBOUND:                -2.002
REMARK SMILES CCCCCCCCCCCCCCCCCCCCCCCC(=O)[O-]
REMARK SMILES IDX 13 1 14 2 15 3 16 4 17 5 18 6 19 7 20 8 21 9 22 10 23 11
REMARK SMILES IDX 24 12 25 13 26 14 12 15 11 16 10 17 9 18 8 19 7 20 6 21 5 22
REMARK SMILES IDX 4 23 3 24 2 25 1 26
REMARK H PARENT
REMARK Flexibility Score: inf
ROOT
ATOM      1  C   UNL     1       0.373 -36.337  20.643  1.00  0.00     0.000 C 
ENDROOT
BRANCH   1   2
ATOM      2  C   UNL     1       1.828 -36.139  21.122  1.00  0.00     0.000 C 
BRANCH   2   3
ATOM      3  C   UNL     1       2.025 -35.023  22.171  1.00  0.00     0.000 C 
BRANCH   3   4
ATOM      4  C   UNL     1       3.495 -34.828  22.603  1.00  0.00     0.000 C 
BRANCH   4   5
ATOM      5  C   UNL     1       4.003 -35.933  23.544  1.00  0.00     0.000 C 
BRANCH   5   6
ATOM      6  C   UNL     1       4.296 -37.247  22.798  1.00  0.00     0.000 C 
BRANCH   6   7
ATOM      7  C   UNL     1       5.781 -37.415  22.419  1.00  0.00     0.000 C 
BRANCH   7   8
ATOM      8  C   UNL     1       6.040 -38.079  21.054  1.00  0.00     0.000 C 
BRANCH   8   9
ATOM      9  C   UNL     1       6.125 -37.071  19.899  1.00  0.00     0.000 C 
BRANCH   9  10
ATOM     10  C   UNL     1       5.282 -37.537  18.701  1.00  0.00     0.006 C 
BRANCH  10  11
ATOM     11  C   UNL     1       4.322 -36.448  18.202  1.00  0.00     0.053 C 
BRANCH  11  12
ATOM     12  C   UNL     1       2.991 -37.013  17.804  1.00  0.00     0.041 C 
ATOM     13  O   UNL     1       2.312 -36.465  16.894  1.00  0.00    -0.550 OA
ATOM     14  O   UNL     1       2.484 -38.125  18.465  1.00  0.00    -0.550 OA
ENDBRANCH  11  12
ENDBRANCH  10  11
ENDBRANCH   9  10
ENDBRANCH   8   9
ENDBRANCH   7   8
ENDBRANCH   6   7
ENDBRANCH   5   6
ENDBRANCH   4   5
ENDBRANCH   3   4
ENDBRANCH   2   3
ENDBRANCH   1   2
BRANCH   1  15
ATOM     15  C   UNL     1      -0.252 -37.674  21.086  1.00  0.00     0.000 C 
BRANCH  15  16
ATOM     16  C   UNL     1      -1.468 -38.066  20.225  1.00  0.00     0.000 C 
BRANCH  16  17
ATOM     17  C   UNL     1      -2.782 -38.078  21.029  1.00  0.00     0.000 C 
BRANCH  17  18
ATOM     18  C   UNL     1      -3.708 -36.864  20.779  1.00  0.00    -0.000 C 
BRANCH  18  19
ATOM     19  C   UNL     1      -3.890 -35.916  21.980  1.00  0.00    -0.000 C 
BRANCH  19  20
ATOM     20  C   UNL     1      -2.581 -35.222  22.397  1.00  0.00    -0.000 C 
BRANCH  20  21
ATOM     21  C   UNL     1      -2.812 -33.836  23.018  1.00  0.00    -0.000 C 
BRANCH  21  22
ATOM     22  C   UNL     1      -1.809 -33.503  24.136  1.00  0.00    -0.000 C 
BRANCH  22  23
ATOM     23  C   UNL     1      -1.724 -31.992  24.409  1.00  0.00    -0.000 C 
BRANCH  23  24
ATOM     24  C   UNL     1      -0.399 -31.376  23.933  1.00  0.00    -0.000 C 
BRANCH  24  25
ATOM     25  C   UNL     1       0.717 -32.427  23.905  1.00  0.00    -0.003 C 
ATOM     26  C   UNL     1       1.962 -31.930  24.635  1.00  0.00     0.004 C 
ENDBRANCH  24  25
ENDBRANCH  23  24
ENDBRANCH  22  23
ENDBRANCH  21  22
ENDBRANCH  20  21
ENDBRANCH  19  20
ENDBRANCH  18  19
ENDBRANCH  17  18
ENDBRANCH  16  17
ENDBRANCH  15  16
ENDBRANCH   1  15
TORSDOF 22
ENDMDL
