MODEL 1
REMARK VINA RESULT:    -5.567      0.000      0.000
REMARK INTER + INTRA:          -6.764
REMARK INTER:                  -6.706
REMARK INTRA:                  -0.058
REMARK UNBOUND:                -0.058
REMARK SMILES O=c1c(O)c(-c2ccc(O)c(O)c2)oc2cc(O)cc(O)c12
REMARK SMILES IDX 5 1 3 2 2 3 1 4 22 5 20 6 19 7 17 8 16 9 15 10 14 11 6 12
REMARK SMILES IDX 7 13 8 14 9 15 13 16 11 17 10 18 12 20 4 22 21 24 18 26
REMARK H PARENT 10 19 12 21 4 23 21 25 18 27
REMARK Flexibility Score: inf
ROOT
ATOM      1  C   UNL     1      46.231  15.903  -3.770  1.00  0.00     0.180 A 
ATOM      2  C   UNL     1      46.035  14.568  -3.367  1.00  0.00     0.208 A 
ATOM      3  C   UNL     1      47.136  13.696  -3.350  1.00  0.00     0.238 A 
ATOM      4  O   UNL     1      46.975  12.501  -2.980  1.00  0.00    -0.285 OA
ATOM      5  C   UNL     1      48.402  14.165  -3.755  1.00  0.00     0.111 A 
ATOM      6  C   UNL     1      49.561  13.350  -3.772  1.00  0.00     0.134 A 
ATOM      7  C   UNL     1      50.784  13.889  -4.197  1.00  0.00     0.093 A 
ATOM      8  C   UNL     1      50.873  15.222  -4.606  1.00  0.00     0.123 A 
ATOM      9  C   UNL     1      49.732  16.031  -4.591  1.00  0.00     0.094 A 
ATOM     10  C   UNL     1      48.504  15.514  -4.169  1.00  0.00     0.146 A 
ATOM     11  O   UNL     1      47.437  16.305  -4.160  1.00  0.00    -0.452 OA
ENDROOT
BRANCH   1  12
ATOM     12  C   UNL     1      45.125  16.887  -3.796  1.00  0.00     0.025 A 
ATOM     13  C   UNL     1      44.913  17.657  -4.949  1.00  0.00     0.016 A 
ATOM     14  C   UNL     1      43.889  18.604  -4.987  1.00  0.00     0.051 A 
ATOM     15  C   UNL     1      43.067  18.812  -3.875  1.00  0.00     0.157 A 
ATOM     16  C   UNL     1      44.316  17.109  -2.669  1.00  0.00     0.062 A 
ATOM     17  C   UNL     1      43.288  18.060  -2.697  1.00  0.00     0.158 A 
BRANCH  15  18
ATOM     18  O   UNL     1      42.056  19.770  -3.981  1.00  0.00    -0.504 OA
ATOM     19  H   UNL     1      41.299  19.867  -3.320  1.00  0.00     0.293 HD
ENDBRANCH  15  18
BRANCH  17  20
ATOM     20  O   UNL     1      42.522  18.226  -1.542  1.00  0.00    -0.504 OA
ATOM     21  H   UNL     1      42.787  17.875  -0.633  1.00  0.00     0.293 HD
ENDBRANCH  17  20
ENDBRANCH   1  12
BRANCH   2  22
ATOM     22  O   UNL     1      44.761  14.115  -3.018  1.00  0.00    -0.502 OA
ATOM     23  H   UNL     1      44.466  13.157  -3.165  1.00  0.00     0.293 HD
ENDBRANCH   2  22
BRANCH   6  24
ATOM     24  O   UNL     1      49.505  12.015  -3.370  1.00  0.00    -0.507 OA
ATOM     25  H   UNL     1      49.540  11.255  -4.040  1.00  0.00     0.293 HD
ENDBRANCH   6  24
BRANCH   8  26
ATOM     26  O   UNL     1      52.099  15.731  -5.024  1.00  0.00    -0.508 OA
ATOM     27  H   UNL     1      52.744  16.163  -4.372  1.00  0.00     0.293 HD
ENDBRANCH   8  26
TORSDOF 6
ENDMDL
MODEL 2
REMARK VINA RESULT:    -5.499      1.162      1.391
REMARK INTER + INTRA:          -6.682
REMARK INTER:                  -6.587
REMARK INTRA:                  -0.094
REMARK UNBOUND:                -0.058
REMARK SMILES O=c1c(O)c(-c2ccc(O)c(O)c2)oc2cc(O)cc(O)c12
REMARK SMILES IDX 5 1 3 2 2 3 1 4 22 5 20 6 19 7 17 8 16 9 15 10 14 11 6 12
REMARK SMILES IDX 7 13 8 14 9 15 13 16 11 17 10 18 12 20 4 22 21 24 18 26
REMARK H PARENT 10 19 12 21 4 23 21 25 18 27
REMARK Flexibility Score: inf
ROOT
ATOM      1  C   UNL     1      45.559  15.660  -3.446  1.00  0.00     0.180 A 
ATOM      2  C   UNL     1      44.970  14.460  -3.002  1.00  0.00     0.208 A 
ATOM      3  C   UNL     1      45.779  13.322  -2.852  1.00  0.00     0.238 A 
ATOM      4  O   UNL     1      45.266  12.245  -2.445  1.00  0.00    -0.285 OA
ATOM      5  C   UNL     1      47.151  13.396  -3.168  1.00  0.00     0.111 A 
ATOM      6  C   UNL     1      48.034  12.295  -3.050  1.00  0.00     0.134 A 
ATOM      7  C   UNL     1      49.385  12.447  -3.392  1.00  0.00     0.093 A 
ATOM      8  C   UNL     1      49.871  13.673  -3.851  1.00  0.00     0.123 A 
ATOM      9  C   UNL     1      49.005  14.765  -3.969  1.00  0.00     0.094 A 
ATOM     10  C   UNL     1      47.655  14.634  -3.632  1.00  0.00     0.146 A 
ATOM     11  O   UNL     1      46.854  15.688  -3.748  1.00  0.00    -0.452 OA
ENDROOT
BRANCH   1  12
ATOM     12  C   UNL     1      44.777  16.906  -3.610  1.00  0.00     0.025 A 
ATOM     13  C   UNL     1      44.820  17.592  -4.831  1.00  0.00     0.016 A 
ATOM     14  C   UNL     1      44.106  18.779  -5.000  1.00  0.00     0.051 A 
ATOM     15  C   UNL     1      43.349  19.313  -3.952  1.00  0.00     0.157 A 
ATOM     16  C   UNL     1      44.036  17.450  -2.547  1.00  0.00     0.062 A 
ATOM     17  C   UNL     1      43.318  18.643  -2.707  1.00  0.00     0.158 A 
BRANCH  15  18
ATOM     18  O   UNL     1      42.652  20.500  -4.189  1.00  0.00    -0.504 OA
ATOM     19  H   UNL     1      41.931  20.862  -3.582  1.00  0.00     0.293 HD
ENDBRANCH  15  18
BRANCH  17  20
ATOM     20  O   UNL     1      42.602  19.124  -1.609  1.00  0.00    -0.504 OA
ATOM     21  H   UNL     1      42.876  19.930  -1.065  1.00  0.00     0.293 HD
ENDBRANCH  17  20
ENDBRANCH   1  12
BRANCH   2  22
ATOM     22  O   UNL     1      43.599  14.399  -2.742  1.00  0.00    -0.502 OA
ATOM     23  H   UNL     1      42.910  14.794  -3.372  1.00  0.00     0.293 HD
ENDBRANCH   2  22
BRANCH   6  24
ATOM     24  O   UNL     1      47.579  11.056  -2.596  1.00  0.00    -0.507 OA
ATOM     25  H   UNL     1      48.085  10.528  -1.893  1.00  0.00     0.293 HD
ENDBRANCH   6  24
BRANCH   8  26
ATOM     26  O   UNL     1      51.218  13.797  -4.185  1.00  0.00    -0.508 OA
ATOM     27  H   UNL     1      51.548  14.544  -4.786  1.00  0.00     0.293 HD
ENDBRANCH   8  26
TORSDOF 6
ENDMDL
MODEL 3
REMARK VINA RESULT:    -5.443      1.743      3.147
REMARK INTER + INTRA:          -6.614
REMARK INTER:                  -6.292
REMARK INTRA:                  -0.323
REMARK UNBOUND:                -0.058
REMARK SMILES O=c1c(O)c(-c2ccc(O)c(O)c2)oc2cc(O)cc(O)c12
REMARK SMILES IDX 5 1 3 2 2 3 1 4 22 5 20 6 19 7 17 8 16 9 15 10 14 11 6 12
REMARK SMILES IDX 7 13 8 14 9 15 13 16 11 17 10 18 12 20 4 22 21 24 18 26
REMARK H PARENT 10 19 12 21 4 23 21 25 18 27
REMARK Flexibility Score: inf
ROOT
ATOM      1  C   UNL     1      45.146  15.957  -3.539  1.00  0.00     0.180 A 
ATOM      2  C   UNL     1      45.834  16.839  -4.394  1.00  0.00     0.208 A 
ATOM      3  C   UNL     1      47.160  16.545  -4.747  1.00  0.00     0.238 A 
ATOM      4  O   UNL     1      47.783  17.322  -5.521  1.00  0.00    -0.285 OA
ATOM      5  C   UNL     1      47.781  15.392  -4.224  1.00  0.00     0.111 A 
ATOM      6  C   UNL     1      49.116  15.027  -4.526  1.00  0.00     0.134 A 
ATOM      7  C   UNL     1      49.665  13.868  -3.959  1.00  0.00     0.093 A 
ATOM      8  C   UNL     1      48.911  13.070  -3.097  1.00  0.00     0.123 A 
ATOM      9  C   UNL     1      47.592  13.425  -2.795  1.00  0.00     0.094 A 
ATOM     10  C   UNL     1      47.025  14.575  -3.352  1.00  0.00     0.146 A 
ATOM     11  O   UNL     1      45.769  14.887  -3.053  1.00  0.00    -0.452 OA
ENDROOT
BRANCH   1  12
ATOM     12  C   UNL     1      43.739  16.187  -3.137  1.00  0.00     0.025 A 
ATOM     13  C   UNL     1      42.703  15.646  -3.911  1.00  0.00     0.016 A 
ATOM     14  C   UNL     1      41.371  15.868  -3.561  1.00  0.00     0.051 A 
ATOM     15  C   UNL     1      41.045  16.645  -2.444  1.00  0.00     0.157 A 
ATOM     16  C   UNL     1      43.417  16.987  -2.028  1.00  0.00     0.062 A 
ATOM     17  C   UNL     1      42.082  17.218  -1.671  1.00  0.00     0.158 A 
BRANCH  15  18
ATOM     18  O   UNL     1      39.693  16.823  -2.145  1.00  0.00    -0.504 OA
ATOM     19  H   UNL     1      38.990  17.059  -2.831  1.00  0.00     0.293 HD
ENDBRANCH  15  18
BRANCH  17  20
ATOM     20  O   UNL     1      41.835  18.021  -0.555  1.00  0.00    -0.504 OA
ATOM     21  H   UNL     1      42.074  17.762   0.391  1.00  0.00     0.293 HD
ENDBRANCH  17  20
ENDBRANCH   1  12
BRANCH   2  22
ATOM     22  O   UNL     1      45.212  18.001  -4.859  1.00  0.00    -0.502 OA
ATOM     23  H   UNL     1      45.609  18.922  -4.719  1.00  0.00     0.293 HD
ENDBRANCH   2  22
BRANCH   6  24
ATOM     24  O   UNL     1      49.897  15.804  -5.382  1.00  0.00    -0.507 OA
ATOM     25  H   UNL     1      49.997  16.805  -5.251  1.00  0.00     0.293 HD
ENDBRANCH   6  24
BRANCH   8  26
ATOM     26  O   UNL     1      49.481  11.924  -2.546  1.00  0.00    -0.508 OA
ATOM     27  H   UNL     1      50.471  11.874  -2.336  1.00  0.00     0.293 HD
ENDBRANCH   8  26
TORSDOF 6
ENDMDL
MODEL 4
REMARK VINA RESULT:    -5.273      2.474      7.592
REMARK INTER + INTRA:          -6.409
REMARK INTER:                  -6.086
REMARK INTRA:                  -0.324
REMARK UNBOUND:                -0.058
REMARK SMILES O=c1c(O)c(-c2ccc(O)c(O)c2)oc2cc(O)cc(O)c12
REMARK SMILES IDX 5 1 3 2 2 3 1 4 22 5 20 6 19 7 17 8 16 9 15 10 14 11 6 12
REMARK SMILES IDX 7 13 8 14 9 15 13 16 11 17 10 18 12 20 4 22 21 24 18 26
REMARK H PARENT 10 19 12 21 4 23 21 25 18 27
REMARK Flexibility Score: inf
ROOT
ATOM      1  C   UNL     1      43.809  17.500  -3.747  1.00  0.00     0.180 A 
ATOM      2  C   UNL     1      42.701  16.698  -4.083  1.00  0.00     0.208 A 
ATOM      3  C   UNL     1      41.432  17.061  -3.605  1.00  0.00     0.238 A 
ATOM      4  O   UNL     1      40.430  16.357  -3.909  1.00  0.00    -0.285 OA
ATOM      5  C   UNL     1      41.295  18.201  -2.787  1.00  0.00     0.111 A 
ATOM      6  C   UNL     1      40.052  18.632  -2.261  1.00  0.00     0.134 A 
ATOM      7  C   UNL     1      40.000  19.773  -1.447  1.00  0.00     0.093 A 
ATOM      8  C   UNL     1      41.161  20.488  -1.146  1.00  0.00     0.123 A 
ATOM      9  C   UNL     1      42.391  20.068  -1.663  1.00  0.00     0.094 A 
ATOM     10  C   UNL     1      42.464  18.935  -2.478  1.00  0.00     0.146 A 
ATOM     11  O   UNL     1      43.644  18.559  -2.960  1.00  0.00    -0.452 OA
ENDROOT
BRANCH   1  12
ATOM     12  C   UNL     1      45.176  17.194  -4.227  1.00  0.00     0.025 A 
ATOM     13  C   UNL     1      45.617  17.735  -5.443  1.00  0.00     0.016 A 
ATOM     14  C   UNL     1      46.894  17.443  -5.923  1.00  0.00     0.051 A 
ATOM     15  C   UNL     1      47.750  16.596  -5.211  1.00  0.00     0.157 A 
ATOM     16  C   UNL     1      46.023  16.325  -3.519  1.00  0.00     0.062 A 
ATOM     17  C   UNL     1      47.306  16.024  -3.996  1.00  0.00     0.158 A 
BRANCH  15  18
ATOM     18  O   UNL     1      49.017  16.351  -5.744  1.00  0.00    -0.504 OA
ATOM     19  H   UNL     1      49.228  16.375  -6.731  1.00  0.00     0.293 HD
ENDBRANCH  15  18
BRANCH  17  20
ATOM     20  O   UNL     1      48.095  15.155  -3.240  1.00  0.00    -0.504 OA
ATOM     21  H   UNL     1      48.906  15.443  -2.711  1.00  0.00     0.293 HD
ENDBRANCH  17  20
ENDBRANCH   1  12
BRANCH   2  22
ATOM     22  O   UNL     1      42.871  15.546  -4.855  1.00  0.00    -0.502 OA
ATOM     23  H   UNL     1      43.013  14.632  -4.442  1.00  0.00     0.293 HD
ENDBRANCH   2  22
BRANCH   6  24
ATOM     24  O   UNL     1      38.875  17.938  -2.541  1.00  0.00    -0.507 OA
ATOM     25  H   UNL     1      38.625  17.090  -2.046  1.00  0.00     0.293 HD
ENDBRANCH   6  24
BRANCH   8  26
ATOM     26  O   UNL     1      41.081  21.617  -0.334  1.00  0.00    -0.508 OA
ATOM     27  H   UNL     1      41.379  21.594   0.635  1.00  0.00     0.293 HD
ENDBRANCH   8  26
TORSDOF 6
ENDMDL
MODEL 5
REMARK VINA RESULT:    -5.107      2.264      7.654
REMARK INTER + INTRA:          -6.210
REMARK INTER:                  -5.947
REMARK INTRA:                  -0.263
REMARK UNBOUND:                -0.058
REMARK SMILES O=c1c(O)c(-c2ccc(O)c(O)c2)oc2cc(O)cc(O)c12
REMARK SMILES IDX 5 1 3 2 2 3 1 4 22 5 20 6 19 7 17 8 16 9 15 10 14 11 6 12
REMARK SMILES IDX 7 13 8 14 9 15 13 16 11 17 10 18 12 20 4 22 21 24 18 26
REMARK H PARENT 10 19 12 21 4 23 21 25 18 27
REMARK Flexibility Score: inf
ROOT
ATOM      1  C   UNL     1      43.905  16.809  -3.349  1.00  0.00     0.180 A 
ATOM      2  C   UNL     1      42.793  16.322  -4.063  1.00  0.00     0.208 A 
ATOM      3  C   UNL     1      41.560  16.978  -3.927  1.00  0.00     0.238 A 
ATOM      4  O   UNL     1      40.559  16.557  -4.571  1.00  0.00    -0.285 OA
ATOM      5  C   UNL     1      41.453  18.091  -3.068  1.00  0.00     0.111 A 
ATOM      6  C   UNL     1      40.245  18.804  -2.871  1.00  0.00     0.134 A 
ATOM      7  C   UNL     1      40.217  19.896  -1.992  1.00  0.00     0.093 A 
ATOM      8  C   UNL     1      41.369  20.287  -1.305  1.00  0.00     0.123 A 
ATOM      9  C   UNL     1      42.565  19.587  -1.495  1.00  0.00     0.094 A 
ATOM     10  C   UNL     1      42.613  18.497  -2.369  1.00  0.00     0.146 A 
ATOM     11  O   UNL     1      43.762  17.852  -2.536  1.00  0.00    -0.452 OA
ENDROOT
BRANCH   1  12
ATOM     12  C   UNL     1      45.243  16.185  -3.454  1.00  0.00     0.025 A 
ATOM     13  C   UNL     1      45.497  14.980  -2.783  1.00  0.00     0.016 A 
ATOM     14  C   UNL     1      46.757  14.385  -2.854  1.00  0.00     0.051 A 
ATOM     15  C   UNL     1      47.792  14.985  -3.580  1.00  0.00     0.157 A 
ATOM     16  C   UNL     1      46.285  16.802  -4.166  1.00  0.00     0.062 A 
ATOM     17  C   UNL     1      47.555  16.214  -4.239  1.00  0.00     0.158 A 
BRANCH  15  18
ATOM     18  O   UNL     1      49.026  14.334  -3.615  1.00  0.00    -0.504 OA
ATOM     19  H   UNL     1      49.917  14.810  -3.586  1.00  0.00     0.293 HD
ENDBRANCH  15  18
BRANCH  17  20
ATOM     20  O   UNL     1      48.542  16.882  -4.966  1.00  0.00    -0.504 OA
ATOM     21  H   UNL     1      48.739  17.869  -4.877  1.00  0.00     0.293 HD
ENDBRANCH  17  20
ENDBRANCH   1  12
BRANCH   2  22
ATOM     22  O   UNL     1      42.914  15.188  -4.870  1.00  0.00    -0.502 OA
ATOM     23  H   UNL     1      42.124  14.783  -5.358  1.00  0.00     0.293 HD
ENDBRANCH   2  22
BRANCH   6  24
ATOM     24  O   UNL     1      39.077  18.437  -3.541  1.00  0.00    -0.507 OA
ATOM     25  H   UNL     1      38.651  17.526  -3.410  1.00  0.00     0.293 HD
ENDBRANCH   6  24
BRANCH   8  26
ATOM     26  O   UNL     1      41.314  21.375  -0.436  1.00  0.00    -0.508 OA
ATOM     27  H   UNL     1      41.393  21.256   0.567  1.00  0.00     0.293 HD
ENDBRANCH   8  26
TORSDOF 6
ENDMDL
MODEL 6
REMARK VINA RESULT:    -5.063      1.561      6.574
REMARK INTER + INTRA:          -6.157
REMARK INTER:                  -6.272
REMARK INTRA:                   0.115
REMARK UNBOUND:                -0.058
REMARK SMILES O=c1c(O)c(-c2ccc(O)c(O)c2)oc2cc(O)cc(O)c12
REMARK SMILES IDX 5 1 3 2 2 3 1 4 22 5 20 6 19 7 17 8 16 9 15 10 14 11 6 12
REMARK SMILES IDX 7 13 8 14 9 15 13 16 11 17 10 18 12 20 4 22 21 24 18 26
REMARK H PARENT 10 19 12 21 4 23 21 25 18 27
REMARK Flexibility Score: inf
ROOT
ATOM      1  C   UNL     1      46.244  15.762  -3.830  1.00  0.00     0.180 A 
ATOM      2  C   UNL     1      45.595  14.521  -3.680  1.00  0.00     0.208 A 
ATOM      3  C   UNL     1      44.265  14.502  -3.231  1.00  0.00     0.238 A 
ATOM      4  O   UNL     1      43.669  13.398  -3.104  1.00  0.00    -0.285 OA
ATOM      5  C   UNL     1      43.616  15.715  -2.921  1.00  0.00     0.111 A 
ATOM      6  C   UNL     1      42.279  15.783  -2.458  1.00  0.00     0.134 A 
ATOM      7  C   UNL     1      41.708  17.028  -2.163  1.00  0.00     0.093 A 
ATOM      8  C   UNL     1      42.444  18.205  -2.317  1.00  0.00     0.123 A 
ATOM      9  C   UNL     1      43.764  18.145  -2.774  1.00  0.00     0.094 A 
ATOM     10  C   UNL     1      44.352  16.914  -3.076  1.00  0.00     0.146 A 
ATOM     11  O   UNL     1      45.606  16.884  -3.513  1.00  0.00    -0.452 OA
ENDROOT
BRANCH   1  12
ATOM     12  C   UNL     1      47.639  15.866  -4.316  1.00  0.00     0.025 A 
ATOM     13  C   UNL     1      47.962  16.824  -5.287  1.00  0.00     0.016 A 
ATOM     14  C   UNL     1      49.266  16.925  -5.773  1.00  0.00     0.051 A 
ATOM     15  C   UNL     1      50.269  16.065  -5.313  1.00  0.00     0.157 A 
ATOM     16  C   UNL     1      48.638  14.985  -3.868  1.00  0.00     0.062 A 
ATOM     17  C   UNL     1      49.949  15.077  -4.353  1.00  0.00     0.158 A 
BRANCH  15  18
ATOM     18  O   UNL     1      51.554  16.224  -5.835  1.00  0.00    -0.504 OA
ATOM     19  H   UNL     1      52.377  15.780  -5.453  1.00  0.00     0.293 HD
ENDBRANCH  15  18
BRANCH  17  20
ATOM     20  O   UNL     1      50.891  14.171  -3.861  1.00  0.00    -0.504 OA
ATOM     21  H   UNL     1      51.794  14.009  -4.285  1.00  0.00     0.293 HD
ENDBRANCH  17  20
ENDBRANCH   1  12
BRANCH   2  22
ATOM     22  O   UNL     1      46.275  13.330  -3.947  1.00  0.00    -0.502 OA
ATOM     23  H   UNL     1      46.039  12.735  -4.731  1.00  0.00     0.293 HD
ENDBRANCH   2  22
BRANCH   6  24
ATOM     24  O   UNL     1      41.518  14.625  -2.293  1.00  0.00    -0.507 OA
ATOM     25  H   UNL     1      40.677  14.458  -2.834  1.00  0.00     0.293 HD
ENDBRANCH   6  24
BRANCH   8  26
ATOM     26  O   UNL     1      41.852  19.430  -2.015  1.00  0.00    -0.508 OA
ATOM     27  H   UNL     1      42.056  20.263  -2.554  1.00  0.00     0.293 HD
ENDBRANCH   8  26
TORSDOF 6
ENDMDL
MODEL 7
REMARK VINA RESULT:    -5.003      1.399      3.162
REMARK INTER + INTRA:          -6.085
REMARK INTER:                  -6.209
REMARK INTRA:                   0.124
REMARK UNBOUND:                -0.058
REMARK SMILES O=c1c(O)c(-c2ccc(O)c(O)c2)oc2cc(O)cc(O)c12
REMARK SMILES IDX 5 1 3 2 2 3 1 4 22 5 20 6 19 7 17 8 16 9 15 10 14 11 6 12
REMARK SMILES IDX 7 13 8 14 9 15 13 16 11 17 10 18 12 20 4 22 21 24 18 26
REMARK H PARENT 10 19 12 21 4 23 21 25 18 27
REMARK Flexibility Score: inf
ROOT
ATOM      1  C   UNL     1      46.189  16.288  -3.973  1.00  0.00     0.180 A 
ATOM      2  C   UNL     1      47.535  16.429  -4.364  1.00  0.00     0.208 A 
ATOM      3  C   UNL     1      48.434  15.388  -4.086  1.00  0.00     0.238 A 
ATOM      4  O   UNL     1      49.640  15.498  -4.441  1.00  0.00    -0.285 OA
ATOM      5  C   UNL     1      47.982  14.238  -3.407  1.00  0.00     0.111 A 
ATOM      6  C   UNL     1      48.825  13.147  -3.084  1.00  0.00     0.134 A 
ATOM      7  C   UNL     1      48.300  12.041  -2.399  1.00  0.00     0.093 A 
ATOM      8  C   UNL     1      46.954  12.005  -2.028  1.00  0.00     0.123 A 
ATOM      9  C   UNL     1      46.116  13.080  -2.344  1.00  0.00     0.094 A 
ATOM     10  C   UNL     1      46.619  14.190  -3.028  1.00  0.00     0.146 A 
ATOM     11  O   UNL     1      45.802  15.195  -3.321  1.00  0.00    -0.452 OA
ENDROOT
BRANCH   1  12
ATOM     12  C   UNL     1      45.177  17.333  -4.247  1.00  0.00     0.025 A 
ATOM     13  C   UNL     1      45.164  17.971  -5.496  1.00  0.00     0.016 A 
ATOM     14  C   UNL     1      44.231  18.972  -5.767  1.00  0.00     0.051 A 
ATOM     15  C   UNL     1      43.304  19.367  -4.798  1.00  0.00     0.157 A 
ATOM     16  C   UNL     1      44.262  17.742  -3.262  1.00  0.00     0.062 A 
ATOM     17  C   UNL     1      43.324  18.749  -3.526  1.00  0.00     0.158 A 
BRANCH  15  18
ATOM     18  O   UNL     1      42.393  20.370  -5.137  1.00  0.00    -0.504 OA
ATOM     19  H   UNL     1      42.159  21.146  -4.534  1.00  0.00     0.293 HD
ENDBRANCH  15  18
BRANCH  17  20
ATOM     20  O   UNL     1      42.443  19.103  -2.501  1.00  0.00    -0.504 OA
ATOM     21  H   UNL     1      42.617  19.846  -1.839  1.00  0.00     0.293 HD
ENDBRANCH  17  20
ENDBRANCH   1  12
BRANCH   2  22
ATOM     22  O   UNL     1      47.969  17.600  -4.991  1.00  0.00    -0.502 OA
ATOM     23  H   UNL     1      48.790  18.107  -4.685  1.00  0.00     0.293 HD
ENDBRANCH   2  22
BRANCH   6  24
ATOM     24  O   UNL     1      50.174  13.153  -3.440  1.00  0.00    -0.507 OA
ATOM     25  H   UNL     1      50.525  13.738  -4.189  1.00  0.00     0.293 HD
ENDBRANCH   6  24
BRANCH   8  26
ATOM     26  O   UNL     1      46.459  10.896  -1.347  1.00  0.00    -0.508 OA
ATOM     27  H   UNL     1      46.706   9.952  -1.621  1.00  0.00     0.293 HD
ENDBRANCH   8  26
TORSDOF 6
ENDMDL
MODEL 8
REMARK VINA RESULT:    -4.979      1.895      7.220
REMARK INTER + INTRA:          -6.055
REMARK INTER:                  -6.234
REMARK INTRA:                   0.179
REMARK UNBOUND:                -0.058
REMARK SMILES O=c1c(O)c(-c2ccc(O)c(O)c2)oc2cc(O)cc(O)c12
REMARK SMILES IDX 5 1 3 2 2 3 1 4 22 5 20 6 19 7 17 8 16 9 15 10 14 11 6 12
REMARK SMILES IDX 7 13 8 14 9 15 13 16 11 17 10 18 12 20 4 22 21 24 18 26
REMARK H PARENT 10 19 12 21 4 23 21 25 18 27
REMARK Flexibility Score: inf
ROOT
ATOM      1  C   UNL     1      44.594  15.929  -2.863  1.00  0.00     0.180 A 
ATOM      2  C   UNL     1      43.438  15.133  -2.748  1.00  0.00     0.208 A 
ATOM      3  C   UNL     1      42.196  15.764  -2.577  1.00  0.00     0.238 A 
ATOM      4  O   UNL     1      41.151  15.062  -2.484  1.00  0.00    -0.285 OA
ATOM      5  C   UNL     1      42.132  17.170  -2.501  1.00  0.00     0.111 A 
ATOM      6  C   UNL     1      40.921  17.883  -2.324  1.00  0.00     0.134 A 
ATOM      7  C   UNL     1      40.942  19.283  -2.250  1.00  0.00     0.093 A 
ATOM      8  C   UNL     1      42.146  19.984  -2.346  1.00  0.00     0.123 A 
ATOM      9  C   UNL     1      43.345  19.286  -2.521  1.00  0.00     0.094 A 
ATOM     10  C   UNL     1      43.346  17.891  -2.600  1.00  0.00     0.146 A 
ATOM     11  O   UNL     1      44.498  17.252  -2.771  1.00  0.00    -0.452 OA
ENDROOT
BRANCH   1  12
ATOM     12  C   UNL     1      45.938  15.340  -3.065  1.00  0.00     0.025 A 
ATOM     13  C   UNL     1      46.300  14.187  -2.354  1.00  0.00     0.016 A 
ATOM     14  C   UNL     1      47.568  13.627  -2.515  1.00  0.00     0.051 A 
ATOM     15  C   UNL     1      48.504  14.213  -3.374  1.00  0.00     0.157 A 
ATOM     16  C   UNL     1      46.882  15.944  -3.912  1.00  0.00     0.062 A 
ATOM     17  C   UNL     1      48.159  15.391  -4.077  1.00  0.00     0.158 A 
BRANCH  15  18
ATOM     18  O   UNL     1      49.752  13.598  -3.495  1.00  0.00    -0.504 OA
ATOM     19  H   UNL     1      50.517  13.744  -2.851  1.00  0.00     0.293 HD
ENDBRANCH  15  18
BRANCH  17  20
ATOM     20  O   UNL     1      49.046  16.043  -4.935  1.00  0.00    -0.504 OA
ATOM     21  H   UNL     1      49.756  15.572  -5.478  1.00  0.00     0.293 HD
ENDBRANCH  17  20
ENDBRANCH   1  12
BRANCH   2  22
ATOM     22  O   UNL     1      43.534  13.740  -2.777  1.00  0.00    -0.502 OA
ATOM     23  H   UNL     1      42.787  13.138  -2.451  1.00  0.00     0.293 HD
ENDBRANCH   2  22
BRANCH   6  24
ATOM     24  O   UNL     1      39.702  17.211  -2.223  1.00  0.00    -0.507 OA
ATOM     25  H   UNL     1      39.634  16.289  -1.807  1.00  0.00     0.293 HD
ENDBRANCH   6  24
BRANCH   8  26
ATOM     26  O   UNL     1      42.139  21.375  -2.268  1.00  0.00    -0.508 OA
ATOM     27  H   UNL     1      41.674  21.860  -1.509  1.00  0.00     0.293 HD
ENDBRANCH   8  26
TORSDOF 6
ENDMDL
