MODEL 1
REMARK VINA RESULT:    -2.861      0.000      0.000
REMARK INTER + INTRA:          -8.335
REMARK INTER:                  -5.370
REMARK INTRA:                  -2.965
REMARK UNBOUND:                -2.965
REMARK SMILES CCCCCCCCC=CCCCCCCCC(=O)[O-]
REMARK SMILES IDX 10 1 9 2 11 3 12 4 13 5 14 6 15 7 16 8 17 9 18 10 19 11
REMARK SMILES IDX 20 12 8 13 7 14 6 15 5 16 4 17 3 18 2 19 1 20
REMARK H PARENT
REMARK Flexibility Score: inf
ROOT
ATOM      1  C   UNL     1      25.420  -1.552  19.167  1.00  0.00    -0.031 C 
ATOM      2  C   UNL     1      25.943  -1.275  20.377  1.00  0.00    -0.031 C 
ENDROOT
BRANCH   1   3
ATOM      3  C   UNL     1      23.945  -1.577  18.857  1.00  0.00     0.027 C 
BRANCH   3   4
ATOM      4  C   UNL     1      23.491  -0.227  18.283  1.00  0.00     0.004 C 
BRANCH   4   5
ATOM      5  C   UNL     1      24.609   0.500  17.518  1.00  0.00     0.000 C 
BRANCH   5   6
ATOM      6  C   UNL     1      24.933   1.911  18.045  1.00  0.00     0.000 C 
BRANCH   6   7
ATOM      7  C   UNL     1      26.382   2.061  18.564  1.00  0.00     0.000 C 
BRANCH   7   8
ATOM      8  C   UNL     1      27.418   1.307  17.713  1.00  0.00     0.006 C 
BRANCH   8   9
ATOM      9  C   UNL     1      28.550   0.715  18.564  1.00  0.00     0.053 C 
BRANCH   9  10
ATOM     10  C   UNL     1      29.871   1.269  18.131  1.00  0.00     0.041 C 
ATOM     11  O   UNL     1      30.112   1.453  16.909  1.00  0.00    -0.550 OA
ATOM     12  O   UNL     1      30.854   1.539  19.075  1.00  0.00    -0.550 OA
ENDBRANCH   9  10
ENDBRANCH   8   9
ENDBRANCH   7   8
ENDBRANCH   6   7
ENDBRANCH   5   6
ENDBRANCH   4   5
ENDBRANCH   3   4
ENDBRANCH   1   3
BRANCH   2  13
ATOM     13  C   UNL     1      25.141  -0.850  21.583  1.00  0.00     0.027 C 
BRANCH  13  14
ATOM     14  C   UNL     1      24.886   0.666  21.607  1.00  0.00     0.004 C 
BRANCH  14  15
ATOM     15  C   UNL     1      23.453   1.058  22.015  1.00  0.00     0.000 C 
BRANCH  15  16
ATOM     16  C   UNL     1      22.558  -0.162  22.291  1.00  0.00     0.000 C 
BRANCH  16  17
ATOM     17  C   UNL     1      21.387  -0.271  21.301  1.00  0.00    -0.000 C 
BRANCH  17  18
ATOM     18  C   UNL     1      20.997  -1.727  21.004  1.00  0.00    -0.000 C 
BRANCH  18  19
ATOM     19  C   UNL     1      21.905  -2.703  21.760  1.00  0.00    -0.003 C 
ATOM     20  C   UNL     1      21.131  -3.454  22.840  1.00  0.00     0.004 C 
ENDBRANCH  18  19
ENDBRANCH  17  18
ENDBRANCH  16  17
ENDBRANCH  15  16
ENDBRANCH  14  15
ENDBRANCH  13  14
ENDBRANCH   2  13
TORSDOF 15
ENDMDL
MODEL 2
REMARK VINA RESULT:    -2.814      3.211      6.423
REMARK INTER + INTRA:          -8.246
REMARK INTER:                  -5.311
REMARK INTRA:                  -2.935
REMARK UNBOUND:                -2.965
REMARK SMILES CCCCCCCCC=CCCCCCCCC(=O)[O-]
REMARK SMILES IDX 10 1 9 2 11 3 12 4 13 5 14 6 15 7 16 8 17 9 18 10 19 11
REMARK SMILES IDX 20 12 8 13 7 14 6 15 5 16 4 17 3 18 2 19 1 20
REMARK H PARENT
REMARK Flexibility Score: inf
ROOT
ATOM      1  C   UNL     1      25.984  -1.055  20.326  1.00  0.00    -0.031 C 
ATOM      2  C   UNL     1      26.462   0.116  20.787  1.00  0.00    -0.031 C 
ENDROOT
BRANCH   1   3
ATOM      3  C   UNL     1      25.499  -1.286  18.917  1.00  0.00     0.027 C 
BRANCH   3   4
ATOM      4  C   UNL     1      24.003  -1.635  18.912  1.00  0.00     0.004 C 
BRANCH   4   5
ATOM      5  C   UNL     1      23.149  -0.580  18.191  1.00  0.00     0.000 C 
BRANCH   5   6
ATOM      6  C   UNL     1      22.200   0.213  19.111  1.00  0.00     0.000 C 
BRANCH   6   7
ATOM      7  C   UNL     1      22.934   1.158  20.091  1.00  0.00     0.000 C 
BRANCH   7   8
ATOM      8  C   UNL     1      22.614   0.874  21.569  1.00  0.00     0.006 C 
BRANCH   8   9
ATOM      9  C   UNL     1      21.743  -0.378  21.747  1.00  0.00     0.053 C 
BRANCH   9  10
ATOM     10  C   UNL     1      22.581  -1.536  22.189  1.00  0.00     0.041 C 
ATOM     11  O   UNL     1      23.609  -1.343  22.891  1.00  0.00    -0.550 OA
ATOM     12  O   UNL     1      22.251  -2.824  21.788  1.00  0.00    -0.550 OA
ENDBRANCH   9  10
ENDBRANCH   8   9
ENDBRANCH   7   8
ENDBRANCH   6   7
ENDBRANCH   5   6
ENDBRANCH   4   5
ENDBRANCH   3   4
ENDBRANCH   1   3
BRANCH   2  13
ATOM     13  C   UNL     1      26.677   1.349  19.944  1.00  0.00     0.027 C 
BRANCH  13  14
ATOM     14  C   UNL     1      28.168   1.618  19.678  1.00  0.00     0.004 C 
BRANCH  14  15
ATOM     15  C   UNL     1      28.794   0.701  18.610  1.00  0.00     0.000 C 
BRANCH  15  16
ATOM     16  C   UNL     1      29.227   1.467  17.348  1.00  0.00     0.000 C 
BRANCH  16  17
ATOM     17  C   UNL     1      28.041   1.832  16.442  1.00  0.00    -0.000 C 
BRANCH  17  18
ATOM     18  C   UNL     1      27.107   0.641  16.182  1.00  0.00    -0.000 C 
BRANCH  18  19
ATOM     19  C   UNL     1      25.741   1.115  15.673  1.00  0.00    -0.003 C 
ATOM     20  C   UNL     1      25.072   2.049  16.678  1.00  0.00     0.004 C 
ENDBRANCH  18  19
ENDBRANCH  17  18
ENDBRANCH  16  17
ENDBRANCH  15  16
ENDBRANCH  14  15
ENDBRANCH  13  14
ENDBRANCH   2  13
TORSDOF 15
ENDMDL
MODEL 3
REMARK VINA RESULT:    -2.805      3.439      7.050
REMARK INTER + INTRA:          -8.229
REMARK INTER:                  -5.928
REMARK INTRA:                  -2.301
REMARK UNBOUND:                -2.965
REMARK SMILES CCCCCCCCC=CCCCCCCCC(=O)[O-]
REMARK SMILES IDX 10 1 9 2 11 3 12 4 13 5 14 6 15 7 16 8 17 9 18 10 19 11
REMARK SMILES IDX 20 12 8 13 7 14 6 15 5 16 4 17 3 18 2 19 1 20
REMARK H PARENT
REMARK Flexibility Score: inf
ROOT
ATOM      1  C   UNL     1      24.094  -1.205  18.625  1.00  0.00    -0.031 C 
ATOM      2  C   UNL     1      23.487  -0.108  18.134  1.00  0.00    -0.031 C 
ENDROOT
BRANCH   1   3
ATOM      3  C   UNL     1      25.588  -1.397  18.695  1.00  0.00     0.027 C 
BRANCH   3   4
ATOM      4  C   UNL     1      26.085  -1.250  20.140  1.00  0.00     0.004 C 
BRANCH   4   5
ATOM      5  C   UNL     1      26.389   0.208  20.519  1.00  0.00     0.000 C 
BRANCH   5   6
ATOM      6  C   UNL     1      25.861   0.634  21.904  1.00  0.00     0.000 C 
BRANCH   6   7
ATOM      7  C   UNL     1      25.250  -0.530  22.718  1.00  0.00     0.000 C 
BRANCH   7   8
ATOM      8  C   UNL     1      23.778  -0.300  23.104  1.00  0.00     0.006 C 
BRANCH   8   9
ATOM      9  C   UNL     1      22.820  -0.580  21.938  1.00  0.00     0.053 C 
BRANCH   9  10
ATOM     10  C   UNL     1      22.210  -1.939  22.080  1.00  0.00     0.041 C 
ATOM     11  O   UNL     1      21.875  -2.367  23.216  1.00  0.00    -0.550 OA
ATOM     12  O   UNL     1      22.054  -2.750  20.963  1.00  0.00    -0.550 OA
ENDBRANCH   9  10
ENDBRANCH   8   9
ENDBRANCH   7   8
ENDBRANCH   6   7
ENDBRANCH   5   6
ENDBRANCH   4   5
ENDBRANCH   3   4
ENDBRANCH   1   3
BRANCH   2  13
ATOM     13  C   UNL     1      24.203   1.137  17.670  1.00  0.00     0.027 C 
BRANCH  13  14
ATOM     14  C   UNL     1      24.530   1.093  16.168  1.00  0.00     0.004 C 
BRANCH  14  15
ATOM     15  C   UNL     1      25.874   1.748  15.795  1.00  0.00     0.000 C 
BRANCH  15  16
ATOM     16  C   UNL     1      27.082   0.848  16.110  1.00  0.00     0.000 C 
BRANCH  16  17
ATOM     17  C   UNL     1      27.857   1.315  17.351  1.00  0.00    -0.000 C 
BRANCH  17  18
ATOM     18  C   UNL     1      29.293   1.750  17.023  1.00  0.00    -0.000 C 
BRANCH  18  19
ATOM     19  C   UNL     1      30.239   1.447  18.190  1.00  0.00    -0.003 C 
ATOM     20  C   UNL     1      29.750   0.249  19.000  1.00  0.00     0.004 C 
ENDBRANCH  18  19
ENDBRANCH  17  18
ENDBRANCH  16  17
ENDBRANCH  15  16
ENDBRANCH  14  15
ENDBRANCH  13  14
ENDBRANCH   2  13
TORSDOF 15
ENDMDL
MODEL 4
REMARK VINA RESULT:    -2.796      4.198      7.159
REMARK INTER + INTRA:          -8.213
REMARK INTER:                  -5.925
REMARK INTRA:                  -2.288
REMARK UNBOUND:                -2.965
REMARK SMILES CCCCCCCCC=CCCCCCCCC(=O)[O-]
REMARK SMILES IDX 10 1 9 2 11 3 12 4 13 5 14 6 15 7 16 8 17 9 18 10 19 11
REMARK SMILES IDX 20 12 8 13 7 14 6 15 5 16 4 17 3 18 2 19 1 20
REMARK H PARENT
REMARK Flexibility Score: inf
ROOT
ATOM      1  C   UNL     1      28.229  -0.433  19.404  1.00  0.00    -0.031 C 
ATOM      2  C   UNL     1      28.996   0.517  18.835  1.00  0.00    -0.031 C 
ENDROOT
BRANCH   1   3
ATOM      3  C   UNL     1      26.733  -0.343  19.563  1.00  0.00     0.027 C 
BRANCH   3   4
ATOM      4  C   UNL     1      26.040  -1.491  18.815  1.00  0.00     0.004 C 
BRANCH   4   5
ATOM      5  C   UNL     1      24.599  -1.730  19.295  1.00  0.00     0.000 C 
BRANCH   5   6
ATOM      6  C   UNL     1      24.163  -0.843  20.477  1.00  0.00     0.000 C 
BRANCH   6   7
ATOM      7  C   UNL     1      23.376  -1.607  21.567  1.00  0.00     0.000 C 
BRANCH   7   8
ATOM      8  C   UNL     1      22.353  -2.604  20.997  1.00  0.00     0.006 C 
BRANCH   8   9
ATOM      9  C   UNL     1      20.905  -2.177  21.277  1.00  0.00     0.053 C 
BRANCH   9  10
ATOM     10  C   UNL     1      20.237  -3.161  22.184  1.00  0.00     0.041 C 
ATOM     11  O   UNL     1      20.813  -3.544  23.237  1.00  0.00    -0.550 OA
ATOM     12  O   UNL     1      18.999  -3.691  21.843  1.00  0.00    -0.550 OA
ENDBRANCH   9  10
ENDBRANCH   8   9
ENDBRANCH   7   8
ENDBRANCH   6   7
ENDBRANCH   5   6
ENDBRANCH   4   5
ENDBRANCH   3   4
ENDBRANCH   1   3
BRANCH   2  13
ATOM     13  C   UNL     1      28.468   1.770  18.181  1.00  0.00     0.027 C 
BRANCH  13  14
ATOM     14  C   UNL     1      28.722   1.788  16.665  1.00  0.00     0.004 C 
BRANCH  14  15
ATOM     15  C   UNL     1      27.448   1.937  15.812  1.00  0.00     0.000 C 
BRANCH  15  16
ATOM     16  C   UNL     1      26.457   0.778  16.015  1.00  0.00     0.000 C 
BRANCH  16  17
ATOM     17  C   UNL     1      25.007   1.261  16.168  1.00  0.00    -0.000 C 
BRANCH  17  18
ATOM     18  C   UNL     1      24.729   1.872  17.549  1.00  0.00    -0.000 C 
BRANCH  18  19
ATOM     19  C   UNL     1      23.250   1.731  17.925  1.00  0.00    -0.003 C 
ATOM     20  C   UNL     1      22.613   0.537  17.219  1.00  0.00     0.004 C 
ENDBRANCH  18  19
ENDBRANCH  17  18
ENDBRANCH  16  17
ENDBRANCH  15  16
ENDBRANCH  14  15
ENDBRANCH  13  14
ENDBRANCH   2  13
TORSDOF 15
ENDMDL
MODEL 5
REMARK VINA RESULT:    -2.764      3.465      5.242
REMARK INTER + INTRA:          -8.153
REMARK INTER:                  -5.504
REMARK INTRA:                  -2.649
REMARK UNBOUND:                -2.965
REMARK SMILES CCCCCCCCC=CCCCCCCCC(=O)[O-]
REMARK SMILES IDX 10 1 9 2 11 3 12 4 13 5 14 6 15 7 16 8 17 9 18 10 19 11
REMARK SMILES IDX 20 12 8 13 7 14 6 15 5 16 4 17 3 18 2 19 1 20
REMARK H PARENT
REMARK Flexibility Score: inf
ROOT
ATOM      1  C   UNL     1      29.077   1.297  17.563  1.00  0.00    -0.031 C 
ATOM      2  C   UNL     1      29.000   1.066  18.887  1.00  0.00    -0.031 C 
ENDROOT
BRANCH   1   3
ATOM      3  C   UNL     1      27.989   1.940  16.741  1.00  0.00     0.027 C 
BRANCH   3   4
ATOM      4  C   UNL     1      27.159   0.872  16.014  1.00  0.00     0.004 C 
BRANCH   4   5
ATOM      5  C   UNL     1      25.645   1.075  16.189  1.00  0.00     0.000 C 
BRANCH   5   6
ATOM      6  C   UNL     1      25.258   2.105  17.269  1.00  0.00     0.000 C 
BRANCH   6   7
ATOM      7  C   UNL     1      24.073   1.656  18.156  1.00  0.00     0.000 C 
BRANCH   7   8
ATOM      8  C   UNL     1      23.159   0.621  17.478  1.00  0.00     0.006 C 
BRANCH   8   9
ATOM      9  C   UNL     1      21.724   0.669  18.021  1.00  0.00     0.053 C 
BRANCH   9  10
ATOM     10  C   UNL     1      21.017  -0.619  17.738  1.00  0.00     0.041 C 
ATOM     11  O   UNL     1      21.061  -1.127  16.586  1.00  0.00    -0.550 OA
ATOM     12  O   UNL     1      20.271  -1.236  18.735  1.00  0.00    -0.550 OA
ENDBRANCH   9  10
ENDBRANCH   8   9
ENDBRANCH   7   8
ENDBRANCH   6   7
ENDBRANCH   5   6
ENDBRANCH   4   5
ENDBRANCH   3   4
ENDBRANCH   1   3
BRANCH   2  13
ATOM     13  C   UNL     1      27.856   1.500  19.770  1.00  0.00     0.027 C 
BRANCH  13  14
ATOM     14  C   UNL     1      27.015   0.309  20.261  1.00  0.00     0.004 C 
BRANCH  14  15
ATOM     15  C   UNL     1      26.915  -0.851  19.253  1.00  0.00     0.000 C 
BRANCH  15  16
ATOM     16  C   UNL     1      25.573  -1.599  19.338  1.00  0.00     0.000 C 
BRANCH  16  17
ATOM     17  C   UNL     1      24.930  -1.501  20.730  1.00  0.00    -0.000 C 
BRANCH  17  18
ATOM     18  C   UNL     1      23.417  -1.242  20.666  1.00  0.00    -0.000 C 
BRANCH  18  19
ATOM     19  C   UNL     1      22.630  -2.543  20.856  1.00  0.00    -0.003 C 
ATOM     20  C   UNL     1      21.678  -2.444  22.045  1.00  0.00     0.004 C 
ENDBRANCH  18  19
ENDBRANCH  17  18
ENDBRANCH  16  17
ENDBRANCH  15  16
ENDBRANCH  14  15
ENDBRANCH  13  14
ENDBRANCH   2  13
TORSDOF 15
ENDMDL
MODEL 6
REMARK VINA RESULT:    -2.714      3.814      5.760
REMARK INTER + INTRA:          -8.058
REMARK INTER:                  -5.538
REMARK INTRA:                  -2.520
REMARK UNBOUND:                -2.965
REMARK SMILES CCCCCCCCC=CCCCCCCCC(=O)[O-]
REMARK SMILES IDX 10 1 9 2 11 3 12 4 13 5 14 6 15 7 16 8 17 9 18 10 19 11
REMARK SMILES IDX 20 12 8 13 7 14 6 15 5 16 4 17 3 18 2 19 1 20
REMARK H PARENT
REMARK Flexibility Score: inf
ROOT
ATOM      1  C   UNL     1      28.348   1.466  16.754  1.00  0.00    -0.031 C 
ATOM      2  C   UNL     1      29.110   1.286  17.850  1.00  0.00    -0.031 C 
ENDROOT
BRANCH   1   3
ATOM      3  C   UNL     1      27.108   0.670  16.434  1.00  0.00     0.027 C 
BRANCH   3   4
ATOM      4  C   UNL     1      25.946   1.605  16.066  1.00  0.00     0.004 C 
BRANCH   4   5
ATOM      5  C   UNL     1      24.592   1.108  16.599  1.00  0.00     0.000 C 
BRANCH   5   6
ATOM      6  C   UNL     1      24.216   1.648  17.993  1.00  0.00     0.000 C 
BRANCH   6   7
ATOM      7  C   UNL     1      22.751   1.360  18.394  1.00  0.00     0.000 C 
BRANCH   7   8
ATOM      8  C   UNL     1      22.174   0.094  17.736  1.00  0.00     0.006 C 
BRANCH   8   9
ATOM      9  C   UNL     1      20.660   0.199  17.503  1.00  0.00     0.053 C 
BRANCH   9  10
ATOM     10  C   UNL     1      19.926  -0.727  18.421  1.00  0.00     0.041 C 
ATOM     11  O   UNL     1      19.907  -0.505  19.661  1.00  0.00    -0.550 OA
ATOM     12  O   UNL     1      19.303  -1.860  17.913  1.00  0.00    -0.550 OA
ENDBRANCH   9  10
ENDBRANCH   8   9
ENDBRANCH   7   8
ENDBRANCH   6   7
ENDBRANCH   5   6
ENDBRANCH   4   5
ENDBRANCH   3   4
ENDBRANCH   1   3
BRANCH   2  13
ATOM     13  C   UNL     1      28.790   0.330  18.972  1.00  0.00     0.027 C 
BRANCH  13  14
ATOM     14  C   UNL     1      27.847   0.953  20.016  1.00  0.00     0.004 C 
BRANCH  14  15
ATOM     15  C   UNL     1      26.615   0.091  20.348  1.00  0.00     0.000 C 
BRANCH  15  16
ATOM     16  C   UNL     1      26.565  -1.215  19.536  1.00  0.00     0.000 C 
BRANCH  16  17
ATOM     17  C   UNL     1      25.129  -1.691  19.271  1.00  0.00    -0.000 C 
BRANCH  17  18
ATOM     18  C   UNL     1      24.198  -1.461  20.471  1.00  0.00    -0.000 C 
BRANCH  18  19
ATOM     19  C   UNL     1      22.981  -2.390  20.407  1.00  0.00    -0.003 C 
ATOM     20  C   UNL     1      22.181  -2.342  21.706  1.00  0.00     0.004 C 
ENDBRANCH  18  19
ENDBRANCH  17  18
ENDBRANCH  16  17
ENDBRANCH  15  16
ENDBRANCH  14  15
ENDBRANCH  13  14
ENDBRANCH   2  13
TORSDOF 15
ENDMDL
MODEL 7
REMARK VINA RESULT:    -2.704      3.004      6.261
REMARK INTER + INTRA:          -8.041
REMARK INTER:                  -5.589
REMARK INTRA:                  -2.452
REMARK UNBOUND:                -2.965
REMARK SMILES CCCCCCCCC=CCCCCCCCC(=O)[O-]
REMARK SMILES IDX 10 1 9 2 11 3 12 4 13 5 14 6 15 7 16 8 17 9 18 10 19 11
REMARK SMILES IDX 20 12 8 13 7 14 6 15 5 16 4 17 3 18 2 19 1 20
REMARK H PARENT
REMARK Flexibility Score: inf
ROOT
ATOM      1  C   UNL     1      24.686   1.880  16.412  1.00  0.00    -0.031 C 
ATOM      2  C   UNL     1      25.644   1.345  15.630  1.00  0.00    -0.031 C 
ENDROOT
BRANCH   1   3
ATOM      3  C   UNL     1      24.699   1.856  17.919  1.00  0.00     0.027 C 
BRANCH   3   4
ATOM      4  C   UNL     1      23.356   1.346  18.463  1.00  0.00     0.004 C 
BRANCH   4   5
ATOM      5  C   UNL     1      22.725   0.266  17.569  1.00  0.00     0.000 C 
BRANCH   5   6
ATOM      6  C   UNL     1      22.388  -1.051  18.295  1.00  0.00     0.000 C 
BRANCH   6   7
ATOM      7  C   UNL     1      21.177  -0.938  19.251  1.00  0.00     0.000 C 
BRANCH   7   8
ATOM      8  C   UNL     1      21.336  -1.764  20.540  1.00  0.00     0.006 C 
BRANCH   8   9
ATOM      9  C   UNL     1      22.809  -1.975  20.918  1.00  0.00     0.053 C 
BRANCH   9  10
ATOM     10  C   UNL     1      23.207  -1.028  22.006  1.00  0.00     0.041 C 
ATOM     11  O   UNL     1      23.344   0.200  21.759  1.00  0.00    -0.550 OA
ATOM     12  O   UNL     1      23.471  -1.508  23.283  1.00  0.00    -0.550 OA
ENDBRANCH   9  10
ENDBRANCH   8   9
ENDBRANCH   7   8
ENDBRANCH   6   7
ENDBRANCH   5   6
ENDBRANCH   4   5
ENDBRANCH   3   4
ENDBRANCH   1   3
BRANCH   2  13
ATOM     13  C   UNL     1      26.923   0.727  16.139  1.00  0.00     0.027 C 
BRANCH  13  14
ATOM     14  C   UNL     1      27.996   1.783  16.449  1.00  0.00     0.004 C 
BRANCH  14  15
ATOM     15  C   UNL     1      29.189   1.251  17.265  1.00  0.00     0.000 C 
BRANCH  15  16
ATOM     16  C   UNL     1      28.955   1.333  18.783  1.00  0.00     0.000 C 
BRANCH  16  17
ATOM     17  C   UNL     1      28.427   0.015  19.371  1.00  0.00    -0.000 C 
BRANCH  17  18
ATOM     18  C   UNL     1      27.070   0.180  20.071  1.00  0.00    -0.000 C 
BRANCH  18  19
ATOM     19  C   UNL     1      26.311  -1.150  20.118  1.00  0.00    -0.003 C 
ATOM     20  C   UNL     1      25.875  -1.587  18.722  1.00  0.00     0.004 C 
ENDBRANCH  18  19
ENDBRANCH  17  18
ENDBRANCH  16  17
ENDBRANCH  15  16
ENDBRANCH  14  15
ENDBRANCH  13  14
ENDBRANCH   2  13
TORSDOF 15
ENDMDL
MODEL 8
REMARK VINA RESULT:    -2.645      3.430      6.495
REMARK INTER + INTRA:          -7.929
REMARK INTER:                  -5.287
REMARK INTRA:                  -2.642
REMARK UNBOUND:                -2.965
REMARK SMILES CCCCCCCCC=CCCCCCCCC(=O)[O-]
REMARK SMILES IDX 10 1 9 2 11 3 12 4 13 5 14 6 15 7 16 8 17 9 18 10 19 11
REMARK SMILES IDX 20 12 8 13 7 14 6 15 5 16 4 17 3 18 2 19 1 20
REMARK H PARENT
REMARK Flexibility Score: inf
ROOT
ATOM      1  C   UNL     1      26.013  -1.061  20.512  1.00  0.00    -0.031 C 
ATOM      2  C   UNL     1      26.399   0.172  20.890  1.00  0.00    -0.031 C 
ENDROOT
BRANCH   1   3
ATOM      3  C   UNL     1      25.681  -1.457  19.096  1.00  0.00     0.027 C 
BRANCH   3   4
ATOM      4  C   UNL     1      24.198  -1.837  18.975  1.00  0.00     0.004 C 
BRANCH   4   5
ATOM      5  C   UNL     1      23.472  -1.838  20.330  1.00  0.00     0.000 C 
BRANCH   5   6
ATOM      6  C   UNL     1      22.304  -0.837  20.432  1.00  0.00     0.000 C 
BRANCH   6   7
ATOM      7  C   UNL     1      22.664   0.586  19.945  1.00  0.00     0.000 C 
BRANCH   7   8
ATOM      8  C   UNL     1      21.489   1.319  19.276  1.00  0.00     0.006 C 
BRANCH   8   9
ATOM      9  C   UNL     1      20.493   0.350  18.624  1.00  0.00     0.053 C 
BRANCH   9  10
ATOM     10  C   UNL     1      20.926   0.017  17.231  1.00  0.00     0.041 C 
ATOM     11  O   UNL     1      21.109   0.935  16.388  1.00  0.00    -0.550 OA
ATOM     12  O   UNL     1      21.082  -1.310  16.851  1.00  0.00    -0.550 OA
ENDBRANCH   9  10
ENDBRANCH   8   9
ENDBRANCH   7   8
ENDBRANCH   6   7
ENDBRANCH   5   6
ENDBRANCH   4   5
ENDBRANCH   3   4
ENDBRANCH   1   3
BRANCH   2  13
ATOM     13  C   UNL     1      26.652   1.322  19.946  1.00  0.00     0.027 C 
BRANCH  13  14
ATOM     14  C   UNL     1      28.152   1.539  19.683  1.00  0.00     0.004 C 
BRANCH  14  15
ATOM     15  C   UNL     1      28.725   0.674  18.545  1.00  0.00     0.000 C 
BRANCH  15  16
ATOM     16  C   UNL     1      29.099   1.497  17.301  1.00  0.00     0.000 C 
BRANCH  16  17
ATOM     17  C   UNL     1      27.886   1.799  16.407  1.00  0.00    -0.000 C 
BRANCH  17  18
ATOM     18  C   UNL     1      26.964   0.583  16.230  1.00  0.00    -0.000 C 
BRANCH  18  19
ATOM     19  C   UNL     1      25.594   1.007  15.690  1.00  0.00    -0.003 C 
ATOM     20  C   UNL     1      24.606   1.259  16.825  1.00  0.00     0.004 C 
ENDBRANCH  18  19
ENDBRANCH  17  18
ENDBRANCH  16  17
ENDBRANCH  15  16
ENDBRANCH  14  15
ENDBRANCH  13  14
ENDBRANCH   2  13
TORSDOF 15
ENDMDL
MODEL 9
REMARK VINA RESULT:    -2.588      1.851      3.139
REMARK INTER + INTRA:          -7.823
REMARK INTER:                  -5.376
REMARK INTRA:                  -2.447
REMARK UNBOUND:                -2.965
REMARK SMILES CCCCCCCCC=CCCCCCCCC(=O)[O-]
REMARK SMILES IDX 10 1 9 2 11 3 12 4 13 5 14 6 15 7 16 8 17 9 18 10 19 11
REMARK SMILES IDX 20 12 8 13 7 14 6 15 5 16 4 17 3 18 2 19 1 20
REMARK H PARENT
REMARK Flexibility Score: inf
ROOT
ATOM      1  C   UNL     1      23.690  -1.687  20.942  1.00  0.00    -0.031 C 
ATOM      2  C   UNL     1      22.505  -1.238  20.486  1.00  0.00    -0.031 C 
ENDROOT
BRANCH   1   3
ATOM      3  C   UNL     1      24.896  -0.818  21.191  1.00  0.00     0.027 C 
BRANCH   3   4
ATOM      4  C   UNL     1      26.062  -1.241  20.286  1.00  0.00     0.004 C 
BRANCH   4   5
ATOM      5  C   UNL     1      25.627  -1.488  18.832  1.00  0.00     0.000 C 
BRANCH   5   6
ATOM      6  C   UNL     1      26.201  -0.485  17.812  1.00  0.00     0.000 C 
BRANCH   6   7
ATOM      7  C   UNL     1      25.914   0.992  18.167  1.00  0.00     0.000 C 
BRANCH   7   8
ATOM      8  C   UNL     1      27.184   1.855  18.269  1.00  0.00     0.006 C 
BRANCH   8   9
ATOM      9  C   UNL     1      28.087   1.710  17.036  1.00  0.00     0.053 C 
BRANCH   9  10
ATOM     10  C   UNL     1      29.495   1.423  17.452  1.00  0.00     0.041 C 
ATOM     11  O   UNL     1      30.458   1.816  16.742  1.00  0.00    -0.550 OA
ATOM     12  O   UNL     1      29.742   0.681  18.601  1.00  0.00    -0.550 OA
ENDBRANCH   9  10
ENDBRANCH   8   9
ENDBRANCH   7   8
ENDBRANCH   6   7
ENDBRANCH   5   6
ENDBRANCH   4   5
ENDBRANCH   3   4
ENDBRANCH   1   3
BRANCH   2  13
ATOM     13  C   UNL     1      22.171   0.214  20.246  1.00  0.00     0.027 C 
BRANCH  13  14
ATOM     14  C   UNL     1      22.343   0.615  18.771  1.00  0.00     0.004 C 
BRANCH  14  15
ATOM     15  C   UNL     1      22.155  -0.545  17.776  1.00  0.00     0.000 C 
BRANCH  15  16
ATOM     16  C   UNL     1      20.794  -0.501  17.060  1.00  0.00     0.000 C 
BRANCH  16  17
ATOM     17  C   UNL     1      19.709  -1.293  17.807  1.00  0.00    -0.000 C 
BRANCH  17  18
ATOM     18  C   UNL     1      18.787  -0.392  18.641  1.00  0.00    -0.000 C 
BRANCH  18  19
ATOM     19  C   UNL     1      18.535  -0.996  20.027  1.00  0.00    -0.003 C 
ATOM     20  C   UNL     1      19.052  -2.430  20.106  1.00  0.00     0.004 C 
ENDBRANCH  18  19
ENDBRANCH  17  18
ENDBRANCH  16  17
ENDBRANCH  15  16
ENDBRANCH  14  15
ENDBRANCH  13  14
ENDBRANCH   2  13
TORSDOF 15
ENDMDL
