MODEL 1
REMARK VINA RESULT:    -5.041      0.000      0.000
REMARK INTER + INTRA:         -15.955
REMARK INTER:                 -13.293
REMARK INTRA:                  -2.662
REMARK UNBOUND:                -2.662
REMARK SMILES CCCCCCCCCCCCCCCCCCCCCCCCCCCCCC(=O)[O-]
REMARK SMILES IDX 16 1 17 2 18 3 19 4 20 5 21 6 22 7 23 8 24 9 25 10 26 11
REMARK SMILES IDX 27 12 28 13 29 14 30 15 31 16 32 17 15 18 14 19 13 20 12 21
REMARK SMILES IDX 11 22 10 23 9 24 8 25 7 26 6 27 5 28 4 29 3 30 2 31 1 32
REMARK H PARENT
REMARK Flexibility Score: inf
ROOT
ATOM      1  C   UNL     1    -129.801 107.069  38.750  1.00  0.00     0.000 C 
ENDROOT
BRANCH   1   2
ATOM      2  C   UNL     1    -131.253 107.560  38.872  1.00  0.00     0.000 C 
BRANCH   2   3
ATOM      3  C   UNL     1    -131.382 109.083  38.729  1.00  0.00     0.000 C 
BRANCH   3   4
ATOM      4  C   UNL     1    -130.616 109.811  39.840  1.00  0.00     0.000 C 
BRANCH   4   5
ATOM      5  C   UNL     1    -129.207 110.199  39.370  1.00  0.00     0.000 C 
BRANCH   5   6
ATOM      6  C   UNL     1    -129.086 111.684  38.982  1.00  0.00     0.000 C 
BRANCH   6   7
ATOM      7  C   UNL     1    -127.971 112.007  37.967  1.00  0.00     0.000 C 
BRANCH   7   8
ATOM      8  C   UNL     1    -128.171 113.310  37.169  1.00  0.00     0.000 C 
BRANCH   8   9
ATOM      9  C   UNL     1    -129.071 113.174  35.927  1.00  0.00     0.000 C 
BRANCH   9  10
ATOM     10  C   UNL     1    -129.081 114.445  35.060  1.00  0.00     0.000 C 
BRANCH  10  11
ATOM     11  C   UNL     1    -130.197 114.438  34.004  1.00  0.00     0.000 C 
BRANCH  11  12
ATOM     12  C   UNL     1    -131.380 113.507  34.322  1.00  0.00     0.000 C 
BRANCH  12  13
ATOM     13  C   UNL     1    -131.949 112.815  33.074  1.00  0.00     0.006 C 
BRANCH  13  14
ATOM     14  C   UNL     1    -133.407 112.397  33.297  1.00  0.00     0.053 C 
BRANCH  14  15
ATOM     15  C   UNL     1    -134.352 113.494  32.917  1.00  0.00     0.041 C 
ATOM     16  O   UNL     1    -134.538 114.469  33.692  1.00  0.00    -0.550 OA
ATOM     17  O   UNL     1    -135.003 113.459  31.688  1.00  0.00    -0.550 OA
ENDBRANCH  14  15
ENDBRANCH  13  14
ENDBRANCH  12  13
ENDBRANCH  11  12
ENDBRANCH  10  11
ENDBRANCH   9  10
ENDBRANCH   8   9
ENDBRANCH   7   8
ENDBRANCH   6   7
ENDBRANCH   5   6
ENDBRANCH   4   5
ENDBRANCH   3   4
ENDBRANCH   2   3
ENDBRANCH   1   2
BRANCH   1  18
ATOM     18  C   UNL     1    -129.506 105.782  39.550  1.00  0.00     0.000 C 
BRANCH  18  19
ATOM     19  C   UNL     1    -129.354 106.046  41.057  1.00  0.00     0.000 C 
BRANCH  19  20
ATOM     20  C   UNL     1    -128.027 106.743  41.407  1.00  0.00     0.000 C 
BRANCH  20  21
ATOM     21  C   UNL     1    -128.216 108.088  42.139  1.00  0.00     0.000 C 
BRANCH  21  22
ATOM     22  C   UNL     1    -129.663 108.284  42.630  1.00  0.00     0.000 C 
BRANCH  22  23
ATOM     23  C   UNL     1    -129.788 109.410  43.671  1.00  0.00     0.000 C 
BRANCH  23  24
ATOM     24  C   UNL     1    -129.312 110.793  43.183  1.00  0.00    -0.000 C 
BRANCH  24  25
ATOM     25  C   UNL     1    -129.320 111.903  44.253  1.00  0.00    -0.000 C 
BRANCH  25  26
ATOM     26  C   UNL     1    -129.289 113.339  43.698  1.00  0.00    -0.000 C 
BRANCH  26  27
ATOM     27  C   UNL     1    -129.975 113.461  42.329  1.00  0.00    -0.000 C 
BRANCH  27  28
ATOM     28  C   UNL     1    -129.709 114.837  41.699  1.00  0.00    -0.000 C 
BRANCH  28  29
ATOM     29  C   UNL     1    -130.234 115.991  42.580  1.00  0.00    -0.000 C 
BRANCH  29  30
ATOM     30  C   UNL     1    -129.165 117.044  42.922  1.00  0.00    -0.000 C 
BRANCH  30  31
ATOM     31  C   UNL     1    -129.347 117.650  44.320  1.00  0.00    -0.003 C 
ATOM     32  C   UNL     1    -129.853 116.604  45.310  1.00  0.00     0.004 C 
ENDBRANCH  30  31
ENDBRANCH  29  30
ENDBRANCH  28  29
ENDBRANCH  27  28
ENDBRANCH  26  27
ENDBRANCH  25  26
ENDBRANCH  24  25
ENDBRANCH  23  24
ENDBRANCH  22  23
ENDBRANCH  21  22
ENDBRANCH  20  21
ENDBRANCH  19  20
ENDBRANCH  18  19
ENDBRANCH   1  18
TORSDOF 28
ENDMDL
MODEL 2
REMARK VINA RESULT:    -4.236      1.274      2.131
REMARK INTER + INTRA:         -13.833
REMARK INTER:                 -11.373
REMARK INTRA:                  -2.459
REMARK UNBOUND:                -2.662
REMARK SMILES CCCCCCCCCCCCCCCCCCCCCCCCCCCCCC(=O)[O-]
REMARK SMILES IDX 16 1 17 2 18 3 19 4 20 5 21 6 22 7 23 8 24 9 25 10 26 11
REMARK SMILES IDX 27 12 28 13 29 14 30 15 31 16 32 17 15 18 14 19 13 20 12 21
REMARK SMILES IDX 11 22 10 23 9 24 8 25 7 26 6 27 5 28 4 29 3 30 2 31 1 32
REMARK H PARENT
REMARK Flexibility Score: inf
ROOT
ATOM      1  C   UNL     1    -129.794 106.661  40.334  1.00  0.00     0.000 C 
ENDROOT
BRANCH   1   2
ATOM      2  C   UNL     1    -130.092 107.556  39.119  1.00  0.00     0.000 C 
BRANCH   2   3
ATOM      3  C   UNL     1    -129.279 108.858  39.123  1.00  0.00     0.000 C 
BRANCH   3   4
ATOM      4  C   UNL     1    -130.142 110.050  39.553  1.00  0.00     0.000 C 
BRANCH   4   5
ATOM      5  C   UNL     1    -129.332 111.353  39.523  1.00  0.00     0.000 C 
BRANCH   5   6
ATOM      6  C   UNL     1    -128.289 111.390  38.391  1.00  0.00     0.000 C 
BRANCH   6   7
ATOM      7  C   UNL     1    -128.227 112.715  37.603  1.00  0.00     0.000 C 
BRANCH   7   8
ATOM      8  C   UNL     1    -129.046 112.737  36.297  1.00  0.00     0.000 C 
BRANCH   8   9
ATOM      9  C   UNL     1    -128.807 113.969  35.406  1.00  0.00     0.000 C 
BRANCH   9  10
ATOM     10  C   UNL     1    -130.107 114.530  34.807  1.00  0.00     0.000 C 
BRANCH  10  11
ATOM     11  C   UNL     1    -130.493 113.855  33.481  1.00  0.00     0.000 C 
BRANCH  11  12
ATOM     12  C   UNL     1    -131.800 113.044  33.527  1.00  0.00     0.000 C 
BRANCH  12  13
ATOM     13  C   UNL     1    -132.715 113.448  34.692  1.00  0.00     0.006 C 
BRANCH  13  14
ATOM     14  C   UNL     1    -133.842 114.369  34.211  1.00  0.00     0.053 C 
BRANCH  14  15
ATOM     15  C   UNL     1    -133.849 115.661  34.965  1.00  0.00     0.041 C 
ATOM     16  O   UNL     1    -133.051 115.842  35.923  1.00  0.00    -0.550 OA
ATOM     17  O   UNL     1    -134.713 116.684  34.589  1.00  0.00    -0.550 OA
ENDBRANCH  14  15
ENDBRANCH  13  14
ENDBRANCH  12  13
ENDBRANCH  11  12
ENDBRANCH  10  11
ENDBRANCH   9  10
ENDBRANCH   8   9
ENDBRANCH   7   8
ENDBRANCH   6   7
ENDBRANCH   5   6
ENDBRANCH   4   5
ENDBRANCH   3   4
ENDBRANCH   2   3
ENDBRANCH   1   2
BRANCH   1  18
ATOM     18  C   UNL     1    -128.431 106.942  41.001  1.00  0.00     0.000 C 
BRANCH  18  19
ATOM     19  C   UNL     1    -128.556 107.839  42.242  1.00  0.00     0.000 C 
BRANCH  19  20
ATOM     20  C   UNL     1    -130.020 108.110  42.635  1.00  0.00     0.000 C 
BRANCH  20  21
ATOM     21  C   UNL     1    -130.164 109.030  43.865  1.00  0.00     0.000 C 
BRANCH  21  22
ATOM     22  C   UNL     1    -129.038 110.078  43.943  1.00  0.00     0.000 C 
BRANCH  22  23
ATOM     23  C   UNL     1    -129.384 111.376  43.192  1.00  0.00     0.000 C 
BRANCH  23  24
ATOM     24  C   UNL     1    -129.006 112.671  43.939  1.00  0.00    -0.000 C 
BRANCH  24  25
ATOM     25  C   UNL     1    -130.045 113.805  43.850  1.00  0.00    -0.000 C 
BRANCH  25  26
ATOM     26  C   UNL     1    -130.172 114.463  42.464  1.00  0.00    -0.000 C 
BRANCH  26  27
ATOM     27  C   UNL     1    -129.395 115.785  42.361  1.00  0.00    -0.000 C 
BRANCH  27  28
ATOM     28  C   UNL     1    -130.042 116.875  43.230  1.00  0.00    -0.000 C 
BRANCH  28  29
ATOM     29  C   UNL     1    -129.161 117.253  44.441  1.00  0.00    -0.000 C 
BRANCH  29  30
ATOM     30  C   UNL     1    -129.824 118.259  45.398  1.00  0.00    -0.000 C 
BRANCH  30  31
ATOM     31  C   UNL     1    -130.892 117.618  46.294  1.00  0.00    -0.003 C 
ATOM     32  C   UNL     1    -130.536 116.171  46.624  1.00  0.00     0.004 C 
ENDBRANCH  30  31
ENDBRANCH  29  30
ENDBRANCH  28  29
ENDBRANCH  27  28
ENDBRANCH  26  27
ENDBRANCH  25  26
ENDBRANCH  24  25
ENDBRANCH  23  24
ENDBRANCH  22  23
ENDBRANCH  21  22
ENDBRANCH  20  21
ENDBRANCH  19  20
ENDBRANCH  18  19
ENDBRANCH   1  18
TORSDOF 28
ENDMDL
MODEL 3
REMARK VINA RESULT:    -3.998      1.290      3.324
REMARK INTER + INTRA:         -13.205
REMARK INTER:                 -10.379
REMARK INTRA:                  -2.825
REMARK UNBOUND:                -2.662
REMARK SMILES CCCCCCCCCCCCCCCCCCCCCCCCCCCCCC(=O)[O-]
REMARK SMILES IDX 16 1 17 2 18 3 19 4 20 5 21 6 22 7 23 8 24 9 25 10 26 11
REMARK SMILES IDX 27 12 28 13 29 14 30 15 31 16 32 17 15 18 14 19 13 20 12 21
REMARK SMILES IDX 11 22 10 23 9 24 8 25 7 26 6 27 5 28 4 29 3 30 2 31 1 32
REMARK H PARENT
REMARK Flexibility Score: inf
ROOT
ATOM      1  C   UNL     1    -130.228 109.903  39.326  1.00  0.00     0.000 C 
ENDROOT
BRANCH   1   2
ATOM      2  C   UNL     1    -128.699 109.981  39.467  1.00  0.00     0.000 C 
BRANCH   2   3
ATOM      3  C   UNL     1    -128.047 110.889  38.414  1.00  0.00     0.000 C 
BRANCH   3   4
ATOM      4  C   UNL     1    -128.682 112.285  38.416  1.00  0.00     0.000 C 
BRANCH   4   5
ATOM      5  C   UNL     1    -127.974 113.210  37.418  1.00  0.00     0.000 C 
BRANCH   5   6
ATOM      6  C   UNL     1    -128.641 113.226  36.030  1.00  0.00     0.000 C 
BRANCH   6   7
ATOM      7  C   UNL     1    -129.434 114.507  35.700  1.00  0.00     0.000 C 
BRANCH   7   8
ATOM      8  C   UNL     1    -130.123 114.511  34.321  1.00  0.00     0.000 C 
BRANCH   8   9
ATOM      9  C   UNL     1    -130.379 113.116  33.722  1.00  0.00     0.000 C 
BRANCH   9  10
ATOM     10  C   UNL     1    -131.535 113.108  32.709  1.00  0.00     0.000 C 
BRANCH  10  11
ATOM     11  C   UNL     1    -132.833 112.522  33.288  1.00  0.00     0.000 C 
BRANCH  11  12
ATOM     12  C   UNL     1    -134.125 113.138  32.724  1.00  0.00     0.000 C 
BRANCH  12  13
ATOM     13  C   UNL     1    -134.588 114.377  33.505  1.00  0.00     0.006 C 
BRANCH  13  14
ATOM     14  C   UNL     1    -133.833 114.502  34.833  1.00  0.00     0.053 C 
BRANCH  14  15
ATOM     15  C   UNL     1    -133.685 115.933  35.243  1.00  0.00     0.041 C 
ATOM     16  O   UNL     1    -134.553 116.782  34.908  1.00  0.00    -0.550 OA
ATOM     17  O   UNL     1    -132.606 116.326  36.027  1.00  0.00    -0.550 OA
ENDBRANCH  14  15
ENDBRANCH  13  14
ENDBRANCH  12  13
ENDBRANCH  11  12
ENDBRANCH  10  11
ENDBRANCH   9  10
ENDBRANCH   8   9
ENDBRANCH   7   8
ENDBRANCH   6   7
ENDBRANCH   5   6
ENDBRANCH   4   5
ENDBRANCH   3   4
ENDBRANCH   2   3
ENDBRANCH   1   2
BRANCH   1  18
ATOM     18  C   UNL     1    -130.767 108.469  39.130  1.00  0.00     0.000 C 
BRANCH  18  19
ATOM     19  C   UNL     1    -129.685 107.496  38.636  1.00  0.00     0.000 C 
BRANCH  19  20
ATOM     20  C   UNL     1    -130.001 106.030  38.983  1.00  0.00     0.000 C 
BRANCH  20  21
ATOM     21  C   UNL     1    -129.190 105.495  40.181  1.00  0.00     0.000 C 
BRANCH  21  22
ATOM     22  C   UNL     1    -129.306 106.409  41.416  1.00  0.00     0.000 C 
BRANCH  22  23
ATOM     23  C   UNL     1    -127.954 107.008  41.839  1.00  0.00     0.000 C 
BRANCH  23  24
ATOM     24  C   UNL     1    -128.047 108.385  42.524  1.00  0.00    -0.000 C 
BRANCH  24  25
ATOM     25  C   UNL     1    -129.479 108.888  42.790  1.00  0.00    -0.000 C 
BRANCH  25  26
ATOM     26  C   UNL     1    -129.588 110.017  43.833  1.00  0.00    -0.000 C 
BRANCH  26  27
ATOM     27  C   UNL     1    -129.254 111.398  43.249  1.00  0.00    -0.000 C 
BRANCH  27  28
ATOM     28  C   UNL     1    -129.106 112.447  44.361  1.00  0.00    -0.000 C 
BRANCH  28  29
ATOM     29  C   UNL     1    -129.660 113.826  43.938  1.00  0.00    -0.000 C 
BRANCH  29  30
ATOM     30  C   UNL     1    -130.188 113.862  42.492  1.00  0.00    -0.000 C 
BRANCH  30  31
ATOM     31  C   UNL     1    -129.746 115.116  41.726  1.00  0.00    -0.003 C 
ATOM     32  C   UNL     1    -129.589 116.308  42.666  1.00  0.00     0.004 C 
ENDBRANCH  30  31
ENDBRANCH  29  30
ENDBRANCH  28  29
ENDBRANCH  27  28
ENDBRANCH  26  27
ENDBRANCH  25  26
ENDBRANCH  24  25
ENDBRANCH  23  24
ENDBRANCH  22  23
ENDBRANCH  21  22
ENDBRANCH  20  21
ENDBRANCH  19  20
ENDBRANCH  18  19
ENDBRANCH   1  18
TORSDOF 28
ENDMDL
MODEL 4
REMARK VINA RESULT:    -3.944      2.113      4.867
REMARK INTER + INTRA:         -13.063
REMARK INTER:                 -10.782
REMARK INTRA:                  -2.280
REMARK UNBOUND:                -2.662
REMARK SMILES CCCCCCCCCCCCCCCCCCCCCCCCCCCCCC(=O)[O-]
REMARK SMILES IDX 16 1 17 2 18 3 19 4 20 5 21 6 22 7 23 8 24 9 25 10 26 11
REMARK SMILES IDX 27 12 28 13 29 14 30 15 31 16 32 17 15 18 14 19 13 20 12 21
REMARK SMILES IDX 11 22 10 23 9 24 8 25 7 26 6 27 5 28 4 29 3 30 2 31 1 32
REMARK H PARENT
REMARK Flexibility Score: inf
ROOT
ATOM      1  C   UNL     1    -128.242 108.282  42.210  1.00  0.00     0.000 C 
ENDROOT
BRANCH   1   2
ATOM      2  C   UNL     1    -127.931 106.784  42.052  1.00  0.00     0.000 C 
BRANCH   2   3
ATOM      3  C   UNL     1    -128.019 106.306  40.596  1.00  0.00     0.000 C 
BRANCH   3   4
ATOM      4  C   UNL     1    -128.979 105.118  40.460  1.00  0.00     0.000 C 
BRANCH   4   5
ATOM      5  C   UNL     1    -130.398 105.596  40.126  1.00  0.00     0.000 C 
BRANCH   5   6
ATOM      6  C   UNL     1    -130.473 106.400  38.815  1.00  0.00     0.000 C 
BRANCH   6   7
ATOM      7  C   UNL     1    -129.871 107.818  38.881  1.00  0.00     0.000 C 
BRANCH   7   8
ATOM      8  C   UNL     1    -130.891 108.952  39.108  1.00  0.00     0.000 C 
BRANCH   8   9
ATOM      9  C   UNL     1    -130.281 110.284  39.580  1.00  0.00     0.000 C 
BRANCH   9  10
ATOM     10  C   UNL     1    -128.796 110.422  39.206  1.00  0.00     0.000 C 
BRANCH  10  11
ATOM     11  C   UNL     1    -128.567 111.352  38.004  1.00  0.00     0.000 C 
BRANCH  11  12
ATOM     12  C   UNL     1    -128.320 112.827  38.368  1.00  0.00     0.000 C 
BRANCH  12  13
ATOM     13  C   UNL     1    -128.349 113.758  37.147  1.00  0.00     0.006 C 
BRANCH  13  14
ATOM     14  C   UNL     1    -128.782 112.998  35.889  1.00  0.00     0.053 C 
BRANCH  14  15
ATOM     15  C   UNL     1    -129.393 113.919  34.880  1.00  0.00     0.041 C 
ATOM     16  O   UNL     1    -129.984 114.967  35.252  1.00  0.00    -0.550 OA
ATOM     17  O   UNL     1    -129.280 113.639  33.522  1.00  0.00    -0.550 OA
ENDBRANCH  14  15
ENDBRANCH  13  14
ENDBRANCH  12  13
ENDBRANCH  11  12
ENDBRANCH  10  11
ENDBRANCH   9  10
ENDBRANCH   8   9
ENDBRANCH   7   8
ENDBRANCH   6   7
ENDBRANCH   5   6
ENDBRANCH   4   5
ENDBRANCH   3   4
ENDBRANCH   2   3
ENDBRANCH   1   2
BRANCH   1  18
ATOM     18  C   UNL     1    -129.723 108.585  42.524  1.00  0.00     0.000 C 
BRANCH  18  19
ATOM     19  C   UNL     1    -129.908 109.273  43.886  1.00  0.00     0.000 C 
BRANCH  19  20
ATOM     20  C   UNL     1    -129.196 110.635  43.965  1.00  0.00     0.000 C 
BRANCH  20  21
ATOM     21  C   UNL     1    -129.590 111.599  42.828  1.00  0.00     0.000 C 
BRANCH  21  22
ATOM     22  C   UNL     1    -129.434 113.076  43.236  1.00  0.00     0.000 C 
BRANCH  22  23
ATOM     23  C   UNL     1    -129.835 114.048  42.113  1.00  0.00     0.000 C 
BRANCH  23  24
ATOM     24  C   UNL     1    -130.062 115.502  42.571  1.00  0.00    -0.000 C 
BRANCH  24  25
ATOM     25  C   UNL     1    -128.848 116.437  42.406  1.00  0.00    -0.000 C 
BRANCH  25  26
ATOM     26  C   UNL     1    -129.120 117.918  42.732  1.00  0.00    -0.000 C 
BRANCH  26  27
ATOM     27  C   UNL     1    -128.488 118.358  44.061  1.00  0.00    -0.000 C 
BRANCH  27  28
ATOM     28  C   UNL     1    -129.564 118.618  45.126  1.00  0.00    -0.000 C 
BRANCH  28  29
ATOM     29  C   UNL     1    -130.201 117.308  45.639  1.00  0.00    -0.000 C 
BRANCH  29  30
ATOM     30  C   UNL     1    -130.906 117.455  47.000  1.00  0.00    -0.000 C 
BRANCH  30  31
ATOM     31  C   UNL     1    -131.515 118.847  47.211  1.00  0.00    -0.003 C 
ATOM     32  C   UNL     1    -133.032 118.766  47.362  1.00  0.00     0.004 C 
ENDBRANCH  30  31
ENDBRANCH  29  30
ENDBRANCH  28  29
ENDBRANCH  27  28
ENDBRANCH  26  27
ENDBRANCH  25  26
ENDBRANCH  24  25
ENDBRANCH  23  24
ENDBRANCH  22  23
ENDBRANCH  21  22
ENDBRANCH  20  21
ENDBRANCH  19  20
ENDBRANCH  18  19
ENDBRANCH   1  18
TORSDOF 28
ENDMDL
MODEL 5
REMARK VINA RESULT:    -3.943      1.221      3.293
REMARK INTER + INTRA:         -13.058
REMARK INTER:                 -10.757
REMARK INTRA:                  -2.301
REMARK UNBOUND:                -2.662
REMARK SMILES CCCCCCCCCCCCCCCCCCCCCCCCCCCCCC(=O)[O-]
REMARK SMILES IDX 16 1 17 2 18 3 19 4 20 5 21 6 22 7 23 8 24 9 25 10 26 11
REMARK SMILES IDX 27 12 28 13 29 14 30 15 31 16 32 17 15 18 14 19 13 20 12 21
REMARK SMILES IDX 11 22 10 23 9 24 8 25 7 26 6 27 5 28 4 29 3 30 2 31 1 32
REMARK H PARENT
REMARK Flexibility Score: inf
ROOT
ATOM      1  C   UNL     1    -129.730 107.908  41.915  1.00  0.00     0.000 C 
ENDROOT
BRANCH   1   2
ATOM      2  C   UNL     1    -129.786 108.029  40.383  1.00  0.00     0.000 C 
BRANCH   2   3
ATOM      3  C   UNL     1    -130.797 109.080  39.904  1.00  0.00     0.000 C 
BRANCH   3   4
ATOM      4  C   UNL     1    -130.230 109.906  38.743  1.00  0.00     0.000 C 
BRANCH   4   5
ATOM      5  C   UNL     1    -128.885 110.537  39.125  1.00  0.00     0.000 C 
BRANCH   5   6
ATOM      6  C   UNL     1    -128.832 112.053  38.859  1.00  0.00     0.000 C 
BRANCH   6   7
ATOM      7  C   UNL     1    -127.960 112.476  37.659  1.00  0.00     0.000 C 
BRANCH   7   8
ATOM      8  C   UNL     1    -128.544 113.612  36.795  1.00  0.00     0.000 C 
BRANCH   8   9
ATOM      9  C   UNL     1    -129.319 113.144  35.550  1.00  0.00     0.000 C 
BRANCH   9  10
ATOM     10  C   UNL     1    -129.783 114.313  34.666  1.00  0.00     0.000 C 
BRANCH  10  11
ATOM     11  C   UNL     1    -130.947 113.933  33.736  1.00  0.00     0.000 C 
BRANCH  11  12
ATOM     12  C   UNL     1    -132.208 113.424  34.456  1.00  0.00     0.000 C 
BRANCH  12  13
ATOM     13  C   UNL     1    -133.509 113.888  33.785  1.00  0.00     0.006 C 
BRANCH  13  14
ATOM     14  C   UNL     1    -133.952 112.896  32.704  1.00  0.00     0.053 C 
BRANCH  14  15
ATOM     15  C   UNL     1    -134.972 113.503  31.792  1.00  0.00     0.041 C 
ATOM     16  O   UNL     1    -134.981 114.746  31.588  1.00  0.00    -0.550 OA
ATOM     17  O   UNL     1    -135.892 112.692  31.137  1.00  0.00    -0.550 OA
ENDBRANCH  14  15
ENDBRANCH  13  14
ENDBRANCH  12  13
ENDBRANCH  11  12
ENDBRANCH  10  11
ENDBRANCH   9  10
ENDBRANCH   8   9
ENDBRANCH   7   8
ENDBRANCH   6   7
ENDBRANCH   5   6
ENDBRANCH   4   5
ENDBRANCH   3   4
ENDBRANCH   2   3
ENDBRANCH   1   2
BRANCH   1  18
ATOM     18  C   UNL     1    -128.879 108.999  42.600  1.00  0.00     0.000 C 
BRANCH  18  19
ATOM     19  C   UNL     1    -129.714 110.219  43.021  1.00  0.00     0.000 C 
BRANCH  19  20
ATOM     20  C   UNL     1    -128.969 111.137  44.006  1.00  0.00     0.000 C 
BRANCH  20  21
ATOM     21  C   UNL     1    -129.111 112.637  43.673  1.00  0.00     0.000 C 
BRANCH  21  22
ATOM     22  C   UNL     1    -129.749 112.867  42.290  1.00  0.00     0.000 C 
BRANCH  22  23
ATOM     23  C   UNL     1    -130.380 114.264  42.154  1.00  0.00     0.000 C 
BRANCH  23  24
ATOM     24  C   UNL     1    -129.378 115.433  42.228  1.00  0.00    -0.000 C 
BRANCH  24  25
ATOM     25  C   UNL     1    -129.999 116.808  42.543  1.00  0.00    -0.000 C 
BRANCH  25  26
ATOM     26  C   UNL     1    -128.999 117.878  43.020  1.00  0.00    -0.000 C 
BRANCH  26  27
ATOM     27  C   UNL     1    -129.067 118.121  44.535  1.00  0.00    -0.000 C 
BRANCH  27  28
ATOM     28  C   UNL     1    -130.483 117.866  45.073  1.00  0.00    -0.000 C 
BRANCH  28  29
ATOM     29  C   UNL     1    -130.483 117.555  46.586  1.00  0.00    -0.000 C 
BRANCH  29  30
ATOM     30  C   UNL     1    -130.950 116.128  46.924  1.00  0.00    -0.000 C 
BRANCH  30  31
ATOM     31  C   UNL     1    -130.475 115.086  45.903  1.00  0.00    -0.003 C 
ATOM     32  C   UNL     1    -128.952 114.991  45.882  1.00  0.00     0.004 C 
ENDBRANCH  30  31
ENDBRANCH  29  30
ENDBRANCH  28  29
ENDBRANCH  27  28
ENDBRANCH  26  27
ENDBRANCH  25  26
ENDBRANCH  24  25
ENDBRANCH  23  24
ENDBRANCH  22  23
ENDBRANCH  21  22
ENDBRANCH  20  21
ENDBRANCH  19  20
ENDBRANCH  18  19
ENDBRANCH   1  18
TORSDOF 28
ENDMDL
MODEL 6
REMARK VINA RESULT:    -3.752      5.703      9.040
REMARK INTER + INTRA:         -12.556
REMARK INTER:                 -10.047
REMARK INTRA:                  -2.508
REMARK UNBOUND:                -2.662
REMARK SMILES CCCCCCCCCCCCCCCCCCCCCCCCCCCCCC(=O)[O-]
REMARK SMILES IDX 16 1 17 2 18 3 19 4 20 5 21 6 22 7 23 8 24 9 25 10 26 11
REMARK SMILES IDX 27 12 28 13 29 14 30 15 31 16 32 17 15 18 14 19 13 20 12 21
REMARK SMILES IDX 11 22 10 23 9 24 8 25 7 26 6 27 5 28 4 29 3 30 2 31 1 32
REMARK H PARENT
REMARK Flexibility Score: inf
ROOT
ATOM      1  C   UNL     1    -131.423 108.545  39.086  1.00  0.00     0.000 C 
ENDROOT
BRANCH   1   2
ATOM      2  C   UNL     1    -130.128 107.775  38.776  1.00  0.00     0.000 C 
BRANCH   2   3
ATOM      3  C   UNL     1    -130.303 106.253  38.862  1.00  0.00     0.000 C 
BRANCH   3   4
ATOM      4  C   UNL     1    -129.119 105.599  39.584  1.00  0.00     0.000 C 
BRANCH   4   5
ATOM      5  C   UNL     1    -129.123 105.954  41.077  1.00  0.00     0.000 C 
BRANCH   5   6
ATOM      6  C   UNL     1    -127.878 106.746  41.514  1.00  0.00     0.000 C 
BRANCH   6   7
ATOM      7  C   UNL     1    -128.155 107.929  42.465  1.00  0.00     0.000 C 
BRANCH   7   8
ATOM      8  C   UNL     1    -129.550 108.570  42.322  1.00  0.00     0.000 C 
BRANCH   8   9
ATOM      9  C   UNL     1    -130.559 108.171  43.415  1.00  0.00     0.000 C 
BRANCH   9  10
ATOM     10  C   UNL     1    -130.380 108.979  44.710  1.00  0.00     0.000 C 
BRANCH  10  11
ATOM     11  C   UNL     1    -131.676 109.087  45.530  1.00  0.00     0.000 C 
BRANCH  11  12
ATOM     12  C   UNL     1    -131.544 108.659  47.003  1.00  0.00     0.000 C 
BRANCH  12  13
ATOM     13  C   UNL     1    -130.219 107.941  47.302  1.00  0.00     0.006 C 
BRANCH  13  14
ATOM     14  C   UNL     1    -130.172 107.463  48.758  1.00  0.00     0.053 C 
BRANCH  14  15
ATOM     15  C   UNL     1    -128.835 107.729  49.375  1.00  0.00     0.041 C 
ATOM     16  O   UNL     1    -128.583 108.853  49.884  1.00  0.00    -0.550 OA
ATOM     17  O   UNL     1    -127.875 106.723  49.421  1.00  0.00    -0.550 OA
ENDBRANCH  14  15
ENDBRANCH  13  14
ENDBRANCH  12  13
ENDBRANCH  11  12
ENDBRANCH  10  11
ENDBRANCH   9  10
ENDBRANCH   8   9
ENDBRANCH   7   8
ENDBRANCH   6   7
ENDBRANCH   5   6
ENDBRANCH   4   5
ENDBRANCH   3   4
ENDBRANCH   2   3
ENDBRANCH   1   2
BRANCH   1  18
ATOM     18  C   UNL     1    -131.225 110.068  39.243  1.00  0.00     0.000 C 
BRANCH  18  19
ATOM     19  C   UNL     1    -129.774 110.503  38.985  1.00  0.00     0.000 C 
BRANCH  19  20
ATOM     20  C   UNL     1    -129.243 111.469  40.060  1.00  0.00     0.000 C 
BRANCH  20  21
ATOM     21  C   UNL     1    -130.348 112.032  40.977  1.00  0.00     0.000 C 
BRANCH  21  22
ATOM     22  C   UNL     1    -129.770 112.796  42.183  1.00  0.00     0.000 C 
BRANCH  22  23
ATOM     23  C   UNL     1    -130.564 114.072  42.513  1.00  0.00     0.000 C 
BRANCH  23  24
ATOM     24  C   UNL     1    -129.911 115.380  42.026  1.00  0.00    -0.000 C 
BRANCH  24  25
ATOM     25  C   UNL     1    -130.295 116.641  42.826  1.00  0.00    -0.000 C 
BRANCH  25  26
ATOM     26  C   UNL     1    -129.108 117.518  43.265  1.00  0.00    -0.000 C 
BRANCH  26  27
ATOM     27  C   UNL     1    -129.035 117.699  44.789  1.00  0.00    -0.000 C 
BRANCH  27  28
ATOM     28  C   UNL     1    -130.286 118.414  45.321  1.00  0.00    -0.000 C 
BRANCH  28  29
ATOM     29  C   UNL     1    -130.915 117.671  46.520  1.00  0.00    -0.000 C 
BRANCH  29  30
ATOM     30  C   UNL     1    -130.202 116.353  46.873  1.00  0.00    -0.000 C 
BRANCH  30  31
ATOM     31  C   UNL     1    -130.487 115.231  45.866  1.00  0.00    -0.003 C 
ATOM     32  C   UNL     1    -129.239 114.389  45.615  1.00  0.00     0.004 C 
ENDBRANCH  30  31
ENDBRANCH  29  30
ENDBRANCH  28  29
ENDBRANCH  27  28
ENDBRANCH  26  27
ENDBRANCH  25  26
ENDBRANCH  24  25
ENDBRANCH  23  24
ENDBRANCH  22  23
ENDBRANCH  21  22
ENDBRANCH  20  21
ENDBRANCH  19  20
ENDBRANCH  18  19
ENDBRANCH   1  18
TORSDOF 28
ENDMDL
MODEL 7
REMARK VINA RESULT:    -3.742      0.967      2.034
REMARK INTER + INTRA:         -12.530
REMARK INTER:                  -9.987
REMARK INTRA:                  -2.542
REMARK UNBOUND:                -2.662
REMARK SMILES CCCCCCCCCCCCCCCCCCCCCCCCCCCCCC(=O)[O-]
REMARK SMILES IDX 16 1 17 2 18 3 19 4 20 5 21 6 22 7 23 8 24 9 25 10 26 11
REMARK SMILES IDX 27 12 28 13 29 14 30 15 31 16 32 17 15 18 14 19 13 20 12 21
REMARK SMILES IDX 11 22 10 23 9 24 8 25 7 26 6 27 5 28 4 29 3 30 2 31 1 32
REMARK H PARENT
REMARK Flexibility Score: inf
ROOT
ATOM      1  C   UNL     1    -129.764 106.939  40.295  1.00  0.00     0.000 C 
ENDROOT
BRANCH   1   2
ATOM      2  C   UNL     1    -130.061 107.902  39.133  1.00  0.00     0.000 C 
BRANCH   2   3
ATOM      3  C   UNL     1    -129.152 109.139  39.135  1.00  0.00     0.000 C 
BRANCH   3   4
ATOM      4  C   UNL     1    -129.938 110.403  39.501  1.00  0.00     0.000 C 
BRANCH   4   5
ATOM      5  C   UNL     1    -129.066 111.656  39.340  1.00  0.00     0.000 C 
BRANCH   5   6
ATOM      6  C   UNL     1    -128.327 111.709  37.990  1.00  0.00     0.000 C 
BRANCH   6   7
ATOM      7  C   UNL     1    -128.391 113.067  37.262  1.00  0.00     0.000 C 
BRANCH   7   8
ATOM      8  C   UNL     1    -128.796 112.994  35.776  1.00  0.00     0.000 C 
BRANCH   8   9
ATOM      9  C   UNL     1    -129.106 114.353  35.124  1.00  0.00     0.000 C 
BRANCH   9  10
ATOM     10  C   UNL     1    -130.596 114.523  34.784  1.00  0.00     0.000 C 
BRANCH  10  11
ATOM     11  C   UNL     1    -130.959 113.970  33.396  1.00  0.00     0.000 C 
BRANCH  11  12
ATOM     12  C   UNL     1    -131.828 112.701  33.415  1.00  0.00     0.000 C 
BRANCH  12  13
ATOM     13  C   UNL     1    -133.106 112.863  34.252  1.00  0.00     0.006 C 
BRANCH  13  14
ATOM     14  C   UNL     1    -134.023 113.934  33.650  1.00  0.00     0.053 C 
BRANCH  14  15
ATOM     15  C   UNL     1    -134.804 113.395  32.493  1.00  0.00     0.041 C 
ATOM     16  O   UNL     1    -135.778 112.621  32.690  1.00  0.00    -0.550 OA
ATOM     17  O   UNL     1    -134.481 113.775  31.195  1.00  0.00    -0.550 OA
ENDBRANCH  14  15
ENDBRANCH  13  14
ENDBRANCH  12  13
ENDBRANCH  11  12
ENDBRANCH  10  11
ENDBRANCH   9  10
ENDBRANCH   8   9
ENDBRANCH   7   8
ENDBRANCH   6   7
ENDBRANCH   5   6
ENDBRANCH   4   5
ENDBRANCH   3   4
ENDBRANCH   2   3
ENDBRANCH   1   2
BRANCH   1  18
ATOM     18  C   UNL     1    -128.397 107.175  40.971  1.00  0.00     0.000 C 
BRANCH  18  19
ATOM     19  C   UNL     1    -128.524 107.888  42.327  1.00  0.00     0.000 C 
BRANCH  19  20
ATOM     20  C   UNL     1    -129.986 108.186  42.707  1.00  0.00     0.000 C 
BRANCH  20  21
ATOM     21  C   UNL     1    -130.126 109.238  43.826  1.00  0.00     0.000 C 
BRANCH  21  22
ATOM     22  C   UNL     1    -128.992 110.279  43.790  1.00  0.00     0.000 C 
BRANCH  22  23
ATOM     23  C   UNL     1    -129.394 111.570  43.055  1.00  0.00     0.000 C 
BRANCH  23  24
ATOM     24  C   UNL     1    -129.115 112.869  43.836  1.00  0.00    -0.000 C 
BRANCH  24  25
ATOM     25  C   UNL     1    -130.048 114.048  43.499  1.00  0.00    -0.000 C 
BRANCH  25  26
ATOM     26  C   UNL     1    -129.726 114.775  42.180  1.00  0.00    -0.000 C 
BRANCH  26  27
ATOM     27  C   UNL     1    -129.048 116.136  42.403  1.00  0.00    -0.000 C 
BRANCH  27  28
ATOM     28  C   UNL     1    -130.002 117.122  43.094  1.00  0.00    -0.000 C 
BRANCH  28  29
ATOM     29  C   UNL     1    -129.303 117.914  44.220  1.00  0.00    -0.000 C 
BRANCH  29  30
ATOM     30  C   UNL     1    -130.082 117.918  45.548  1.00  0.00    -0.000 C 
BRANCH  30  31
ATOM     31  C   UNL     1    -130.192 116.525  46.182  1.00  0.00    -0.003 C 
ATOM     32  C   UNL     1    -131.277 116.494  47.254  1.00  0.00     0.004 C 
ENDBRANCH  30  31
ENDBRANCH  29  30
ENDBRANCH  28  29
ENDBRANCH  27  28
ENDBRANCH  26  27
ENDBRANCH  25  26
ENDBRANCH  24  25
ENDBRANCH  23  24
ENDBRANCH  22  23
ENDBRANCH  21  22
ENDBRANCH  20  21
ENDBRANCH  19  20
ENDBRANCH  18  19
ENDBRANCH   1  18
TORSDOF 28
ENDMDL
MODEL 8
REMARK VINA RESULT:    -3.714      3.532      8.738
REMARK INTER + INTRA:         -12.455
REMARK INTER:                 -10.416
REMARK INTRA:                  -2.039
REMARK UNBOUND:                -2.662
REMARK SMILES CCCCCCCCCCCCCCCCCCCCCCCCCCCCCC(=O)[O-]
REMARK SMILES IDX 16 1 17 2 18 3 19 4 20 5 21 6 22 7 23 8 24 9 25 10 26 11
REMARK SMILES IDX 27 12 28 13 29 14 30 15 31 16 32 17 15 18 14 19 13 20 12 21
REMARK SMILES IDX 11 22 10 23 9 24 8 25 7 26 6 27 5 28 4 29 3 30 2 31 1 32
REMARK H PARENT
REMARK Flexibility Score: inf
ROOT
ATOM      1  C   UNL     1    -130.184 108.808  39.124  1.00  0.00     0.000 C 
ENDROOT
BRANCH   1   2
ATOM      2  C   UNL     1    -129.789 107.343  38.873  1.00  0.00     0.000 C 
BRANCH   2   3
ATOM      3  C   UNL     1    -130.082 106.431  40.072  1.00  0.00     0.000 C 
BRANCH   3   4
ATOM      4  C   UNL     1    -128.815 106.176  40.897  1.00  0.00     0.000 C 
BRANCH   4   5
ATOM      5  C   UNL     1    -128.558 107.328  41.878  1.00  0.00     0.000 C 
BRANCH   5   6
ATOM      6  C   UNL     1    -129.847 107.876  42.517  1.00  0.00     0.000 C 
BRANCH   6   7
ATOM      7  C   UNL     1    -129.633 108.944  43.609  1.00  0.00     0.000 C 
BRANCH   7   8
ATOM      8  C   UNL     1    -129.415 110.378  43.086  1.00  0.00     0.000 C 
BRANCH   8   9
ATOM      9  C   UNL     1    -129.444 111.471  44.170  1.00  0.00     0.000 C 
BRANCH   9  10
ATOM     10  C   UNL     1    -129.032 112.851  43.631  1.00  0.00     0.000 C 
BRANCH  10  11
ATOM     11  C   UNL     1    -129.761 113.227  42.331  1.00  0.00     0.000 C 
BRANCH  11  12
ATOM     12  C   UNL     1    -130.359 114.644  42.314  1.00  0.00     0.000 C 
BRANCH  12  13
ATOM     13  C   UNL     1    -129.312 115.740  42.559  1.00  0.00     0.006 C 
BRANCH  13  14
ATOM     14  C   UNL     1    -129.942 116.958  43.244  1.00  0.00     0.053 C 
BRANCH  14  15
ATOM     15  C   UNL     1    -129.783 116.891  44.730  1.00  0.00     0.041 C 
ATOM     16  O   UNL     1    -129.731 117.948  45.412  1.00  0.00    -0.550 OA
ATOM     17  O   UNL     1    -129.727 115.657  45.371  1.00  0.00    -0.550 OA
ENDBRANCH  14  15
ENDBRANCH  13  14
ENDBRANCH  12  13
ENDBRANCH  11  12
ENDBRANCH  10  11
ENDBRANCH   9  10
ENDBRANCH   8   9
ENDBRANCH   7   8
ENDBRANCH   6   7
ENDBRANCH   5   6
ENDBRANCH   4   5
ENDBRANCH   3   4
ENDBRANCH   2   3
ENDBRANCH   1   2
BRANCH   1  18
ATOM     18  C   UNL     1    -128.998 109.721  39.506  1.00  0.00     0.000 C 
BRANCH  18  19
ATOM     19  C   UNL     1    -129.143 111.143  38.940  1.00  0.00     0.000 C 
BRANCH  19  20
ATOM     20  C   UNL     1    -127.925 111.577  38.105  1.00  0.00     0.000 C 
BRANCH  20  21
ATOM     21  C   UNL     1    -128.011 113.035  37.609  1.00  0.00     0.000 C 
BRANCH  21  22
ATOM     22  C   UNL     1    -128.434 113.123  36.131  1.00  0.00     0.000 C 
BRANCH  22  23
ATOM     23  C   UNL     1    -129.509 114.196  35.884  1.00  0.00     0.000 C 
BRANCH  23  24
ATOM     24  C   UNL     1    -129.642 114.647  34.416  1.00  0.00    -0.000 C 
BRANCH  24  25
ATOM     25  C   UNL     1    -130.461 113.704  33.514  1.00  0.00    -0.000 C 
BRANCH  25  26
ATOM     26  C   UNL     1    -131.804 113.241  34.108  1.00  0.00    -0.000 C 
BRANCH  26  27
ATOM     27  C   UNL     1    -132.667 112.472  33.096  1.00  0.00    -0.000 C 
BRANCH  27  28
ATOM     28  C   UNL     1    -133.942 113.256  32.747  1.00  0.00    -0.000 C 
BRANCH  28  29
ATOM     29  C   UNL     1    -134.499 114.030  33.962  1.00  0.00    -0.000 C 
BRANCH  29  30
ATOM     30  C   UNL     1    -134.266 115.550  33.887  1.00  0.00    -0.000 C 
BRANCH  30  31
ATOM     31  C   UNL     1    -134.173 116.210  35.269  1.00  0.00    -0.003 C 
ATOM     32  C   UNL     1    -132.784 116.027  35.873  1.00  0.00     0.004 C 
ENDBRANCH  30  31
ENDBRANCH  29  30
ENDBRANCH  28  29
ENDBRANCH  27  28
ENDBRANCH  26  27
ENDBRANCH  25  26
ENDBRANCH  24  25
ENDBRANCH  23  24
ENDBRANCH  22  23
ENDBRANCH  21  22
ENDBRANCH  20  21
ENDBRANCH  19  20
ENDBRANCH  18  19
ENDBRANCH   1  18
TORSDOF 28
ENDMDL
MODEL 9
REMARK VINA RESULT:    -3.457      4.792      8.064
REMARK INTER + INTRA:         -11.778
REMARK INTER:                 -10.332
REMARK INTRA:                  -1.446
REMARK UNBOUND:                -2.662
REMARK SMILES CCCCCCCCCCCCCCCCCCCCCCCCCCCCCC(=O)[O-]
REMARK SMILES IDX 16 1 17 2 18 3 19 4 20 5 21 6 22 7 23 8 24 9 25 10 26 11
REMARK SMILES IDX 27 12 28 13 29 14 30 15 31 16 32 17 15 18 14 19 13 20 12 21
REMARK SMILES IDX 11 22 10 23 9 24 8 25 7 26 6 27 5 28 4 29 3 30 2 31 1 32
REMARK H PARENT
REMARK Flexibility Score: inf
ROOT
ATOM      1  C   UNL     1    -131.129 109.855  39.558  1.00  0.00     0.000 C 
ENDROOT
BRANCH   1   2
ATOM      2  C   UNL     1    -129.778 110.390  40.064  1.00  0.00     0.000 C 
BRANCH   2   3
ATOM      3  C   UNL     1    -129.382 111.722  39.411  1.00  0.00     0.000 C 
BRANCH   3   4
ATOM      4  C   UNL     1    -129.590 112.896  40.376  1.00  0.00     0.000 C 
BRANCH   4   5
ATOM      5  C   UNL     1    -130.201 112.415  41.699  1.00  0.00     0.000 C 
BRANCH   5   6
ATOM      6  C   UNL     1    -129.381 112.836  42.932  1.00  0.00     0.000 C 
BRANCH   6   7
ATOM      7  C   UNL     1    -129.507 114.322  43.326  1.00  0.00     0.000 C 
BRANCH   7   8
ATOM      8  C   UNL     1    -130.236 115.211  42.299  1.00  0.00     0.000 C 
BRANCH   8   9
ATOM      9  C   UNL     1    -130.134 116.724  42.567  1.00  0.00     0.000 C 
BRANCH   9  10
ATOM     10  C   UNL     1    -128.764 117.303  42.176  1.00  0.00     0.000 C 
BRANCH  10  11
ATOM     11  C   UNL     1    -128.370 118.526  43.020  1.00  0.00     0.000 C 
BRANCH  11  12
ATOM     12  C   UNL     1    -129.258 118.772  44.253  1.00  0.00     0.000 C 
BRANCH  12  13
ATOM     13  C   UNL     1    -129.281 117.580  45.221  1.00  0.00     0.006 C 
BRANCH  13  14
ATOM     14  C   UNL     1    -130.545 117.603  46.088  1.00  0.00     0.053 C 
BRANCH  14  15
ATOM     15  C   UNL     1    -130.849 116.247  46.645  1.00  0.00     0.041 C 
ATOM     16  O   UNL     1    -130.089 115.274  46.396  1.00  0.00    -0.550 OA
ATOM     17  O   UNL     1    -131.953 116.063  47.470  1.00  0.00    -0.550 OA
ENDBRANCH  14  15
ENDBRANCH  13  14
ENDBRANCH  12  13
ENDBRANCH  11  12
ENDBRANCH  10  11
ENDBRANCH   9  10
ENDBRANCH   8   9
ENDBRANCH   7   8
ENDBRANCH   6   7
ENDBRANCH   5   6
ENDBRANCH   4   5
ENDBRANCH   3   4
ENDBRANCH   2   3
ENDBRANCH   1   2
BRANCH   1  18
ATOM     18  C   UNL     1    -131.088 108.380  39.104  1.00  0.00     0.000 C 
BRANCH  18  19
ATOM     19  C   UNL     1    -129.661 107.898  38.793  1.00  0.00     0.000 C 
BRANCH  19  20
ATOM     20  C   UNL     1    -129.600 106.397  38.459  1.00  0.00     0.000 C 
BRANCH  20  21
ATOM     21  C   UNL     1    -130.216 105.501  39.553  1.00  0.00     0.000 C 
BRANCH  21  22
ATOM     22  C   UNL     1    -129.322 105.413  40.804  1.00  0.00     0.000 C 
BRANCH  22  23
ATOM     23  C   UNL     1    -128.363 106.609  40.933  1.00  0.00     0.000 C 
BRANCH  23  24
ATOM     24  C   UNL     1    -128.084 107.056  42.382  1.00  0.00    -0.000 C 
BRANCH  24  25
ATOM     25  C   UNL     1    -128.053 108.581  42.602  1.00  0.00    -0.000 C 
BRANCH  25  26
ATOM     26  C   UNL     1    -129.336 109.176  43.210  1.00  0.00    -0.000 C 
BRANCH  26  27
ATOM     27  C   UNL     1    -130.524 108.203  43.157  1.00  0.00    -0.000 C 
BRANCH  27  28
ATOM     28  C   UNL     1    -131.313 108.222  44.476  1.00  0.00    -0.000 C 
BRANCH  28  29
ATOM     29  C   UNL     1    -130.573 109.001  45.585  1.00  0.00    -0.000 C 
BRANCH  29  30
ATOM     30  C   UNL     1    -131.006 108.609  47.009  1.00  0.00    -0.000 C 
BRANCH  30  31
ATOM     31  C   UNL     1    -130.004 107.678  47.705  1.00  0.00    -0.003 C 
ATOM     32  C   UNL     1    -129.888 108.008  49.190  1.00  0.00     0.004 C 
ENDBRANCH  30  31
ENDBRANCH  29  30
ENDBRANCH  28  29
ENDBRANCH  27  28
ENDBRANCH  26  27
ENDBRANCH  25  26
ENDBRANCH  24  25
ENDBRANCH  23  24
ENDBRANCH  22  23
ENDBRANCH  21  22
ENDBRANCH  20  21
ENDBRANCH  19  20
ENDBRANCH  18  19
ENDBRANCH   1  18
TORSDOF 28
ENDMDL
