MODEL 1
REMARK VINA RESULT:    -3.483      0.000      0.000
REMARK INTER + INTRA:          -9.743
REMARK INTER:                  -7.555
REMARK INTRA:                  -2.188
REMARK UNBOUND:                -2.188
REMARK SMILES CCCCCCCCCCCCCCCCCCCCCC(=O)[O-]
REMARK SMILES IDX 12 1 11 2 10 3 9 4 8 5 7 6 6 7 5 8 4 9 3 10 2 11 1 12 13 13
REMARK SMILES IDX 14 14 15 15 16 16 17 17 18 18 19 19 20 20 21 21 22 22 23 23
REMARK SMILES IDX 24 24
REMARK H PARENT
REMARK Flexibility Score: inf
ROOT
ATOM      1  C   UNL     1      -5.303  -6.675   8.641  1.00  0.00     0.000 C 
ENDROOT
BRANCH   1   2
ATOM      2  C   UNL     1      -6.479  -7.115   9.532  1.00  0.00     0.000 C 
BRANCH   2   3
ATOM      3  C   UNL     1      -7.453  -5.967   9.835  1.00  0.00     0.000 C 
BRANCH   3   4
ATOM      4  C   UNL     1      -6.785  -4.583   9.773  1.00  0.00    -0.000 C 
BRANCH   4   5
ATOM      5  C   UNL     1      -7.465  -3.695   8.725  1.00  0.00    -0.000 C 
BRANCH   5   6
ATOM      6  C   UNL     1      -8.969  -3.988   8.643  1.00  0.00    -0.000 C 
BRANCH   6   7
ATOM      7  C   UNL     1      -9.732  -2.786   8.074  1.00  0.00    -0.000 C 
BRANCH   7   8
ATOM      8  C   UNL     1      -9.555  -1.547   8.964  1.00  0.00    -0.000 C 
BRANCH   8   9
ATOM      9  C   UNL     1      -9.453  -0.244   8.142  1.00  0.00    -0.000 C 
BRANCH   9  10
ATOM     10  C   UNL     1      -8.106   0.489   8.307  1.00  0.00    -0.000 C 
BRANCH  10  11
ATOM     11  C   UNL     1      -7.716   1.395   7.128  1.00  0.00    -0.003 C 
ATOM     12  C   UNL     1      -8.851   1.584   6.121  1.00  0.00     0.004 C 
ENDBRANCH  10  11
ENDBRANCH   9  10
ENDBRANCH   8   9
ENDBRANCH   7   8
ENDBRANCH   6   7
ENDBRANCH   5   6
ENDBRANCH   4   5
ENDBRANCH   3   4
ENDBRANCH   2   3
ENDBRANCH   1   2
BRANCH   1  13
ATOM     13  C   UNL     1      -4.831  -7.783   7.682  1.00  0.00     0.000 C 
BRANCH  13  14
ATOM     14  C   UNL     1      -3.436  -8.362   7.990  1.00  0.00     0.000 C 
BRANCH  14  15
ATOM     15  C   UNL     1      -3.466  -9.865   8.306  1.00  0.00     0.000 C 
BRANCH  15  16
ATOM     16  C   UNL     1      -4.437 -10.165   9.459  1.00  0.00     0.000 C 
BRANCH  16  17
ATOM     17  C   UNL     1      -5.290 -11.419   9.205  1.00  0.00     0.000 C 
BRANCH  17  18
ATOM     18  C   UNL     1      -6.789 -11.102   9.083  1.00  0.00     0.000 C 
BRANCH  18  19
ATOM     19  C   UNL     1      -7.324 -11.506   7.701  1.00  0.00     0.000 C 
BRANCH  19  20
ATOM     20  C   UNL     1      -7.320 -10.339   6.700  1.00  0.00     0.006 C 
BRANCH  20  21
ATOM     21  C   UNL     1      -6.217 -10.470   5.643  1.00  0.00     0.053 C 
BRANCH  21  22
ATOM     22  C   UNL     1      -6.479 -11.650   4.759  1.00  0.00     0.041 C 
ATOM     23  O   UNL     1      -5.577 -12.505   4.557  1.00  0.00    -0.550 OA
ATOM     24  O   UNL     1      -7.707 -11.783   4.124  1.00  0.00    -0.550 OA
ENDBRANCH  21  22
ENDBRANCH  20  21
ENDBRANCH  19  20
ENDBRANCH  18  19
ENDBRANCH  17  18
ENDBRANCH  16  17
ENDBRANCH  15  16
ENDBRANCH  14  15
ENDBRANCH  13  14
ENDBRANCH   1  13
TORSDOF 20
ENDMDL
MODEL 2
REMARK VINA RESULT:    -3.401     13.890     17.377
REMARK INTER + INTRA:          -9.566
REMARK INTER:                  -6.818
REMARK INTRA:                  -2.747
REMARK UNBOUND:                -2.188
REMARK SMILES CCCCCCCCCCCCCCCCCCCCCC(=O)[O-]
REMARK SMILES IDX 12 1 11 2 10 3 9 4 8 5 7 6 6 7 5 8 4 9 3 10 2 11 1 12 13 13
REMARK SMILES IDX 14 14 15 15 16 16 17 17 18 18 19 19 20 20 21 21 22 22 23 23
REMARK SMILES IDX 24 24
REMARK H PARENT
REMARK Flexibility Score: inf
ROOT
ATOM      1  C   UNL     1       6.402   2.151   4.327  1.00  0.00     0.000 C 
ENDROOT
BRANCH   1   2
ATOM      2  C   UNL     1       7.666   1.638   5.040  1.00  0.00     0.000 C 
BRANCH   2   3
ATOM      3  C   UNL     1       8.444   0.613   4.201  1.00  0.00     0.000 C 
BRANCH   3   4
ATOM      4  C   UNL     1       9.198  -0.415   5.060  1.00  0.00    -0.000 C 
BRANCH   4   5
ATOM      5  C   UNL     1       8.225  -1.227   5.922  1.00  0.00    -0.000 C 
BRANCH   5   6
ATOM      6  C   UNL     1       8.470  -0.979   7.416  1.00  0.00    -0.000 C 
BRANCH   6   7
ATOM      7  C   UNL     1       7.145  -0.878   8.181  1.00  0.00    -0.000 C 
BRANCH   7   8
ATOM      8  C   UNL     1       7.274  -1.473   9.591  1.00  0.00    -0.000 C 
BRANCH   8   9
ATOM      9  C   UNL     1       8.186  -2.718   9.622  1.00  0.00    -0.000 C 
BRANCH   9  10
ATOM     10  C   UNL     1       7.415  -4.053   9.592  1.00  0.00    -0.000 C 
BRANCH  10  11
ATOM     11  C   UNL     1       8.077  -5.162   8.758  1.00  0.00    -0.003 C 
ATOM     12  C   UNL     1       8.479  -4.695   7.359  1.00  0.00     0.004 C 
ENDBRANCH  10  11
ENDBRANCH   9  10
ENDBRANCH   8   9
ENDBRANCH   7   8
ENDBRANCH   6   7
ENDBRANCH   5   6
ENDBRANCH   4   5
ENDBRANCH   3   4
ENDBRANCH   2   3
ENDBRANCH   1   2
BRANCH   1  13
ATOM     13  C   UNL     1       6.401   3.679   4.136  1.00  0.00     0.000 C 
BRANCH  13  14
ATOM     14  C   UNL     1       7.458   4.440   4.959  1.00  0.00     0.000 C 
BRANCH  14  15
ATOM     15  C   UNL     1       6.862   5.587   5.791  1.00  0.00     0.000 C 
BRANCH  15  16
ATOM     16  C   UNL     1       6.601   5.138   7.237  1.00  0.00     0.000 C 
BRANCH  16  17
ATOM     17  C   UNL     1       7.414   3.892   7.627  1.00  0.00     0.000 C 
BRANCH  17  18
ATOM     18  C   UNL     1       6.579   2.855   8.395  1.00  0.00     0.000 C 
BRANCH  18  19
ATOM     19  C   UNL     1       5.177   2.720   7.783  1.00  0.00     0.000 C 
BRANCH  19  20
ATOM     20  C   UNL     1       4.373   1.559   8.393  1.00  0.00     0.006 C 
BRANCH  20  21
ATOM     21  C   UNL     1       3.145   2.038   9.177  1.00  0.00     0.053 C 
BRANCH  21  22
ATOM     22  C   UNL     1       1.887   1.560   8.521  1.00  0.00     0.041 C 
ATOM     23  O   UNL     1       1.913   1.121   7.341  1.00  0.00    -0.550 OA
ATOM     24  O   UNL     1       0.677   1.639   9.198  1.00  0.00    -0.550 OA
ENDBRANCH  21  22
ENDBRANCH  20  21
ENDBRANCH  19  20
ENDBRANCH  18  19
ENDBRANCH  17  18
ENDBRANCH  16  17
ENDBRANCH  15  16
ENDBRANCH  14  15
ENDBRANCH  13  14
ENDBRANCH   1  13
TORSDOF 20
ENDMDL
MODEL 3
REMARK VINA RESULT:    -3.390     13.583     17.375
REMARK INTER + INTRA:          -9.542
REMARK INTER:                  -7.006
REMARK INTRA:                  -2.536
REMARK UNBOUND:                -2.188
REMARK SMILES CCCCCCCCCCCCCCCCCCCCCC(=O)[O-]
REMARK SMILES IDX 12 1 11 2 10 3 9 4 8 5 7 6 6 7 5 8 4 9 3 10 2 11 1 12 13 13
REMARK SMILES IDX 14 14 15 15 16 16 17 17 18 18 19 19 20 20 21 21 22 22 23 23
REMARK SMILES IDX 24 24
REMARK H PARENT
REMARK Flexibility Score: inf
ROOT
ATOM      1  C   UNL     1       6.197  -0.386   8.813  1.00  0.00     0.000 C 
ENDROOT
BRANCH   1   2
ATOM      2  C   UNL     1       7.615   0.183   9.000  1.00  0.00     0.000 C 
BRANCH   2   3
ATOM      3  C   UNL     1       8.616  -0.375   7.976  1.00  0.00     0.000 C 
BRANCH   3   4
ATOM      4  C   UNL     1       7.937  -1.167   6.847  1.00  0.00    -0.000 C 
BRANCH   4   5
ATOM      5  C   UNL     1       8.967  -1.976   6.050  1.00  0.00    -0.000 C 
BRANCH   5   6
ATOM      6  C   UNL     1       9.505  -3.152   6.877  1.00  0.00    -0.000 C 
BRANCH   6   7
ATOM      7  C   UNL     1       8.439  -4.242   7.041  1.00  0.00    -0.000 C 
BRANCH   7   8
ATOM      8  C   UNL     1       8.794  -5.490   6.219  1.00  0.00    -0.000 C 
BRANCH   8   9
ATOM      9  C   UNL     1       7.541  -6.258   5.747  1.00  0.00    -0.000 C 
BRANCH   9  10
ATOM     10  C   UNL     1       7.608  -7.776   6.011  1.00  0.00    -0.000 C 
BRANCH  10  11
ATOM     11  C   UNL     1       6.504  -8.319   6.932  1.00  0.00    -0.003 C 
ATOM     12  C   UNL     1       5.718  -7.213   7.637  1.00  0.00     0.004 C 
ENDBRANCH  10  11
ENDBRANCH   9  10
ENDBRANCH   8   9
ENDBRANCH   7   8
ENDBRANCH   6   7
ENDBRANCH   5   6
ENDBRANCH   4   5
ENDBRANCH   3   4
ENDBRANCH   2   3
ENDBRANCH   1   2
BRANCH   1  13
ATOM     13  C   UNL     1       5.113   0.474   9.489  1.00  0.00     0.000 C 
BRANCH  13  14
ATOM     14  C   UNL     1       4.015   0.999   8.544  1.00  0.00     0.000 C 
BRANCH  14  15
ATOM     15  C   UNL     1       3.366   2.300   9.041  1.00  0.00     0.000 C 
BRANCH  15  16
ATOM     16  C   UNL     1       4.435   3.317   9.470  1.00  0.00     0.000 C 
BRANCH  16  17
ATOM     17  C   UNL     1       5.143   3.974   8.273  1.00  0.00     0.000 C 
BRANCH  17  18
ATOM     18  C   UNL     1       6.647   3.661   8.229  1.00  0.00     0.000 C 
BRANCH  18  19
ATOM     19  C   UNL     1       7.125   3.470   6.782  1.00  0.00     0.000 C 
BRANCH  19  20
ATOM     20  C   UNL     1       6.494   2.241   6.106  1.00  0.00     0.006 C 
BRANCH  20  21
ATOM     21  C   UNL     1       6.912   2.094   4.639  1.00  0.00     0.053 C 
BRANCH  21  22
ATOM     22  C   UNL     1       5.862   2.666   3.737  1.00  0.00     0.041 C 
ATOM     23  O   UNL     1       5.896   3.883   3.415  1.00  0.00    -0.550 OA
ATOM     24  O   UNL     1       4.822   1.864   3.285  1.00  0.00    -0.550 OA
ENDBRANCH  21  22
ENDBRANCH  20  21
ENDBRANCH  19  20
ENDBRANCH  18  19
ENDBRANCH  17  18
ENDBRANCH  16  17
ENDBRANCH  15  16
ENDBRANCH  14  15
ENDBRANCH  13  14
ENDBRANCH   1  13
TORSDOF 20
ENDMDL
MODEL 4
REMARK VINA RESULT:    -3.359     14.565     17.975
REMARK INTER + INTRA:          -9.474
REMARK INTER:                  -6.222
REMARK INTRA:                  -3.251
REMARK UNBOUND:                -2.188
REMARK SMILES CCCCCCCCCCCCCCCCCCCCCC(=O)[O-]
REMARK SMILES IDX 12 1 11 2 10 3 9 4 8 5 7 6 6 7 5 8 4 9 3 10 2 11 1 12 13 13
REMARK SMILES IDX 14 14 15 15 16 16 17 17 18 18 19 19 20 20 21 21 22 22 23 23
REMARK SMILES IDX 24 24
REMARK H PARENT
REMARK Flexibility Score: inf
ROOT
ATOM      1  C   UNL     1       3.934   1.053   8.800  1.00  0.00     0.000 C 
ENDROOT
BRANCH   1   2
ATOM      2  C   UNL     1       5.259   0.341   9.122  1.00  0.00     0.000 C 
BRANCH   2   3
ATOM      3  C   UNL     1       6.437   0.882   8.297  1.00  0.00     0.000 C 
BRANCH   3   4
ATOM      4  C   UNL     1       7.425  -0.217   7.873  1.00  0.00    -0.000 C 
BRANCH   4   5
ATOM      5  C   UNL     1       8.863   0.316   7.860  1.00  0.00    -0.000 C 
BRANCH   5   6
ATOM      6  C   UNL     1       9.504   0.141   6.476  1.00  0.00    -0.000 C 
BRANCH   6   7
ATOM      7  C   UNL     1       8.619  -0.719   5.567  1.00  0.00    -0.000 C 
BRANCH   7   8
ATOM      8  C   UNL     1       9.462  -1.719   4.760  1.00  0.00    -0.000 C 
BRANCH   8   9
ATOM      9  C   UNL     1      10.120  -2.789   5.657  1.00  0.00    -0.000 C 
BRANCH   9  10
ATOM     10  C   UNL     1       9.124  -3.821   6.224  1.00  0.00    -0.000 C 
BRANCH  10  11
ATOM     11  C   UNL     1       8.742  -3.606   7.698  1.00  0.00    -0.003 C 
ATOM     12  C   UNL     1       9.955  -3.557   8.626  1.00  0.00     0.004 C 
ENDBRANCH  10  11
ENDBRANCH   9  10
ENDBRANCH   8   9
ENDBRANCH   7   8
ENDBRANCH   6   7
ENDBRANCH   5   6
ENDBRANCH   4   5
ENDBRANCH   3   4
ENDBRANCH   2   3
ENDBRANCH   1   2
BRANCH   1  13
ATOM     13  C   UNL     1       4.133   2.506   8.328  1.00  0.00     0.000 C 
BRANCH  13  14
ATOM     14  C   UNL     1       4.024   3.572   9.435  1.00  0.00     0.000 C 
BRANCH  14  15
ATOM     15  C   UNL     1       4.664   4.913   9.043  1.00  0.00     0.000 C 
BRANCH  15  16
ATOM     16  C   UNL     1       5.707   4.719   7.931  1.00  0.00     0.000 C 
BRANCH  16  17
ATOM     17  C   UNL     1       7.129   4.518   8.481  1.00  0.00     0.000 C 
BRANCH  17  18
ATOM     18  C   UNL     1       8.109   3.999   7.416  1.00  0.00     0.000 C 
BRANCH  18  19
ATOM     19  C   UNL     1       7.600   4.317   6.002  1.00  0.00     0.000 C 
BRANCH  19  20
ATOM     20  C   UNL     1       7.860   3.174   5.007  1.00  0.00     0.006 C 
BRANCH  20  21
ATOM     21  C   UNL     1       6.662   2.228   4.866  1.00  0.00     0.053 C 
BRANCH  21  22
ATOM     22  C   UNL     1       5.764   2.685   3.758  1.00  0.00     0.041 C 
ATOM     23  O   UNL     1       5.900   3.834   3.263  1.00  0.00    -0.550 OA
ATOM     24  O   UNL     1       4.748   1.855   3.300  1.00  0.00    -0.550 OA
ENDBRANCH  21  22
ENDBRANCH  20  21
ENDBRANCH  19  20
ENDBRANCH  18  19
ENDBRANCH  17  18
ENDBRANCH  16  17
ENDBRANCH  15  16
ENDBRANCH  14  15
ENDBRANCH  13  14
ENDBRANCH   1  13
TORSDOF 20
ENDMDL
MODEL 5
REMARK VINA RESULT:    -3.347     14.129     17.623
REMARK INTER + INTRA:          -9.449
REMARK INTER:                  -6.827
REMARK INTRA:                  -2.622
REMARK UNBOUND:                -2.188
REMARK SMILES CCCCCCCCCCCCCCCCCCCCCC(=O)[O-]
REMARK SMILES IDX 12 1 11 2 10 3 9 4 8 5 7 6 6 7 5 8 4 9 3 10 2 11 1 12 13 13
REMARK SMILES IDX 14 14 15 15 16 16 17 17 18 18 19 19 20 20 21 21 22 22 23 23
REMARK SMILES IDX 24 24
REMARK H PARENT
REMARK Flexibility Score: inf
ROOT
ATOM      1  C   UNL     1       4.286   1.524   8.280  1.00  0.00     0.000 C 
ENDROOT
BRANCH   1   2
ATOM      2  C   UNL     1       4.686   0.395   9.247  1.00  0.00     0.000 C 
BRANCH   2   3
ATOM      3  C   UNL     1       6.163   0.467   9.661  1.00  0.00     0.000 C 
BRANCH   3   4
ATOM      4  C   UNL     1       7.126   0.317   8.472  1.00  0.00    -0.000 C 
BRANCH   4   5
ATOM      5  C   UNL     1       7.364  -1.162   8.144  1.00  0.00    -0.000 C 
BRANCH   5   6
ATOM      6  C   UNL     1       8.139  -1.319   6.829  1.00  0.00    -0.000 C 
BRANCH   6   7
ATOM      7  C   UNL     1       8.602  -2.767   6.634  1.00  0.00    -0.000 C 
BRANCH   7   8
ATOM      8  C   UNL     1       8.590  -3.535   7.964  1.00  0.00    -0.000 C 
BRANCH   8   9
ATOM      9  C   UNL     1       8.487  -5.062   7.760  1.00  0.00    -0.000 C 
BRANCH   9  10
ATOM     10  C   UNL     1       8.462  -5.489   6.278  1.00  0.00    -0.000 C 
BRANCH  10  11
ATOM     11  C   UNL     1       7.275  -6.383   5.884  1.00  0.00    -0.003 C 
ATOM     12  C   UNL     1       7.518  -7.862   6.184  1.00  0.00     0.004 C 
ENDBRANCH  10  11
ENDBRANCH   9  10
ENDBRANCH   8   9
ENDBRANCH   7   8
ENDBRANCH   6   7
ENDBRANCH   5   6
ENDBRANCH   4   5
ENDBRANCH   3   4
ENDBRANCH   2   3
ENDBRANCH   1   2
BRANCH   1  13
ATOM     13  C   UNL     1       3.923   2.834   9.006  1.00  0.00     0.000 C 
BRANCH  13  14
ATOM     14  C   UNL     1       4.797   4.047   8.636  1.00  0.00     0.000 C 
BRANCH  14  15
ATOM     15  C   UNL     1       5.841   4.387   9.712  1.00  0.00     0.000 C 
BRANCH  15  16
ATOM     16  C   UNL     1       7.256   4.015   9.240  1.00  0.00     0.000 C 
BRANCH  16  17
ATOM     17  C   UNL     1       7.378   3.976   7.707  1.00  0.00     0.000 C 
BRANCH  17  18
ATOM     18  C   UNL     1       8.765   3.508   7.235  1.00  0.00     0.000 C 
BRANCH  18  19
ATOM     19  C   UNL     1       8.653   2.670   5.953  1.00  0.00     0.000 C 
BRANCH  19  20
ATOM     20  C   UNL     1       7.208   2.240   5.650  1.00  0.00     0.006 C 
BRANCH  20  21
ATOM     21  C   UNL     1       6.999   1.866   4.178  1.00  0.00     0.053 C 
BRANCH  21  22
ATOM     22  C   UNL     1       5.798   2.570   3.625  1.00  0.00     0.041 C 
ATOM     23  O   UNL     1       4.747   1.926   3.369  1.00  0.00    -0.550 OA
ATOM     24  O   UNL     1       5.855   3.931   3.354  1.00  0.00    -0.550 OA
ENDBRANCH  21  22
ENDBRANCH  20  21
ENDBRANCH  19  20
ENDBRANCH  18  19
ENDBRANCH  17  18
ENDBRANCH  16  17
ENDBRANCH  15  16
ENDBRANCH  14  15
ENDBRANCH  13  14
ENDBRANCH   1  13
TORSDOF 20
ENDMDL
MODEL 6
REMARK VINA RESULT:    -3.330      5.475      8.931
REMARK INTER + INTRA:          -9.411
REMARK INTER:                  -7.101
REMARK INTRA:                  -2.310
REMARK UNBOUND:                -2.188
REMARK SMILES CCCCCCCCCCCCCCCCCCCCCC(=O)[O-]
REMARK SMILES IDX 12 1 11 2 10 3 9 4 8 5 7 6 6 7 5 8 4 9 3 10 2 11 1 12 13 13
REMARK SMILES IDX 14 14 15 15 16 16 17 17 18 18 19 19 20 20 21 21 22 22 23 23
REMARK SMILES IDX 24 24
REMARK H PARENT
REMARK Flexibility Score: inf
ROOT
ATOM      1  C   UNL     1      -3.684  -8.224   7.297  1.00  0.00     0.000 C 
ENDROOT
BRANCH   1   2
ATOM      2  C   UNL     1      -4.856  -7.238   7.452  1.00  0.00     0.000 C 
BRANCH   2   3
ATOM      3  C   UNL     1      -5.154  -6.899   8.920  1.00  0.00     0.000 C 
BRANCH   3   4
ATOM      4  C   UNL     1      -6.573  -7.303   9.352  1.00  0.00    -0.000 C 
BRANCH   4   5
ATOM      5  C   UNL     1      -6.616  -8.774   9.781  1.00  0.00    -0.000 C 
BRANCH   5   6
ATOM      6  C   UNL     1      -7.310  -9.639   8.721  1.00  0.00    -0.000 C 
BRANCH   6   7
ATOM      7  C   UNL     1      -6.635 -11.011   8.604  1.00  0.00    -0.000 C 
BRANCH   7   8
ATOM      8  C   UNL     1      -5.755 -11.089   7.348  1.00  0.00    -0.000 C 
BRANCH   8   9
ATOM      9  C   UNL     1      -6.404 -10.393   6.132  1.00  0.00    -0.000 C 
BRANCH   9  10
ATOM     10  C   UNL     1      -6.799 -11.362   5.000  1.00  0.00    -0.000 C 
BRANCH  10  11
ATOM     11  C   UNL     1      -8.276 -11.298   4.581  1.00  0.00    -0.003 C 
ATOM     12  C   UNL     1      -9.141 -10.512   5.566  1.00  0.00     0.004 C 
ENDBRANCH  10  11
ENDBRANCH   9  10
ENDBRANCH   8   9
ENDBRANCH   7   8
ENDBRANCH   6   7
ENDBRANCH   5   6
ENDBRANCH   4   5
ENDBRANCH   3   4
ENDBRANCH   2   3
ENDBRANCH   1   2
BRANCH   1  13
ATOM     13  C   UNL     1      -3.198  -8.793   8.644  1.00  0.00     0.000 C 
BRANCH  13  14
ATOM     14  C   UNL     1      -1.724  -9.240   8.668  1.00  0.00     0.000 C 
BRANCH  14  15
ATOM     15  C   UNL     1      -0.915  -8.582   9.797  1.00  0.00     0.000 C 
BRANCH  15  16
ATOM     16  C   UNL     1       0.565  -8.450   9.406  1.00  0.00     0.000 C 
BRANCH  16  17
ATOM     17  C   UNL     1       1.026  -9.561   8.447  1.00  0.00     0.000 C 
BRANCH  17  18
ATOM     18  C   UNL     1       2.221 -10.359   8.996  1.00  0.00     0.000 C 
BRANCH  18  19
ATOM     19  C   UNL     1       3.072  -9.493   9.936  1.00  0.00     0.000 C 
BRANCH  19  20
ATOM     20  C   UNL     1       4.577  -9.598   9.638  1.00  0.00     0.006 C 
BRANCH  20  21
ATOM     21  C   UNL     1       5.163  -8.291   9.091  1.00  0.00     0.053 C 
BRANCH  21  22
ATOM     22  C   UNL     1       4.973  -8.214   7.607  1.00  0.00     0.041 C 
ATOM     23  O   UNL     1       4.865  -7.097   7.038  1.00  0.00    -0.550 OA
ATOM     24  O   UNL     1       4.872  -9.380   6.858  1.00  0.00    -0.550 OA
ENDBRANCH  21  22
ENDBRANCH  20  21
ENDBRANCH  19  20
ENDBRANCH  18  19
ENDBRANCH  17  18
ENDBRANCH  16  17
ENDBRANCH  15  16
ENDBRANCH  14  15
ENDBRANCH  13  14
ENDBRANCH   1  13
TORSDOF 20
ENDMDL
MODEL 7
REMARK VINA RESULT:    -3.328      4.296      8.900
REMARK INTER + INTRA:          -9.407
REMARK INTER:                  -7.128
REMARK INTRA:                  -2.280
REMARK UNBOUND:                -2.188
REMARK SMILES CCCCCCCCCCCCCCCCCCCCCC(=O)[O-]
REMARK SMILES IDX 12 1 11 2 10 3 9 4 8 5 7 6 6 7 5 8 4 9 3 10 2 11 1 12 13 13
REMARK SMILES IDX 14 14 15 15 16 16 17 17 18 18 19 19 20 20 21 21 22 22 23 23
REMARK SMILES IDX 24 24
REMARK H PARENT
REMARK Flexibility Score: inf
ROOT
ATOM      1  C   UNL     1      -4.041  -8.270   7.254  1.00  0.00     0.000 C 
ENDROOT
BRANCH   1   2
ATOM      2  C   UNL     1      -3.373  -9.160   8.317  1.00  0.00     0.000 C 
BRANCH   2   3
ATOM      3  C   UNL     1      -1.839  -9.103   8.257  1.00  0.00     0.000 C 
BRANCH   3   4
ATOM      4  C   UNL     1      -1.204  -8.654   9.583  1.00  0.00    -0.000 C 
BRANCH   4   5
ATOM      5  C   UNL     1       0.325  -8.624   9.476  1.00  0.00    -0.000 C 
BRANCH   5   6
ATOM      6  C   UNL     1       0.806  -9.377   8.228  1.00  0.00    -0.000 C 
BRANCH   6   7
ATOM      7  C   UNL     1       2.222  -9.927   8.431  1.00  0.00    -0.000 C 
BRANCH   7   8
ATOM      8  C   UNL     1       2.889  -9.298   9.663  1.00  0.00    -0.000 C 
BRANCH   8   9
ATOM      9  C   UNL     1       4.088  -8.400   9.288  1.00  0.00    -0.000 C 
BRANCH   9  10
ATOM     10  C   UNL     1       4.434  -8.424   7.785  1.00  0.00    -0.000 C 
BRANCH  10  11
ATOM     11  C   UNL     1       5.756  -9.128   7.439  1.00  0.00    -0.003 C 
ATOM     12  C   UNL     1       6.745  -8.214   6.716  1.00  0.00     0.004 C 
ENDBRANCH  10  11
ENDBRANCH   9  10
ENDBRANCH   8   9
ENDBRANCH   7   8
ENDBRANCH   6   7
ENDBRANCH   5   6
ENDBRANCH   4   5
ENDBRANCH   3   4
ENDBRANCH   2   3
ENDBRANCH   1   2
BRANCH   1  13
ATOM     13  C   UNL     1      -4.868  -7.124   7.867  1.00  0.00     0.000 C 
BRANCH  13  14
ATOM     14  C   UNL     1      -4.842  -7.052   9.406  1.00  0.00     0.000 C 
BRANCH  14  15
ATOM     15  C   UNL     1      -6.236  -6.860  10.023  1.00  0.00     0.000 C 
BRANCH  15  16
ATOM     16  C   UNL     1      -7.162  -8.033   9.660  1.00  0.00     0.000 C 
BRANCH  16  17
ATOM     17  C   UNL     1      -6.608  -9.391  10.125  1.00  0.00     0.000 C 
BRANCH  17  18
ATOM     18  C   UNL     1      -6.697 -10.471   9.035  1.00  0.00     0.000 C 
BRANCH  18  19
ATOM     19  C   UNL     1      -7.440  -9.943   7.799  1.00  0.00     0.000 C 
BRANCH  19  20
ATOM     20  C   UNL     1      -7.502 -10.973   6.659  1.00  0.00     0.006 C 
BRANCH  20  21
ATOM     21  C   UNL     1      -6.342 -10.827   5.667  1.00  0.00     0.053 C 
BRANCH  21  22
ATOM     22  C   UNL     1      -6.506 -11.785   4.527  1.00  0.00     0.041 C 
ATOM     23  O   UNL     1      -5.531 -12.478   4.135  1.00  0.00    -0.550 OA
ATOM     24  O   UNL     1      -7.727 -11.881   3.871  1.00  0.00    -0.550 OA
ENDBRANCH  21  22
ENDBRANCH  20  21
ENDBRANCH  19  20
ENDBRANCH  18  19
ENDBRANCH  17  18
ENDBRANCH  16  17
ENDBRANCH  15  16
ENDBRANCH  14  15
ENDBRANCH  13  14
ENDBRANCH   1  13
TORSDOF 20
ENDMDL
MODEL 8
REMARK VINA RESULT:    -3.326     14.180     16.368
REMARK INTER + INTRA:          -9.402
REMARK INTER:                  -6.595
REMARK INTRA:                  -2.808
REMARK UNBOUND:                -2.188
REMARK SMILES CCCCCCCCCCCCCCCCCCCCCC(=O)[O-]
REMARK SMILES IDX 12 1 11 2 10 3 9 4 8 5 7 6 6 7 5 8 4 9 3 10 2 11 1 12 13 13
REMARK SMILES IDX 14 14 15 15 16 16 17 17 18 18 19 19 20 20 21 21 22 22 23 23
REMARK SMILES IDX 24 24
REMARK H PARENT
REMARK Flexibility Score: inf
ROOT
ATOM      1  C   UNL     1       4.566   1.839   8.108  1.00  0.00     0.000 C 
ENDROOT
BRANCH   1   2
ATOM      2  C   UNL     1       4.281   3.186   8.796  1.00  0.00     0.000 C 
BRANCH   2   3
ATOM      3  C   UNL     1       5.164   4.323   8.259  1.00  0.00     0.000 C 
BRANCH   3   4
ATOM      4  C   UNL     1       6.654   4.128   8.584  1.00  0.00    -0.000 C 
BRANCH   4   5
ATOM      5  C   UNL     1       7.514   4.290   7.326  1.00  0.00    -0.000 C 
BRANCH   5   6
ATOM      6  C   UNL     1       6.661   4.722   6.125  1.00  0.00    -0.000 C 
BRANCH   6   7
ATOM      7  C   UNL     1       7.154   4.057   4.834  1.00  0.00    -0.000 C 
BRANCH   7   8
ATOM      8  C   UNL     1       6.295   2.834   4.480  1.00  0.00    -0.000 C 
BRANCH   8   9
ATOM      9  C   UNL     1       7.108   1.521   4.498  1.00  0.00    -0.000 C 
BRANCH   9  10
ATOM     10  C   UNL     1       8.595   1.717   4.855  1.00  0.00    -0.000 C 
BRANCH  10  11
ATOM     11  C   UNL     1       9.573   0.854   4.042  1.00  0.00    -0.003 C 
ATOM     12  C   UNL     1       9.219  -0.633   4.070  1.00  0.00     0.004 C 
ENDBRANCH  10  11
ENDBRANCH   9  10
ENDBRANCH   8   9
ENDBRANCH   7   8
ENDBRANCH   6   7
ENDBRANCH   5   6
ENDBRANCH   4   5
ENDBRANCH   3   4
ENDBRANCH   2   3
ENDBRANCH   1   2
BRANCH   1  13
ATOM     13  C   UNL     1       4.706   0.675   9.107  1.00  0.00     0.000 C 
BRANCH  13  14
ATOM     14  C   UNL     1       6.068  -0.044   9.084  1.00  0.00     0.000 C 
BRANCH  14  15
ATOM     15  C   UNL     1       7.045   0.551   8.057  1.00  0.00     0.000 C 
BRANCH  15  16
ATOM     16  C   UNL     1       8.264  -0.364   7.866  1.00  0.00     0.000 C 
BRANCH  16  17
ATOM     17  C   UNL     1       7.894  -1.725   7.251  1.00  0.00     0.000 C 
BRANCH  17  18
ATOM     18  C   UNL     1       8.707  -2.886   7.846  1.00  0.00     0.000 C 
BRANCH  18  19
ATOM     19  C   UNL     1       9.571  -3.558   6.769  1.00  0.00     0.000 C 
BRANCH  19  20
ATOM     20  C   UNL     1       9.423  -5.089   6.761  1.00  0.00     0.006 C 
BRANCH  20  21
ATOM     21  C   UNL     1       9.537  -5.686   5.353  1.00  0.00     0.053 C 
BRANCH  21  22
ATOM     22  C   UNL     1       8.347  -6.543   5.051  1.00  0.00     0.041 C 
ATOM     23  O   UNL     1       8.363  -7.329   4.068  1.00  0.00    -0.550 OA
ATOM     24  O   UNL     1       7.202  -6.443   5.832  1.00  0.00    -0.550 OA
ENDBRANCH  21  22
ENDBRANCH  20  21
ENDBRANCH  19  20
ENDBRANCH  18  19
ENDBRANCH  17  18
ENDBRANCH  16  17
ENDBRANCH  15  16
ENDBRANCH  14  15
ENDBRANCH  13  14
ENDBRANCH   1  13
TORSDOF 20
ENDMDL
MODEL 9
REMARK VINA RESULT:    -3.291     14.552     16.637
REMARK INTER + INTRA:          -9.327
REMARK INTER:                  -6.461
REMARK INTRA:                  -2.866
REMARK UNBOUND:                -2.188
REMARK SMILES CCCCCCCCCCCCCCCCCCCCCC(=O)[O-]
REMARK SMILES IDX 12 1 11 2 10 3 9 4 8 5 7 6 6 7 5 8 4 9 3 10 2 11 1 12 13 13
REMARK SMILES IDX 14 14 15 15 16 16 17 17 18 18 19 19 20 20 21 21 22 22 23 23
REMARK SMILES IDX 24 24
REMARK H PARENT
REMARK Flexibility Score: inf
ROOT
ATOM      1  C   UNL     1       3.868   1.853   8.303  1.00  0.00     0.000 C 
ENDROOT
BRANCH   1   2
ATOM      2  C   UNL     1       3.570   3.017   9.266  1.00  0.00     0.000 C 
BRANCH   2   3
ATOM      3  C   UNL     1       4.688   4.071   9.282  1.00  0.00     0.000 C 
BRANCH   3   4
ATOM      4  C   UNL     1       4.256   5.409   8.659  1.00  0.00    -0.000 C 
BRANCH   4   5
ATOM      5  C   UNL     1       5.384   6.443   8.748  1.00  0.00    -0.000 C 
BRANCH   5   6
ATOM      6  C   UNL     1       6.749   5.760   8.913  1.00  0.00    -0.000 C 
BRANCH   6   7
ATOM      7  C   UNL     1       7.544   5.800   7.603  1.00  0.00    -0.000 C 
BRANCH   7   8
ATOM      8  C   UNL     1       7.746   4.388   7.035  1.00  0.00    -0.000 C 
BRANCH   8   9
ATOM      9  C   UNL     1       7.230   4.259   5.585  1.00  0.00    -0.000 C 
BRANCH   9  10
ATOM     10  C   UNL     1       7.796   3.037   4.832  1.00  0.00    -0.000 C 
BRANCH  10  11
ATOM     11  C   UNL     1       6.738   2.033   4.345  1.00  0.00    -0.003 C 
ATOM     12  C   UNL     1       5.629   2.689   3.523  1.00  0.00     0.004 C 
ENDBRANCH  10  11
ENDBRANCH   9  10
ENDBRANCH   8   9
ENDBRANCH   7   8
ENDBRANCH   6   7
ENDBRANCH   5   6
ENDBRANCH   4   5
ENDBRANCH   3   4
ENDBRANCH   2   3
ENDBRANCH   1   2
BRANCH   1  13
ATOM     13  C   UNL     1       5.329   1.837   7.816  1.00  0.00     0.000 C 
BRANCH  13  14
ATOM     14  C   UNL     1       6.239   0.812   8.518  1.00  0.00     0.000 C 
BRANCH  14  15
ATOM     15  C   UNL     1       5.458  -0.208   9.361  1.00  0.00     0.000 C 
BRANCH  15  16
ATOM     16  C   UNL     1       6.351  -1.397   9.750  1.00  0.00     0.000 C 
BRANCH  16  17
ATOM     17  C   UNL     1       7.783  -1.265   9.205  1.00  0.00     0.000 C 
BRANCH  17  18
ATOM     18  C   UNL     1       8.338  -2.595   8.669  1.00  0.00     0.000 C 
BRANCH  18  19
ATOM     19  C   UNL     1       9.003  -2.399   7.298  1.00  0.00     0.000 C 
BRANCH  19  20
ATOM     20  C   UNL     1       8.216  -1.439   6.390  1.00  0.00     0.006 C 
BRANCH  20  21
ATOM     21  C   UNL     1       9.102  -0.350   5.773  1.00  0.00     0.053 C 
BRANCH  21  22
ATOM     22  C   UNL     1       9.258  -0.576   4.301  1.00  0.00     0.041 C 
ATOM     23  O   UNL     1       8.947  -1.684   3.791  1.00  0.00    -0.550 OA
ATOM     24  O   UNL     1       9.787   0.426   3.496  1.00  0.00    -0.550 OA
ENDBRANCH  21  22
ENDBRANCH  20  21
ENDBRANCH  19  20
ENDBRANCH  18  19
ENDBRANCH  17  18
ENDBRANCH  16  17
ENDBRANCH  15  16
ENDBRANCH  14  15
ENDBRANCH  13  14
ENDBRANCH   1  13
TORSDOF 20
ENDMDL
