MODEL 1
REMARK VINA RESULT:    -5.176      0.000      0.000
REMARK INTER + INTRA:         -16.430
REMARK INTER:                 -13.649
REMARK INTRA:                  -2.781
REMARK UNBOUND:                -2.781
REMARK SMILES CCCCCCCCCCCCCCCCCCCCCCCCCCCCCC(=O)[O-]
REMARK SMILES IDX 16 1 17 2 18 3 19 4 20 5 21 6 22 7 23 8 24 9 25 10 26 11
REMARK SMILES IDX 27 12 28 13 29 14 30 15 31 16 32 17 15 18 14 19 13 20 12 21
REMARK SMILES IDX 11 22 10 23 9 24 8 25 7 26 6 27 5 28 4 29 3 30 2 31 1 32
REMARK H PARENT
REMARK Flexibility Score: inf
ROOT
ATOM      1  C   UNL     1      28.821   3.715  32.008  1.00  0.00     0.000 C 
ENDROOT
BRANCH   1   2
ATOM      2  C   UNL     1      28.407   2.341  31.451  1.00  0.00     0.000 C 
BRANCH   2   3
ATOM      3  C   UNL     1      29.503   1.272  31.616  1.00  0.00     0.000 C 
BRANCH   3   4
ATOM      4  C   UNL     1      30.012   0.648  30.305  1.00  0.00     0.000 C 
BRANCH   4   5
ATOM      5  C   UNL     1      29.117   0.977  29.099  1.00  0.00     0.000 C 
BRANCH   5   6
ATOM      6  C   UNL     1      28.061  -0.109  28.832  1.00  0.00     0.000 C 
BRANCH   6   7
ATOM      7  C   UNL     1      26.657   0.297  29.305  1.00  0.00     0.000 C 
BRANCH   7   8
ATOM      8  C   UNL     1      26.090  -0.734  30.293  1.00  0.00     0.000 C 
BRANCH   8   9
ATOM      9  C   UNL     1      27.125  -1.800  30.690  1.00  0.00     0.000 C 
BRANCH   9  10
ATOM     10  C   UNL     1      26.497  -3.194  30.854  1.00  0.00     0.000 C 
BRANCH  10  11
ATOM     11  C   UNL     1      27.506  -4.252  31.328  1.00  0.00     0.000 C 
BRANCH  11  12
ATOM     12  C   UNL     1      28.621  -4.543  30.300  1.00  0.00     0.000 C 
BRANCH  12  13
ATOM     13  C   UNL     1      29.338  -5.874  30.587  1.00  0.00     0.006 C 
BRANCH  13  14
ATOM     14  C   UNL     1      28.920  -6.981  29.609  1.00  0.00     0.053 C 
BRANCH  14  15
ATOM     15  C   UNL     1      28.680  -8.281  30.311  1.00  0.00     0.041 C 
ATOM     16  O   UNL     1      29.421  -8.631  31.269  1.00  0.00    -0.550 OA
ATOM     17  O   UNL     1      27.651  -9.117  29.895  1.00  0.00    -0.550 OA
ENDBRANCH  14  15
ENDBRANCH  13  14
ENDBRANCH  12  13
ENDBRANCH  11  12
ENDBRANCH  10  11
ENDBRANCH   9  10
ENDBRANCH   8   9
ENDBRANCH   7   8
ENDBRANCH   6   7
ENDBRANCH   5   6
ENDBRANCH   4   5
ENDBRANCH   3   4
ENDBRANCH   2   3
ENDBRANCH   1   2
BRANCH   1  18
ATOM     18  C   UNL     1      27.694   4.756  31.906  1.00  0.00     0.000 C 
BRANCH  18  19
ATOM     19  C   UNL     1      28.133   6.017  31.145  1.00  0.00     0.000 C 
BRANCH  19  20
ATOM     20  C   UNL     1      27.970   5.834  29.629  1.00  0.00     0.000 C 
BRANCH  20  21
ATOM     21  C   UNL     1      26.656   5.128  29.244  1.00  0.00     0.000 C 
BRANCH  21  22
ATOM     22  C   UNL     1      26.814   3.898  28.330  1.00  0.00     0.000 C 
BRANCH  22  23
ATOM     23  C   UNL     1      25.657   3.740  27.329  1.00  0.00     0.000 C 
BRANCH  23  24
ATOM     24  C   UNL     1      25.348   2.269  27.006  1.00  0.00    -0.000 C 
BRANCH  24  25
ATOM     25  C   UNL     1      24.314   2.049  25.885  1.00  0.00    -0.000 C 
BRANCH  25  26
ATOM     26  C   UNL     1      23.554   0.710  25.994  1.00  0.00    -0.000 C 
BRANCH  26  27
ATOM     27  C   UNL     1      22.085   0.836  25.558  1.00  0.00    -0.000 C 
BRANCH  27  28
ATOM     28  C   UNL     1      21.182  -0.217  26.220  1.00  0.00    -0.000 C 
BRANCH  28  29
ATOM     29  C   UNL     1      20.834   0.137  27.677  1.00  0.00    -0.000 C 
BRANCH  29  30
ATOM     30  C   UNL     1      20.841  -1.089  28.607  1.00  0.00    -0.000 C 
BRANCH  30  31
ATOM     31  C   UNL     1      21.413  -0.826  30.011  1.00  0.00    -0.003 C 
ATOM     32  C   UNL     1      22.417  -1.889  30.455  1.00  0.00     0.004 C 
ENDBRANCH  30  31
ENDBRANCH  29  30
ENDBRANCH  28  29
ENDBRANCH  27  28
ENDBRANCH  26  27
ENDBRANCH  25  26
ENDBRANCH  24  25
ENDBRANCH  23  24
ENDBRANCH  22  23
ENDBRANCH  21  22
ENDBRANCH  20  21
ENDBRANCH  19  20
ENDBRANCH  18  19
ENDBRANCH   1  18
TORSDOF 28
ENDMDL
MODEL 2
REMARK VINA RESULT:    -5.027      4.237      8.473
REMARK INTER + INTRA:         -16.037
REMARK INTER:                 -13.327
REMARK INTRA:                  -2.710
REMARK UNBOUND:                -2.781
REMARK SMILES CCCCCCCCCCCCCCCCCCCCCCCCCCCCCC(=O)[O-]
REMARK SMILES IDX 16 1 17 2 18 3 19 4 20 5 21 6 22 7 23 8 24 9 25 10 26 11
REMARK SMILES IDX 27 12 28 13 29 14 30 15 31 16 32 17 15 18 14 19 13 20 12 21
REMARK SMILES IDX 11 22 10 23 9 24 8 25 7 26 6 27 5 28 4 29 3 30 2 31 1 32
REMARK H PARENT
REMARK Flexibility Score: inf
ROOT
ATOM      1  C   UNL     1      27.075  -1.765  30.764  1.00  0.00     0.000 C 
ENDROOT
BRANCH   1   2
ATOM      2  C   UNL     1      26.111  -2.965  30.735  1.00  0.00     0.000 C 
BRANCH   2   3
ATOM      3  C   UNL     1      26.801  -4.277  30.320  1.00  0.00     0.000 C 
BRANCH   3   4
ATOM      4  C   UNL     1      28.168  -4.536  30.976  1.00  0.00     0.000 C 
BRANCH   4   5
ATOM      5  C   UNL     1      29.226  -5.036  29.979  1.00  0.00     0.000 C 
BRANCH   5   6
ATOM      6  C   UNL     1      29.826  -3.900  29.134  1.00  0.00     0.000 C 
BRANCH   6   7
ATOM      7  C   UNL     1      30.345  -2.733  29.988  1.00  0.00     0.000 C 
BRANCH   7   8
ATOM      8  C   UNL     1      31.881  -2.691  29.984  1.00  0.00     0.000 C 
BRANCH   8   9
ATOM      9  C   UNL     1      32.431  -1.256  30.041  1.00  0.00     0.000 C 
BRANCH   9  10
ATOM     10  C   UNL     1      33.966  -1.213  29.945  1.00  0.00     0.000 C 
BRANCH  10  11
ATOM     11  C   UNL     1      34.562   0.093  30.496  1.00  0.00     0.000 C 
BRANCH  11  12
ATOM     12  C   UNL     1      35.514  -0.122  31.692  1.00  0.00     0.000 C 
BRANCH  12  13
ATOM     13  C   UNL     1      35.447   1.040  32.699  1.00  0.00     0.006 C 
BRANCH  13  14
ATOM     14  C   UNL     1      35.002   0.575  34.093  1.00  0.00     0.053 C 
BRANCH  14  15
ATOM     15  C   UNL     1      33.969   1.486  34.680  1.00  0.00     0.041 C 
ATOM     16  O   UNL     1      34.304   2.609  35.145  1.00  0.00    -0.550 OA
ATOM     17  O   UNL     1      32.639   1.088  34.732  1.00  0.00    -0.550 OA
ENDBRANCH  14  15
ENDBRANCH  13  14
ENDBRANCH  12  13
ENDBRANCH  11  12
ENDBRANCH  10  11
ENDBRANCH   9  10
ENDBRANCH   8   9
ENDBRANCH   7   8
ENDBRANCH   6   7
ENDBRANCH   5   6
ENDBRANCH   4   5
ENDBRANCH   3   4
ENDBRANCH   2   3
ENDBRANCH   1   2
BRANCH   1  18
ATOM     18  C   UNL     1      26.387  -0.447  30.370  1.00  0.00     0.000 C 
BRANCH  18  19
ATOM     19  C   UNL     1      26.742  -0.009  28.941  1.00  0.00     0.000 C 
BRANCH  19  20
ATOM     20  C   UNL     1      28.259  -0.056  28.708  1.00  0.00     0.000 C 
BRANCH  20  21
ATOM     21  C   UNL     1      28.999   1.157  29.304  1.00  0.00     0.000 C 
BRANCH  21  22
ATOM     22  C   UNL     1      29.635   0.924  30.687  1.00  0.00     0.000 C 
BRANCH  22  23
ATOM     23  C   UNL     1      29.378   2.080  31.670  1.00  0.00     0.000 C 
BRANCH  23  24
ATOM     24  C   UNL     1      27.972   2.683  31.522  1.00  0.00    -0.000 C 
BRANCH  24  25
ATOM     25  C   UNL     1      27.883   4.201  31.765  1.00  0.00    -0.000 C 
BRANCH  25  26
ATOM     26  C   UNL     1      28.018   5.046  30.480  1.00  0.00    -0.000 C 
BRANCH  26  27
ATOM     27  C   UNL     1      27.277   6.390  30.585  1.00  0.00    -0.000 C 
BRANCH  27  28
ATOM     28  C   UNL     1      27.995   7.518  29.827  1.00  0.00    -0.000 C 
BRANCH  28  29
ATOM     29  C   UNL     1      27.836   8.885  30.516  1.00  0.00    -0.000 C 
BRANCH  29  30
ATOM     30  C   UNL     1      26.509   9.015  31.285  1.00  0.00    -0.000 C 
BRANCH  30  31
ATOM     31  C   UNL     1      26.120  10.458  31.653  1.00  0.00    -0.003 C 
ATOM     32  C   UNL     1      27.038  11.074  32.708  1.00  0.00     0.004 C 
ENDBRANCH  30  31
ENDBRANCH  29  30
ENDBRANCH  28  29
ENDBRANCH  27  28
ENDBRANCH  26  27
ENDBRANCH  25  26
ENDBRANCH  24  25
ENDBRANCH  23  24
ENDBRANCH  22  23
ENDBRANCH  21  22
ENDBRANCH  20  21
ENDBRANCH  19  20
ENDBRANCH  18  19
ENDBRANCH   1  18
TORSDOF 28
ENDMDL
MODEL 3
REMARK VINA RESULT:    -4.989      5.439      9.950
REMARK INTER + INTRA:         -15.935
REMARK INTER:                 -13.560
REMARK INTRA:                  -2.376
REMARK UNBOUND:                -2.781
REMARK SMILES CCCCCCCCCCCCCCCCCCCCCCCCCCCCCC(=O)[O-]
REMARK SMILES IDX 16 1 17 2 18 3 19 4 20 5 21 6 22 7 23 8 24 9 25 10 26 11
REMARK SMILES IDX 27 12 28 13 29 14 30 15 31 16 32 17 15 18 14 19 13 20 12 21
REMARK SMILES IDX 11 22 10 23 9 24 8 25 7 26 6 27 5 28 4 29 3 30 2 31 1 32
REMARK H PARENT
REMARK Flexibility Score: inf
ROOT
ATOM      1  C   UNL     1      28.054  -0.175  31.981  1.00  0.00     0.000 C 
ENDROOT
BRANCH   1   2
ATOM      2  C   UNL     1      27.133   1.019  31.675  1.00  0.00     0.000 C 
BRANCH   2   3
ATOM      3  C   UNL     1      26.527   0.962  30.262  1.00  0.00     0.000 C 
BRANCH   3   4
ATOM      4  C   UNL     1      27.234   1.834  29.209  1.00  0.00     0.000 C 
BRANCH   4   5
ATOM      5  C   UNL     1      27.650   3.210  29.753  1.00  0.00     0.000 C 
BRANCH   5   6
ATOM      6  C   UNL     1      27.189   4.367  28.851  1.00  0.00     0.000 C 
BRANCH   6   7
ATOM      7  C   UNL     1      26.813   5.627  29.645  1.00  0.00     0.000 C 
BRANCH   7   8
ATOM      8  C   UNL     1      27.979   6.084  30.535  1.00  0.00     0.000 C 
BRANCH   8   9
ATOM      9  C   UNL     1      28.101   7.615  30.605  1.00  0.00     0.000 C 
BRANCH   9  10
ATOM     10  C   UNL     1      26.895   8.329  29.973  1.00  0.00     0.000 C 
BRANCH  10  11
ATOM     11  C   UNL     1      26.890   9.843  30.239  1.00  0.00     0.000 C 
BRANCH  11  12
ATOM     12  C   UNL     1      28.104  10.328  31.061  1.00  0.00     0.000 C 
BRANCH  12  13
ATOM     13  C   UNL     1      27.676  11.102  32.320  1.00  0.00     0.006 C 
BRANCH  13  14
ATOM     14  C   UNL     1      26.370  10.560  32.919  1.00  0.00     0.053 C 
BRANCH  14  15
ATOM     15  C   UNL     1      26.439  10.468  34.412  1.00  0.00     0.041 C 
ATOM     16  O   UNL     1      27.306  11.125  35.049  1.00  0.00    -0.550 OA
ATOM     17  O   UNL     1      25.560   9.640  35.099  1.00  0.00    -0.550 OA
ENDBRANCH  14  15
ENDBRANCH  13  14
ENDBRANCH  12  13
ENDBRANCH  11  12
ENDBRANCH  10  11
ENDBRANCH   9  10
ENDBRANCH   8   9
ENDBRANCH   7   8
ENDBRANCH   6   7
ENDBRANCH   5   6
ENDBRANCH   4   5
ENDBRANCH   3   4
ENDBRANCH   2   3
ENDBRANCH   1   2
BRANCH   1  18
ATOM     18  C   UNL     1      29.530   0.121  31.667  1.00  0.00     0.000 C 
BRANCH  18  19
ATOM     19  C   UNL     1      29.913  -0.279  30.233  1.00  0.00     0.000 C 
BRANCH  19  20
ATOM     20  C   UNL     1      30.291  -1.765  30.156  1.00  0.00     0.000 C 
BRANCH  20  21
ATOM     21  C   UNL     1      29.202  -2.631  29.494  1.00  0.00     0.000 C 
BRANCH  21  22
ATOM     22  C   UNL     1      29.153  -4.097  29.964  1.00  0.00     0.000 C 
BRANCH  22  23
ATOM     23  C   UNL     1      27.853  -4.446  30.710  1.00  0.00     0.000 C 
BRANCH  23  24
ATOM     24  C   UNL     1      26.895  -3.249  30.825  1.00  0.00    -0.000 C 
BRANCH  24  25
ATOM     25  C   UNL     1      25.407  -3.578  30.605  1.00  0.00    -0.000 C 
BRANCH  25  26
ATOM     26  C   UNL     1      24.475  -2.353  30.716  1.00  0.00    -0.000 C 
BRANCH  26  27
ATOM     27  C   UNL     1      22.988  -2.748  30.706  1.00  0.00    -0.000 C 
BRANCH  27  28
ATOM     28  C   UNL     1      22.059  -1.540  30.508  1.00  0.00    -0.000 C 
BRANCH  28  29
ATOM     29  C   UNL     1      21.216  -1.649  29.225  1.00  0.00    -0.000 C 
BRANCH  29  30
ATOM     30  C   UNL     1      21.000  -0.290  28.535  1.00  0.00    -0.000 C 
BRANCH  30  31
ATOM     31  C   UNL     1      20.676  -0.378  27.034  1.00  0.00    -0.003 C 
ATOM     32  C   UNL     1      21.671   0.388  26.162  1.00  0.00     0.004 C 
ENDBRANCH  30  31
ENDBRANCH  29  30
ENDBRANCH  28  29
ENDBRANCH  27  28
ENDBRANCH  26  27
ENDBRANCH  25  26
ENDBRANCH  24  25
ENDBRANCH  23  24
ENDBRANCH  22  23
ENDBRANCH  21  22
ENDBRANCH  20  21
ENDBRANCH  19  20
ENDBRANCH  18  19
ENDBRANCH   1  18
TORSDOF 28
ENDMDL
MODEL 4
REMARK VINA RESULT:    -4.983      3.396      7.875
REMARK INTER + INTRA:         -15.920
REMARK INTER:                 -12.864
REMARK INTRA:                  -3.055
REMARK UNBOUND:                -2.781
REMARK SMILES CCCCCCCCCCCCCCCCCCCCCCCCCCCCCC(=O)[O-]
REMARK SMILES IDX 16 1 17 2 18 3 19 4 20 5 21 6 22 7 23 8 24 9 25 10 26 11
REMARK SMILES IDX 27 12 28 13 29 14 30 15 31 16 32 17 15 18 14 19 13 20 12 21
REMARK SMILES IDX 11 22 10 23 9 24 8 25 7 26 6 27 5 28 4 29 3 30 2 31 1 32
REMARK H PARENT
REMARK Flexibility Score: inf
ROOT
ATOM      1  C   UNL     1      29.496  -1.549  30.007  1.00  0.00     0.000 C 
ENDROOT
BRANCH   1   2
ATOM      2  C   UNL     1      30.489  -2.661  29.627  1.00  0.00     0.000 C 
BRANCH   2   3
ATOM      3  C   UNL     1      29.807  -4.023  29.400  1.00  0.00     0.000 C 
BRANCH   3   4
ATOM      4  C   UNL     1      29.267  -4.705  30.669  1.00  0.00     0.000 C 
BRANCH   4   5
ATOM      5  C   UNL     1      28.145  -5.713  30.375  1.00  0.00     0.000 C 
BRANCH   5   6
ATOM      6  C   UNL     1      26.799  -5.030  30.079  1.00  0.00     0.000 C 
BRANCH   6   7
ATOM      7  C   UNL     1      26.510  -3.851  31.020  1.00  0.00     0.000 C 
BRANCH   7   8
ATOM      8  C   UNL     1      25.312  -3.029  30.518  1.00  0.00     0.000 C 
BRANCH   8   9
ATOM      9  C   UNL     1      24.086  -3.903  30.210  1.00  0.00     0.000 C 
BRANCH   9  10
ATOM     10  C   UNL     1      22.762  -3.192  30.539  1.00  0.00     0.000 C 
BRANCH  10  11
ATOM     11  C   UNL     1      22.944  -1.692  30.821  1.00  0.00     0.000 C 
BRANCH  11  12
ATOM     12  C   UNL     1      21.710  -0.841  30.451  1.00  0.00     0.000 C 
BRANCH  12  13
ATOM     13  C   UNL     1      21.030  -1.339  29.164  1.00  0.00     0.006 C 
BRANCH  13  14
ATOM     14  C   UNL     1      20.536  -0.182  28.283  1.00  0.00     0.053 C 
BRANCH  14  15
ATOM     15  C   UNL     1      21.077  -0.275  26.890  1.00  0.00     0.041 C 
ATOM     16  O   UNL     1      21.233  -1.400  26.343  1.00  0.00    -0.550 OA
ATOM     17  O   UNL     1      21.429   0.880  26.202  1.00  0.00    -0.550 OA
ENDBRANCH  14  15
ENDBRANCH  13  14
ENDBRANCH  12  13
ENDBRANCH  11  12
ENDBRANCH  10  11
ENDBRANCH   9  10
ENDBRANCH   8   9
ENDBRANCH   7   8
ENDBRANCH   6   7
ENDBRANCH   5   6
ENDBRANCH   4   5
ENDBRANCH   3   4
ENDBRANCH   2   3
ENDBRANCH   1   2
BRANCH   1  18
ATOM     18  C   UNL     1      30.184  -0.344  30.668  1.00  0.00     0.000 C 
BRANCH  18  19
ATOM     19  C   UNL     1      29.384   0.203  31.860  1.00  0.00     0.000 C 
BRANCH  19  20
ATOM     20  C   UNL     1      27.943  -0.325  31.849  1.00  0.00     0.000 C 
BRANCH  20  21
ATOM     21  C   UNL     1      26.902   0.766  31.532  1.00  0.00     0.000 C 
BRANCH  21  22
ATOM     22  C   UNL     1      25.946   0.444  30.368  1.00  0.00     0.000 C 
BRANCH  22  23
ATOM     23  C   UNL     1      26.658   0.386  29.005  1.00  0.00     0.000 C 
BRANCH  23  24
ATOM     24  C   UNL     1      27.611   1.572  28.782  1.00  0.00    -0.000 C 
BRANCH  24  25
ATOM     25  C   UNL     1      26.979   2.964  28.974  1.00  0.00    -0.000 C 
BRANCH  25  26
ATOM     26  C   UNL     1      27.774   3.882  29.926  1.00  0.00    -0.000 C 
BRANCH  26  27
ATOM     27  C   UNL     1      27.673   5.364  29.527  1.00  0.00    -0.000 C 
BRANCH  27  28
ATOM     28  C   UNL     1      27.422   6.283  30.732  1.00  0.00    -0.000 C 
BRANCH  28  29
ATOM     29  C   UNL     1      27.018   7.708  30.314  1.00  0.00    -0.000 C 
BRANCH  29  30
ATOM     30  C   UNL     1      28.197   8.525  29.758  1.00  0.00    -0.000 C 
BRANCH  30  31
ATOM     31  C   UNL     1      28.061  10.048  29.930  1.00  0.00    -0.003 C 
ATOM     32  C   UNL     1      27.602  10.451  31.331  1.00  0.00     0.004 C 
ENDBRANCH  30  31
ENDBRANCH  29  30
ENDBRANCH  28  29
ENDBRANCH  27  28
ENDBRANCH  26  27
ENDBRANCH  25  26
ENDBRANCH  24  25
ENDBRANCH  23  24
ENDBRANCH  22  23
ENDBRANCH  21  22
ENDBRANCH  20  21
ENDBRANCH  19  20
ENDBRANCH  18  19
ENDBRANCH   1  18
TORSDOF 28
ENDMDL
MODEL 5
REMARK VINA RESULT:    -4.927      2.977      7.612
REMARK INTER + INTRA:         -15.774
REMARK INTER:                 -12.985
REMARK INTRA:                  -2.789
REMARK UNBOUND:                -2.781
REMARK SMILES CCCCCCCCCCCCCCCCCCCCCCCCCCCCCC(=O)[O-]
REMARK SMILES IDX 16 1 17 2 18 3 19 4 20 5 21 6 22 7 23 8 24 9 25 10 26 11
REMARK SMILES IDX 27 12 28 13 29 14 30 15 31 16 32 17 15 18 14 19 13 20 12 21
REMARK SMILES IDX 11 22 10 23 9 24 8 25 7 26 6 27 5 28 4 29 3 30 2 31 1 32
REMARK H PARENT
REMARK Flexibility Score: inf
ROOT
ATOM      1  C   UNL     1      27.621   3.875  28.577  1.00  0.00     0.000 C 
ENDROOT
BRANCH   1   2
ATOM      2  C   UNL     1      27.829   2.513  29.263  1.00  0.00     0.000 C 
BRANCH   2   3
ATOM      3  C   UNL     1      26.725   1.496  28.924  1.00  0.00     0.000 C 
BRANCH   3   4
ATOM      4  C   UNL     1      26.362   0.520  30.058  1.00  0.00     0.000 C 
BRANCH   4   5
ATOM      5  C   UNL     1      26.984   0.914  31.408  1.00  0.00     0.000 C 
BRANCH   5   6
ATOM      6  C   UNL     1      27.915  -0.174  31.970  1.00  0.00     0.000 C 
BRANCH   6   7
ATOM      7  C   UNL     1      29.402   0.188  31.838  1.00  0.00     0.000 C 
BRANCH   7   8
ATOM      8  C   UNL     1      29.894  -0.027  30.399  1.00  0.00     0.000 C 
BRANCH   8   9
ATOM      9  C   UNL     1      30.304  -1.484  30.128  1.00  0.00     0.000 C 
BRANCH   9  10
ATOM     10  C   UNL     1      29.128  -2.340  29.627  1.00  0.00     0.000 C 
BRANCH  10  11
ATOM     11  C   UNL     1      29.525  -3.800  29.357  1.00  0.00     0.000 C 
BRANCH  11  12
ATOM     12  C   UNL     1      29.801  -4.611  30.642  1.00  0.00     0.000 C 
BRANCH  12  13
ATOM     13  C   UNL     1      28.558  -5.381  31.118  1.00  0.00     0.006 C 
BRANCH  13  14
ATOM     14  C   UNL     1      27.932  -6.223  29.997  1.00  0.00     0.053 C 
BRANCH  14  15
ATOM     15  C   UNL     1      28.463  -7.623  29.990  1.00  0.00     0.041 C 
ATOM     16  O   UNL     1      28.353  -8.349  31.015  1.00  0.00    -0.550 OA
ATOM     17  O   UNL     1      29.099  -8.120  28.859  1.00  0.00    -0.550 OA
ENDBRANCH  14  15
ENDBRANCH  13  14
ENDBRANCH  12  13
ENDBRANCH  11  12
ENDBRANCH  10  11
ENDBRANCH   9  10
ENDBRANCH   8   9
ENDBRANCH   7   8
ENDBRANCH   6   7
ENDBRANCH   5   6
ENDBRANCH   4   5
ENDBRANCH   3   4
ENDBRANCH   2   3
ENDBRANCH   1   2
BRANCH   1  18
ATOM     18  C   UNL     1      26.521   4.713  29.251  1.00  0.00     0.000 C 
BRANCH  18  19
ATOM     19  C   UNL     1      26.954   6.170  29.477  1.00  0.00     0.000 C 
BRANCH  19  20
ATOM     20  C   UNL     1      27.397   6.398  30.929  1.00  0.00     0.000 C 
BRANCH  20  21
ATOM     21  C   UNL     1      28.612   5.540  31.331  1.00  0.00     0.000 C 
BRANCH  21  22
ATOM     22  C   UNL     1      28.301   4.364  32.276  1.00  0.00     0.000 C 
BRANCH  22  23
ATOM     23  C   UNL     1      29.555   3.568  32.678  1.00  0.00     0.000 C 
BRANCH  23  24
ATOM     24  C   UNL     1      30.532   4.390  33.533  1.00  0.00    -0.000 C 
BRANCH  24  25
ATOM     25  C   UNL     1      31.262   3.600  34.635  1.00  0.00    -0.000 C 
BRANCH  25  26
ATOM     26  C   UNL     1      31.365   2.086  34.351  1.00  0.00    -0.000 C 
BRANCH  26  27
ATOM     27  C   UNL     1      32.441   1.403  35.212  1.00  0.00    -0.000 C 
BRANCH  27  28
ATOM     28  C   UNL     1      33.850   1.953  34.941  1.00  0.00    -0.000 C 
BRANCH  28  29
ATOM     29  C   UNL     1      34.787   0.897  34.328  1.00  0.00    -0.000 C 
BRANCH  29  30
ATOM     30  C   UNL     1      35.563   1.424  33.108  1.00  0.00    -0.000 C 
BRANCH  30  31
ATOM     31  C   UNL     1      35.218   0.729  31.779  1.00  0.00    -0.003 C 
ATOM     32  C   UNL     1      35.729  -0.710  31.707  1.00  0.00     0.004 C 
ENDBRANCH  30  31
ENDBRANCH  29  30
ENDBRANCH  28  29
ENDBRANCH  27  28
ENDBRANCH  26  27
ENDBRANCH  25  26
ENDBRANCH  24  25
ENDBRANCH  23  24
ENDBRANCH  22  23
ENDBRANCH  21  22
ENDBRANCH  20  21
ENDBRANCH  19  20
ENDBRANCH  18  19
ENDBRANCH   1  18
TORSDOF 28
ENDMDL
MODEL 6
REMARK VINA RESULT:    -4.917      5.198      9.294
REMARK INTER + INTRA:         -15.745
REMARK INTER:                 -13.095
REMARK INTRA:                  -2.650
REMARK UNBOUND:                -2.781
REMARK SMILES CCCCCCCCCCCCCCCCCCCCCCCCCCCCCC(=O)[O-]
REMARK SMILES IDX 16 1 17 2 18 3 19 4 20 5 21 6 22 7 23 8 24 9 25 10 26 11
REMARK SMILES IDX 27 12 28 13 29 14 30 15 31 16 32 17 15 18 14 19 13 20 12 21
REMARK SMILES IDX 11 22 10 23 9 24 8 25 7 26 6 27 5 28 4 29 3 30 2 31 1 32
REMARK H PARENT
REMARK Flexibility Score: inf
ROOT
ATOM      1  C   UNL     1      30.737  -1.542  30.016  1.00  0.00     0.000 C 
ENDROOT
BRANCH   1   2
ATOM      2  C   UNL     1      29.281  -1.081  30.206  1.00  0.00     0.000 C 
BRANCH   2   3
ATOM      3  C   UNL     1      29.058  -0.328  31.529  1.00  0.00     0.000 C 
BRANCH   3   4
ATOM      4  C   UNL     1      27.589  -0.194  31.968  1.00  0.00     0.000 C 
BRANCH   4   5
ATOM      5  C   UNL     1      26.895   1.039  31.365  1.00  0.00     0.000 C 
BRANCH   5   6
ATOM      6  C   UNL     1      26.173   0.724  30.044  1.00  0.00     0.000 C 
BRANCH   6   7
ATOM      7  C   UNL     1      26.662   1.594  28.876  1.00  0.00     0.000 C 
BRANCH   7   8
ATOM      8  C   UNL     1      27.942   2.354  29.256  1.00  0.00     0.000 C 
BRANCH   8   9
ATOM      9  C   UNL     1      27.869   3.848  28.900  1.00  0.00     0.000 C 
BRANCH   9  10
ATOM     10  C   UNL     1      27.391   4.709  30.081  1.00  0.00     0.000 C 
BRANCH  10  11
ATOM     11  C   UNL     1      27.828   6.178  29.965  1.00  0.00     0.000 C 
BRANCH  11  12
ATOM     12  C   UNL     1      27.112   7.115  30.961  1.00  0.00     0.000 C 
BRANCH  12  13
ATOM     13  C   UNL     1      27.291   8.598  30.591  1.00  0.00     0.006 C 
BRANCH  13  14
ATOM     14  C   UNL     1      28.195   8.785  29.364  1.00  0.00     0.053 C 
BRANCH  14  15
ATOM     15  C   UNL     1      28.526  10.227  29.132  1.00  0.00     0.041 C 
ATOM     16  O   UNL     1      28.856  10.965  30.098  1.00  0.00    -0.550 OA
ATOM     17  O   UNL     1      28.450  10.760  27.851  1.00  0.00    -0.550 OA
ENDBRANCH  14  15
ENDBRANCH  13  14
ENDBRANCH  12  13
ENDBRANCH  11  12
ENDBRANCH  10  11
ENDBRANCH   9  10
ENDBRANCH   8   9
ENDBRANCH   7   8
ENDBRANCH   6   7
ENDBRANCH   5   6
ENDBRANCH   4   5
ENDBRANCH   3   4
ENDBRANCH   2   3
ENDBRANCH   1   2
BRANCH   1  18
ATOM     18  C   UNL     1      30.865  -3.072  29.931  1.00  0.00     0.000 C 
BRANCH  18  19
ATOM     19  C   UNL     1      29.541  -3.747  29.541  1.00  0.00     0.000 C 
BRANCH  19  20
ATOM     20  C   UNL     1      29.164  -4.846  30.544  1.00  0.00     0.000 C 
BRANCH  20  21
ATOM     21  C   UNL     1      27.642  -4.996  30.732  1.00  0.00     0.000 C 
BRANCH  21  22
ATOM     22  C   UNL     1      26.855  -3.673  30.789  1.00  0.00     0.000 C 
BRANCH  22  23
ATOM     23  C   UNL     1      25.338  -3.869  30.624  1.00  0.00     0.000 C 
BRANCH  23  24
ATOM     24  C   UNL     1      24.578  -2.539  30.495  1.00  0.00    -0.000 C 
BRANCH  24  25
ATOM     25  C   UNL     1      23.071  -2.615  30.804  1.00  0.00    -0.000 C 
BRANCH  25  26
ATOM     26  C   UNL     1      22.272  -1.387  30.315  1.00  0.00    -0.000 C 
BRANCH  26  27
ATOM     27  C   UNL     1      21.174  -1.769  29.309  1.00  0.00    -0.000 C 
BRANCH  27  28
ATOM     28  C   UNL     1      20.573  -0.545  28.600  1.00  0.00    -0.000 C 
BRANCH  28  29
ATOM     29  C   UNL     1      20.900  -0.515  27.096  1.00  0.00    -0.000 C 
BRANCH  29  30
ATOM     30  C   UNL     1      21.349   0.874  26.610  1.00  0.00    -0.000 C 
BRANCH  30  31
ATOM     31  C   UNL     1      22.307   0.854  25.406  1.00  0.00    -0.003 C 
ATOM     32  C   UNL     1      23.779   0.833  25.814  1.00  0.00     0.004 C 
ENDBRANCH  30  31
ENDBRANCH  29  30
ENDBRANCH  28  29
ENDBRANCH  27  28
ENDBRANCH  26  27
ENDBRANCH  25  26
ENDBRANCH  24  25
ENDBRANCH  23  24
ENDBRANCH  22  23
ENDBRANCH  21  22
ENDBRANCH  20  21
ENDBRANCH  19  20
ENDBRANCH  18  19
ENDBRANCH   1  18
TORSDOF 28
ENDMDL
MODEL 7
REMARK VINA RESULT:    -4.914      6.003     11.727
REMARK INTER + INTRA:         -15.738
REMARK INTER:                 -13.561
REMARK INTRA:                  -2.178
REMARK UNBOUND:                -2.781
REMARK SMILES CCCCCCCCCCCCCCCCCCCCCCCCCCCCCC(=O)[O-]
REMARK SMILES IDX 16 1 17 2 18 3 19 4 20 5 21 6 22 7 23 8 24 9 25 10 26 11
REMARK SMILES IDX 27 12 28 13 29 14 30 15 31 16 32 17 15 18 14 19 13 20 12 21
REMARK SMILES IDX 11 22 10 23 9 24 8 25 7 26 6 27 5 28 4 29 3 30 2 31 1 32
REMARK H PARENT
REMARK Flexibility Score: inf
ROOT
ATOM      1  C   UNL     1      26.133  -3.560  30.577  1.00  0.00     0.000 C 
ENDROOT
BRANCH   1   2
ATOM      2  C   UNL     1      27.145  -2.484  31.010  1.00  0.00     0.000 C 
BRANCH   2   3
ATOM      3  C   UNL     1      26.911  -1.129  30.318  1.00  0.00     0.000 C 
BRANCH   3   4
ATOM      4  C   UNL     1      28.021  -0.084  30.531  1.00  0.00     0.000 C 
BRANCH   4   5
ATOM      5  C   UNL     1      28.535   0.520  29.214  1.00  0.00     0.000 C 
BRANCH   5   6
ATOM      6  C   UNL     1      28.779   2.035  29.313  1.00  0.00     0.000 C 
BRANCH   6   7
ATOM      7  C   UNL     1      27.664   2.769  30.074  1.00  0.00     0.000 C 
BRANCH   7   8
ATOM      8  C   UNL     1      28.215   3.439  31.343  1.00  0.00     0.000 C 
BRANCH   8   9
ATOM      9  C   UNL     1      27.933   4.950  31.380  1.00  0.00     0.000 C 
BRANCH   9  10
ATOM     10  C   UNL     1      27.820   5.560  29.973  1.00  0.00     0.000 C 
BRANCH  10  11
ATOM     11  C   UNL     1      26.986   6.852  29.947  1.00  0.00     0.000 C 
BRANCH  11  12
ATOM     12  C   UNL     1      27.734   8.079  30.511  1.00  0.00     0.000 C 
BRANCH  12  13
ATOM     13  C   UNL     1      26.778   9.241  30.832  1.00  0.00     0.006 C 
BRANCH  13  14
ATOM     14  C   UNL     1      26.187   9.134  32.244  1.00  0.00     0.053 C 
BRANCH  14  15
ATOM     15  C   UNL     1      26.557  10.311  33.093  1.00  0.00     0.041 C 
ATOM     16  O   UNL     1      27.438  11.123  32.702  1.00  0.00    -0.550 OA
ATOM     17  O   UNL     1      25.945  10.499  34.326  1.00  0.00    -0.550 OA
ENDBRANCH  14  15
ENDBRANCH  13  14
ENDBRANCH  12  13
ENDBRANCH  11  12
ENDBRANCH  10  11
ENDBRANCH   9  10
ENDBRANCH   8   9
ENDBRANCH   7   8
ENDBRANCH   6   7
ENDBRANCH   5   6
ENDBRANCH   4   5
ENDBRANCH   3   4
ENDBRANCH   2   3
ENDBRANCH   1   2
BRANCH   1  18
ATOM     18  C   UNL     1      26.810  -4.890  30.205  1.00  0.00     0.000 C 
BRANCH  18  19
ATOM     19  C   UNL     1      27.977  -5.233  31.144  1.00  0.00     0.000 C 
BRANCH  19  20
ATOM     20  C   UNL     1      29.199  -5.719  30.352  1.00  0.00     0.000 C 
BRANCH  20  21
ATOM     21  C   UNL     1      30.373  -4.721  30.380  1.00  0.00     0.000 C 
BRANCH  21  22
ATOM     22  C   UNL     1      30.120  -3.390  29.648  1.00  0.00     0.000 C 
BRANCH  22  23
ATOM     23  C   UNL     1      31.203  -2.334  29.928  1.00  0.00     0.000 C 
BRANCH  23  24
ATOM     24  C   UNL     1      32.596  -2.952  30.133  1.00  0.00    -0.000 C 
BRANCH  24  25
ATOM     25  C   UNL     1      33.779  -2.019  29.812  1.00  0.00    -0.000 C 
BRANCH  25  26
ATOM     26  C   UNL     1      33.527  -0.542  30.183  1.00  0.00    -0.000 C 
BRANCH  26  27
ATOM     27  C   UNL     1      34.836   0.240  30.383  1.00  0.00    -0.000 C 
BRANCH  27  28
ATOM     28  C   UNL     1      35.570  -0.159  31.674  1.00  0.00    -0.000 C 
BRANCH  28  29
ATOM     29  C   UNL     1      35.634   0.991  32.695  1.00  0.00    -0.000 C 
BRANCH  29  30
ATOM     30  C   UNL     1      35.062   0.601  34.069  1.00  0.00    -0.000 C 
BRANCH  30  31
ATOM     31  C   UNL     1      34.271   1.716  34.775  1.00  0.00    -0.003 C 
ATOM     32  C   UNL     1      32.781   1.403  34.901  1.00  0.00     0.004 C 
ENDBRANCH  30  31
ENDBRANCH  29  30
ENDBRANCH  28  29
ENDBRANCH  27  28
ENDBRANCH  26  27
ENDBRANCH  25  26
ENDBRANCH  24  25
ENDBRANCH  23  24
ENDBRANCH  22  23
ENDBRANCH  21  22
ENDBRANCH  20  21
ENDBRANCH  19  20
ENDBRANCH  18  19
ENDBRANCH   1  18
TORSDOF 28
ENDMDL
MODEL 8
REMARK VINA RESULT:    -4.796      4.381      8.415
REMARK INTER + INTRA:         -15.429
REMARK INTER:                 -12.754
REMARK INTRA:                  -2.674
REMARK UNBOUND:                -2.781
REMARK SMILES CCCCCCCCCCCCCCCCCCCCCCCCCCCCCC(=O)[O-]
REMARK SMILES IDX 16 1 17 2 18 3 19 4 20 5 21 6 22 7 23 8 24 9 25 10 26 11
REMARK SMILES IDX 27 12 28 13 29 14 30 15 31 16 32 17 15 18 14 19 13 20 12 21
REMARK SMILES IDX 11 22 10 23 9 24 8 25 7 26 6 27 5 28 4 29 3 30 2 31 1 32
REMARK H PARENT
REMARK Flexibility Score: inf
ROOT
ATOM      1  C   UNL     1      27.861  -1.235  31.378  1.00  0.00     0.000 C 
ENDROOT
BRANCH   1   2
ATOM      2  C   UNL     1      26.881  -1.740  30.304  1.00  0.00     0.000 C 
BRANCH   2   3
ATOM      3  C   UNL     1      26.248  -3.097  30.661  1.00  0.00     0.000 C 
BRANCH   3   4
ATOM      4  C   UNL     1      27.235  -4.175  31.142  1.00  0.00     0.000 C 
BRANCH   4   5
ATOM      5  C   UNL     1      27.463  -5.284  30.103  1.00  0.00     0.000 C 
BRANCH   5   6
ATOM      6  C   UNL     1      28.940  -5.416  29.693  1.00  0.00     0.000 C 
BRANCH   6   7
ATOM      7  C   UNL     1      29.842  -4.377  30.375  1.00  0.00     0.000 C 
BRANCH   7   8
ATOM      8  C   UNL     1      30.365  -3.352  29.358  1.00  0.00     0.000 C 
BRANCH   8   9
ATOM      9  C   UNL     1      31.332  -2.336  29.989  1.00  0.00     0.000 C 
BRANCH   9  10
ATOM     10  C   UNL     1      32.783  -2.846  30.013  1.00  0.00     0.000 C 
BRANCH  10  11
ATOM     11  C   UNL     1      33.799  -1.777  29.578  1.00  0.00     0.000 C 
BRANCH  11  12
ATOM     12  C   UNL     1      33.628  -0.429  30.312  1.00  0.00     0.000 C 
BRANCH  12  13
ATOM     13  C   UNL     1      34.975   0.276  30.546  1.00  0.00     0.006 C 
BRANCH  13  14
ATOM     14  C   UNL     1      35.705  -0.262  31.785  1.00  0.00     0.053 C 
BRANCH  14  15
ATOM     15  C   UNL     1      35.505   0.623  32.976  1.00  0.00     0.041 C 
ATOM     16  O   UNL     1      35.550   1.876  32.850  1.00  0.00    -0.550 OA
ATOM     17  O   UNL     1      35.290   0.064  34.229  1.00  0.00    -0.550 OA
ENDBRANCH  14  15
ENDBRANCH  13  14
ENDBRANCH  12  13
ENDBRANCH  11  12
ENDBRANCH  10  11
ENDBRANCH   9  10
ENDBRANCH   8   9
ENDBRANCH   7   8
ENDBRANCH   6   7
ENDBRANCH   5   6
ENDBRANCH   4   5
ENDBRANCH   3   4
ENDBRANCH   2   3
ENDBRANCH   1   2
BRANCH   1  18
ATOM     18  C   UNL     1      28.220   0.250  31.197  1.00  0.00     0.000 C 
BRANCH  18  19
ATOM     19  C   UNL     1      29.308   0.462  30.133  1.00  0.00     0.000 C 
BRANCH  19  20
ATOM     20  C   UNL     1      28.796   1.345  28.987  1.00  0.00     0.000 C 
BRANCH  20  21
ATOM     21  C   UNL     1      27.500   2.100  29.339  1.00  0.00     0.000 C 
BRANCH  21  22
ATOM     22  C   UNL     1      27.661   3.617  29.550  1.00  0.00     0.000 C 
BRANCH  22  23
ATOM     23  C   UNL     1      28.110   3.982  30.975  1.00  0.00     0.000 C 
BRANCH  23  24
ATOM     24  C   UNL     1      27.970   5.483  31.276  1.00  0.00    -0.000 C 
BRANCH  24  25
ATOM     25  C   UNL     1      27.267   6.307  30.181  1.00  0.00    -0.000 C 
BRANCH  25  26
ATOM     26  C   UNL     1      28.142   7.435  29.593  1.00  0.00    -0.000 C 
BRANCH  26  27
ATOM     27  C   UNL     1      28.036   8.738  30.403  1.00  0.00    -0.000 C 
BRANCH  27  28
ATOM     28  C   UNL     1      26.615   9.323  30.394  1.00  0.00    -0.000 C 
BRANCH  28  29
ATOM     29  C   UNL     1      26.281  10.080  31.692  1.00  0.00    -0.000 C 
BRANCH  29  30
ATOM     30  C   UNL     1      27.383  11.070  32.107  1.00  0.00    -0.000 C 
BRANCH  30  31
ATOM     31  C   UNL     1      27.672  11.112  33.618  1.00  0.00    -0.003 C 
ATOM     32  C   UNL     1      26.415  10.953  34.471  1.00  0.00     0.004 C 
ENDBRANCH  30  31
ENDBRANCH  29  30
ENDBRANCH  28  29
ENDBRANCH  27  28
ENDBRANCH  26  27
ENDBRANCH  25  26
ENDBRANCH  24  25
ENDBRANCH  23  24
ENDBRANCH  22  23
ENDBRANCH  21  22
ENDBRANCH  20  21
ENDBRANCH  19  20
ENDBRANCH  18  19
ENDBRANCH   1  18
TORSDOF 28
ENDMDL
MODEL 9
REMARK VINA RESULT:    -4.709      2.879      7.832
REMARK INTER + INTRA:         -15.199
REMARK INTER:                 -12.467
REMARK INTRA:                  -2.732
REMARK UNBOUND:                -2.781
REMARK SMILES CCCCCCCCCCCCCCCCCCCCCCCCCCCCCC(=O)[O-]
REMARK SMILES IDX 16 1 17 2 18 3 19 4 20 5 21 6 22 7 23 8 24 9 25 10 26 11
REMARK SMILES IDX 27 12 28 13 29 14 30 15 31 16 32 17 15 18 14 19 13 20 12 21
REMARK SMILES IDX 11 22 10 23 9 24 8 25 7 26 6 27 5 28 4 29 3 30 2 31 1 32
REMARK H PARENT
REMARK Flexibility Score: inf
ROOT
ATOM      1  C   UNL     1      28.916   2.422  31.797  1.00  0.00     0.000 C 
ENDROOT
BRANCH   1   2
ATOM      2  C   UNL     1      29.117   3.875  32.265  1.00  0.00     0.000 C 
BRANCH   2   3
ATOM      3  C   UNL     1      27.928   4.787  31.913  1.00  0.00     0.000 C 
BRANCH   3   4
ATOM      4  C   UNL     1      28.188   5.794  30.779  1.00  0.00     0.000 C 
BRANCH   4   5
ATOM      5  C   UNL     1      27.029   5.872  29.771  1.00  0.00     0.000 C 
BRANCH   5   6
ATOM      6  C   UNL     1      27.105   4.774  28.698  1.00  0.00     0.000 C 
BRANCH   6   7
ATOM      7  C   UNL     1      25.726   4.388  28.142  1.00  0.00     0.000 C 
BRANCH   7   8
ATOM      8  C   UNL     1      25.852   3.299  27.066  1.00  0.00     0.000 C 
BRANCH   8   9
ATOM      9  C   UNL     1      24.555   3.112  26.261  1.00  0.00     0.000 C 
BRANCH   9  10
ATOM     10  C   UNL     1      24.548   1.800  25.458  1.00  0.00     0.000 C 
BRANCH  10  11
ATOM     11  C   UNL     1      23.673   0.712  26.102  1.00  0.00     0.000 C 
BRANCH  11  12
ATOM     12  C   UNL     1      22.167   0.873  25.801  1.00  0.00     0.000 C 
BRANCH  12  13
ATOM     13  C   UNL     1      21.329  -0.255  26.428  1.00  0.00     0.006 C 
BRANCH  13  14
ATOM     14  C   UNL     1      20.674   0.174  27.749  1.00  0.00     0.053 C 
BRANCH  14  15
ATOM     15  C   UNL     1      20.975  -0.788  28.856  1.00  0.00     0.041 C 
ATOM     16  O   UNL     1      20.275  -1.825  29.003  1.00  0.00    -0.550 OA
ATOM     17  O   UNL     1      22.016  -0.529  29.739  1.00  0.00    -0.550 OA
ENDBRANCH  14  15
ENDBRANCH  13  14
ENDBRANCH  12  13
ENDBRANCH  11  12
ENDBRANCH  10  11
ENDBRANCH   9  10
ENDBRANCH   8   9
ENDBRANCH   7   8
ENDBRANCH   6   7
ENDBRANCH   5   6
ENDBRANCH   4   5
ENDBRANCH   3   4
ENDBRANCH   2   3
ENDBRANCH   1   2
BRANCH   1  18
ATOM     18  C   UNL     1      27.452   2.112  31.446  1.00  0.00     0.000 C 
BRANCH  18  19
ATOM     19  C   UNL     1      27.033   0.700  31.884  1.00  0.00     0.000 C 
BRANCH  19  20
ATOM     20  C   UNL     1      26.344  -0.053  30.737  1.00  0.00     0.000 C 
BRANCH  20  21
ATOM     21  C   UNL     1      26.482   0.660  29.378  1.00  0.00     0.000 C 
BRANCH  21  22
ATOM     22  C   UNL     1      27.499   0.031  28.408  1.00  0.00     0.000 C 
BRANCH  22  23
ATOM     23  C   UNL     1      28.959   0.241  28.848  1.00  0.00     0.000 C 
BRANCH  23  24
ATOM     24  C   UNL     1      29.444  -0.838  29.829  1.00  0.00    -0.000 C 
BRANCH  24  25
ATOM     25  C   UNL     1      29.492  -2.268  29.257  1.00  0.00    -0.000 C 
BRANCH  25  26
ATOM     26  C   UNL     1      28.865  -3.331  30.184  1.00  0.00    -0.000 C 
BRANCH  26  27
ATOM     27  C   UNL     1      29.077  -4.761  29.659  1.00  0.00    -0.000 C 
BRANCH  27  28
ATOM     28  C   UNL     1      29.487  -5.742  30.769  1.00  0.00    -0.000 C 
BRANCH  28  29
ATOM     29  C   UNL     1      28.388  -6.773  31.079  1.00  0.00    -0.000 C 
BRANCH  29  30
ATOM     30  C   UNL     1      28.863  -8.225  30.896  1.00  0.00    -0.000 C 
BRANCH  30  31
ATOM     31  C   UNL     1      28.306  -8.930  29.647  1.00  0.00    -0.003 C 
ATOM     32  C   UNL     1      29.158  -8.696  28.399  1.00  0.00     0.004 C 
ENDBRANCH  30  31
ENDBRANCH  29  30
ENDBRANCH  28  29
ENDBRANCH  27  28
ENDBRANCH  26  27
ENDBRANCH  25  26
ENDBRANCH  24  25
ENDBRANCH  23  24
ENDBRANCH  22  23
ENDBRANCH  21  22
ENDBRANCH  20  21
ENDBRANCH  19  20
ENDBRANCH  18  19
ENDBRANCH   1  18
TORSDOF 28
ENDMDL
