MODEL 1
REMARK VINA RESULT:     0.062      0.000      0.000
REMARK INTER + INTRA:          -0.184
REMARK INTER:                   0.073
REMARK INTRA:                  -0.258
REMARK UNBOUND:                -0.258
REMARK SMILES O=c1c(O)c(-c2ccc(O)cc2)oc2cc(O)cc(O)c12
REMARK SMILES IDX 5 1 3 2 2 3 1 4 21 5 19 6 18 7 16 8 15 9 14 10 13 11 6 12
REMARK SMILES IDX 7 13 8 14 9 15 12 16 11 17 10 18 4 20 20 22 17 24
REMARK H PARENT 10 19 4 21 20 23 17 25
REMARK Flexibility Score: inf
ROOT
ATOM      1  C   UNL     1      13.214  -9.818 -28.153  1.00  0.00     0.180 A 
ATOM      2  C   UNL     1      13.867 -10.585 -27.170  1.00  0.00     0.208 A 
ATOM      3  C   UNL     1      13.432 -11.898 -26.934  1.00  0.00     0.238 A 
ATOM      4  O   UNL     1      14.018 -12.599 -26.063  1.00  0.00    -0.285 OA
ATOM      5  C   UNL     1      12.342 -12.413 -27.665  1.00  0.00     0.111 A 
ATOM      6  C   UNL     1      11.839 -13.725 -27.485  1.00  0.00     0.134 A 
ATOM      7  C   UNL     1      10.744 -14.161 -28.246  1.00  0.00     0.093 A 
ATOM      8  C   UNL     1      10.144 -13.313 -29.181  1.00  0.00     0.123 A 
ATOM      9  C   UNL     1      10.637 -12.017 -29.364  1.00  0.00     0.094 A 
ATOM     10  C   UNL     1      11.729 -11.565 -28.617  1.00  0.00     0.146 A 
ATOM     11  O   UNL     1      12.179 -10.332 -28.813  1.00  0.00    -0.452 OA
ENDROOT
BRANCH   1  12
ATOM     12  C   UNL     1      13.627  -8.432 -28.474  1.00  0.00     0.021 A 
ATOM     13  C   UNL     1      12.834  -7.356 -28.039  1.00  0.00     0.016 A 
ATOM     14  C   UNL     1      13.192  -6.042 -28.350  1.00  0.00     0.047 A 
ATOM     15  C   UNL     1      14.341  -5.786 -29.111  1.00  0.00     0.115 A 
ATOM     16  C   UNL     1      14.766  -8.168 -29.255  1.00  0.00     0.016 A 
ATOM     17  C   UNL     1      15.123  -6.852 -29.565  1.00  0.00     0.047 A 
BRANCH  15  18
ATOM     18  O   UNL     1      14.708  -4.480 -29.427  1.00  0.00    -0.508 OA
ATOM     19  H   UNL     1      14.527  -4.085 -30.341  1.00  0.00     0.293 HD
ENDBRANCH  15  18
ENDBRANCH   1  12
BRANCH   2  20
ATOM     20  O   UNL     1      14.913 -10.034 -26.424  1.00  0.00    -0.502 OA
ATOM     21  H   UNL     1      14.955  -9.049 -26.193  1.00  0.00     0.293 HD
ENDBRANCH   2  20
BRANCH   6  22
ATOM     22  O   UNL     1      12.416 -14.595 -26.559  1.00  0.00    -0.507 OA
ATOM     23  H   UNL     1      12.953 -14.254 -25.771  1.00  0.00     0.293 HD
ENDBRANCH   6  22
BRANCH   8  24
ATOM     24  O   UNL     1       9.057 -13.770 -29.923  1.00  0.00    -0.508 OA
ATOM     25  H   UNL     1       8.646 -14.681 -29.755  1.00  0.00     0.293 HD
ENDBRANCH   8  24
TORSDOF 5
ENDMDL
MODEL 2
REMARK VINA RESULT:     1.741      2.111      3.293
REMARK INTER + INTRA:           1.789
REMARK INTER:                   2.000
REMARK INTRA:                  -0.210
REMARK UNBOUND:                -0.258
REMARK SMILES O=c1c(O)c(-c2ccc(O)cc2)oc2cc(O)cc(O)c12
REMARK SMILES IDX 5 1 3 2 2 3 1 4 21 5 19 6 18 7 16 8 15 9 14 10 13 11 6 12
REMARK SMILES IDX 7 13 8 14 9 15 12 16 11 17 10 18 4 20 20 22 17 24
REMARK H PARENT 10 19 4 21 20 23 17 25
REMARK Flexibility Score: inf
ROOT
ATOM      1  C   UNL     1      12.298 -10.080 -27.781  1.00  0.00     0.180 A 
ATOM      2  C   UNL     1      11.952 -11.140 -28.640  1.00  0.00     0.208 A 
ATOM      3  C   UNL     1      11.380 -12.299 -28.093  1.00  0.00     0.238 A 
ATOM      4  O   UNL     1      11.055 -13.250 -28.855  1.00  0.00    -0.285 OA
ATOM      5  C   UNL     1      11.185 -12.388 -26.699  1.00  0.00     0.111 A 
ATOM      6  C   UNL     1      10.618 -13.521 -26.067  1.00  0.00     0.134 A 
ATOM      7  C   UNL     1      10.464 -13.537 -24.673  1.00  0.00     0.093 A 
ATOM      8  C   UNL     1      10.865 -12.444 -23.900  1.00  0.00     0.123 A 
ATOM      9  C   UNL     1      11.424 -11.321 -24.519  1.00  0.00     0.094 A 
ATOM     10  C   UNL     1      11.584 -11.285 -25.907  1.00  0.00     0.146 A 
ATOM     11  O   UNL     1      12.113 -10.206 -26.470  1.00  0.00    -0.452 OA
ENDROOT
BRANCH   1  12
ATOM     12  C   UNL     1      12.888  -8.818 -28.284  1.00  0.00     0.021 A 
ATOM     13  C   UNL     1      14.229  -8.800 -28.701  1.00  0.00     0.016 A 
ATOM     14  C   UNL     1      14.813  -7.616 -29.159  1.00  0.00     0.047 A 
ATOM     15  C   UNL     1      14.066  -6.430 -29.191  1.00  0.00     0.115 A 
ATOM     16  C   UNL     1      12.151  -7.620 -28.301  1.00  0.00     0.016 A 
ATOM     17  C   UNL     1      12.738  -6.435 -28.758  1.00  0.00     0.047 A 
BRANCH  15  18
ATOM     18  O   UNL     1      14.638  -5.244 -29.646  1.00  0.00    -0.508 OA
ATOM     19  H   UNL     1      15.572  -4.966 -29.371  1.00  0.00     0.293 HD
ENDBRANCH  15  18
ENDBRANCH   1  12
BRANCH   2  20
ATOM     20  O   UNL     1      12.202 -11.047 -30.012  1.00  0.00    -0.502 OA
ATOM     21  H   UNL     1      12.936 -10.462 -30.392  1.00  0.00     0.293 HD
ENDBRANCH   2  20
BRANCH   6  22
ATOM     22  O   UNL     1      10.209 -14.629 -26.811  1.00  0.00    -0.507 OA
ATOM     23  H   UNL     1      10.586 -15.553 -26.642  1.00  0.00     0.293 HD
ENDBRANCH   6  22
BRANCH   8  24
ATOM     24  O   UNL     1      10.703 -12.484 -22.518  1.00  0.00    -0.508 OA
ATOM     25  H   UNL     1      10.086 -13.156 -22.076  1.00  0.00     0.293 HD
ENDBRANCH   8  24
TORSDOF 5
ENDMDL
MODEL 3
REMARK VINA RESULT:     2.097      2.007      3.160
REMARK INTER + INTRA:           2.208
REMARK INTER:                   1.820
REMARK INTRA:                   0.388
REMARK UNBOUND:                -0.258
REMARK SMILES O=c1c(O)c(-c2ccc(O)cc2)oc2cc(O)cc(O)c12
REMARK SMILES IDX 5 1 3 2 2 3 1 4 21 5 19 6 18 7 16 8 15 9 14 10 13 11 6 12
REMARK SMILES IDX 7 13 8 14 9 15 12 16 11 17 10 18 4 20 20 22 17 24
REMARK H PARENT 10 19 4 21 20 23 17 25
REMARK Flexibility Score: inf
ROOT
ATOM      1  C   UNL     1      13.274  -9.789 -27.581  1.00  0.00     0.180 A 
ATOM      2  C   UNL     1      12.008 -10.061 -27.029  1.00  0.00     0.208 A 
ATOM      3  C   UNL     1      11.768 -11.326 -26.470  1.00  0.00     0.238 A 
ATOM      4  O   UNL     1      10.640 -11.577 -25.963  1.00  0.00    -0.285 OA
ATOM      5  C   UNL     1      12.786 -12.302 -26.492  1.00  0.00     0.111 A 
ATOM      6  C   UNL     1      12.625 -13.601 -25.954  1.00  0.00     0.134 A 
ATOM      7  C   UNL     1      13.683 -14.519 -26.022  1.00  0.00     0.093 A 
ATOM      8  C   UNL     1      14.897 -14.163 -26.615  1.00  0.00     0.123 A 
ATOM      9  C   UNL     1      15.063 -12.881 -27.148  1.00  0.00     0.094 A 
ATOM     10  C   UNL     1      14.020 -11.951 -27.088  1.00  0.00     0.146 A 
ATOM     11  O   UNL     1      14.205 -10.739 -27.597  1.00  0.00    -0.452 OA
ENDROOT
BRANCH   1  12
ATOM     12  C   UNL     1      13.610  -8.473 -28.171  1.00  0.00     0.021 A 
ATOM     13  C   UNL     1      14.732  -8.357 -29.008  1.00  0.00     0.016 A 
ATOM     14  C   UNL     1      15.081  -7.120 -29.558  1.00  0.00     0.047 A 
ATOM     15  C   UNL     1      14.319  -5.980 -29.265  1.00  0.00     0.115 A 
ATOM     16  C   UNL     1      12.863  -7.321 -27.866  1.00  0.00     0.016 A 
ATOM     17  C   UNL     1      13.214  -6.084 -28.416  1.00  0.00     0.047 A 
BRANCH  15  18
ATOM     18  O   UNL     1      14.657  -4.742 -29.808  1.00  0.00    -0.508 OA
ATOM     19  H   UNL     1      15.579  -4.343 -29.683  1.00  0.00     0.293 HD
ENDBRANCH  15  18
ENDBRANCH   1  12
BRANCH   2  20
ATOM     20  O   UNL     1      10.999  -9.094 -27.065  1.00  0.00    -0.502 OA
ATOM     21  H   UNL     1      10.755  -8.596 -27.912  1.00  0.00     0.293 HD
ENDBRANCH   2  20
BRANCH   6  22
ATOM     22  O   UNL     1      11.425 -13.987 -25.355  1.00  0.00    -0.507 OA
ATOM     23  H   UNL     1      11.244 -14.949 -25.094  1.00  0.00     0.293 HD
ENDBRANCH   6  22
BRANCH   8  24
ATOM     24  O   UNL     1      15.932 -15.093 -26.671  1.00  0.00    -0.508 OA
ATOM     25  H   UNL     1      16.867 -14.830 -26.964  1.00  0.00     0.293 HD
ENDBRANCH   8  24
TORSDOF 5
ENDMDL
