MODEL 1
REMARK VINA RESULT:     2.174      0.000      0.000
REMARK INTER + INTRA:           5.082
REMARK INTER:                   5.734
REMARK INTRA:                  -0.651
REMARK UNBOUND:                -0.651
REMARK SMILES CCCCCCCCCCCCCCCCCCCCCCCCCCCCCC(=O)[O-]
REMARK SMILES IDX 16 1 17 2 18 3 19 4 20 5 21 6 22 7 23 8 24 9 25 10 26 11
REMARK SMILES IDX 27 12 28 13 29 14 30 15 31 16 32 17 15 18 14 19 13 20 12 21
REMARK SMILES IDX 11 22 10 23 9 24 8 25 7 26 6 27 5 28 4 29 3 30 2 31 1 32
REMARK H PARENT
REMARK Flexibility Score: inf
ROOT
ATOM      1  C   UNL     1      -7.478   1.975   9.667  1.00  0.00     0.000 C 
ENDROOT
BRANCH   1   2
ATOM      2  C   UNL     1      -8.824   2.655   9.974  1.00  0.00     0.000 C 
BRANCH   2   3
ATOM      3  C   UNL     1      -8.761   4.188  10.120  1.00  0.00     0.000 C 
BRANCH   3   4
ATOM      4  C   UNL     1      -9.256   4.990   8.900  1.00  0.00     0.000 C 
BRANCH   4   5
ATOM      5  C   UNL     1      -8.168   5.392   7.890  1.00  0.00     0.000 C 
BRANCH   5   6
ATOM      6  C   UNL     1      -7.824   6.889   7.936  1.00  0.00     0.000 C 
BRANCH   6   7
ATOM      7  C   UNL     1      -6.487   7.169   8.645  1.00  0.00     0.000 C 
BRANCH   7   8
ATOM      8  C   UNL     1      -5.939   8.591   8.396  1.00  0.00     0.000 C 
BRANCH   8   9
ATOM      9  C   UNL     1      -7.064   9.639   8.300  1.00  0.00     0.000 C 
BRANCH   9  10
ATOM     10  C   UNL     1      -8.415   9.101   8.799  1.00  0.00     0.000 C 
BRANCH  10  11
ATOM     11  C   UNL     1      -9.559  10.108   8.599  1.00  0.00     0.000 C 
BRANCH  11  12
ATOM     12  C   UNL     1     -10.124  10.024   7.174  1.00  0.00     0.000 C 
BRANCH  12  13
ATOM     13  C   UNL     1      -9.826   8.682   6.482  1.00  0.00     0.006 C 
BRANCH  13  14
ATOM     14  C   UNL     1      -9.751   8.771   4.946  1.00  0.00     0.053 C 
BRANCH  14  15
ATOM     15  C   UNL     1      -9.114   7.564   4.324  1.00  0.00     0.041 C 
ATOM     16  O   UNL     1      -7.862   7.420   4.347  1.00  0.00    -0.550 OA
ATOM     17  O   UNL     1      -9.901   6.611   3.691  1.00  0.00    -0.550 OA
ENDBRANCH  14  15
ENDBRANCH  13  14
ENDBRANCH  12  13
ENDBRANCH  11  12
ENDBRANCH  10  11
ENDBRANCH   9  10
ENDBRANCH   8   9
ENDBRANCH   7   8
ENDBRANCH   6   7
ENDBRANCH   5   6
ENDBRANCH   4   5
ENDBRANCH   3   4
ENDBRANCH   2   3
ENDBRANCH   1   2
BRANCH   1  18
ATOM     18  C   UNL     1      -7.635   0.515   9.209  1.00  0.00     0.000 C 
BRANCH  18  19
ATOM     19  C   UNL     1      -8.574  -0.286  10.125  1.00  0.00     0.000 C 
BRANCH  19  20
ATOM     20  C   UNL     1      -9.436  -1.296   9.345  1.00  0.00     0.000 C 
BRANCH  20  21
ATOM     21  C   UNL     1      -8.681  -2.596   9.022  1.00  0.00     0.000 C 
BRANCH  21  22
ATOM     22  C   UNL     1      -8.862  -3.669  10.112  1.00  0.00     0.000 C 
BRANCH  22  23
ATOM     23  C   UNL     1     -10.001  -4.655   9.780  1.00  0.00     0.000 C 
BRANCH  23  24
ATOM     24  C   UNL     1      -9.680  -5.606   8.615  1.00  0.00    -0.000 C 
BRANCH  24  25
ATOM     25  C   UNL     1      -9.767  -7.087   9.014  1.00  0.00    -0.000 C 
BRANCH  25  26
ATOM     26  C   UNL     1      -8.416  -7.820   8.919  1.00  0.00    -0.000 C 
BRANCH  26  27
ATOM     27  C   UNL     1      -7.257  -7.177   9.705  1.00  0.00    -0.000 C 
BRANCH  27  28
ATOM     28  C   UNL     1      -6.208  -6.512   8.797  1.00  0.00    -0.000 C 
BRANCH  28  29
ATOM     29  C   UNL     1      -5.450  -5.379   9.510  1.00  0.00    -0.000 C 
BRANCH  29  30
ATOM     30  C   UNL     1      -4.065  -5.121   8.899  1.00  0.00    -0.000 C 
BRANCH  30  31
ATOM     31  C   UNL     1      -3.587  -6.336   8.098  1.00  0.00    -0.003 C 
ATOM     32  C   UNL     1      -2.389  -7.005   8.768  1.00  0.00     0.004 C 
ENDBRANCH  30  31
ENDBRANCH  29  30
ENDBRANCH  28  29
ENDBRANCH  27  28
ENDBRANCH  26  27
ENDBRANCH  25  26
ENDBRANCH  24  25
ENDBRANCH  23  24
ENDBRANCH  22  23
ENDBRANCH  21  22
ENDBRANCH  20  21
ENDBRANCH  19  20
ENDBRANCH  18  19
ENDBRANCH   1  18
TORSDOF 28
ENDMDL
MODEL 2
REMARK VINA RESULT:     2.677      8.011     10.762
REMARK INTER + INTRA:           6.408
REMARK INTER:                   8.318
REMARK INTRA:                  -1.909
REMARK UNBOUND:                -0.651
REMARK SMILES CCCCCCCCCCCCCCCCCCCCCCCCCCCCCC(=O)[O-]
REMARK SMILES IDX 16 1 17 2 18 3 19 4 20 5 21 6 22 7 23 8 24 9 25 10 26 11
REMARK SMILES IDX 27 12 28 13 29 14 30 15 31 16 32 17 15 18 14 19 13 20 12 21
REMARK SMILES IDX 11 22 10 23 9 24 8 25 7 26 6 27 5 28 4 29 3 30 2 31 1 32
REMARK H PARENT
REMARK Flexibility Score: inf
ROOT
ATOM      1  C   UNL     1      -3.857   6.964   1.866  1.00  0.00     0.000 C 
ENDROOT
BRANCH   1   2
ATOM      2  C   UNL     1      -5.324   7.214   2.257  1.00  0.00     0.000 C 
BRANCH   2   3
ATOM      3  C   UNL     1      -5.663   8.676   2.611  1.00  0.00     0.000 C 
BRANCH   3   4
ATOM      4  C   UNL     1      -7.120   8.929   3.047  1.00  0.00     0.000 C 
BRANCH   4   5
ATOM      5  C   UNL     1      -7.307  10.006   4.129  1.00  0.00     0.000 C 
BRANCH   5   6
ATOM      6  C   UNL     1      -8.736  10.056   4.691  1.00  0.00     0.000 C 
BRANCH   6   7
ATOM      7  C   UNL     1      -8.827   9.525   6.132  1.00  0.00     0.000 C 
BRANCH   7   8
ATOM      8  C   UNL     1      -9.727   8.280   6.279  1.00  0.00     0.000 C 
BRANCH   8   9
ATOM      9  C   UNL     1      -9.225   7.096   5.431  1.00  0.00     0.000 C 
BRANCH   9  10
ATOM     10  C   UNL     1      -8.500   6.033   6.273  1.00  0.00     0.000 C 
BRANCH  10  11
ATOM     11  C   UNL     1      -8.791   6.176   7.776  1.00  0.00     0.000 C 
BRANCH  11  12
ATOM     12  C   UNL     1      -7.792   5.360   8.610  1.00  0.00     0.000 C 
BRANCH  12  13
ATOM     13  C   UNL     1      -6.428   6.055   8.769  1.00  0.00     0.006 C 
BRANCH  13  14
ATOM     14  C   UNL     1      -6.438   7.550   8.400  1.00  0.00     0.053 C 
BRANCH  14  15
ATOM     15  C   UNL     1      -5.146   8.240   8.724  1.00  0.00     0.041 C 
ATOM     16  O   UNL     1      -4.475   7.896   9.734  1.00  0.00    -0.550 OA
ATOM     17  O   UNL     1      -4.696   9.282   7.925  1.00  0.00    -0.550 OA
ENDBRANCH  14  15
ENDBRANCH  13  14
ENDBRANCH  12  13
ENDBRANCH  11  12
ENDBRANCH  10  11
ENDBRANCH   9  10
ENDBRANCH   8   9
ENDBRANCH   7   8
ENDBRANCH   6   7
ENDBRANCH   5   6
ENDBRANCH   4   5
ENDBRANCH   3   4
ENDBRANCH   2   3
ENDBRANCH   1   2
BRANCH   1  18
ATOM     18  C   UNL     1      -3.474   5.474   1.893  1.00  0.00     0.000 C 
BRANCH  18  19
ATOM     19  C   UNL     1      -2.036   5.232   1.407  1.00  0.00     0.000 C 
BRANCH  19  20
ATOM     20  C   UNL     1      -1.749   3.742   1.139  1.00  0.00     0.000 C 
BRANCH  20  21
ATOM     21  C   UNL     1      -0.429   3.270   1.768  1.00  0.00     0.000 C 
BRANCH  21  22
ATOM     22  C   UNL     1       0.744   4.219   1.458  1.00  0.00     0.000 C 
BRANCH  22  23
ATOM     23  C   UNL     1       1.407   3.906   0.100  1.00  0.00     0.000 C 
BRANCH  23  24
ATOM     24  C   UNL     1       1.021   2.534  -0.479  1.00  0.00    -0.000 C 
BRANCH  24  25
ATOM     25  C   UNL     1       2.175   1.521  -0.431  1.00  0.00    -0.000 C 
BRANCH  25  26
ATOM     26  C   UNL     1       2.102   0.577   0.783  1.00  0.00    -0.000 C 
BRANCH  26  27
ATOM     27  C   UNL     1       2.705  -0.824   0.569  1.00  0.00    -0.000 C 
BRANCH  27  28
ATOM     28  C   UNL     1       3.780  -0.858  -0.531  1.00  0.00    -0.000 C 
BRANCH  28  29
ATOM     29  C   UNL     1       3.355  -1.708  -1.741  1.00  0.00    -0.000 C 
BRANCH  29  30
ATOM     30  C   UNL     1       2.025  -2.439  -1.509  1.00  0.00    -0.000 C 
BRANCH  30  31
ATOM     31  C   UNL     1       1.321  -2.726  -2.841  1.00  0.00    -0.003 C 
ATOM     32  C   UNL     1       1.106  -4.224  -3.042  1.00  0.00     0.004 C 
ENDBRANCH  30  31
ENDBRANCH  29  30
ENDBRANCH  28  29
ENDBRANCH  27  28
ENDBRANCH  26  27
ENDBRANCH  25  26
ENDBRANCH  24  25
ENDBRANCH  23  24
ENDBRANCH  22  23
ENDBRANCH  21  22
ENDBRANCH  20  21
ENDBRANCH  19  20
ENDBRANCH  18  19
ENDBRANCH   1  18
TORSDOF 28
ENDMDL
MODEL 3
REMARK VINA RESULT:     2.743      7.625     13.159
REMARK INTER + INTRA:           6.582
REMARK INTER:                   8.949
REMARK INTRA:                  -2.367
REMARK UNBOUND:                -0.651
REMARK SMILES CCCCCCCCCCCCCCCCCCCCCCCCCCCCCC(=O)[O-]
REMARK SMILES IDX 16 1 17 2 18 3 19 4 20 5 21 6 22 7 23 8 24 9 25 10 26 11
REMARK SMILES IDX 27 12 28 13 29 14 30 15 31 16 32 17 15 18 14 19 13 20 12 21
REMARK SMILES IDX 11 22 10 23 9 24 8 25 7 26 6 27 5 28 4 29 3 30 2 31 1 32
REMARK H PARENT
REMARK Flexibility Score: inf
ROOT
ATOM      1  C   UNL     1      -5.940   9.093   2.886  1.00  0.00     0.000 C 
ENDROOT
BRANCH   1   2
ATOM      2  C   UNL     1      -5.592   7.821   2.092  1.00  0.00     0.000 C 
BRANCH   2   3
ATOM      3  C   UNL     1      -4.103   7.426   2.116  1.00  0.00     0.000 C 
BRANCH   3   4
ATOM      4  C   UNL     1      -3.740   6.164   1.307  1.00  0.00     0.000 C 
BRANCH   4   5
ATOM      5  C   UNL     1      -2.452   5.446   1.747  1.00  0.00     0.000 C 
BRANCH   5   6
ATOM      6  C   UNL     1      -2.241   4.099   1.040  1.00  0.00     0.000 C 
BRANCH   6   7
ATOM      7  C   UNL     1      -0.764   3.667   1.016  1.00  0.00     0.000 C 
BRANCH   7   8
ATOM      8  C   UNL     1      -0.004   3.980   2.323  1.00  0.00     0.000 C 
BRANCH   8   9
ATOM      9  C   UNL     1       1.261   3.116   2.482  1.00  0.00     0.000 C 
BRANCH   9  10
ATOM     10  C   UNL     1       1.472   2.157   1.298  1.00  0.00     0.000 C 
BRANCH  10  11
ATOM     11  C   UNL     1       1.511   0.684   1.734  1.00  0.00     0.000 C 
BRANCH  11  12
ATOM     12  C   UNL     1       2.801   0.001   1.256  1.00  0.00     0.000 C 
BRANCH  12  13
ATOM     13  C   UNL     1       2.965   0.021  -0.274  1.00  0.00     0.006 C 
BRANCH  13  14
ATOM     14  C   UNL     1       3.476  -1.305  -0.868  1.00  0.00     0.053 C 
BRANCH  14  15
ATOM     15  C   UNL     1       2.369  -2.259  -1.202  1.00  0.00     0.041 C 
ATOM     16  O   UNL     1       2.178  -2.623  -2.393  1.00  0.00    -0.550 OA
ATOM     17  O   UNL     1       1.528  -2.726  -0.200  1.00  0.00    -0.550 OA
ENDBRANCH  14  15
ENDBRANCH  13  14
ENDBRANCH  12  13
ENDBRANCH  11  12
ENDBRANCH  10  11
ENDBRANCH   9  10
ENDBRANCH   8   9
ENDBRANCH   7   8
ENDBRANCH   6   7
ENDBRANCH   5   6
ENDBRANCH   4   5
ENDBRANCH   3   4
ENDBRANCH   2   3
ENDBRANCH   1   2
BRANCH   1  18
ATOM     18  C   UNL     1      -7.250   8.963   3.682  1.00  0.00     0.000 C 
BRANCH  18  19
ATOM     19  C   UNL     1      -8.487   9.276   2.825  1.00  0.00     0.000 C 
BRANCH  19  20
ATOM     20  C   UNL     1      -9.601   8.226   2.994  1.00  0.00     0.000 C 
BRANCH  20  21
ATOM     21  C   UNL     1      -9.906   7.916   4.468  1.00  0.00     0.000 C 
BRANCH  21  22
ATOM     22  C   UNL     1      -9.384   6.533   4.900  1.00  0.00     0.000 C 
BRANCH  22  23
ATOM     23  C   UNL     1      -8.887   6.525   6.361  1.00  0.00     0.000 C 
BRANCH  23  24
ATOM     24  C   UNL     1      -9.607   7.537   7.268  1.00  0.00    -0.000 C 
BRANCH  24  25
ATOM     25  C   UNL     1      -8.634   8.451   8.030  1.00  0.00    -0.000 C 
BRANCH  25  26
ATOM     26  C   UNL     1      -7.412   8.868   7.191  1.00  0.00    -0.000 C 
BRANCH  26  27
ATOM     27  C   UNL     1      -6.071   8.909   7.948  1.00  0.00    -0.000 C 
BRANCH  27  28
ATOM     28  C   UNL     1      -6.203   8.523   9.432  1.00  0.00    -0.000 C 
BRANCH  28  29
ATOM     29  C   UNL     1      -5.191   7.443   9.849  1.00  0.00    -0.000 C 
BRANCH  29  30
ATOM     30  C   UNL     1      -5.362   6.138   9.058  1.00  0.00    -0.000 C 
BRANCH  30  31
ATOM     31  C   UNL     1      -6.756   5.542   9.283  1.00  0.00    -0.003 C 
ATOM     32  C   UNL     1      -6.673   4.189   9.986  1.00  0.00     0.004 C 
ENDBRANCH  30  31
ENDBRANCH  29  30
ENDBRANCH  28  29
ENDBRANCH  27  28
ENDBRANCH  26  27
ENDBRANCH  25  26
ENDBRANCH  24  25
ENDBRANCH  23  24
ENDBRANCH  22  23
ENDBRANCH  21  22
ENDBRANCH  20  21
ENDBRANCH  19  20
ENDBRANCH  18  19
ENDBRANCH   1  18
TORSDOF 28
ENDMDL
MODEL 4
REMARK VINA RESULT:     2.883      8.675     14.174
REMARK INTER + INTRA:           6.950
REMARK INTER:                   9.105
REMARK INTRA:                  -2.155
REMARK UNBOUND:                -0.651
REMARK SMILES CCCCCCCCCCCCCCCCCCCCCCCCCCCCCC(=O)[O-]
REMARK SMILES IDX 16 1 17 2 18 3 19 4 20 5 21 6 22 7 23 8 24 9 25 10 26 11
REMARK SMILES IDX 27 12 28 13 29 14 30 15 31 16 32 17 15 18 14 19 13 20 12 21
REMARK SMILES IDX 11 22 10 23 9 24 8 25 7 26 6 27 5 28 4 29 3 30 2 31 1 32
REMARK H PARENT
REMARK Flexibility Score: inf
ROOT
ATOM      1  C   UNL     1      -4.158   7.372   2.242  1.00  0.00     0.000 C 
ENDROOT
BRANCH   1   2
ATOM      2  C   UNL     1      -3.619   6.418   1.162  1.00  0.00     0.000 C 
BRANCH   2   3
ATOM      3  C   UNL     1      -2.940   5.143   1.701  1.00  0.00     0.000 C 
BRANCH   3   4
ATOM      4  C   UNL     1      -1.446   4.991   1.350  1.00  0.00     0.000 C 
BRANCH   4   5
ATOM      5  C   UNL     1      -0.943   3.543   1.222  1.00  0.00     0.000 C 
BRANCH   5   6
ATOM      6  C   UNL     1       0.590   3.436   1.196  1.00  0.00     0.000 C 
BRANCH   6   7
ATOM      7  C   UNL     1       1.161   3.434  -0.234  1.00  0.00     0.000 C 
BRANCH   7   8
ATOM      8  C   UNL     1       1.519   2.026  -0.756  1.00  0.00     0.000 C 
BRANCH   8   9
ATOM      9  C   UNL     1       2.277   1.191   0.293  1.00  0.00     0.000 C 
BRANCH   9  10
ATOM     10  C   UNL     1       2.291  -0.309  -0.046  1.00  0.00     0.000 C 
BRANCH  10  11
ATOM     11  C   UNL     1       3.658  -0.780  -0.568  1.00  0.00     0.000 C 
BRANCH  11  12
ATOM     12  C   UNL     1       3.501  -1.962  -1.535  1.00  0.00     0.000 C 
BRANCH  12  13
ATOM     13  C   UNL     1       2.145  -2.677  -1.402  1.00  0.00     0.006 C 
BRANCH  13  14
ATOM     14  C   UNL     1       1.372  -2.810  -2.727  1.00  0.00     0.053 C 
BRANCH  14  15
ATOM     15  C   UNL     1       1.135  -4.237  -3.123  1.00  0.00     0.041 C 
ATOM     16  O   UNL     1       0.153  -4.542  -3.852  1.00  0.00    -0.550 OA
ATOM     17  O   UNL     1       1.982  -5.236  -2.663  1.00  0.00    -0.550 OA
ENDBRANCH  14  15
ENDBRANCH  13  14
ENDBRANCH  12  13
ENDBRANCH  11  12
ENDBRANCH  10  11
ENDBRANCH   9  10
ENDBRANCH   8   9
ENDBRANCH   7   8
ENDBRANCH   6   7
ENDBRANCH   5   6
ENDBRANCH   4   5
ENDBRANCH   3   4
ENDBRANCH   2   3
ENDBRANCH   1   2
BRANCH   1  18
ATOM     18  C   UNL     1      -5.694   7.461   2.251  1.00  0.00     0.000 C 
BRANCH  18  19
ATOM     19  C   UNL     1      -6.199   8.773   2.872  1.00  0.00     0.000 C 
BRANCH  19  20
ATOM     20  C   UNL     1      -7.723   8.771   3.093  1.00  0.00     0.000 C 
BRANCH  20  21
ATOM     21  C   UNL     1      -8.213   7.519   3.838  1.00  0.00     0.000 C 
BRANCH  21  22
ATOM     22  C   UNL     1      -9.310   7.839   4.871  1.00  0.00     0.000 C 
BRANCH  22  23
ATOM     23  C   UNL     1      -9.657   6.620   5.752  1.00  0.00     0.000 C 
BRANCH  23  24
ATOM     24  C   UNL     1      -9.080   6.699   7.176  1.00  0.00    -0.000 C 
BRANCH  24  25
ATOM     25  C   UNL     1      -7.715   6.004   7.305  1.00  0.00    -0.000 C 
BRANCH  25  26
ATOM     26  C   UNL     1      -7.497   5.349   8.681  1.00  0.00    -0.000 C 
BRANCH  26  27
ATOM     27  C   UNL     1      -6.513   6.080   9.613  1.00  0.00    -0.000 C 
BRANCH  27  28
ATOM     28  C   UNL     1      -5.119   6.271   8.990  1.00  0.00    -0.000 C 
BRANCH  28  29
ATOM     29  C   UNL     1      -4.688   7.748   8.959  1.00  0.00    -0.000 C 
BRANCH  29  30
ATOM     30  C   UNL     1      -5.881   8.712   9.017  1.00  0.00    -0.000 C 
BRANCH  30  31
ATOM     31  C   UNL     1      -5.768   9.787   7.931  1.00  0.00    -0.003 C 
ATOM     32  C   UNL     1      -6.797   9.567   6.825  1.00  0.00     0.004 C 
ENDBRANCH  30  31
ENDBRANCH  29  30
ENDBRANCH  28  29
ENDBRANCH  27  28
ENDBRANCH  26  27
ENDBRANCH  25  26
ENDBRANCH  24  25
ENDBRANCH  23  24
ENDBRANCH  22  23
ENDBRANCH  21  22
ENDBRANCH  20  21
ENDBRANCH  19  20
ENDBRANCH  18  19
ENDBRANCH   1  18
TORSDOF 28
ENDMDL
MODEL 5
REMARK VINA RESULT:     2.908      7.625     10.752
REMARK INTER + INTRA:           7.017
REMARK INTER:                   8.713
REMARK INTRA:                  -1.696
REMARK UNBOUND:                -0.651
REMARK SMILES CCCCCCCCCCCCCCCCCCCCCCCCCCCCCC(=O)[O-]
REMARK SMILES IDX 16 1 17 2 18 3 19 4 20 5 21 6 22 7 23 8 24 9 25 10 26 11
REMARK SMILES IDX 27 12 28 13 29 14 30 15 31 16 32 17 15 18 14 19 13 20 12 21
REMARK SMILES IDX 11 22 10 23 9 24 8 25 7 26 6 27 5 28 4 29 3 30 2 31 1 32
REMARK H PARENT
REMARK Flexibility Score: inf
ROOT
ATOM      1  C   UNL     1      -5.778   7.753   2.634  1.00  0.00     0.000 C 
ENDROOT
BRANCH   1   2
ATOM      2  C   UNL     1      -6.390   9.156   2.796  1.00  0.00     0.000 C 
BRANCH   2   3
ATOM      3  C   UNL     1      -7.192   9.371   4.095  1.00  0.00     0.000 C 
BRANCH   3   4
ATOM      4  C   UNL     1      -8.637   8.833   4.076  1.00  0.00     0.000 C 
BRANCH   4   5
ATOM      5  C   UNL     1      -8.770   7.302   4.010  1.00  0.00     0.000 C 
BRANCH   5   6
ATOM      6  C   UNL     1      -9.461   6.703   5.244  1.00  0.00     0.000 C 
BRANCH   6   7
ATOM      7  C   UNL     1      -9.897   7.773   6.260  1.00  0.00     0.000 C 
BRANCH   7   8
ATOM      8  C   UNL     1      -9.506   7.442   7.717  1.00  0.00     0.000 C 
BRANCH   8   9
ATOM      9  C   UNL     1      -9.377   5.925   7.954  1.00  0.00     0.000 C 
BRANCH   9  10
ATOM     10  C   UNL     1      -8.634   5.594   9.258  1.00  0.00     0.000 C 
BRANCH  10  11
ATOM     11  C   UNL     1      -7.302   4.869   9.008  1.00  0.00     0.000 C 
BRANCH  11  12
ATOM     12  C   UNL     1      -6.187   5.442   9.895  1.00  0.00     0.000 C 
BRANCH  12  13
ATOM     13  C   UNL     1      -5.135   6.240   9.104  1.00  0.00     0.006 C 
BRANCH  13  14
ATOM     14  C   UNL     1      -4.976   7.700   9.567  1.00  0.00     0.053 C 
BRANCH  14  15
ATOM     15  C   UNL     1      -5.211   8.690   8.465  1.00  0.00     0.041 C 
ATOM     16  O   UNL     1      -6.237   8.605   7.739  1.00  0.00    -0.550 OA
ATOM     17  O   UNL     1      -4.280   9.691   8.220  1.00  0.00    -0.550 OA
ENDBRANCH  14  15
ENDBRANCH  13  14
ENDBRANCH  12  13
ENDBRANCH  11  12
ENDBRANCH  10  11
ENDBRANCH   9  10
ENDBRANCH   8   9
ENDBRANCH   7   8
ENDBRANCH   6   7
ENDBRANCH   5   6
ENDBRANCH   4   5
ENDBRANCH   3   4
ENDBRANCH   2   3
ENDBRANCH   1   2
BRANCH   1  18
ATOM     18  C   UNL     1      -4.436   7.767   1.883  1.00  0.00     0.000 C 
BRANCH  18  19
ATOM     19  C   UNL     1      -3.960   6.353   1.512  1.00  0.00     0.000 C 
BRANCH  19  20
ATOM     20  C   UNL     1      -2.588   6.015   2.126  1.00  0.00     0.000 C 
BRANCH  20  21
ATOM     21  C   UNL     1      -1.722   5.146   1.201  1.00  0.00     0.000 C 
BRANCH  21  22
ATOM     22  C   UNL     1      -0.520   4.521   1.934  1.00  0.00     0.000 C 
BRANCH  22  23
ATOM     23  C   UNL     1       0.643   4.191   0.974  1.00  0.00     0.000 C 
BRANCH  23  24
ATOM     24  C   UNL     1       0.343   3.032   0.009  1.00  0.00    -0.000 C 
BRANCH  24  25
ATOM     25  C   UNL     1       1.344   2.952  -1.155  1.00  0.00    -0.000 C 
BRANCH  25  26
ATOM     26  C   UNL     1       2.267   1.723  -1.075  1.00  0.00    -0.000 C 
BRANCH  26  27
ATOM     27  C   UNL     1       2.186   0.918   0.236  1.00  0.00    -0.000 C 
BRANCH  27  28
ATOM     28  C   UNL     1       3.296  -0.139   0.365  1.00  0.00    -0.000 C 
BRANCH  28  29
ATOM     29  C   UNL     1       3.580  -0.859  -0.964  1.00  0.00    -0.000 C 
BRANCH  29  30
ATOM     30  C   UNL     1       3.505  -2.387  -0.836  1.00  0.00    -0.000 C 
BRANCH  30  31
ATOM     31  C   UNL     1       2.114  -2.900  -1.225  1.00  0.00    -0.003 C 
ATOM     32  C   UNL     1       1.780  -2.552  -2.673  1.00  0.00     0.004 C 
ENDBRANCH  30  31
ENDBRANCH  29  30
ENDBRANCH  28  29
ENDBRANCH  27  28
ENDBRANCH  26  27
ENDBRANCH  25  26
ENDBRANCH  24  25
ENDBRANCH  23  24
ENDBRANCH  22  23
ENDBRANCH  21  22
ENDBRANCH  20  21
ENDBRANCH  19  20
ENDBRANCH  18  19
ENDBRANCH   1  18
TORSDOF 28
ENDMDL
MODEL 6
REMARK VINA RESULT:     2.930      8.088     10.676
REMARK INTER + INTRA:           7.076
REMARK INTER:                   8.969
REMARK INTRA:                  -1.893
REMARK UNBOUND:                -0.651
REMARK SMILES CCCCCCCCCCCCCCCCCCCCCCCCCCCCCC(=O)[O-]
REMARK SMILES IDX 16 1 17 2 18 3 19 4 20 5 21 6 22 7 23 8 24 9 25 10 26 11
REMARK SMILES IDX 27 12 28 13 29 14 30 15 31 16 32 17 15 18 14 19 13 20 12 21
REMARK SMILES IDX 11 22 10 23 9 24 8 25 7 26 6 27 5 28 4 29 3 30 2 31 1 32
REMARK H PARENT
REMARK Flexibility Score: inf
ROOT
ATOM      1  C   UNL     1      -3.824   6.364   1.392  1.00  0.00     0.000 C 
ENDROOT
BRANCH   1   2
ATOM      2  C   UNL     1      -4.314   7.550   2.241  1.00  0.00     0.000 C 
BRANCH   2   3
ATOM      3  C   UNL     1      -5.839   7.614   2.453  1.00  0.00     0.000 C 
BRANCH   3   4
ATOM      4  C   UNL     1      -6.381   8.964   2.963  1.00  0.00     0.000 C 
BRANCH   4   5
ATOM      5  C   UNL     1      -7.880   9.209   2.718  1.00  0.00     0.000 C 
BRANCH   5   6
ATOM      6  C   UNL     1      -8.607   9.777   3.946  1.00  0.00     0.000 C 
BRANCH   6   7
ATOM      7  C   UNL     1      -8.399   8.922   5.208  1.00  0.00     0.000 C 
BRANCH   7   8
ATOM      8  C   UNL     1      -7.971   9.739   6.447  1.00  0.00     0.000 C 
BRANCH   8   9
ATOM      9  C   UNL     1      -6.516   9.450   6.861  1.00  0.00     0.000 C 
BRANCH   9  10
ATOM     10  C   UNL     1      -6.401   8.981   8.321  1.00  0.00     0.000 C 
BRANCH  10  11
ATOM     11  C   UNL     1      -5.057   8.296   8.614  1.00  0.00     0.000 C 
BRANCH  11  12
ATOM     12  C   UNL     1      -5.250   6.797   8.884  1.00  0.00     0.000 C 
BRANCH  12  13
ATOM     13  C   UNL     1      -6.697   6.430   9.258  1.00  0.00     0.006 C 
BRANCH  13  14
ATOM     14  C   UNL     1      -7.389   5.497   8.246  1.00  0.00     0.053 C 
BRANCH  14  15
ATOM     15  C   UNL     1      -8.660   6.074   7.697  1.00  0.00     0.041 C 
ATOM     16  O   UNL     1      -9.353   6.867   8.390  1.00  0.00    -0.550 OA
ATOM     17  O   UNL     1      -9.096   5.713   6.429  1.00  0.00    -0.550 OA
ENDBRANCH  14  15
ENDBRANCH  13  14
ENDBRANCH  12  13
ENDBRANCH  11  12
ENDBRANCH  10  11
ENDBRANCH   9  10
ENDBRANCH   8   9
ENDBRANCH   7   8
ENDBRANCH   6   7
ENDBRANCH   5   6
ENDBRANCH   4   5
ENDBRANCH   3   4
ENDBRANCH   2   3
ENDBRANCH   1   2
BRANCH   1  18
ATOM     18  C   UNL     1      -2.475   5.801   1.871  1.00  0.00     0.000 C 
BRANCH  18  19
ATOM     19  C   UNL     1      -1.857   4.826   0.855  1.00  0.00     0.000 C 
BRANCH  19  20
ATOM     20  C   UNL     1      -1.165   3.630   1.536  1.00  0.00     0.000 C 
BRANCH  20  21
ATOM     21  C   UNL     1       0.365   3.670   1.393  1.00  0.00     0.000 C 
BRANCH  21  22
ATOM     22  C   UNL     1       0.832   3.373  -0.044  1.00  0.00     0.000 C 
BRANCH  22  23
ATOM     23  C   UNL     1       1.687   2.090  -0.128  1.00  0.00     0.000 C 
BRANCH  23  24
ATOM     24  C   UNL     1       1.727   1.284   1.181  1.00  0.00    -0.000 C 
BRANCH  24  25
ATOM     25  C   UNL     1       2.619   0.036   1.084  1.00  0.00    -0.000 C 
BRANCH  25  26
ATOM     26  C   UNL     1       3.188  -0.193  -0.328  1.00  0.00    -0.000 C 
BRANCH  26  27
ATOM     27  C   UNL     1       3.638  -1.634  -0.636  1.00  0.00    -0.000 C 
BRANCH  27  28
ATOM     28  C   UNL     1       2.500  -2.522  -1.166  1.00  0.00    -0.000 C 
BRANCH  28  29
ATOM     29  C   UNL     1       2.318  -2.396  -2.688  1.00  0.00    -0.000 C 
BRANCH  29  30
ATOM     30  C   UNL     1       0.960  -2.930  -3.167  1.00  0.00    -0.000 C 
BRANCH  30  31
ATOM     31  C   UNL     1       0.912  -4.459  -3.074  1.00  0.00    -0.003 C 
ATOM     32  C   UNL     1      -0.462  -4.996  -3.465  1.00  0.00     0.004 C 
ENDBRANCH  30  31
ENDBRANCH  29  30
ENDBRANCH  28  29
ENDBRANCH  27  28
ENDBRANCH  26  27
ENDBRANCH  25  26
ENDBRANCH  24  25
ENDBRANCH  23  24
ENDBRANCH  22  23
ENDBRANCH  21  22
ENDBRANCH  20  21
ENDBRANCH  19  20
ENDBRANCH  18  19
ENDBRANCH   1  18
TORSDOF 28
ENDMDL
MODEL 7
REMARK VINA RESULT:     2.955      8.171     13.571
REMARK INTER + INTRA:           7.141
REMARK INTER:                   9.134
REMARK INTRA:                  -1.993
REMARK UNBOUND:                -0.651
REMARK SMILES CCCCCCCCCCCCCCCCCCCCCCCCCCCCCC(=O)[O-]
REMARK SMILES IDX 16 1 17 2 18 3 19 4 20 5 21 6 22 7 23 8 24 9 25 10 26 11
REMARK SMILES IDX 27 12 28 13 29 14 30 15 31 16 32 17 15 18 14 19 13 20 12 21
REMARK SMILES IDX 11 22 10 23 9 24 8 25 7 26 6 27 5 28 4 29 3 30 2 31 1 32
REMARK H PARENT
REMARK Flexibility Score: inf
ROOT
ATOM      1  C   UNL     1      -4.666   7.772   2.291  1.00  0.00     0.000 C 
ENDROOT
BRANCH   1   2
ATOM      2  C   UNL     1      -4.130   6.740   1.283  1.00  0.00     0.000 C 
BRANCH   2   3
ATOM      3  C   UNL     1      -3.343   5.570   1.905  1.00  0.00     0.000 C 
BRANCH   3   4
ATOM      4  C   UNL     1      -1.926   5.350   1.338  1.00  0.00     0.000 C 
BRANCH   4   5
ATOM      5  C   UNL     1      -1.499   3.881   1.183  1.00  0.00     0.000 C 
BRANCH   5   6
ATOM      6  C   UNL     1      -0.246   3.527   1.998  1.00  0.00     0.000 C 
BRANCH   6   7
ATOM      7  C   UNL     1       0.987   4.345   1.577  1.00  0.00     0.000 C 
BRANCH   7   8
ATOM      8  C   UNL     1       1.509   4.000   0.166  1.00  0.00     0.000 C 
BRANCH   8   9
ATOM      9  C   UNL     1       1.000   2.632  -0.324  1.00  0.00     0.000 C 
BRANCH   9  10
ATOM     10  C   UNL     1       2.120   1.581  -0.405  1.00  0.00     0.000 C 
BRANCH  10  11
ATOM     11  C   UNL     1       2.260   0.770   0.893  1.00  0.00     0.000 C 
BRANCH  11  12
ATOM     12  C   UNL     1       3.337  -0.315   0.753  1.00  0.00     0.000 C 
BRANCH  12  13
ATOM     13  C   UNL     1       3.718  -0.603  -0.710  1.00  0.00     0.006 C 
BRANCH  13  14
ATOM     14  C   UNL     1       3.584  -2.083  -1.115  1.00  0.00     0.053 C 
BRANCH  14  15
ATOM     15  C   UNL     1       2.160  -2.502  -1.330  1.00  0.00     0.041 C 
ATOM     16  O   UNL     1       1.740  -2.763  -2.489  1.00  0.00    -0.550 OA
ATOM     17  O   UNL     1       1.288  -2.575  -0.252  1.00  0.00    -0.550 OA
ENDBRANCH  14  15
ENDBRANCH  13  14
ENDBRANCH  12  13
ENDBRANCH  11  12
ENDBRANCH  10  11
ENDBRANCH   9  10
ENDBRANCH   8   9
ENDBRANCH   7   8
ENDBRANCH   6   7
ENDBRANCH   5   6
ENDBRANCH   4   5
ENDBRANCH   3   4
ENDBRANCH   2   3
ENDBRANCH   1   2
BRANCH   1  18
ATOM     18  C   UNL     1      -6.165   7.598   2.590  1.00  0.00     0.000 C 
BRANCH  18  19
ATOM     19  C   UNL     1      -6.800   8.878   3.156  1.00  0.00     0.000 C 
BRANCH  19  20
ATOM     20  C   UNL     1      -8.333   8.775   3.265  1.00  0.00     0.000 C 
BRANCH  20  21
ATOM     21  C   UNL     1      -8.794   7.477   3.947  1.00  0.00     0.000 C 
BRANCH  21  22
ATOM     22  C   UNL     1      -9.268   7.708   5.394  1.00  0.00     0.000 C 
BRANCH  22  23
ATOM     23  C   UNL     1      -9.752   9.155   5.628  1.00  0.00     0.000 C 
BRANCH  23  24
ATOM     24  C   UNL     1      -9.698   9.597   7.100  1.00  0.00    -0.000 C 
BRANCH  24  25
ATOM     25  C   UNL     1      -8.745   8.738   7.946  1.00  0.00    -0.000 C 
BRANCH  25  26
ATOM     26  C   UNL     1      -9.438   8.067   9.146  1.00  0.00    -0.000 C 
BRANCH  26  27
ATOM     27  C   UNL     1      -8.756   6.793   9.678  1.00  0.00    -0.000 C 
BRANCH  27  28
ATOM     28  C   UNL     1      -8.358   5.810   8.564  1.00  0.00    -0.000 C 
BRANCH  28  29
ATOM     29  C   UNL     1      -7.074   5.031   8.898  1.00  0.00    -0.000 C 
BRANCH  29  30
ATOM     30  C   UNL     1      -6.111   5.835   9.783  1.00  0.00    -0.000 C 
BRANCH  30  31
ATOM     31  C   UNL     1      -4.948   6.394   8.956  1.00  0.00    -0.003 C 
ATOM     32  C   UNL     1      -5.173   7.864   8.607  1.00  0.00     0.004 C 
ENDBRANCH  30  31
ENDBRANCH  29  30
ENDBRANCH  28  29
ENDBRANCH  27  28
ENDBRANCH  26  27
ENDBRANCH  25  26
ENDBRANCH  24  25
ENDBRANCH  23  24
ENDBRANCH  22  23
ENDBRANCH  21  22
ENDBRANCH  20  21
ENDBRANCH  19  20
ENDBRANCH  18  19
ENDBRANCH   1  18
TORSDOF 28
ENDMDL
MODEL 8
REMARK VINA RESULT:     3.048      7.519     10.596
REMARK INTER + INTRA:           7.387
REMARK INTER:                   9.148
REMARK INTRA:                  -1.761
REMARK UNBOUND:                -0.651
REMARK SMILES CCCCCCCCCCCCCCCCCCCCCCCCCCCCCC(=O)[O-]
REMARK SMILES IDX 16 1 17 2 18 3 19 4 20 5 21 6 22 7 23 8 24 9 25 10 26 11
REMARK SMILES IDX 27 12 28 13 29 14 30 15 31 16 32 17 15 18 14 19 13 20 12 21
REMARK SMILES IDX 11 22 10 23 9 24 8 25 7 26 6 27 5 28 4 29 3 30 2 31 1 32
REMARK H PARENT
REMARK Flexibility Score: inf
ROOT
ATOM      1  C   UNL     1      -6.826   9.563   3.175  1.00  0.00     0.000 C 
ENDROOT
BRANCH   1   2
ATOM      2  C   UNL     1      -7.915   9.374   4.246  1.00  0.00     0.000 C 
BRANCH   2   3
ATOM      3  C   UNL     1      -7.542   9.887   5.651  1.00  0.00     0.000 C 
BRANCH   3   4
ATOM      4  C   UNL     1      -8.730  10.119   6.607  1.00  0.00     0.000 C 
BRANCH   4   5
ATOM      5  C   UNL     1      -8.671   9.340   7.933  1.00  0.00     0.000 C 
BRANCH   5   6
ATOM      6  C   UNL     1      -9.958   8.557   8.231  1.00  0.00     0.000 C 
BRANCH   6   7
ATOM      7  C   UNL     1      -9.778   7.037   8.069  1.00  0.00     0.000 C 
BRANCH   7   8
ATOM      8  C   UNL     1      -8.702   6.645   7.034  1.00  0.00     0.000 C 
BRANCH   8   9
ATOM      9  C   UNL     1      -7.536   5.868   7.673  1.00  0.00     0.000 C 
BRANCH   9  10
ATOM     10  C   UNL     1      -7.812   5.490   9.137  1.00  0.00     0.000 C 
BRANCH  10  11
ATOM     11  C   UNL     1      -6.804   6.124  10.108  1.00  0.00     0.000 C 
BRANCH  11  12
ATOM     12  C   UNL     1      -6.462   7.561   9.689  1.00  0.00     0.000 C 
BRANCH  12  13
ATOM     13  C   UNL     1      -4.950   7.849   9.692  1.00  0.00     0.006 C 
BRANCH  13  14
ATOM     14  C   UNL     1      -4.084   6.649  10.116  1.00  0.00     0.053 C 
BRANCH  14  15
ATOM     15  C   UNL     1      -3.594   5.842   8.950  1.00  0.00     0.041 C 
ATOM     16  O   UNL     1      -4.278   5.767   7.894  1.00  0.00    -0.550 OA
ATOM     17  O   UNL     1      -2.395   5.148   9.041  1.00  0.00    -0.550 OA
ENDBRANCH  14  15
ENDBRANCH  13  14
ENDBRANCH  12  13
ENDBRANCH  11  12
ENDBRANCH  10  11
ENDBRANCH   9  10
ENDBRANCH   8   9
ENDBRANCH   7   8
ENDBRANCH   6   7
ENDBRANCH   5   6
ENDBRANCH   4   5
ENDBRANCH   3   4
ENDBRANCH   2   3
ENDBRANCH   1   2
BRANCH   1  18
ATOM     18  C   UNL     1      -6.770   8.403   2.166  1.00  0.00     0.000 C 
BRANCH  18  19
ATOM     19  C   UNL     1      -5.856   7.261   2.641  1.00  0.00     0.000 C 
BRANCH  19  20
ATOM     20  C   UNL     1      -4.527   7.211   1.865  1.00  0.00     0.000 C 
BRANCH  20  21
ATOM     21  C   UNL     1      -3.777   5.883   2.059  1.00  0.00     0.000 C 
BRANCH  21  22
ATOM     22  C   UNL     1      -2.366   5.908   1.442  1.00  0.00     0.000 C 
BRANCH  22  23
ATOM     23  C   UNL     1      -2.039   4.609   0.674  1.00  0.00     0.000 C 
BRANCH  23  24
ATOM     24  C   UNL     1      -1.236   3.587   1.496  1.00  0.00    -0.000 C 
BRANCH  24  25
ATOM     25  C   UNL     1       0.163   4.096   1.876  1.00  0.00    -0.000 C 
BRANCH  25  26
ATOM     26  C   UNL     1       1.209   3.875   0.768  1.00  0.00    -0.000 C 
BRANCH  26  27
ATOM     27  C   UNL     1       0.715   3.093  -0.463  1.00  0.00    -0.000 C 
BRANCH  27  28
ATOM     28  C   UNL     1       1.826   2.278  -1.148  1.00  0.00    -0.000 C 
BRANCH  28  29
ATOM     29  C   UNL     1       2.299   1.093  -0.289  1.00  0.00    -0.000 C 
BRANCH  29  30
ATOM     30  C   UNL     1       3.250   0.157  -1.049  1.00  0.00    -0.000 C 
BRANCH  30  31
ATOM     31  C   UNL     1       3.390  -1.185  -0.322  1.00  0.00    -0.003 C 
ATOM     32  C   UNL     1       2.797  -2.326  -1.146  1.00  0.00     0.004 C 
ENDBRANCH  30  31
ENDBRANCH  29  30
ENDBRANCH  28  29
ENDBRANCH  27  28
ENDBRANCH  26  27
ENDBRANCH  25  26
ENDBRANCH  24  25
ENDBRANCH  23  24
ENDBRANCH  22  23
ENDBRANCH  21  22
ENDBRANCH  20  21
ENDBRANCH  19  20
ENDBRANCH  18  19
ENDBRANCH   1  18
TORSDOF 28
ENDMDL
MODEL 9
REMARK VINA RESULT:     3.189      8.502     12.678
REMARK INTER + INTRA:           7.757
REMARK INTER:                  10.353
REMARK INTRA:                  -2.596
REMARK UNBOUND:                -0.651
REMARK SMILES CCCCCCCCCCCCCCCCCCCCCCCCCCCCCC(=O)[O-]
REMARK SMILES IDX 16 1 17 2 18 3 19 4 20 5 21 6 22 7 23 8 24 9 25 10 26 11
REMARK SMILES IDX 27 12 28 13 29 14 30 15 31 16 32 17 15 18 14 19 13 20 12 21
REMARK SMILES IDX 11 22 10 23 9 24 8 25 7 26 6 27 5 28 4 29 3 30 2 31 1 32
REMARK H PARENT
REMARK Flexibility Score: inf
ROOT
ATOM      1  C   UNL     1      -7.036   9.290   4.484  1.00  0.00     0.000 C 
ENDROOT
BRANCH   1   2
ATOM      2  C   UNL     1      -7.325   9.384   2.976  1.00  0.00     0.000 C 
BRANCH   2   3
ATOM      3  C   UNL     1      -6.170   8.927   2.062  1.00  0.00     0.000 C 
BRANCH   3   4
ATOM      4  C   UNL     1      -5.650   7.498   2.319  1.00  0.00     0.000 C 
BRANCH   4   5
ATOM      5  C   UNL     1      -4.122   7.333   2.259  1.00  0.00     0.000 C 
BRANCH   5   6
ATOM      6  C   UNL     1      -3.683   5.944   1.772  1.00  0.00     0.000 C 
BRANCH   6   7
ATOM      7  C   UNL     1      -2.170   5.859   1.502  1.00  0.00     0.000 C 
BRANCH   7   8
ATOM      8  C   UNL     1      -1.698   4.461   1.048  1.00  0.00     0.000 C 
BRANCH   8   9
ATOM      9  C   UNL     1      -0.619   3.881   1.982  1.00  0.00     0.000 C 
BRANCH   9  10
ATOM     10  C   UNL     1       0.604   3.355   1.213  1.00  0.00     0.000 C 
BRANCH  10  11
ATOM     11  C   UNL     1       0.458   3.519  -0.308  1.00  0.00     0.000 C 
BRANCH  11  12
ATOM     12  C   UNL     1       1.524   2.705  -1.056  1.00  0.00     0.000 C 
BRANCH  12  13
ATOM     13  C   UNL     1       1.952   1.433  -0.303  1.00  0.00     0.006 C 
BRANCH  13  14
ATOM     14  C   UNL     1       2.981   0.572  -1.061  1.00  0.00     0.053 C 
BRANCH  14  15
ATOM     15  C   UNL     1       3.150  -0.793  -0.464  1.00  0.00     0.041 C 
ATOM     16  O   UNL     1       3.931  -1.629  -0.993  1.00  0.00    -0.550 OA
ATOM     17  O   UNL     1       2.422  -1.154   0.662  1.00  0.00    -0.550 OA
ENDBRANCH  14  15
ENDBRANCH  13  14
ENDBRANCH  12  13
ENDBRANCH  11  12
ENDBRANCH  10  11
ENDBRANCH   9  10
ENDBRANCH   8   9
ENDBRANCH   7   8
ENDBRANCH   6   7
ENDBRANCH   5   6
ENDBRANCH   4   5
ENDBRANCH   3   4
ENDBRANCH   2   3
ENDBRANCH   1   2
BRANCH   1  18
ATOM     18  C   UNL     1      -8.077   8.448   5.243  1.00  0.00     0.000 C 
BRANCH  18  19
ATOM     19  C   UNL     1      -8.595   7.269   4.404  1.00  0.00     0.000 C 
BRANCH  19  20
ATOM     20  C   UNL     1      -9.705   6.479   5.124  1.00  0.00     0.000 C 
BRANCH  20  21
ATOM     21  C   UNL     1      -9.698   6.698   6.645  1.00  0.00     0.000 C 
BRANCH  21  22
ATOM     22  C   UNL     1      -8.576   5.910   7.348  1.00  0.00     0.000 C 
BRANCH  22  23
ATOM     23  C   UNL     1      -8.450   6.278   8.842  1.00  0.00     0.000 C 
BRANCH  23  24
ATOM     24  C   UNL     1      -9.612   7.135   9.371  1.00  0.00    -0.000 C 
BRANCH  24  25
ATOM     25  C   UNL     1      -9.156   8.519   9.860  1.00  0.00    -0.000 C 
BRANCH  25  26
ATOM     26  C   UNL     1      -8.684   9.439   8.719  1.00  0.00    -0.000 C 
BRANCH  26  27
ATOM     27  C   UNL     1      -7.264  10.015   8.876  1.00  0.00    -0.000 C 
BRANCH  27  28
ATOM     28  C   UNL     1      -6.535   9.491  10.125  1.00  0.00    -0.000 C 
BRANCH  28  29
ATOM     29  C   UNL     1      -5.103   9.021   9.815  1.00  0.00    -0.000 C 
BRANCH  29  30
ATOM     30  C   UNL     1      -5.014   8.224   8.505  1.00  0.00    -0.000 C 
BRANCH  30  31
ATOM     31  C   UNL     1      -5.123   6.719   8.774  1.00  0.00    -0.003 C 
ATOM     32  C   UNL     1      -3.812   6.158   9.321  1.00  0.00     0.004 C 
ENDBRANCH  30  31
ENDBRANCH  29  30
ENDBRANCH  28  29
ENDBRANCH  27  28
ENDBRANCH  26  27
ENDBRANCH  25  26
ENDBRANCH  24  25
ENDBRANCH  23  24
ENDBRANCH  22  23
ENDBRANCH  21  22
ENDBRANCH  20  21
ENDBRANCH  19  20
ENDBRANCH  18  19
ENDBRANCH   1  18
TORSDOF 28
ENDMDL
