MODEL 1
REMARK VINA RESULT:   112.942      0.000      0.000
REMARK INTER + INTRA:         122.874
REMARK INTER:                 122.846
REMARK INTRA:                   0.028
REMARK UNBOUND:                 0.028
REMARK SMILES C[C@@H]1[C@@H](C)CC[C@@]2(C(=O)[O-])CC[C@@]3(C)C(=CC[C@H]4[C@]5(C)CC[C@@H](O)C(C)(C)[C@@H]5CC[C@@]43C)[C@@H]12
REMARK SMILES IDX 7 1 6 2 11 3 33 4 5 5 12 6 15 7 2 8 3 9 13 10 16 11 1 12
REMARK SMILES IDX 4 13 14 14 31 15 17 16 18 17 30 18 32 19 19 20 29 21 28 22
REMARK SMILES IDX 21 23 20 24 25 25 22 26 23 27 26 28 27 29 8 30 9 31 10 32
REMARK SMILES IDX 24 33
REMARK H PARENT 24 34
REMARK Flexibility Score: inf
ROOT
ATOM      1  C   UNL     1      -7.924   5.619 -19.502  1.00  0.00     0.017 C 
ATOM      2  C   UNL     1      -8.630   4.614 -20.459  1.00  0.00     0.014 C 
ATOM      3  C   UNL     1      -8.663   7.002 -19.558  1.00  0.00     0.014 C 
ATOM      4  C   UNL     1      -7.846   5.053 -18.023  1.00  0.00     0.030 C 
ATOM      5  C   UNL     1      -8.046   3.185 -20.410  1.00  0.00     0.004 C 
ATOM      6  C   UNL     1      -9.950   7.185 -18.692  1.00  0.00     0.013 C 
ATOM      7  C   UNL     1      -8.548   6.010 -17.041  1.00  0.00    -0.063 C 
ATOM      8  C   UNL     1      -8.205   3.539 -17.882  1.00  0.00    -0.003 C 
ATOM      9  C   UNL     1      -7.500   2.755 -19.023  1.00  0.00    -0.011 C 
ATOM     10  C   UNL     1     -10.016   6.432 -17.290  1.00  0.00    -0.006 C 
ATOM     11  C   UNL     1      -7.726   6.911 -16.446  1.00  0.00    -0.027 C 
ATOM     12  C   UNL     1      -7.814   3.026 -16.480  1.00  0.00     0.008 C 
ATOM     13  C   UNL     1      -7.619   1.228 -18.872  1.00  0.00     0.008 C 
ATOM     14  C   UNL     1     -10.947   5.203 -17.512  1.00  0.00     0.017 C 
ATOM     15  C   UNL     1     -10.642   7.322 -16.033  1.00  0.00    -0.020 C 
ATOM     16  C   UNL     1      -8.248   8.207 -15.903  1.00  0.00     0.032 C 
ATOM     17  C   UNL     1      -9.508   7.884 -15.100  1.00  0.00     0.006 C 
ATOM     18  C   UNL     1     -11.539   6.482 -15.036  1.00  0.00     0.008 C 
ATOM     19  C   UNL     1     -11.554   8.444 -16.628  1.00  0.00     0.012 C 
ATOM     20  C   UNL     1      -9.935   8.920 -13.964  1.00  0.00    -0.025 C 
ATOM     21  C   UNL     1     -11.624   6.988 -13.562  1.00  0.00     0.005 C 
ATOM     22  C   UNL     1     -11.361   8.510 -13.359  1.00  0.00     0.003 C 
ATOM     23  C   UNL     1      -8.815   8.861 -12.862  1.00  0.00     0.010 C 
ATOM     24  C   UNL     1      -9.984  10.369 -14.541  1.00  0.00     0.012 C 
ATOM     25  C   UNL     1     -11.676   9.035 -11.882  1.00  0.00    -0.006 C 
ATOM     26  C   UNL     1      -9.180   9.492 -11.524  1.00  0.00     0.033 C 
ATOM     27  C   UNL     1     -10.443   8.844 -10.953  1.00  0.00     0.120 C 
ATOM     28  C   UNL     1     -12.123  10.526 -11.929  1.00  0.00     0.014 C 
ATOM     29  C   UNL     1     -12.872   8.274 -11.243  1.00  0.00     0.014 C 
ENDROOT
BRANCH   1  30
ATOM     30  C   UNL     1      -6.508   5.878 -20.030  1.00  0.00     0.048 C 
ATOM     31  O   UNL     1      -5.733   6.655 -19.410  1.00  0.00    -0.550 OA
ATOM     32  O   UNL     1      -6.081   5.350 -21.245  1.00  0.00    -0.550 OA
ENDBRANCH   1  30
BRANCH  27  33
ATOM     33  O   UNL     1     -10.694   9.302  -9.643  1.00  0.00    -0.393 OA
ATOM     34  H   UNL     1     -11.617   9.040  -9.391  1.00  0.00     0.210 HD
ENDBRANCH  27  33
TORSDOF 2
ENDMDL
MODEL 2
REMARK VINA RESULT:   114.935      2.521      7.846
REMARK INTER + INTRA:         125.042
REMARK INTER:                 125.309
REMARK INTRA:                  -0.268
REMARK UNBOUND:                 0.028
REMARK SMILES C[C@@H]1[C@@H](C)CC[C@@]2(C(=O)[O-])CC[C@@]3(C)C(=CC[C@H]4[C@]5(C)CC[C@@H](O)C(C)(C)[C@@H]5CC[C@@]43C)[C@@H]12
REMARK SMILES IDX 7 1 6 2 11 3 33 4 5 5 12 6 15 7 2 8 3 9 13 10 16 11 1 12
REMARK SMILES IDX 4 13 14 14 31 15 17 16 18 17 30 18 32 19 19 20 29 21 28 22
REMARK SMILES IDX 21 23 20 24 25 25 22 26 23 27 26 28 27 29 8 30 9 31 10 32
REMARK SMILES IDX 24 33
REMARK H PARENT 24 34
REMARK Flexibility Score: inf
ROOT
ATOM      1  C   UNL     1      -7.318   8.191 -13.913  1.00  0.00     0.017 C 
ATOM      2  C   UNL     1      -7.544   7.678 -12.461  1.00  0.00     0.014 C 
ATOM      3  C   UNL     1      -6.425   7.167 -14.697  1.00  0.00     0.014 C 
ATOM      4  C   UNL     1      -8.694   8.461 -14.654  1.00  0.00     0.030 C 
ATOM      5  C   UNL     1      -8.495   8.561 -11.624  1.00  0.00     0.004 C 
ATOM      6  C   UNL     1      -7.118   5.913 -15.321  1.00  0.00     0.013 C 
ATOM      7  C   UNL     1      -8.791   7.614 -15.936  1.00  0.00    -0.063 C 
ATOM      8  C   UNL     1      -9.950   8.449 -13.725  1.00  0.00    -0.003 C 
ATOM      9  C   UNL     1      -9.621   9.253 -12.437  1.00  0.00    -0.011 C 
ATOM     10  C   UNL     1      -8.606   6.079 -15.865  1.00  0.00    -0.006 C 
ATOM     11  C   UNL     1      -8.377   8.246 -17.064  1.00  0.00    -0.027 C 
ATOM     12  C   UNL     1     -11.175   9.007 -14.477  1.00  0.00     0.008 C 
ATOM     13  C   UNL     1     -10.846   9.478 -11.534  1.00  0.00     0.008 C 
ATOM     14  C   UNL     1      -9.526   5.430 -14.789  1.00  0.00     0.017 C 
ATOM     15  C   UNL     1      -8.920   5.333 -17.317  1.00  0.00    -0.020 C 
ATOM     16  C   UNL     1      -7.903   7.480 -18.261  1.00  0.00     0.032 C 
ATOM     17  C   UNL     1      -8.914   6.360 -18.508  1.00  0.00     0.006 C 
ATOM     18  C   UNL     1     -10.362   4.690 -17.409  1.00  0.00     0.008 C 
ATOM     19  C   UNL     1      -7.892   4.172 -17.509  1.00  0.00     0.012 C 
ATOM     20  C   UNL     1      -9.004   5.771 -19.988  1.00  0.00    -0.025 C 
ATOM     21  C   UNL     1     -10.993   4.566 -18.832  1.00  0.00     0.005 C 
ATOM     22  C   UNL     1      -9.978   4.499 -20.012  1.00  0.00     0.003 C 
ATOM     23  C   UNL     1      -9.561   6.927 -20.896  1.00  0.00     0.010 C 
ATOM     24  C   UNL     1      -7.584   5.380 -20.504  1.00  0.00     0.012 C 
ATOM     25  C   UNL     1     -10.641   4.147 -21.423  1.00  0.00    -0.006 C 
ATOM     26  C   UNL     1     -10.065   6.496 -22.268  1.00  0.00     0.033 C 
ATOM     27  C   UNL     1     -11.157   5.434 -22.128  1.00  0.00     0.120 C 
ATOM     28  C   UNL     1      -9.620   3.383 -22.318  1.00  0.00     0.014 C 
ATOM     29  C   UNL     1     -11.847   3.178 -21.268  1.00  0.00     0.014 C 
ENDROOT
BRANCH   1  30
ATOM     30  C   UNL     1      -6.505   9.490 -13.847  1.00  0.00     0.048 C 
ATOM     31  O   UNL     1      -5.530   9.587 -13.053  1.00  0.00    -0.550 OA
ATOM     32  O   UNL     1      -6.876  10.615 -14.578  1.00  0.00    -0.550 OA
ENDBRANCH   1  30
BRANCH  27  33
ATOM     33  O   UNL     1     -11.745   5.151 -23.378  1.00  0.00    -0.393 OA
ATOM     34  H   UNL     1     -11.204   4.452 -23.828  1.00  0.00     0.210 HD
ENDBRANCH  27  33
TORSDOF 2
ENDMDL
