MODEL 1
REMARK VINA RESULT:    -4.486      0.000      0.000
REMARK INTER + INTRA:         -14.627
REMARK INTER:                 -10.255
REMARK INTRA:                  -4.372
REMARK UNBOUND:                -4.372
REMARK SMILES CCCCCCCCCCCCCCCCCCCCCCCC(=O)[O-]
REMARK SMILES IDX 13 1 14 2 15 3 16 4 17 5 18 6 19 7 20 8 21 9 22 10 23 11
REMARK SMILES IDX 24 12 25 13 26 14 12 15 11 16 10 17 9 18 8 19 7 20 6 21 5 22
REMARK SMILES IDX 4 23 3 24 2 25 1 26
REMARK H PARENT
REMARK Flexibility Score: inf
ROOT
ATOM      1  C   UNL     1       9.487 -19.133  20.270  1.00  0.00     0.000 C 
ENDROOT
BRANCH   1   2
ATOM      2  C   UNL     1      10.686 -20.069  20.510  1.00  0.00     0.000 C 
BRANCH   2   3
ATOM      3  C   UNL     1      10.859 -20.438  21.992  1.00  0.00     0.000 C 
BRANCH   3   4
ATOM      4  C   UNL     1      10.842 -21.959  22.232  1.00  0.00     0.000 C 
BRANCH   4   5
ATOM      5  C   UNL     1       9.991 -22.710  21.195  1.00  0.00     0.000 C 
BRANCH   5   6
ATOM      6  C   UNL     1       8.574 -23.022  21.711  1.00  0.00     0.000 C 
BRANCH   6   7
ATOM      7  C   UNL     1       7.474 -22.412  20.816  1.00  0.00     0.000 C 
BRANCH   7   8
ATOM      8  C   UNL     1       6.753 -21.206  21.451  1.00  0.00     0.000 C 
BRANCH   8   9
ATOM      9  C   UNL     1       7.119 -20.923  22.919  1.00  0.00     0.000 C 
BRANCH   9  10
ATOM     10  C   UNL     1       7.396 -19.442  23.254  1.00  0.00     0.006 C 
BRANCH  10  11
ATOM     11  C   UNL     1       8.355 -19.238  24.439  1.00  0.00     0.053 C 
BRANCH  11  12
ATOM     12  C   UNL     1       7.658 -18.707  25.657  1.00  0.00     0.041 C 
ATOM     13  O   UNL     1       6.929 -19.466  26.350  1.00  0.00    -0.550 OA
ATOM     14  O   UNL     1       7.781 -17.368  26.005  1.00  0.00    -0.550 OA
ENDBRANCH  11  12
ENDBRANCH  10  11
ENDBRANCH   9  10
ENDBRANCH   8   9
ENDBRANCH   7   8
ENDBRANCH   6   7
ENDBRANCH   5   6
ENDBRANCH   4   5
ENDBRANCH   3   4
ENDBRANCH   2   3
ENDBRANCH   1   2
BRANCH   1  15
ATOM     15  C   UNL     1       8.967 -19.204  18.826  1.00  0.00     0.000 C 
BRANCH  15  16
ATOM     16  C   UNL     1       7.631 -18.463  18.642  1.00  0.00     0.000 C 
BRANCH  16  17
ATOM     17  C   UNL     1       7.160 -17.758  19.927  1.00  0.00     0.000 C 
BRANCH  17  18
ATOM     18  C   UNL     1       6.656 -16.314  19.728  1.00  0.00    -0.000 C 
BRANCH  18  19
ATOM     19  C   UNL     1       7.058 -15.324  20.839  1.00  0.00    -0.000 C 
BRANCH  19  20
ATOM     20  C   UNL     1       6.960 -15.883  22.271  1.00  0.00    -0.000 C 
BRANCH  20  21
ATOM     21  C   UNL     1       8.108 -15.469  23.214  1.00  0.00    -0.000 C 
BRANCH  21  22
ATOM     22  C   UNL     1       9.460 -16.151  22.942  1.00  0.00    -0.000 C 
BRANCH  22  23
ATOM     23  C   UNL     1      10.459 -15.978  24.100  1.00  0.00    -0.000 C 
BRANCH  23  24
ATOM     24  C   UNL     1      11.838 -16.579  23.787  1.00  0.00    -0.000 C 
BRANCH  24  25
ATOM     25  C   UNL     1      11.951 -18.057  24.189  1.00  0.00    -0.003 C 
ATOM     26  C   UNL     1      12.979 -18.246  25.301  1.00  0.00     0.004 C 
ENDBRANCH  24  25
ENDBRANCH  23  24
ENDBRANCH  22  23
ENDBRANCH  21  22
ENDBRANCH  20  21
ENDBRANCH  19  20
ENDBRANCH  18  19
ENDBRANCH  17  18
ENDBRANCH  16  17
ENDBRANCH  15  16
ENDBRANCH   1  15
TORSDOF 22
ENDMDL
MODEL 2
REMARK VINA RESULT:    -4.470      2.917      6.131
REMARK INTER + INTRA:         -14.589
REMARK INTER:                 -10.060
REMARK INTRA:                  -4.529
REMARK UNBOUND:                -4.372
REMARK SMILES CCCCCCCCCCCCCCCCCCCCCCCC(=O)[O-]
REMARK SMILES IDX 13 1 14 2 15 3 16 4 17 5 18 6 19 7 20 8 21 9 22 10 23 11
REMARK SMILES IDX 24 12 25 13 26 14 12 15 11 16 10 17 9 18 8 19 7 20 6 21 5 22
REMARK SMILES IDX 4 23 3 24 2 25 1 26
REMARK H PARENT
REMARK Flexibility Score: inf
ROOT
ATOM      1  C   UNL     1       6.838 -20.046  25.142  1.00  0.00     0.000 C 
ENDROOT
BRANCH   1   2
ATOM      2  C   UNL     1       7.393 -18.694  25.625  1.00  0.00     0.000 C 
BRANCH   2   3
ATOM      3  C   UNL     1       7.182 -17.569  24.599  1.00  0.00     0.000 C 
BRANCH   3   4
ATOM      4  C   UNL     1       8.232 -16.451  24.718  1.00  0.00     0.000 C 
BRANCH   4   5
ATOM      5  C   UNL     1       8.229 -15.507  23.504  1.00  0.00     0.000 C 
BRANCH   5   6
ATOM      6  C   UNL     1       6.934 -15.615  22.678  1.00  0.00     0.000 C 
BRANCH   6   7
ATOM      7  C   UNL     1       7.202 -16.036  21.217  1.00  0.00     0.000 C 
BRANCH   7   8
ATOM      8  C   UNL     1       7.661 -17.500  21.066  1.00  0.00     0.000 C 
BRANCH   8   9
ATOM      9  C   UNL     1       7.971 -17.945  19.626  1.00  0.00     0.000 C 
BRANCH   9  10
ATOM     10  C   UNL     1       9.339 -18.631  19.430  1.00  0.00     0.006 C 
BRANCH  10  11
ATOM     11  C   UNL     1       9.344 -19.717  18.339  1.00  0.00     0.053 C 
BRANCH  11  12
ATOM     12  C   UNL     1      10.648 -19.783  17.601  1.00  0.00     0.041 C 
ATOM     13  O   UNL     1      11.600 -20.470  18.057  1.00  0.00    -0.550 OA
ATOM     14  O   UNL     1      10.826 -19.055  16.430  1.00  0.00    -0.550 OA
ENDBRANCH  11  12
ENDBRANCH  10  11
ENDBRANCH   9  10
ENDBRANCH   8   9
ENDBRANCH   7   8
ENDBRANCH   6   7
ENDBRANCH   5   6
ENDBRANCH   4   5
ENDBRANCH   3   4
ENDBRANCH   2   3
ENDBRANCH   1   2
BRANCH   1  15
ATOM     15  C   UNL     1       6.547 -20.056  23.633  1.00  0.00     0.000 C 
BRANCH  15  16
ATOM     16  C   UNL     1       7.138 -21.288  22.925  1.00  0.00     0.000 C 
BRANCH  16  17
ATOM     17  C   UNL     1       7.051 -21.192  21.392  1.00  0.00     0.000 C 
BRANCH  17  18
ATOM     18  C   UNL     1       8.000 -22.136  20.627  1.00  0.00    -0.000 C 
BRANCH  18  19
ATOM     19  C   UNL     1       8.981 -22.932  21.511  1.00  0.00    -0.000 C 
BRANCH  19  20
ATOM     20  C   UNL     1      10.470 -22.617  21.273  1.00  0.00    -0.000 C 
BRANCH  20  21
ATOM     21  C   UNL     1      10.872 -21.146  21.504  1.00  0.00    -0.000 C 
BRANCH  21  22
ATOM     22  C   UNL     1      10.818 -20.674  22.968  1.00  0.00    -0.000 C 
BRANCH  22  23
ATOM     23  C   UNL     1      10.187 -19.279  23.122  1.00  0.00    -0.000 C 
BRANCH  23  24
ATOM     24  C   UNL     1      11.086 -18.158  22.577  1.00  0.00    -0.000 C 
BRANCH  24  25
ATOM     25  C   UNL     1      11.618 -17.230  23.678  1.00  0.00    -0.003 C 
ATOM     26  C   UNL     1      11.527 -17.897  25.048  1.00  0.00     0.004 C 
ENDBRANCH  24  25
ENDBRANCH  23  24
ENDBRANCH  22  23
ENDBRANCH  21  22
ENDBRANCH  20  21
ENDBRANCH  19  20
ENDBRANCH  18  19
ENDBRANCH  17  18
ENDBRANCH  16  17
ENDBRANCH  15  16
ENDBRANCH   1  15
TORSDOF 22
ENDMDL
MODEL 3
REMARK VINA RESULT:    -4.424      2.167      4.806
REMARK INTER + INTRA:         -14.486
REMARK INTER:                  -9.725
REMARK INTRA:                  -4.761
REMARK UNBOUND:                -4.372
REMARK SMILES CCCCCCCCCCCCCCCCCCCCCCCC(=O)[O-]
REMARK SMILES IDX 13 1 14 2 15 3 16 4 17 5 18 6 19 7 20 8 21 9 22 10 23 11
REMARK SMILES IDX 24 12 25 13 26 14 12 15 11 16 10 17 9 18 8 19 7 20 6 21 5 22
REMARK SMILES IDX 4 23 3 24 2 25 1 26
REMARK H PARENT
REMARK Flexibility Score: inf
ROOT
ATOM      1  C   UNL     1       7.446 -21.584  22.924  1.00  0.00     0.000 C 
ENDROOT
BRANCH   1   2
ATOM      2  C   UNL     1       7.540 -21.917  21.425  1.00  0.00     0.000 C 
BRANCH   2   3
ATOM      3  C   UNL     1       8.667 -22.914  21.111  1.00  0.00     0.000 C 
BRANCH   3   4
ATOM      4  C   UNL     1      10.043 -22.236  20.985  1.00  0.00     0.000 C 
BRANCH   4   5
ATOM      5  C   UNL     1      10.914 -22.433  22.237  1.00  0.00     0.000 C 
BRANCH   5   6
ATOM      6  C   UNL     1      11.531 -21.115  22.739  1.00  0.00     0.000 C 
BRANCH   6   7
ATOM      7  C   UNL     1      11.804 -20.119  21.592  1.00  0.00     0.000 C 
BRANCH   7   8
ATOM      8  C   UNL     1      12.496 -18.819  22.050  1.00  0.00     0.000 C 
BRANCH   8   9
ATOM      9  C   UNL     1      11.747 -18.022  23.132  1.00  0.00     0.000 C 
BRANCH   9  10
ATOM     10  C   UNL     1      12.588 -17.635  24.366  1.00  0.00     0.006 C 
BRANCH  10  11
ATOM     11  C   UNL     1      12.325 -18.512  25.602  1.00  0.00     0.053 C 
BRANCH  11  12
ATOM     12  C   UNL     1      13.346 -19.599  25.762  1.00  0.00     0.041 C 
ATOM     13  O   UNL     1      13.333 -20.335  26.784  1.00  0.00    -0.550 OA
ATOM     14  O   UNL     1      14.336 -19.775  24.803  1.00  0.00    -0.550 OA
ENDBRANCH  11  12
ENDBRANCH  10  11
ENDBRANCH   9  10
ENDBRANCH   8   9
ENDBRANCH   7   8
ENDBRANCH   6   7
ENDBRANCH   5   6
ENDBRANCH   4   5
ENDBRANCH   3   4
ENDBRANCH   2   3
ENDBRANCH   1   2
BRANCH   1  15
ATOM     15  C   UNL     1       6.339 -20.561  23.230  1.00  0.00     0.000 C 
BRANCH  15  16
ATOM     16  C   UNL     1       6.900 -19.202  23.682  1.00  0.00     0.000 C 
BRANCH  16  17
ATOM     17  C   UNL     1       8.359 -19.290  24.163  1.00  0.00     0.000 C 
BRANCH  17  18
ATOM     18  C   UNL     1       8.714 -18.357  25.338  1.00  0.00    -0.000 C 
BRANCH  18  19
ATOM     19  C   UNL     1       7.979 -17.002  25.340  1.00  0.00    -0.000 C 
BRANCH  19  20
ATOM     20  C   UNL     1       8.852 -15.791  24.959  1.00  0.00    -0.000 C 
BRANCH  20  21
ATOM     21  C   UNL     1       8.743 -15.344  23.487  1.00  0.00    -0.000 C 
BRANCH  21  22
ATOM     22  C   UNL     1       7.360 -15.541  22.842  1.00  0.00    -0.000 C 
BRANCH  22  23
ATOM     23  C   UNL     1       7.426 -16.315  21.514  1.00  0.00    -0.000 C 
BRANCH  23  24
ATOM     24  C   UNL     1       8.806 -16.944  21.263  1.00  0.00    -0.000 C 
BRANCH  24  25
ATOM     25  C   UNL     1       8.719 -18.340  20.631  1.00  0.00    -0.003 C 
ATOM     26  C   UNL     1       7.423 -18.507  19.843  1.00  0.00     0.004 C 
ENDBRANCH  24  25
ENDBRANCH  23  24
ENDBRANCH  22  23
ENDBRANCH  21  22
ENDBRANCH  20  21
ENDBRANCH  19  20
ENDBRANCH  18  19
ENDBRANCH  17  18
ENDBRANCH  16  17
ENDBRANCH  15  16
ENDBRANCH   1  15
TORSDOF 22
ENDMDL
MODEL 4
REMARK VINA RESULT:    -4.387      2.391      5.463
REMARK INTER + INTRA:         -14.400
REMARK INTER:                 -10.186
REMARK INTRA:                  -4.214
REMARK UNBOUND:                -4.372
REMARK SMILES CCCCCCCCCCCCCCCCCCCCCCCC(=O)[O-]
REMARK SMILES IDX 13 1 14 2 15 3 16 4 17 5 18 6 19 7 20 8 21 9 22 10 23 11
REMARK SMILES IDX 24 12 25 13 26 14 12 15 11 16 10 17 9 18 8 19 7 20 6 21 5 22
REMARK SMILES IDX 4 23 3 24 2 25 1 26
REMARK H PARENT
REMARK Flexibility Score: inf
ROOT
ATOM      1  C   UNL     1       7.309 -16.663  23.152  1.00  0.00     0.000 C 
ENDROOT
BRANCH   1   2
ATOM      2  C   UNL     1       7.318 -17.444  24.478  1.00  0.00     0.000 C 
BRANCH   2   3
ATOM      3  C   UNL     1       6.516 -18.752  24.397  1.00  0.00     0.000 C 
BRANCH   3   4
ATOM      4  C   UNL     1       7.415 -19.995  24.268  1.00  0.00     0.000 C 
BRANCH   4   5
ATOM      5  C   UNL     1       6.799 -21.077  23.366  1.00  0.00     0.000 C 
BRANCH   5   6
ATOM      6  C   UNL     1       7.110 -20.850  21.876  1.00  0.00     0.000 C 
BRANCH   6   7
ATOM      7  C   UNL     1       7.300 -22.174  21.105  1.00  0.00     0.000 C 
BRANCH   7   8
ATOM      8  C   UNL     1       8.682 -22.312  20.437  1.00  0.00     0.000 C 
BRANCH   8   9
ATOM      9  C   UNL     1       9.728 -23.096  21.249  1.00  0.00     0.000 C 
BRANCH   9  10
ATOM     10  C   UNL     1      10.637 -22.239  22.154  1.00  0.00     0.006 C 
BRANCH  10  11
ATOM     11  C   UNL     1      11.992 -21.878  21.519  1.00  0.00     0.053 C 
BRANCH  11  12
ATOM     12  C   UNL     1      13.028 -21.522  22.543  1.00  0.00     0.041 C 
ATOM     13  O   UNL     1      13.843 -20.588  22.320  1.00  0.00    -0.550 OA
ATOM     14  O   UNL     1      13.122 -22.247  23.724  1.00  0.00    -0.550 OA
ENDBRANCH  11  12
ENDBRANCH  10  11
ENDBRANCH   9  10
ENDBRANCH   8   9
ENDBRANCH   7   8
ENDBRANCH   6   7
ENDBRANCH   5   6
ENDBRANCH   4   5
ENDBRANCH   3   4
ENDBRANCH   2   3
ENDBRANCH   1   2
BRANCH   1  15
ATOM     15  C   UNL     1       7.938 -15.267  23.289  1.00  0.00     0.000 C 
BRANCH  15  16
ATOM     16  C   UNL     1       9.090 -15.235  24.310  1.00  0.00     0.000 C 
BRANCH  16  17
ATOM     17  C   UNL     1      10.472 -15.391  23.652  1.00  0.00     0.000 C 
BRANCH  17  18
ATOM     18  C   UNL     1      11.349 -16.515  24.241  1.00  0.00    -0.000 C 
BRANCH  18  19
ATOM     19  C   UNL     1      11.690 -17.656  23.263  1.00  0.00    -0.000 C 
BRANCH  19  20
ATOM     20  C   UNL     1      10.591 -18.725  23.105  1.00  0.00    -0.000 C 
BRANCH  20  21
ATOM     21  C   UNL     1       9.787 -18.646  21.792  1.00  0.00    -0.000 C 
BRANCH  21  22
ATOM     22  C   UNL     1      10.601 -18.253  20.546  1.00  0.00    -0.000 C 
BRANCH  22  23
ATOM     23  C   UNL     1       9.713 -17.866  19.351  1.00  0.00    -0.000 C 
BRANCH  23  24
ATOM     24  C   UNL     1       8.455 -18.742  19.239  1.00  0.00    -0.000 C 
BRANCH  24  25
ATOM     25  C   UNL     1       7.156 -17.953  19.454  1.00  0.00    -0.003 C 
ATOM     26  C   UNL     1       7.414 -16.449  19.405  1.00  0.00     0.004 C 
ENDBRANCH  24  25
ENDBRANCH  23  24
ENDBRANCH  22  23
ENDBRANCH  21  22
ENDBRANCH  20  21
ENDBRANCH  19  20
ENDBRANCH  18  19
ENDBRANCH  17  18
ENDBRANCH  16  17
ENDBRANCH  15  16
ENDBRANCH   1  15
TORSDOF 22
ENDMDL
MODEL 5
REMARK VINA RESULT:    -4.376      2.733      5.303
REMARK INTER + INTRA:         -14.377
REMARK INTER:                  -9.747
REMARK INTRA:                  -4.630
REMARK UNBOUND:                -4.372
REMARK SMILES CCCCCCCCCCCCCCCCCCCCCCCC(=O)[O-]
REMARK SMILES IDX 13 1 14 2 15 3 16 4 17 5 18 6 19 7 20 8 21 9 22 10 23 11
REMARK SMILES IDX 24 12 25 13 26 14 12 15 11 16 10 17 9 18 8 19 7 20 6 21 5 22
REMARK SMILES IDX 4 23 3 24 2 25 1 26
REMARK H PARENT
REMARK Flexibility Score: inf
ROOT
ATOM      1  C   UNL     1       6.483 -20.310  23.631  1.00  0.00     0.000 C 
ENDROOT
BRANCH   1   2
ATOM      2  C   UNL     1       7.435 -20.652  22.472  1.00  0.00     0.000 C 
BRANCH   2   3
ATOM      3  C   UNL     1       6.750 -21.475  21.369  1.00  0.00     0.000 C 
BRANCH   3   4
ATOM      4  C   UNL     1       7.654 -22.589  20.810  1.00  0.00     0.000 C 
BRANCH   4   5
ATOM      5  C   UNL     1       8.900 -22.829  21.678  1.00  0.00     0.000 C 
BRANCH   5   6
ATOM      6  C   UNL     1      10.203 -22.428  20.963  1.00  0.00     0.000 C 
BRANCH   6   7
ATOM      7  C   UNL     1      11.347 -22.121  21.953  1.00  0.00     0.000 C 
BRANCH   7   8
ATOM      8  C   UNL     1      11.036 -20.963  22.923  1.00  0.00     0.000 C 
BRANCH   8   9
ATOM      9  C   UNL     1      11.550 -19.582  22.482  1.00  0.00     0.000 C 
BRANCH   9  10
ATOM     10  C   UNL     1      10.620 -18.808  21.525  1.00  0.00     0.006 C 
BRANCH  10  11
ATOM     11  C   UNL     1      11.362 -18.013  20.436  1.00  0.00     0.053 C 
BRANCH  11  12
ATOM     12  C   UNL     1      12.442 -18.816  19.775  1.00  0.00     0.041 C 
ATOM     13  O   UNL     1      13.643 -18.442  19.846  1.00  0.00    -0.550 OA
ATOM     14  O   UNL     1      12.120 -19.954  19.046  1.00  0.00    -0.550 OA
ENDBRANCH  11  12
ENDBRANCH  10  11
ENDBRANCH   9  10
ENDBRANCH   8   9
ENDBRANCH   7   8
ENDBRANCH   6   7
ENDBRANCH   5   6
ENDBRANCH   4   5
ENDBRANCH   3   4
ENDBRANCH   2   3
ENDBRANCH   1   2
BRANCH   1  15
ATOM     15  C   UNL     1       6.882 -19.014  24.355  1.00  0.00     0.000 C 
BRANCH  15  16
ATOM     16  C   UNL     1       8.408 -18.835  24.448  1.00  0.00     0.000 C 
BRANCH  16  17
ATOM     17  C   UNL     1       8.811 -17.567  25.223  1.00  0.00     0.000 C 
BRANCH  17  18
ATOM     18  C   UNL     1       9.952 -16.751  24.583  1.00  0.00    -0.000 C 
BRANCH  18  19
ATOM     19  C   UNL     1       9.495 -15.604  23.660  1.00  0.00    -0.000 C 
BRANCH  19  20
ATOM     20  C   UNL     1       8.006 -15.228  23.782  1.00  0.00    -0.000 C 
BRANCH  20  21
ATOM     21  C   UNL     1       7.170 -15.449  22.505  1.00  0.00    -0.000 C 
BRANCH  21  22
ATOM     22  C   UNL     1       7.653 -16.591  21.594  1.00  0.00    -0.000 C 
BRANCH  22  23
ATOM     23  C   UNL     1       7.055 -16.517  20.178  1.00  0.00    -0.000 C 
BRANCH  23  24
ATOM     24  C   UNL     1       7.855 -17.335  19.153  1.00  0.00    -0.000 C 
BRANCH  24  25
ATOM     25  C   UNL     1       7.392 -18.796  19.062  1.00  0.00    -0.003 C 
ATOM     26  C   UNL     1       8.506 -19.693  18.529  1.00  0.00     0.004 C 
ENDBRANCH  24  25
ENDBRANCH  23  24
ENDBRANCH  22  23
ENDBRANCH  21  22
ENDBRANCH  20  21
ENDBRANCH  19  20
ENDBRANCH  18  19
ENDBRANCH  17  18
ENDBRANCH  16  17
ENDBRANCH  15  16
ENDBRANCH   1  15
TORSDOF 22
ENDMDL
MODEL 6
REMARK VINA RESULT:    -4.337      3.296      5.426
REMARK INTER + INTRA:         -14.285
REMARK INTER:                 -10.624
REMARK INTRA:                  -3.662
REMARK UNBOUND:                -4.372
REMARK SMILES CCCCCCCCCCCCCCCCCCCCCCCC(=O)[O-]
REMARK SMILES IDX 13 1 14 2 15 3 16 4 17 5 18 6 19 7 20 8 21 9 22 10 23 11
REMARK SMILES IDX 24 12 25 13 26 14 12 15 11 16 10 17 9 18 8 19 7 20 6 21 5 22
REMARK SMILES IDX 4 23 3 24 2 25 1 26
REMARK H PARENT
REMARK Flexibility Score: inf
ROOT
ATOM      1  C   UNL     1       8.893 -22.891  21.699  1.00  0.00     0.000 C 
ENDROOT
BRANCH   1   2
ATOM      2  C   UNL     1      10.348 -22.659  21.254  1.00  0.00     0.000 C 
BRANCH   2   3
ATOM      3  C   UNL     1      11.323 -22.583  22.439  1.00  0.00     0.000 C 
BRANCH   3   4
ATOM      4  C   UNL     1      12.431 -21.535  22.231  1.00  0.00     0.000 C 
BRANCH   4   5
ATOM      5  C   UNL     1      12.022 -20.432  21.242  1.00  0.00     0.000 C 
BRANCH   5   6
ATOM      6  C   UNL     1      12.361 -19.021  21.757  1.00  0.00     0.000 C 
BRANCH   6   7
ATOM      7  C   UNL     1      13.523 -19.030  22.774  1.00  0.00     0.000 C 
BRANCH   7   8
ATOM      8  C   UNL     1      14.842 -18.461  22.214  1.00  0.00     0.000 C 
BRANCH   8   9
ATOM      9  C   UNL     1      15.885 -19.512  21.794  1.00  0.00     0.000 C 
BRANCH   9  10
ATOM     10  C   UNL     1      16.796 -20.025  22.928  1.00  0.00     0.006 C 
BRANCH  10  11
ATOM     11  C   UNL     1      16.472 -21.457  23.392  1.00  0.00     0.053 C 
BRANCH  11  12
ATOM     12  C   UNL     1      15.573 -21.482  24.592  1.00  0.00     0.041 C 
ATOM     13  O   UNL     1      14.735 -22.412  24.736  1.00  0.00    -0.550 OA
ATOM     14  O   UNL     1      15.631 -20.459  25.530  1.00  0.00    -0.550 OA
ENDBRANCH  11  12
ENDBRANCH  10  11
ENDBRANCH   9  10
ENDBRANCH   8   9
ENDBRANCH   7   8
ENDBRANCH   6   7
ENDBRANCH   5   6
ENDBRANCH   4   5
ENDBRANCH   3   4
ENDBRANCH   2   3
ENDBRANCH   1   2
BRANCH   1  15
ATOM     15  C   UNL     1       7.904 -21.963  20.977  1.00  0.00     0.000 C 
BRANCH  15  16
ATOM     16  C   UNL     1       7.154 -21.032  21.947  1.00  0.00     0.000 C 
BRANCH  16  17
ATOM     17  C   UNL     1       7.978 -20.690  23.200  1.00  0.00     0.000 C 
BRANCH  17  18
ATOM     18  C   UNL     1       8.848 -19.422  23.080  1.00  0.00    -0.000 C 
BRANCH  18  19
ATOM     19  C   UNL     1       8.619 -18.592  21.801  1.00  0.00    -0.000 C 
BRANCH  19  20
ATOM     20  C   UNL     1       7.576 -17.467  21.938  1.00  0.00    -0.000 C 
BRANCH  20  21
ATOM     21  C   UNL     1       7.438 -16.872  23.353  1.00  0.00    -0.000 C 
BRANCH  21  22
ATOM     22  C   UNL     1       8.053 -15.473  23.539  1.00  0.00    -0.000 C 
BRANCH  22  23
ATOM     23  C   UNL     1       9.193 -15.455  24.573  1.00  0.00    -0.000 C 
BRANCH  23  24
ATOM     24  C   UNL     1      10.554 -15.819  23.959  1.00  0.00    -0.000 C 
BRANCH  24  25
ATOM     25  C   UNL     1      11.262 -16.957  24.709  1.00  0.00    -0.003 C 
ATOM     26  C   UNL     1      10.529 -17.301  26.002  1.00  0.00     0.004 C 
ENDBRANCH  24  25
ENDBRANCH  23  24
ENDBRANCH  22  23
ENDBRANCH  21  22
ENDBRANCH  20  21
ENDBRANCH  19  20
ENDBRANCH  18  19
ENDBRANCH  17  18
ENDBRANCH  16  17
ENDBRANCH  15  16
ENDBRANCH   1  15
TORSDOF 22
ENDMDL
MODEL 7
REMARK VINA RESULT:    -4.325      1.830      5.707
REMARK INTER + INTRA:         -14.259
REMARK INTER:                 -10.005
REMARK INTRA:                  -4.254
REMARK UNBOUND:                -4.372
REMARK SMILES CCCCCCCCCCCCCCCCCCCCCCCC(=O)[O-]
REMARK SMILES IDX 13 1 14 2 15 3 16 4 17 5 18 6 19 7 20 8 21 9 22 10 23 11
REMARK SMILES IDX 24 12 25 13 26 14 12 15 11 16 10 17 9 18 8 19 7 20 6 21 5 22
REMARK SMILES IDX 4 23 3 24 2 25 1 26
REMARK H PARENT
REMARK Flexibility Score: inf
ROOT
ATOM      1  C   UNL     1       6.930 -16.960  23.660  1.00  0.00     0.000 C 
ENDROOT
BRANCH   1   2
ATOM      2  C   UNL     1       7.800 -16.333  22.556  1.00  0.00     0.000 C 
BRANCH   2   3
ATOM      3  C   UNL     1       6.968 -15.579  21.506  1.00  0.00     0.000 C 
BRANCH   3   4
ATOM      4  C   UNL     1       7.142 -16.150  20.087  1.00  0.00     0.000 C 
BRANCH   4   5
ATOM      5  C   UNL     1       8.022 -17.411  20.062  1.00  0.00     0.000 C 
BRANCH   5   6
ATOM      6  C   UNL     1       9.364 -17.179  19.344  1.00  0.00     0.000 C 
BRANCH   6   7
ATOM      7  C   UNL     1      10.510 -18.012  19.955  1.00  0.00     0.000 C 
BRANCH   7   8
ATOM      8  C   UNL     1      10.081 -18.868  21.163  1.00  0.00     0.000 C 
BRANCH   8   9
ATOM      9  C   UNL     1      10.776 -18.523  22.493  1.00  0.00     0.000 C 
BRANCH   9  10
ATOM     10  C   UNL     1      11.388 -17.109  22.567  1.00  0.00     0.006 C 
BRANCH  10  11
ATOM     11  C   UNL     1      11.274 -16.450  23.953  1.00  0.00     0.053 C 
BRANCH  11  12
ATOM     12  C   UNL     1      11.723 -17.358  25.059  1.00  0.00     0.041 C 
ATOM     13  O   UNL     1      10.935 -17.649  25.998  1.00  0.00    -0.550 OA
ATOM     14  O   UNL     1      13.022 -17.851  25.076  1.00  0.00    -0.550 OA
ENDBRANCH  11  12
ENDBRANCH  10  11
ENDBRANCH   9  10
ENDBRANCH   8   9
ENDBRANCH   7   8
ENDBRANCH   6   7
ENDBRANCH   5   6
ENDBRANCH   4   5
ENDBRANCH   3   4
ENDBRANCH   2   3
ENDBRANCH   1   2
BRANCH   1  15
ATOM     15  C   UNL     1       7.765 -17.714  24.708  1.00  0.00     0.000 C 
BRANCH  15  16
ATOM     16  C   UNL     1       7.302 -19.170  24.896  1.00  0.00     0.000 C 
BRANCH  16  17
ATOM     17  C   UNL     1       7.802 -20.101  23.777  1.00  0.00     0.000 C 
BRANCH  17  18
ATOM     18  C   UNL     1       6.691 -20.771  22.944  1.00  0.00    -0.000 C 
BRANCH  18  19
ATOM     19  C   UNL     1       7.012 -20.942  21.446  1.00  0.00    -0.000 C 
BRANCH  19  20
ATOM     20  C   UNL     1       7.484 -22.351  21.041  1.00  0.00    -0.000 C 
BRANCH  20  21
ATOM     21  C   UNL     1       8.970 -22.454  20.642  1.00  0.00    -0.000 C 
BRANCH  21  22
ATOM     22  C   UNL     1       9.906 -23.003  21.734  1.00  0.00    -0.000 C 
BRANCH  22  23
ATOM     23  C   UNL     1      11.254 -22.263  21.791  1.00  0.00    -0.000 C 
BRANCH  23  24
ATOM     24  C   UNL     1      11.791 -21.903  20.397  1.00  0.00    -0.000 C 
BRANCH  24  25
ATOM     25  C   UNL     1      13.080 -21.070  20.451  1.00  0.00    -0.003 C 
ATOM     26  C   UNL     1      13.394 -20.457  19.090  1.00  0.00     0.004 C 
ENDBRANCH  24  25
ENDBRANCH  23  24
ENDBRANCH  22  23
ENDBRANCH  21  22
ENDBRANCH  20  21
ENDBRANCH  19  20
ENDBRANCH  18  19
ENDBRANCH  17  18
ENDBRANCH  16  17
ENDBRANCH  15  16
ENDBRANCH   1  15
TORSDOF 22
ENDMDL
MODEL 8
REMARK VINA RESULT:    -4.319      2.324      4.992
REMARK INTER + INTRA:         -14.246
REMARK INTER:                  -9.275
REMARK INTRA:                  -4.971
REMARK UNBOUND:                -4.372
REMARK SMILES CCCCCCCCCCCCCCCCCCCCCCCC(=O)[O-]
REMARK SMILES IDX 13 1 14 2 15 3 16 4 17 5 18 6 19 7 20 8 21 9 22 10 23 11
REMARK SMILES IDX 24 12 25 13 26 14 12 15 11 16 10 17 9 18 8 19 7 20 6 21 5 22
REMARK SMILES IDX 4 23 3 24 2 25 1 26
REMARK H PARENT
REMARK Flexibility Score: inf
ROOT
ATOM      1  C   UNL     1       7.924 -17.168  24.213  1.00  0.00     0.000 C 
ENDROOT
BRANCH   1   2
ATOM      2  C   UNL     1       6.750 -18.159  24.135  1.00  0.00     0.000 C 
BRANCH   2   3
ATOM      3  C   UNL     1       7.031 -19.468  24.890  1.00  0.00     0.000 C 
BRANCH   3   4
ATOM      4  C   UNL     1       6.764 -20.718  24.033  1.00  0.00     0.000 C 
BRANCH   4   5
ATOM      5  C   UNL     1       7.135 -20.510  22.556  1.00  0.00     0.000 C 
BRANCH   5   6
ATOM      6  C   UNL     1       8.422 -21.256  22.160  1.00  0.00     0.000 C 
BRANCH   6   7
ATOM      7  C   UNL     1       9.608 -20.298  21.922  1.00  0.00     0.000 C 
BRANCH   7   8
ATOM      8  C   UNL     1      10.357 -19.903  23.210  1.00  0.00     0.000 C 
BRANCH   8   9
ATOM      9  C   UNL     1      11.174 -18.602  23.122  1.00  0.00     0.000 C 
BRANCH   9  10
ATOM     10  C   UNL     1      11.494 -18.122  21.691  1.00  0.00     0.006 C 
BRANCH  10  11
ATOM     11  C   UNL     1      11.632 -16.595  21.559  1.00  0.00     0.053 C 
BRANCH  11  12
ATOM     12  C   UNL     1      12.098 -15.949  22.830  1.00  0.00     0.041 C 
ATOM     13  O   UNL     1      11.293 -15.282  23.533  1.00  0.00    -0.550 OA
ATOM     14  O   UNL     1      13.428 -16.048  23.219  1.00  0.00    -0.550 OA
ENDBRANCH  11  12
ENDBRANCH  10  11
ENDBRANCH   9  10
ENDBRANCH   8   9
ENDBRANCH   7   8
ENDBRANCH   6   7
ENDBRANCH   5   6
ENDBRANCH   4   5
ENDBRANCH   3   4
ENDBRANCH   2   3
ENDBRANCH   1   2
BRANCH   1  15
ATOM     15  C   UNL     1       8.186 -16.461  22.873  1.00  0.00     0.000 C 
BRANCH  15  16
ATOM     16  C   UNL     1       7.304 -17.005  21.736  1.00  0.00     0.000 C 
BRANCH  16  17
ATOM     17  C   UNL     1       8.106 -17.322  20.461  1.00  0.00     0.000 C 
BRANCH  17  18
ATOM     18  C   UNL     1       7.310 -18.045  19.356  1.00  0.00    -0.000 C 
BRANCH  18  19
ATOM     19  C   UNL     1       8.144 -18.980  18.457  1.00  0.00    -0.000 C 
BRANCH  19  20
ATOM     20  C   UNL     1       9.661 -18.711  18.473  1.00  0.00    -0.000 C 
BRANCH  20  21
ATOM     21  C   UNL     1      10.523 -19.786  17.782  1.00  0.00    -0.000 C 
BRANCH  21  22
ATOM     22  C   UNL     1      11.040 -20.905  18.703  1.00  0.00    -0.000 C 
BRANCH  22  23
ATOM     23  C   UNL     1      12.503 -20.696  19.132  1.00  0.00    -0.000 C 
BRANCH  23  24
ATOM     24  C   UNL     1      12.864 -21.472  20.408  1.00  0.00    -0.000 C 
BRANCH  24  25
ATOM     25  C   UNL     1      13.876 -20.729  21.292  1.00  0.00    -0.003 C 
ATOM     26  C   UNL     1      13.917 -21.324  22.697  1.00  0.00     0.004 C 
ENDBRANCH  24  25
ENDBRANCH  23  24
ENDBRANCH  22  23
ENDBRANCH  21  22
ENDBRANCH  20  21
ENDBRANCH  19  20
ENDBRANCH  18  19
ENDBRANCH  17  18
ENDBRANCH  16  17
ENDBRANCH  15  16
ENDBRANCH   1  15
TORSDOF 22
ENDMDL
MODEL 9
REMARK VINA RESULT:    -4.304      1.840      4.813
REMARK INTER + INTRA:         -14.211
REMARK INTER:                  -9.807
REMARK INTRA:                  -4.404
REMARK UNBOUND:                -4.372
REMARK SMILES CCCCCCCCCCCCCCCCCCCCCCCC(=O)[O-]
REMARK SMILES IDX 13 1 14 2 15 3 16 4 17 5 18 6 19 7 20 8 21 9 22 10 23 11
REMARK SMILES IDX 24 12 25 13 26 14 12 15 11 16 10 17 9 18 8 19 7 20 6 21 5 22
REMARK SMILES IDX 4 23 3 24 2 25 1 26
REMARK H PARENT
REMARK Flexibility Score: inf
ROOT
ATOM      1  C   UNL     1       8.239 -22.635  21.820  1.00  0.00     0.000 C 
ENDROOT
BRANCH   1   2
ATOM      2  C   UNL     1       9.202 -22.545  20.623  1.00  0.00     0.000 C 
BRANCH   2   3
ATOM      3  C   UNL     1       8.734 -21.535  19.564  1.00  0.00     0.000 C 
BRANCH   3   4
ATOM      4  C   UNL     1       9.901 -20.767  18.917  1.00  0.00     0.000 C 
BRANCH   4   5
ATOM      5  C   UNL     1       9.467 -19.409  18.342  1.00  0.00     0.000 C 
BRANCH   5   6
ATOM      6  C   UNL     1       8.149 -18.903  18.956  1.00  0.00     0.000 C 
BRANCH   6   7
ATOM      7  C   UNL     1       8.266 -17.461  19.495  1.00  0.00     0.000 C 
BRANCH   7   8
ATOM      8  C   UNL     1       6.917 -16.841  19.910  1.00  0.00     0.000 C 
BRANCH   8   9
ATOM      9  C   UNL     1       7.017 -15.588  20.798  1.00  0.00     0.000 C 
BRANCH   9  10
ATOM     10  C   UNL     1       6.955 -15.851  22.317  1.00  0.00     0.006 C 
BRANCH  10  11
ATOM     11  C   UNL     1       7.685 -14.794  23.165  1.00  0.00     0.053 C 
BRANCH  11  12
ATOM     12  C   UNL     1       8.694 -15.401  24.094  1.00  0.00     0.041 C 
ATOM     13  O   UNL     1       8.316 -16.124  25.055  1.00  0.00    -0.550 OA
ATOM     14  O   UNL     1      10.048 -15.137  23.925  1.00  0.00    -0.550 OA
ENDBRANCH  11  12
ENDBRANCH  10  11
ENDBRANCH   9  10
ENDBRANCH   8   9
ENDBRANCH   7   8
ENDBRANCH   6   7
ENDBRANCH   5   6
ENDBRANCH   4   5
ENDBRANCH   3   4
ENDBRANCH   2   3
ENDBRANCH   1   2
BRANCH   1  15
ATOM     15  C   UNL     1       7.068 -21.647  21.707  1.00  0.00     0.000 C 
BRANCH  15  16
ATOM     16  C   UNL     1       6.950 -20.727  22.935  1.00  0.00     0.000 C 
BRANCH  16  17
ATOM     17  C   UNL     1       7.568 -19.338  22.699  1.00  0.00     0.000 C 
BRANCH  17  18
ATOM     18  C   UNL     1       8.984 -19.149  23.280  1.00  0.00    -0.000 C 
BRANCH  18  19
ATOM     19  C   UNL     1       9.968 -18.393  22.366  1.00  0.00    -0.000 C 
BRANCH  19  20
ATOM     20  C   UNL     1      11.267 -19.155  22.042  1.00  0.00    -0.000 C 
BRANCH  20  21
ATOM     21  C   UNL     1      11.436 -20.501  22.774  1.00  0.00    -0.000 C 
BRANCH  21  22
ATOM     22  C   UNL     1      12.196 -21.584  21.989  1.00  0.00    -0.000 C 
BRANCH  22  23
ATOM     23  C   UNL     1      13.468 -21.046  21.310  1.00  0.00    -0.000 C 
BRANCH  23  24
ATOM     24  C   UNL     1      13.419 -21.166  19.779  1.00  0.00    -0.000 C 
BRANCH  24  25
ATOM     25  C   UNL     1      13.960 -19.920  19.065  1.00  0.00    -0.003 C 
ATOM     26  C   UNL     1      14.403 -18.860  20.071  1.00  0.00     0.004 C 
ENDBRANCH  24  25
ENDBRANCH  23  24
ENDBRANCH  22  23
ENDBRANCH  21  22
ENDBRANCH  20  21
ENDBRANCH  19  20
ENDBRANCH  18  19
ENDBRANCH  17  18
ENDBRANCH  16  17
ENDBRANCH  15  16
ENDBRANCH   1  15
TORSDOF 22
ENDMDL
