MODEL 1
REMARK VINA RESULT:    -6.489      0.000      0.000
REMARK INTER + INTRA:         -10.437
REMARK INTER:                  -9.523
REMARK INTRA:                  -0.913
REMARK UNBOUND:                -0.913
REMARK SMILES O=c1c(O[C@@H]2O[C@@H](CO)[C@H](O)[C@@H](O)[C@@H]2O)c(-c2ccc(O)c(O)c2)oc2cc(O)cc(O)c12
REMARK SMILES IDX 4 1 3 2 16 3 25 4 2 5 26 6 1 7 33 8 27 9 31 10 28 11 30 12
REMARK SMILES IDX 17 13 18 14 19 15 20 16 24 17 22 18 21 19 23 21 32 23 29 25
REMARK SMILES IDX 5 27 14 28 6 29 12 30 7 31 10 32 15 33 13 35 8 37 9 38 11 40
REMARK H PARENT 21 20 23 22 32 24 29 26 15 34 13 36 9 39 11 41
REMARK Flexibility Score: inf
ROOT
ATOM      1  O   UNL     1      12.048   3.379   0.706  1.00  0.00    -0.454 OA
ENDROOT
BRANCH   1   2
ATOM      2  C   UNL     1      13.133   2.740   0.078  1.00  0.00     0.214 A 
ATOM      3  C   UNL     1      12.939   1.459  -0.480  1.00  0.00     0.180 A 
ATOM      4  O   UNL     1      13.933   0.853  -1.120  1.00  0.00    -0.452 OA
ATOM      5  C   UNL     1      14.413   3.323  -0.012  1.00  0.00     0.239 A 
ATOM      6  C   UNL     1      15.145   1.378  -1.251  1.00  0.00     0.146 A 
ATOM      7  O   UNL     1      14.645   4.426   0.551  1.00  0.00    -0.285 OA
ATOM      8  C   UNL     1      15.441   2.647  -0.702  1.00  0.00     0.111 A 
ATOM      9  C   UNL     1      16.128   0.656  -1.932  1.00  0.00     0.094 A 
ATOM     10  C   UNL     1      16.749   3.172  -0.852  1.00  0.00     0.134 A 
ATOM     11  C   UNL     1      17.417   1.174  -2.069  1.00  0.00     0.123 A 
ATOM     12  C   UNL     1      17.724   2.428  -1.532  1.00  0.00     0.093 A 
BRANCH   3  13
ATOM     13  C   UNL     1      11.635   0.763  -0.407  1.00  0.00     0.025 A 
ATOM     14  C   UNL     1      10.763   0.728  -1.504  1.00  0.00     0.016 A 
ATOM     15  C   UNL     1       9.521   0.099  -1.397  1.00  0.00     0.051 A 
ATOM     16  C   UNL     1       9.127  -0.508  -0.199  1.00  0.00     0.157 A 
ATOM     17  C   UNL     1      11.234   0.180   0.805  1.00  0.00     0.062 A 
ATOM     18  C   UNL     1       9.996  -0.468   0.917  1.00  0.00     0.158 A 
BRANCH  16  19
ATOM     19  O   UNL     1       7.875  -1.125  -0.158  1.00  0.00    -0.504 OA
ATOM     20  H   UNL     1       7.188  -0.957   0.564  1.00  0.00     0.293 HD
ENDBRANCH  16  19
BRANCH  18  21
ATOM     21  O   UNL     1       9.675  -1.054   2.143  1.00  0.00    -0.504 OA
ATOM     22  H   UNL     1      10.323  -1.140   2.914  1.00  0.00     0.293 HD
ENDBRANCH  18  21
ENDBRANCH   3  13
BRANCH  10  23
ATOM     23  O   UNL     1      17.084   4.424  -0.331  1.00  0.00    -0.507 OA
ATOM     24  H   UNL     1      17.376   5.188  -0.928  1.00  0.00     0.293 HD
ENDBRANCH  10  23
BRANCH  11  25
ATOM     25  O   UNL     1      18.386   0.435  -2.746  1.00  0.00    -0.508 OA
ATOM     26  H   UNL     1      18.481  -0.565  -2.609  1.00  0.00     0.293 HD
ENDBRANCH  11  25
ENDBRANCH   1   2
BRANCH   1  27
ATOM     27  C   UNL     1      10.839   3.806   0.073  1.00  0.00     0.339 C 
ATOM     28  C   UNL     1       9.617   3.403   0.940  1.00  0.00     0.214 C 
ATOM     29  O   UNL     1      10.902   5.213  -0.080  1.00  0.00    -0.332 OA
ATOM     30  C   UNL     1       8.318   3.921   0.296  1.00  0.00     0.180 C 
ATOM     31  C   UNL     1       9.795   5.735  -0.806  1.00  0.00     0.179 C 
ATOM     32  C   UNL     1       8.436   5.402  -0.126  1.00  0.00     0.177 C 
BRANCH  28  33
ATOM     33  O   UNL     1       9.699   3.853   2.275  1.00  0.00    -0.384 OA
ATOM     34  H   UNL     1       9.834   4.834   2.299  1.00  0.00     0.211 HD
ENDBRANCH  28  33
BRANCH  30  35
ATOM     35  O   UNL     1       7.991   3.137  -0.826  1.00  0.00    -0.387 OA
ATOM     36  H   UNL     1       7.493   3.724  -1.453  1.00  0.00     0.211 HD
ENDBRANCH  30  35
BRANCH  31  37
ATOM     37  C   UNL     1       9.857   5.367  -2.307  1.00  0.00     0.191 C 
BRANCH  37  38
ATOM     38  O   UNL     1      11.141   5.598  -2.824  1.00  0.00    -0.394 OA
ATOM     39  H   UNL     1      11.683   4.791  -2.622  1.00  0.00     0.210 HD
ENDBRANCH  37  38
ENDBRANCH  31  37
BRANCH  32  40
ATOM     40  O   UNL     1       8.208   6.245   0.977  1.00  0.00    -0.387 OA
ATOM     41  H   UNL     1       8.304   7.184   0.675  1.00  0.00     0.211 HD
ENDBRANCH  32  40
ENDBRANCH   1  27
TORSDOF 12
ENDMDL
MODEL 2
REMARK VINA RESULT:    -6.421      2.183      6.905
REMARK INTER + INTRA:         -10.337
REMARK INTER:                  -9.505
REMARK INTRA:                  -0.833
REMARK UNBOUND:                -0.913
REMARK SMILES O=c1c(O[C@@H]2O[C@@H](CO)[C@H](O)[C@@H](O)[C@@H]2O)c(-c2ccc(O)c(O)c2)oc2cc(O)cc(O)c12
REMARK SMILES IDX 4 1 3 2 16 3 25 4 2 5 26 6 1 7 33 8 27 9 31 10 28 11 30 12
REMARK SMILES IDX 17 13 18 14 19 15 20 16 24 17 22 18 21 19 23 21 32 23 29 25
REMARK SMILES IDX 5 27 14 28 6 29 12 30 7 31 10 32 15 33 13 35 8 37 9 38 11 40
REMARK H PARENT 21 20 23 22 32 24 29 26 15 34 13 36 9 39 11 41
REMARK Flexibility Score: inf
ROOT
ATOM      1  O   UNL     1      12.929   3.651   0.717  1.00  0.00    -0.454 OA
ENDROOT
BRANCH   1   2
ATOM      2  C   UNL     1      11.931   2.876   1.335  1.00  0.00     0.214 A 
ATOM      3  C   UNL     1      10.584   3.274   1.210  1.00  0.00     0.180 A 
ATOM      4  O   UNL     1       9.618   2.534   1.744  1.00  0.00    -0.452 OA
ATOM      5  C   UNL     1      12.221   1.717   2.084  1.00  0.00     0.239 A 
ATOM      6  C   UNL     1       9.845   1.422   2.433  1.00  0.00     0.146 A 
ATOM      7  O   UNL     1      13.417   1.382   2.290  1.00  0.00    -0.285 OA
ATOM      8  C   UNL     1      11.165   0.958   2.632  1.00  0.00     0.111 A 
ATOM      9  C   UNL     1       8.760   0.720   2.965  1.00  0.00     0.094 A 
ATOM     10  C   UNL     1      11.371  -0.226   3.382  1.00  0.00     0.134 A 
ATOM     11  C   UNL     1       8.969  -0.442   3.710  1.00  0.00     0.123 A 
ATOM     12  C   UNL     1      10.270  -0.912   3.916  1.00  0.00     0.093 A 
BRANCH   3  13
ATOM     13  C   UNL     1      10.194   4.492   0.465  1.00  0.00     0.025 A 
ATOM     14  C   UNL     1       9.724   5.635   1.127  1.00  0.00     0.016 A 
ATOM     15  C   UNL     1       9.325   6.756   0.398  1.00  0.00     0.051 A 
ATOM     16  C   UNL     1       9.389   6.762  -1.000  1.00  0.00     0.157 A 
ATOM     17  C   UNL     1      10.236   4.482  -0.938  1.00  0.00     0.062 A 
ATOM     18  C   UNL     1       9.853   5.609  -1.677  1.00  0.00     0.158 A 
BRANCH  16  19
ATOM     19  O   UNL     1       8.981   7.917  -1.670  1.00  0.00    -0.504 OA
ATOM     20  H   UNL     1       8.923   8.828  -1.237  1.00  0.00     0.293 HD
ENDBRANCH  16  19
BRANCH  18  21
ATOM     21  O   UNL     1       9.949   5.540  -3.069  1.00  0.00    -0.504 OA
ATOM     22  H   UNL     1       9.728   4.716  -3.610  1.00  0.00     0.293 HD
ENDBRANCH  18  21
ENDBRANCH   3  13
BRANCH  10  23
ATOM     23  O   UNL     1      12.657  -0.725   3.599  1.00  0.00    -0.507 OA
ATOM     24  H   UNL     1      13.285  -0.933   2.832  1.00  0.00     0.293 HD
ENDBRANCH  10  23
BRANCH  11  25
ATOM     25  O   UNL     1       7.875  -1.124   4.240  1.00  0.00    -0.508 OA
ATOM     26  H   UNL     1       7.720  -2.107   4.047  1.00  0.00     0.293 HD
ENDBRANCH  11  25
ENDBRANCH   1   2
BRANCH   1  27
ATOM     27  C   UNL     1      13.766   3.241  -0.367  1.00  0.00     0.339 C 
ATOM     28  C   UNL     1      15.242   3.611  -0.066  1.00  0.00     0.214 C 
ATOM     29  O   UNL     1      13.623   1.840  -0.521  1.00  0.00    -0.332 OA
ATOM     30  C   UNL     1      16.155   3.111  -1.200  1.00  0.00     0.180 C 
ATOM     31  C   UNL     1      14.327   1.338  -1.651  1.00  0.00     0.179 C 
ATOM     32  C   UNL     1      15.851   1.645  -1.579  1.00  0.00     0.177 C 
BRANCH  28  33
ATOM     33  O   UNL     1      15.706   3.118   1.173  1.00  0.00    -0.384 OA
ATOM     34  H   UNL     1      16.541   2.601   1.044  1.00  0.00     0.211 HD
ENDBRANCH  28  33
BRANCH  30  35
ATOM     35  O   UNL     1      16.006   3.930  -2.334  1.00  0.00    -0.387 OA
ATOM     36  H   UNL     1      16.920   4.131  -2.668  1.00  0.00     0.211 HD
ENDBRANCH  30  35
BRANCH  31  37
ATOM     37  C   UNL     1      13.662   1.756  -2.984  1.00  0.00     0.191 C 
BRANCH  37  38
ATOM     38  O   UNL     1      12.406   1.148  -3.125  1.00  0.00    -0.394 OA
ATOM     39  H   UNL     1      11.732   1.796  -2.789  1.00  0.00     0.210 HD
ENDBRANCH  37  38
ENDBRANCH  31  37
BRANCH  32  40
ATOM     40  O   UNL     1      16.497   0.766  -0.690  1.00  0.00    -0.387 OA
ATOM     41  H   UNL     1      17.108   0.188  -1.214  1.00  0.00     0.211 HD
ENDBRANCH  32  40
ENDBRANCH   1  27
TORSDOF 12
ENDMDL
MODEL 3
REMARK VINA RESULT:    -6.286      2.256      7.033
REMARK INTER + INTRA:         -10.140
REMARK INTER:                  -9.523
REMARK INTRA:                  -0.617
REMARK UNBOUND:                -0.913
REMARK SMILES O=c1c(O[C@@H]2O[C@@H](CO)[C@H](O)[C@@H](O)[C@@H]2O)c(-c2ccc(O)c(O)c2)oc2cc(O)cc(O)c12
REMARK SMILES IDX 4 1 3 2 16 3 25 4 2 5 26 6 1 7 33 8 27 9 31 10 28 11 30 12
REMARK SMILES IDX 17 13 18 14 19 15 20 16 24 17 22 18 21 19 23 21 32 23 29 25
REMARK SMILES IDX 5 27 14 28 6 29 12 30 7 31 10 32 15 33 13 35 8 37 9 38 11 40
REMARK H PARENT 21 20 23 22 32 24 29 26 15 34 13 36 9 39 11 41
REMARK Flexibility Score: inf
ROOT
ATOM      1  O   UNL     1      12.072   1.470   0.805  1.00  0.00    -0.454 OA
ENDROOT
BRANCH   1   2
ATOM      2  C   UNL     1      11.518   2.509   0.037  1.00  0.00     0.214 A 
ATOM      3  C   UNL     1      12.169   2.901  -1.150  1.00  0.00     0.180 A 
ATOM      4  O   UNL     1      11.643   3.847  -1.920  1.00  0.00    -0.452 OA
ATOM      5  C   UNL     1      10.336   3.185   0.406  1.00  0.00     0.239 A 
ATOM      6  C   UNL     1      10.520   4.489  -1.623  1.00  0.00     0.146 A 
ATOM      7  O   UNL     1       9.776   2.922   1.503  1.00  0.00    -0.285 OA
ATOM      8  C   UNL     1       9.809   4.183  -0.440  1.00  0.00     0.111 A 
ATOM      9  C   UNL     1      10.053   5.479  -2.492  1.00  0.00     0.094 A 
ATOM     10  C   UNL     1       8.619   4.895  -0.149  1.00  0.00     0.134 A 
ATOM     11  C   UNL     1       8.885   6.184  -2.197  1.00  0.00     0.123 A 
ATOM     12  C   UNL     1       8.171   5.891  -1.030  1.00  0.00     0.093 A 
BRANCH   3  13
ATOM     13  C   UNL     1      13.428   2.263  -1.599  1.00  0.00     0.025 A 
ATOM     14  C   UNL     1      13.423   1.045  -2.293  1.00  0.00     0.016 A 
ATOM     15  C   UNL     1      14.625   0.444  -2.670  1.00  0.00     0.051 A 
ATOM     16  C   UNL     1      15.852   1.045  -2.366  1.00  0.00     0.157 A 
ATOM     17  C   UNL     1      14.656   2.857  -1.268  1.00  0.00     0.062 A 
ATOM     18  C   UNL     1      15.867   2.269  -1.657  1.00  0.00     0.158 A 
BRANCH  16  19
ATOM     19  O   UNL     1      17.019   0.396  -2.776  1.00  0.00    -0.504 OA
ATOM     20  H   UNL     1      17.582  -0.184  -2.170  1.00  0.00     0.293 HD
ENDBRANCH  16  19
BRANCH  18  21
ATOM     21  O   UNL     1      17.050   2.931  -1.321  1.00  0.00    -0.504 OA
ATOM     22  H   UNL     1      17.668   2.640  -0.576  1.00  0.00     0.293 HD
ENDBRANCH  18  21
ENDBRANCH   3  13
BRANCH  10  23
ATOM     23  O   UNL     1       7.882   4.622   1.005  1.00  0.00    -0.507 OA
ATOM     24  H   UNL     1       7.545   3.690   1.214  1.00  0.00     0.293 HD
ENDBRANCH  10  23
BRANCH  11  25
ATOM     25  O   UNL     1       8.439   7.172  -3.072  1.00  0.00    -0.508 OA
ATOM     26  H   UNL     1       9.067   7.619  -3.730  1.00  0.00     0.293 HD
ENDBRANCH  11  25
ENDBRANCH   1   2
BRANCH   1  27
ATOM     27  C   UNL     1      13.417   1.400   1.287  1.00  0.00     0.339 C 
ATOM     28  C   UNL     1      13.734   2.644   2.157  1.00  0.00     0.214 C 
ATOM     29  O   UNL     1      13.544   0.211   2.048  1.00  0.00    -0.332 OA
ATOM     30  C   UNL     1      15.158   2.539   2.732  1.00  0.00     0.180 C 
ATOM     31  C   UNL     1      14.880  -0.020   2.481  1.00  0.00     0.179 C 
ATOM     32  C   UNL     1      15.427   1.150   3.350  1.00  0.00     0.177 C 
BRANCH  28  33
ATOM     33  O   UNL     1      12.810   2.850   3.204  1.00  0.00    -0.384 OA
ATOM     34  H   UNL     1      12.946   3.744   3.609  1.00  0.00     0.211 HD
ENDBRANCH  28  33
BRANCH  30  35
ATOM     35  O   UNL     1      16.104   2.796   1.723  1.00  0.00    -0.387 OA
ATOM     36  H   UNL     1      17.000   2.759   2.151  1.00  0.00     0.211 HD
ENDBRANCH  30  35
BRANCH  31  37
ATOM     37  C   UNL     1      15.809  -0.427   1.314  1.00  0.00     0.191 C 
BRANCH  37  38
ATOM     38  O   UNL     1      15.095  -1.125   0.329  1.00  0.00    -0.394 OA
ATOM     39  H   UNL     1      15.543  -2.002   0.213  1.00  0.00     0.210 HD
ENDBRANCH  37  38
ENDBRANCH  31  37
BRANCH  32  40
ATOM     40  O   UNL     1      14.910   1.087   4.657  1.00  0.00    -0.387 OA
ATOM     41  H   UNL     1      14.498   1.963   4.870  1.00  0.00     0.211 HD
ENDBRANCH  32  40
ENDBRANCH   1  27
TORSDOF 12
ENDMDL
MODEL 4
REMARK VINA RESULT:    -6.045      2.166      6.847
REMARK INTER + INTRA:          -9.785
REMARK INTER:                  -9.012
REMARK INTRA:                  -0.774
REMARK UNBOUND:                -0.913
REMARK SMILES O=c1c(O[C@@H]2O[C@@H](CO)[C@H](O)[C@@H](O)[C@@H]2O)c(-c2ccc(O)c(O)c2)oc2cc(O)cc(O)c12
REMARK SMILES IDX 4 1 3 2 16 3 25 4 2 5 26 6 1 7 33 8 27 9 31 10 28 11 30 12
REMARK SMILES IDX 17 13 18 14 19 15 20 16 24 17 22 18 21 19 23 21 32 23 29 25
REMARK SMILES IDX 5 27 14 28 6 29 12 30 7 31 10 32 15 33 13 35 8 37 9 38 11 40
REMARK H PARENT 21 20 23 22 32 24 29 26 15 34 13 36 9 39 11 41
REMARK Flexibility Score: inf
ROOT
ATOM      1  O   UNL     1      13.150   2.943   1.489  1.00  0.00    -0.454 OA
ENDROOT
BRANCH   1   2
ATOM      2  C   UNL     1      12.346   3.621   0.555  1.00  0.00     0.214 A 
ATOM      3  C   UNL     1      12.561   3.396  -0.820  1.00  0.00     0.180 A 
ATOM      4  O   UNL     1      11.786   3.987  -1.723  1.00  0.00    -0.452 OA
ATOM      5  C   UNL     1      11.334   4.527   0.935  1.00  0.00     0.239 A 
ATOM      6  C   UNL     1      10.806   4.824  -1.408  1.00  0.00     0.146 A 
ATOM      7  O   UNL     1      11.173   4.819   2.149  1.00  0.00    -0.285 OA
ATOM      8  C   UNL     1      10.531   5.132  -0.055  1.00  0.00     0.111 A 
ATOM      9  C   UNL     1      10.053   5.405  -2.431  1.00  0.00     0.094 A 
ATOM     10  C   UNL     1       9.485   6.039   0.244  1.00  0.00     0.134 A 
ATOM     11  C   UNL     1       9.028   6.304  -2.131  1.00  0.00     0.123 A 
ATOM     12  C   UNL     1       8.746   6.618  -0.798  1.00  0.00     0.093 A 
BRANCH   3  13
ATOM     13  C   UNL     1      13.619   2.481  -1.307  1.00  0.00     0.025 A 
ATOM     14  C   UNL     1      13.311   1.214  -1.821  1.00  0.00     0.016 A 
ATOM     15  C   UNL     1      14.329   0.355  -2.236  1.00  0.00     0.051 A 
ATOM     16  C   UNL     1      15.672   0.742  -2.150  1.00  0.00     0.157 A 
ATOM     17  C   UNL     1      14.965   2.865  -1.194  1.00  0.00     0.062 A 
ATOM     18  C   UNL     1      15.993   2.016  -1.624  1.00  0.00     0.158 A 
BRANCH  16  19
ATOM     19  O   UNL     1      16.643  -0.160  -2.588  1.00  0.00    -0.504 OA
ATOM     20  H   UNL     1      17.374  -0.531  -1.996  1.00  0.00     0.293 HD
ENDBRANCH  16  19
BRANCH  18  21
ATOM     21  O   UNL     1      17.307   2.475  -1.512  1.00  0.00    -0.504 OA
ATOM     22  H   UNL     1      17.998   2.064  -0.900  1.00  0.00     0.293 HD
ENDBRANCH  18  21
ENDBRANCH   3  13
BRANCH  10  23
ATOM     23  O   UNL     1       9.175   6.367   1.566  1.00  0.00    -0.507 OA
ATOM     24  H   UNL     1       9.190   5.675   2.305  1.00  0.00     0.293 HD
ENDBRANCH  10  23
BRANCH  11  25
ATOM     25  O   UNL     1       8.293   6.879  -3.167  1.00  0.00    -0.508 OA
ATOM     26  H   UNL     1       8.700   7.572  -3.783  1.00  0.00     0.293 HD
ENDBRANCH  11  25
ENDBRANCH   1   2
BRANCH   1  27
ATOM     27  C   UNL     1      13.293   1.525   1.608  1.00  0.00     0.339 C 
ATOM     28  C   UNL     1      14.723   1.175   2.095  1.00  0.00     0.214 C 
ATOM     29  O   UNL     1      12.323   1.067   2.535  1.00  0.00    -0.332 OA
ATOM     30  C   UNL     1      14.859  -0.346   2.289  1.00  0.00     0.180 C 
ATOM     31  C   UNL     1      12.297  -0.351   2.644  1.00  0.00     0.179 C 
ATOM     32  C   UNL     1      13.672  -0.932   3.085  1.00  0.00     0.177 C 
BRANCH  28  33
ATOM     33  O   UNL     1      15.094   1.843   3.282  1.00  0.00    -0.384 OA
ATOM     34  H   UNL     1      15.054   1.221   4.052  1.00  0.00     0.211 HD
ENDBRANCH  28  33
BRANCH  30  35
ATOM     35  O   UNL     1      14.948  -0.985   1.039  1.00  0.00    -0.387 OA
ATOM     36  H   UNL     1      14.801  -0.287   0.347  1.00  0.00     0.211 HD
ENDBRANCH  30  35
BRANCH  31  37
ATOM     37  C   UNL     1      11.704  -1.022   1.383  1.00  0.00     0.191 C 
BRANCH  37  38
ATOM     38  O   UNL     1      10.416  -0.533   1.118  1.00  0.00    -0.394 OA
ATOM     39  H   UNL     1      10.134  -0.919   0.248  1.00  0.00     0.210 HD
ENDBRANCH  37  38
ENDBRANCH  31  37
BRANCH  32  40
ATOM     40  O   UNL     1      13.872  -0.752   4.466  1.00  0.00    -0.387 OA
ATOM     41  H   UNL     1      13.008  -0.486   4.872  1.00  0.00     0.211 HD
ENDBRANCH  32  40
ENDBRANCH   1  27
TORSDOF 12
ENDMDL
MODEL 5
REMARK VINA RESULT:    -5.665      3.128      5.371
REMARK INTER + INTRA:          -9.228
REMARK INTER:                  -8.127
REMARK INTRA:                  -1.102
REMARK UNBOUND:                -0.913
REMARK SMILES O=c1c(O[C@@H]2O[C@@H](CO)[C@H](O)[C@@H](O)[C@@H]2O)c(-c2ccc(O)c(O)c2)oc2cc(O)cc(O)c12
REMARK SMILES IDX 4 1 3 2 16 3 25 4 2 5 26 6 1 7 33 8 27 9 31 10 28 11 30 12
REMARK SMILES IDX 17 13 18 14 19 15 20 16 24 17 22 18 21 19 23 21 32 23 29 25
REMARK SMILES IDX 5 27 14 28 6 29 12 30 7 31 10 32 15 33 13 35 8 37 9 38 11 40
REMARK H PARENT 21 20 23 22 32 24 29 26 15 34 13 36 9 39 11 41
REMARK Flexibility Score: inf
ROOT
ATOM      1  O   UNL     1      12.390   0.472   0.484  1.00  0.00    -0.454 OA
ENDROOT
BRANCH   1   2
ATOM      2  C   UNL     1      13.419   0.837   1.371  1.00  0.00     0.214 A 
ATOM      3  C   UNL     1      14.260   1.916   1.032  1.00  0.00     0.180 A 
ATOM      4  O   UNL     1      15.210   2.312   1.872  1.00  0.00    -0.452 OA
ATOM      5  C   UNL     1      13.652   0.163   2.587  1.00  0.00     0.239 A 
ATOM      6  C   UNL     1      15.445   1.723   3.038  1.00  0.00     0.146 A 
ATOM      7  O   UNL     1      12.978  -0.860   2.881  1.00  0.00    -0.285 OA
ATOM      8  C   UNL     1      14.670   0.616   3.453  1.00  0.00     0.111 A 
ATOM      9  C   UNL     1      16.476   2.207   3.847  1.00  0.00     0.094 A 
ATOM     10  C   UNL     1      14.956   0.005   4.699  1.00  0.00     0.134 A 
ATOM     11  C   UNL     1      16.760   1.596   5.070  1.00  0.00     0.123 A 
ATOM     12  C   UNL     1      16.001   0.500   5.493  1.00  0.00     0.093 A 
BRANCH   3  13
ATOM     13  C   UNL     1      14.102   2.662  -0.238  1.00  0.00     0.025 A 
ATOM     14  C   UNL     1      15.180   2.852  -1.113  1.00  0.00     0.016 A 
ATOM     15  C   UNL     1      15.015   3.592  -2.284  1.00  0.00     0.051 A 
ATOM     16  C   UNL     1      13.774   4.155  -2.606  1.00  0.00     0.157 A 
ATOM     17  C   UNL     1      12.862   3.245  -0.542  1.00  0.00     0.062 A 
ATOM     18  C   UNL     1      12.683   3.977  -1.724  1.00  0.00     0.158 A 
BRANCH  16  19
ATOM     19  O   UNL     1      13.673   4.880  -3.796  1.00  0.00    -0.504 OA
ATOM     20  H   UNL     1      14.408   4.934  -4.486  1.00  0.00     0.293 HD
ENDBRANCH  16  19
BRANCH  18  21
ATOM     21  O   UNL     1      11.414   4.503  -1.979  1.00  0.00    -0.504 OA
ATOM     22  H   UNL     1      11.184   5.050  -2.796  1.00  0.00     0.293 HD
ENDBRANCH  18  21
ENDBRANCH   3  13
BRANCH  10  23
ATOM     23  O   UNL     1      14.213  -1.087   5.151  1.00  0.00    -0.507 OA
ATOM     24  H   UNL     1      14.654  -1.890   5.584  1.00  0.00     0.293 HD
ENDBRANCH  10  23
BRANCH  11  25
ATOM     25  O   UNL     1      17.798   2.088   5.860  1.00  0.00    -0.508 OA
ATOM     26  H   UNL     1      17.656   2.863   6.497  1.00  0.00     0.293 HD
ENDBRANCH  11  25
ENDBRANCH   1   2
BRANCH   1  27
ATOM     27  C   UNL     1      11.026   0.895   0.554  1.00  0.00     0.339 C 
ATOM     28  C   UNL     1      10.102  -0.331   0.779  1.00  0.00     0.214 C 
ATOM     29  O   UNL     1      10.910   1.813   1.628  1.00  0.00    -0.332 OA
ATOM     30  C   UNL     1       8.639   0.128   0.923  1.00  0.00     0.180 C 
ATOM     31  C   UNL     1       9.612   2.389   1.718  1.00  0.00     0.179 C 
ATOM     32  C   UNL     1       8.502   1.314   1.903  1.00  0.00     0.177 C 
BRANCH  28  33
ATOM     33  O   UNL     1      10.467  -1.116   1.894  1.00  0.00    -0.384 OA
ATOM     34  H   UNL     1       9.922  -0.866   2.682  1.00  0.00     0.211 HD
ENDBRANCH  28  33
BRANCH  30  35
ATOM     35  O   UNL     1       8.125   0.496  -0.334  1.00  0.00    -0.387 OA
ATOM     36  H   UNL     1       7.220   0.875  -0.177  1.00  0.00     0.211 HD
ENDBRANCH  30  35
BRANCH  31  37
ATOM     37  C   UNL     1       9.337   3.387   0.569  1.00  0.00     0.191 C 
BRANCH  37  38
ATOM     38  O   UNL     1       9.986   4.608   0.804  1.00  0.00    -0.394 OA
ATOM     39  H   UNL     1       9.904   5.145  -0.027  1.00  0.00     0.210 HD
ENDBRANCH  37  38
ENDBRANCH  31  37
BRANCH  32  40
ATOM     40  O   UNL     1       8.472   0.849   3.231  1.00  0.00    -0.387 OA
ATOM     41  H   UNL     1       9.133   1.369   3.756  1.00  0.00     0.211 HD
ENDBRANCH  32  40
ENDBRANCH   1  27
TORSDOF 12
ENDMDL
MODEL 6
REMARK VINA RESULT:    -5.578      3.033      3.554
REMARK INTER + INTRA:          -9.101
REMARK INTER:                  -7.808
REMARK INTRA:                  -1.293
REMARK UNBOUND:                -0.913
REMARK SMILES O=c1c(O[C@@H]2O[C@@H](CO)[C@H](O)[C@@H](O)[C@@H]2O)c(-c2ccc(O)c(O)c2)oc2cc(O)cc(O)c12
REMARK SMILES IDX 4 1 3 2 16 3 25 4 2 5 26 6 1 7 33 8 27 9 31 10 28 11 30 12
REMARK SMILES IDX 17 13 18 14 19 15 20 16 24 17 22 18 21 19 23 21 32 23 29 25
REMARK SMILES IDX 5 27 14 28 6 29 12 30 7 31 10 32 15 33 13 35 8 37 9 38 11 40
REMARK H PARENT 21 20 23 22 32 24 29 26 15 34 13 36 9 39 11 41
REMARK Flexibility Score: inf
ROOT
ATOM      1  O   UNL     1      13.219   3.011   0.280  1.00  0.00    -0.454 OA
ENDROOT
BRANCH   1   2
ATOM      2  C   UNL     1      13.773   2.178   1.269  1.00  0.00     0.214 A 
ATOM      3  C   UNL     1      13.322   0.846   1.370  1.00  0.00     0.180 A 
ATOM      4  O   UNL     1      13.861   0.024   2.264  1.00  0.00    -0.452 OA
ATOM      5  C   UNL     1      14.760   2.621   2.174  1.00  0.00     0.239 A 
ATOM      6  C   UNL     1      14.811   0.393   3.115  1.00  0.00     0.146 A 
ATOM      7  O   UNL     1      15.123   3.827   2.170  1.00  0.00    -0.285 OA
ATOM      8  C   UNL     1      15.309   1.716   3.106  1.00  0.00     0.111 A 
ATOM      9  C   UNL     1      15.307  -0.543   4.027  1.00  0.00     0.094 A 
ATOM     10  C   UNL     1      16.315   2.078   4.037  1.00  0.00     0.134 A 
ATOM     11  C   UNL     1      16.291  -0.179   4.947  1.00  0.00     0.123 A 
ATOM     12  C   UNL     1      16.793   1.126   4.950  1.00  0.00     0.093 A 
BRANCH   3  13
ATOM     13  C   UNL     1      12.270   0.307   0.478  1.00  0.00     0.025 A 
ATOM     14  C   UNL     1      12.579  -0.202  -0.791  1.00  0.00     0.016 A 
ATOM     15  C   UNL     1      11.565  -0.668  -1.629  1.00  0.00     0.051 A 
ATOM     16  C   UNL     1      10.227  -0.639  -1.218  1.00  0.00     0.157 A 
ATOM     17  C   UNL     1      10.928   0.363   0.886  1.00  0.00     0.062 A 
ATOM     18  C   UNL     1       9.904  -0.118   0.058  1.00  0.00     0.158 A 
BRANCH  16  19
ATOM     19  O   UNL     1       9.259  -1.125  -2.100  1.00  0.00    -0.504 OA
ATOM     20  H   UNL     1       8.587  -0.540  -2.576  1.00  0.00     0.293 HD
ENDBRANCH  16  19
BRANCH  18  21
ATOM     21  O   UNL     1       8.595  -0.060   0.540  1.00  0.00    -0.504 OA
ATOM     22  H   UNL     1       7.784   0.085  -0.045  1.00  0.00     0.293 HD
ENDBRANCH  18  21
ENDBRANCH   3  13
BRANCH  10  23
ATOM     23  O   UNL     1      16.840   3.371   4.060  1.00  0.00    -0.507 OA
ATOM     24  H   UNL     1      16.668   4.002   4.834  1.00  0.00     0.293 HD
ENDBRANCH  10  23
BRANCH  11  25
ATOM     25  O   UNL     1      16.768  -1.125   5.853  1.00  0.00    -0.508 OA
ATOM     26  H   UNL     1      16.581  -2.114   5.734  1.00  0.00     0.293 HD
ENDBRANCH  11  25
ENDBRANCH   1   2
BRANCH   1  27
ATOM     27  C   UNL     1      11.862   3.457   0.216  1.00  0.00     0.339 C 
ATOM     28  C   UNL     1      11.588   4.486   1.344  1.00  0.00     0.214 C 
ATOM     29  O   UNL     1      11.658   4.045  -1.058  1.00  0.00    -0.332 OA
ATOM     30  C   UNL     1      10.148   5.020   1.236  1.00  0.00     0.180 C 
ATOM     31  C   UNL     1      10.304   4.423  -1.276  1.00  0.00     0.179 C 
ATOM     32  C   UNL     1       9.796   5.436  -0.210  1.00  0.00     0.177 C 
BRANCH  28  33
ATOM     33  O   UNL     1      12.497   5.565   1.356  1.00  0.00    -0.384 OA
ATOM     34  H   UNL     1      13.425   5.231   1.448  1.00  0.00     0.211 HD
ENDBRANCH  28  33
BRANCH  30  35
ATOM     35  O   UNL     1       9.238   4.041   1.677  1.00  0.00    -0.387 OA
ATOM     36  H   UNL     1       8.352   4.279   1.297  1.00  0.00     0.211 HD
ENDBRANCH  30  35
BRANCH  31  37
ATOM     37  C   UNL     1       9.381   3.197  -1.471  1.00  0.00     0.191 C 
BRANCH  37  38
ATOM     38  O   UNL     1       8.138   3.406  -0.856  1.00  0.00    -0.394 OA
ATOM     39  H   UNL     1       7.443   3.239  -1.545  1.00  0.00     0.210 HD
ENDBRANCH  37  38
ENDBRANCH  31  37
BRANCH  32  40
ATOM     40  O   UNL     1      10.281   6.729  -0.478  1.00  0.00    -0.387 OA
ATOM     41  H   UNL     1      11.014   6.655  -1.140  1.00  0.00     0.211 HD
ENDBRANCH  32  40
ENDBRANCH   1  27
TORSDOF 12
ENDMDL
MODEL 7
REMARK VINA RESULT:    -5.488      1.782      4.556
REMARK INTER + INTRA:          -8.967
REMARK INTER:                  -7.746
REMARK INTRA:                  -1.222
REMARK UNBOUND:                -0.913
REMARK SMILES O=c1c(O[C@@H]2O[C@@H](CO)[C@H](O)[C@@H](O)[C@@H]2O)c(-c2ccc(O)c(O)c2)oc2cc(O)cc(O)c12
REMARK SMILES IDX 4 1 3 2 16 3 25 4 2 5 26 6 1 7 33 8 27 9 31 10 28 11 30 12
REMARK SMILES IDX 17 13 18 14 19 15 20 16 24 17 22 18 21 19 23 21 32 23 29 25
REMARK SMILES IDX 5 27 14 28 6 29 12 30 7 31 10 32 15 33 13 35 8 37 9 38 11 40
REMARK H PARENT 21 20 23 22 32 24 29 26 15 34 13 36 9 39 11 41
REMARK Flexibility Score: inf
ROOT
ATOM      1  O   UNL     1      11.942   1.477   1.948  1.00  0.00    -0.454 OA
ENDROOT
BRANCH   1   2
ATOM      2  C   UNL     1      13.038   1.647   1.083  1.00  0.00     0.214 A 
ATOM      3  C   UNL     1      13.099   2.804   0.279  1.00  0.00     0.180 A 
ATOM      4  O   UNL     1      14.145   3.013  -0.512  1.00  0.00    -0.452 OA
ATOM      5  C   UNL     1      14.080   0.703   0.978  1.00  0.00     0.239 A 
ATOM      6  C   UNL     1      15.160   2.164  -0.620  1.00  0.00     0.146 A 
ATOM      7  O   UNL     1      14.015  -0.382   1.614  1.00  0.00    -0.285 OA
ATOM      8  C   UNL     1      15.175   0.964   0.127  1.00  0.00     0.111 A 
ATOM      9  C   UNL     1      16.210   2.469  -1.490  1.00  0.00     0.094 A 
ATOM     10  C   UNL     1      16.269   0.076  -0.022  1.00  0.00     0.134 A 
ATOM     11  C   UNL     1      17.281   1.586  -1.639  1.00  0.00     0.123 A 
ATOM     12  C   UNL     1      17.309   0.395  -0.907  1.00  0.00     0.093 A 
BRANCH   3  13
ATOM     13  C   UNL     1      12.034   3.833   0.308  1.00  0.00     0.025 A 
ATOM     14  C   UNL     1      11.834   4.647   1.431  1.00  0.00     0.016 A 
ATOM     15  C   UNL     1      10.799   5.582   1.449  1.00  0.00     0.051 A 
ATOM     16  C   UNL     1       9.946   5.726   0.348  1.00  0.00     0.157 A 
ATOM     17  C   UNL     1      11.166   3.954  -0.789  1.00  0.00     0.062 A 
ATOM     18  C   UNL     1      10.133   4.902  -0.787  1.00  0.00     0.158 A 
BRANCH  16  19
ATOM     19  O   UNL     1       8.932   6.683   0.425  1.00  0.00    -0.504 OA
ATOM     20  H   UNL     1       8.083   6.562   0.958  1.00  0.00     0.293 HD
ENDBRANCH  16  19
BRANCH  18  21
ATOM     21  O   UNL     1       9.327   4.989  -1.924  1.00  0.00    -0.504 OA
ATOM     22  H   UNL     1       8.359   4.702  -1.953  1.00  0.00     0.293 HD
ENDBRANCH  18  21
ENDBRANCH   3  13
BRANCH  10  23
ATOM     23  O   UNL     1      16.329  -1.118   0.700  1.00  0.00    -0.507 OA
ATOM     24  H   UNL     1      16.165  -1.145   1.700  1.00  0.00     0.293 HD
ENDBRANCH  10  23
BRANCH  11  25
ATOM     25  O   UNL     1      18.316   1.904  -2.518  1.00  0.00    -0.508 OA
ATOM     26  H   UNL     1      18.296   1.610  -3.487  1.00  0.00     0.293 HD
ENDBRANCH  11  25
ENDBRANCH   1   2
BRANCH   1  27
ATOM     27  C   UNL     1      10.636   1.028   1.578  1.00  0.00     0.339 C 
ATOM     28  C   UNL     1      10.595  -0.523   1.554  1.00  0.00     0.214 C 
ATOM     29  O   UNL     1       9.716   1.538   2.528  1.00  0.00    -0.332 OA
ATOM     30  C   UNL     1       9.173  -1.010   1.222  1.00  0.00     0.180 C 
ATOM     31  C   UNL     1       8.364   1.247   2.191  1.00  0.00     0.179 C 
ATOM     32  C   UNL     1       8.104  -0.282   2.067  1.00  0.00     0.177 C 
BRANCH  28  33
ATOM     33  O   UNL     1      11.035  -1.117   2.756  1.00  0.00    -0.384 OA
ATOM     34  H   UNL     1      12.010  -0.982   2.869  1.00  0.00     0.211 HD
ENDBRANCH  28  33
BRANCH  30  35
ATOM     35  O   UNL     1       8.904  -0.815  -0.145  1.00  0.00    -0.387 OA
ATOM     36  H   UNL     1       7.929  -0.954  -0.270  1.00  0.00     0.211 HD
ENDBRANCH  30  35
BRANCH  31  37
ATOM     37  C   UNL     1       7.876   2.071   0.977  1.00  0.00     0.191 C 
BRANCH  37  38
ATOM     38  O   UNL     1       7.892   3.443   1.267  1.00  0.00    -0.394 OA
ATOM     39  H   UNL     1       7.864   3.530   2.255  1.00  0.00     0.210 HD
ENDBRANCH  37  38
ENDBRANCH  31  37
BRANCH  32  40
ATOM     40  O   UNL     1       7.996  -0.877   3.338  1.00  0.00    -0.387 OA
ATOM     41  H   UNL     1       8.862  -0.764   3.807  1.00  0.00     0.211 HD
ENDBRANCH  32  40
ENDBRANCH   1  27
TORSDOF 12
ENDMDL
MODEL 8
REMARK VINA RESULT:    -5.405      2.410      7.097
REMARK INTER + INTRA:          -8.847
REMARK INTER:                  -7.776
REMARK INTRA:                  -1.070
REMARK UNBOUND:                -0.913
REMARK SMILES O=c1c(O[C@@H]2O[C@@H](CO)[C@H](O)[C@@H](O)[C@@H]2O)c(-c2ccc(O)c(O)c2)oc2cc(O)cc(O)c12
REMARK SMILES IDX 4 1 3 2 16 3 25 4 2 5 26 6 1 7 33 8 27 9 31 10 28 11 30 12
REMARK SMILES IDX 17 13 18 14 19 15 20 16 24 17 22 18 21 19 23 21 32 23 29 25
REMARK SMILES IDX 5 27 14 28 6 29 12 30 7 31 10 32 15 33 13 35 8 37 9 38 11 40
REMARK H PARENT 21 20 23 22 32 24 29 26 15 34 13 36 9 39 11 41
REMARK Flexibility Score: inf
ROOT
ATOM      1  O   UNL     1      12.502   1.334  -0.577  1.00  0.00    -0.454 OA
ENDROOT
BRANCH   1   2
ATOM      2  C   UNL     1      11.854   2.461  -0.040  1.00  0.00     0.214 A 
ATOM      3  C   UNL     1      12.162   2.862   1.276  1.00  0.00     0.180 A 
ATOM      4  O   UNL     1      11.600   3.950   1.792  1.00  0.00    -0.452 OA
ATOM      5  C   UNL     1      10.899   3.207  -0.762  1.00  0.00     0.239 A 
ATOM      6  C   UNL     1      10.718   4.695   1.138  1.00  0.00     0.146 A 
ATOM      7  O   UNL     1      10.535   2.827  -1.906  1.00  0.00    -0.285 OA
ATOM      8  C   UNL     1      10.327   4.358  -0.179  1.00  0.00     0.111 A 
ATOM      9  C   UNL     1      10.173   5.815   1.771  1.00  0.00     0.094 A 
ATOM     10  C   UNL     1       9.375   5.170  -0.843  1.00  0.00     0.134 A 
ATOM     11  C   UNL     1       9.229   6.607   1.115  1.00  0.00     0.123 A 
ATOM     12  C   UNL     1       8.833   6.285  -0.187  1.00  0.00     0.093 A 
BRANCH   3  13
ATOM     13  C   UNL     1      13.132   2.120   2.113  1.00  0.00     0.025 A 
ATOM     14  C   UNL     1      14.414   2.626   2.368  1.00  0.00     0.016 A 
ATOM     15  C   UNL     1      15.324   1.889   3.127  1.00  0.00     0.051 A 
ATOM     16  C   UNL     1      14.974   0.637   3.648  1.00  0.00     0.157 A 
ATOM     17  C   UNL     1      12.785   0.854   2.610  1.00  0.00     0.062 A 
ATOM     18  C   UNL     1      13.686   0.114   3.387  1.00  0.00     0.158 A 
BRANCH  16  19
ATOM     19  O   UNL     1      15.928  -0.047   4.404  1.00  0.00    -0.504 OA
ATOM     20  H   UNL     1      15.724  -0.517   5.275  1.00  0.00     0.293 HD
ENDBRANCH  16  19
BRANCH  18  21
ATOM     21  O   UNL     1      13.263  -1.124   3.875  1.00  0.00    -0.504 OA
ATOM     22  H   UNL     1      13.689  -1.598   4.659  1.00  0.00     0.293 HD
ENDBRANCH  18  21
ENDBRANCH   3  13
BRANCH  10  23
ATOM     23  O   UNL     1       8.965   4.878  -2.145  1.00  0.00    -0.507 OA
ATOM     24  H   UNL     1       9.521   5.138  -2.951  1.00  0.00     0.293 HD
ENDBRANCH  10  23
BRANCH  11  25
ATOM     25  O   UNL     1       8.691   7.717   1.767  1.00  0.00    -0.508 OA
ATOM     26  H   UNL     1       8.768   8.648   1.376  1.00  0.00     0.293 HD
ENDBRANCH  11  25
ENDBRANCH   1   2
BRANCH   1  27
ATOM     27  C   UNL     1      13.907   1.198  -0.808  1.00  0.00     0.339 C 
ATOM     28  C   UNL     1      14.313  -0.297  -0.743  1.00  0.00     0.214 C 
ATOM     29  O   UNL     1      14.191   1.739  -2.087  1.00  0.00    -0.332 OA
ATOM     30  C   UNL     1      15.812  -0.454  -1.058  1.00  0.00     0.180 C 
ATOM     31  C   UNL     1      15.585   1.762  -2.374  1.00  0.00     0.179 C 
ATOM     32  C   UNL     1      16.220   0.343  -2.318  1.00  0.00     0.177 C 
BRANCH  28  33
ATOM     33  O   UNL     1      13.556  -1.125  -1.601  1.00  0.00    -0.384 OA
ATOM     34  H   UNL     1      12.795  -0.618  -1.983  1.00  0.00     0.211 HD
ENDBRANCH  28  33
BRANCH  30  35
ATOM     35  O   UNL     1      16.581  -0.025   0.039  1.00  0.00    -0.387 OA
ATOM     36  H   UNL     1      16.101   0.745   0.445  1.00  0.00     0.211 HD
ENDBRANCH  30  35
BRANCH  31  37
ATOM     37  C   UNL     1      16.335   2.823  -1.535  1.00  0.00     0.191 C 
BRANCH  37  38
ATOM     38  O   UNL     1      17.655   2.418  -1.285  1.00  0.00    -0.394 OA
ATOM     39  H   UNL     1      18.126   3.196  -0.889  1.00  0.00     0.210 HD
ENDBRANCH  37  38
ENDBRANCH  31  37
BRANCH  32  40
ATOM     40  O   UNL     1      15.914  -0.389  -3.480  1.00  0.00    -0.387 OA
ATOM     41  H   UNL     1      16.160  -1.336  -3.324  1.00  0.00     0.211 HD
ENDBRANCH  32  40
ENDBRANCH   1  27
TORSDOF 12
ENDMDL
MODEL 9
REMARK VINA RESULT:    -5.385      3.318      7.524
REMARK INTER + INTRA:          -8.817
REMARK INTER:                  -7.591
REMARK INTRA:                  -1.225
REMARK UNBOUND:                -0.913
REMARK SMILES O=c1c(O[C@@H]2O[C@@H](CO)[C@H](O)[C@@H](O)[C@@H]2O)c(-c2ccc(O)c(O)c2)oc2cc(O)cc(O)c12
REMARK SMILES IDX 4 1 3 2 16 3 25 4 2 5 26 6 1 7 33 8 27 9 31 10 28 11 30 12
REMARK SMILES IDX 17 13 18 14 19 15 20 16 24 17 22 18 21 19 23 21 32 23 29 25
REMARK SMILES IDX 5 27 14 28 6 29 12 30 7 31 10 32 15 33 13 35 8 37 9 38 11 40
REMARK H PARENT 21 20 23 22 32 24 29 26 15 34 13 36 9 39 11 41
REMARK Flexibility Score: inf
ROOT
ATOM      1  O   UNL     1      15.030   2.524   2.071  1.00  0.00    -0.454 OA
ENDROOT
BRANCH   1   2
ATOM      2  C   UNL     1      13.957   2.987   1.289  1.00  0.00     0.214 A 
ATOM      3  C   UNL     1      14.007   2.812  -0.109  1.00  0.00     0.180 A 
ATOM      4  O   UNL     1      12.986   3.197  -0.867  1.00  0.00    -0.452 OA
ATOM      5  C   UNL     1      12.830   3.629   1.844  1.00  0.00     0.239 A 
ATOM      6  C   UNL     1      11.896   3.780  -0.383  1.00  0.00     0.146 A 
ATOM      7  O   UNL     1      12.792   3.881   3.077  1.00  0.00    -0.285 OA
ATOM      8  C   UNL     1      11.766   4.021   1.004  1.00  0.00     0.111 A 
ATOM      9  C   UNL     1      10.881   4.160  -1.265  1.00  0.00     0.094 A 
ATOM     10  C   UNL     1      10.594   4.655   1.484  1.00  0.00     0.134 A 
ATOM     11  C   UNL     1       9.732   4.792  -0.787  1.00  0.00     0.123 A 
ATOM     12  C   UNL     1       9.590   5.037   0.583  1.00  0.00     0.093 A 
BRANCH   3  13
ATOM     13  C   UNL     1      15.163   2.172  -0.776  1.00  0.00     0.025 A 
ATOM     14  C   UNL     1      16.454   2.710  -0.677  1.00  0.00     0.016 A 
ATOM     15  C   UNL     1      17.521   2.111  -1.347  1.00  0.00     0.051 A 
ATOM     16  C   UNL     1      17.323   0.964  -2.126  1.00  0.00     0.157 A 
ATOM     17  C   UNL     1      14.955   1.038  -1.576  1.00  0.00     0.062 A 
ATOM     18  C   UNL     1      16.023   0.419  -2.240  1.00  0.00     0.158 A 
BRANCH  16  19
ATOM     19  O   UNL     1      18.433   0.409  -2.767  1.00  0.00    -0.504 OA
ATOM     20  H   UNL     1      18.371  -0.293  -3.491  1.00  0.00     0.293 HD
ENDBRANCH  16  19
BRANCH  18  21
ATOM     21  O   UNL     1      15.748  -0.723  -2.994  1.00  0.00    -0.504 OA
ATOM     22  H   UNL     1      15.290  -0.709  -3.895  1.00  0.00     0.293 HD
ENDBRANCH  18  21
ENDBRANCH   3  13
BRANCH  10  23
ATOM     23  O   UNL     1      10.421   4.908   2.847  1.00  0.00    -0.507 OA
ATOM     24  H   UNL     1       9.715   4.427   3.392  1.00  0.00     0.293 HD
ENDBRANCH  10  23
BRANCH  11  25
ATOM     25  O   UNL     1       8.733   5.171  -1.683  1.00  0.00    -0.508 OA
ATOM     26  H   UNL     1       8.007   5.827  -1.421  1.00  0.00     0.293 HD
ENDBRANCH  11  25
ENDBRANCH   1   2
BRANCH   1  27
ATOM     27  C   UNL     1      14.946   1.592   3.153  1.00  0.00     0.339 C 
ATOM     28  C   UNL     1      14.836   0.147   2.600  1.00  0.00     0.214 C 
ATOM     29  O   UNL     1      16.114   1.738   3.943  1.00  0.00    -0.332 OA
ATOM     30  C   UNL     1      14.813  -0.864   3.761  1.00  0.00     0.180 C 
ATOM     31  C   UNL     1      16.083   0.936   5.118  1.00  0.00     0.179 C 
ATOM     32  C   UNL     1      15.927  -0.578   4.794  1.00  0.00     0.177 C 
BRANCH  28  33
ATOM     33  O   UNL     1      15.863  -0.191   1.694  1.00  0.00    -0.384 OA
ATOM     34  H   UNL     1      15.489  -0.324   0.786  1.00  0.00     0.211 HD
ENDBRANCH  28  33
BRANCH  30  35
ATOM     35  O   UNL     1      13.561  -0.833   4.402  1.00  0.00    -0.387 OA
ATOM     36  H   UNL     1      12.886  -0.613   3.706  1.00  0.00     0.211 HD
ENDBRANCH  30  35
BRANCH  31  37
ATOM     37  C   UNL     1      15.068   1.466   6.159  1.00  0.00     0.191 C 
BRANCH  37  38
ATOM     38  O   UNL     1      14.568   0.418   6.945  1.00  0.00    -0.394 OA
ATOM     39  H   UNL     1      15.238  -0.314   6.913  1.00  0.00     0.210 HD
ENDBRANCH  37  38
ENDBRANCH  31  37
BRANCH  32  40
ATOM     40  O   UNL     1      17.148  -1.125   4.359  1.00  0.00    -0.387 OA
ATOM     41  H   UNL     1      17.032  -2.104   4.259  1.00  0.00     0.211 HD
ENDBRANCH  32  40
ENDBRANCH   1  27
TORSDOF 12
ENDMDL
