MODEL 1
REMARK VINA RESULT:    -3.311      0.000      0.000
REMARK INTER + INTRA:         -11.489
REMARK INTER:                  -7.568
REMARK INTRA:                  -3.921
REMARK UNBOUND:                -3.921
REMARK SMILES CCCCCCCCCCCCCCCCCCCCCCCC(=O)[O-]
REMARK SMILES IDX 13 1 14 2 15 3 16 4 17 5 18 6 19 7 20 8 21 9 22 10 23 11
REMARK SMILES IDX 24 12 25 13 26 14 12 15 11 16 10 17 9 18 8 19 7 20 6 21 5 22
REMARK SMILES IDX 4 23 3 24 2 25 1 26
REMARK H PARENT
REMARK Flexibility Score: inf
ROOT
ATOM      1  C   UNL     1      11.187  44.187 151.854  1.00  0.00     0.000 C 
ENDROOT
BRANCH   1   2
ATOM      2  C   UNL     1      12.438  43.527 152.450  1.00  0.00     0.000 C 
BRANCH   2   3
ATOM      3  C   UNL     1      12.124  42.878 153.807  1.00  0.00     0.000 C 
BRANCH   3   4
ATOM      4  C   UNL     1      10.649  43.028 154.211  1.00  0.00     0.000 C 
BRANCH   4   5
ATOM      5  C   UNL     1      10.254  42.104 155.377  1.00  0.00     0.000 C 
BRANCH   5   6
ATOM      6  C   UNL     1       9.591  42.871 156.532  1.00  0.00     0.000 C 
BRANCH   6   7
ATOM      7  C   UNL     1       8.451  43.789 156.054  1.00  0.00     0.000 C 
BRANCH   7   8
ATOM      8  C   UNL     1       8.654  45.252 156.481  1.00  0.00     0.000 C 
BRANCH   8   9
ATOM      9  C   UNL     1       8.551  46.227 155.296  1.00  0.00     0.000 C 
BRANCH   9  10
ATOM     10  C   UNL     1       9.904  46.460 154.596  1.00  0.00     0.006 C 
BRANCH  10  11
ATOM     11  C   UNL     1       9.829  47.363 153.354  1.00  0.00     0.053 C 
BRANCH  11  12
ATOM     12  C   UNL     1       9.666  48.807 153.715  1.00  0.00     0.041 C 
ATOM     13  O   UNL     1       8.788  49.506 153.146  1.00  0.00    -0.550 OA
ATOM     14  O   UNL     1      10.503  49.387 154.660  1.00  0.00    -0.550 OA
ENDBRANCH  11  12
ENDBRANCH  10  11
ENDBRANCH   9  10
ENDBRANCH   8   9
ENDBRANCH   7   8
ENDBRANCH   6   7
ENDBRANCH   5   6
ENDBRANCH   4   5
ENDBRANCH   3   4
ENDBRANCH   2   3
ENDBRANCH   1   2
BRANCH   1  15
ATOM     15  C   UNL     1      11.208  44.115 150.320  1.00  0.00     0.000 C 
BRANCH  15  16
ATOM     16  C   UNL     1      10.260  43.038 149.766  1.00  0.00     0.000 C 
BRANCH  16  17
ATOM     17  C   UNL     1      10.952  42.111 148.756  1.00  0.00     0.000 C 
BRANCH  17  18
ATOM     18  C   UNL     1      12.238  41.513 149.346  1.00  0.00    -0.000 C 
BRANCH  18  19
ATOM     19  C   UNL     1      12.050  40.047 149.790  1.00  0.00    -0.000 C 
BRANCH  19  20
ATOM     20  C   UNL     1      12.057  39.854 151.319  1.00  0.00    -0.000 C 
BRANCH  20  21
ATOM     21  C   UNL     1      10.677  39.957 151.994  1.00  0.00    -0.000 C 
BRANCH  21  22
ATOM     22  C   UNL     1       9.481  39.647 151.073  1.00  0.00    -0.000 C 
BRANCH  22  23
ATOM     23  C   UNL     1       8.183  40.375 151.479  1.00  0.00    -0.000 C 
BRANCH  23  24
ATOM     24  C   UNL     1       8.067  40.556 153.002  1.00  0.00    -0.000 C 
BRANCH  24  25
ATOM     25  C   UNL     1       6.610  40.635 153.482  1.00  0.00    -0.003 C 
ATOM     26  C   UNL     1       6.142  42.070 153.726  1.00  0.00     0.004 C 
ENDBRANCH  24  25
ENDBRANCH  23  24
ENDBRANCH  22  23
ENDBRANCH  21  22
ENDBRANCH  20  21
ENDBRANCH  19  20
ENDBRANCH  18  19
ENDBRANCH  17  18
ENDBRANCH  16  17
ENDBRANCH  15  16
ENDBRANCH   1  15
TORSDOF 22
ENDMDL
MODEL 2
REMARK VINA RESULT:    -3.201      3.021      6.433
REMARK INTER + INTRA:         -11.239
REMARK INTER:                  -6.570
REMARK INTRA:                  -4.669
REMARK UNBOUND:                -3.921
REMARK SMILES CCCCCCCCCCCCCCCCCCCCCCCC(=O)[O-]
REMARK SMILES IDX 13 1 14 2 15 3 16 4 17 5 18 6 19 7 20 8 21 9 22 10 23 11
REMARK SMILES IDX 24 12 25 13 26 14 12 15 11 16 10 17 9 18 8 19 7 20 6 21 5 22
REMARK SMILES IDX 4 23 3 24 2 25 1 26
REMARK H PARENT
REMARK Flexibility Score: inf
ROOT
ATOM      1  C   UNL     1      12.422  43.613 152.683  1.00  0.00     0.000 C 
ENDROOT
BRANCH   1   2
ATOM      2  C   UNL     1      11.415  43.122 151.634  1.00  0.00     0.000 C 
BRANCH   2   3
ATOM      3  C   UNL     1      12.043  42.055 150.725  1.00  0.00     0.000 C 
BRANCH   3   4
ATOM      4  C   UNL     1      12.080  40.664 151.377  1.00  0.00     0.000 C 
BRANCH   4   5
ATOM      5  C   UNL     1      10.762  39.890 151.205  1.00  0.00     0.000 C 
BRANCH   5   6
ATOM      6  C   UNL     1       9.926  39.864 152.494  1.00  0.00     0.000 C 
BRANCH   6   7
ATOM      7  C   UNL     1       8.500  40.404 152.285  1.00  0.00     0.000 C 
BRANCH   7   8
ATOM      8  C   UNL     1       7.653  40.347 153.567  1.00  0.00     0.000 C 
BRANCH   8   9
ATOM      9  C   UNL     1       6.738  41.574 153.720  1.00  0.00     0.000 C 
BRANCH   9  10
ATOM     10  C   UNL     1       6.829  42.540 152.524  1.00  0.00     0.006 C 
BRANCH  10  11
ATOM     11  C   UNL     1       5.470  42.965 151.946  1.00  0.00     0.053 C 
BRANCH  11  12
ATOM     12  C   UNL     1       4.618  41.787 151.582  1.00  0.00     0.041 C 
ATOM     13  O   UNL     1       3.564  41.546 152.226  1.00  0.00    -0.550 OA
ATOM     14  O   UNL     1       5.005  40.941 150.551  1.00  0.00    -0.550 OA
ENDBRANCH  11  12
ENDBRANCH  10  11
ENDBRANCH   9  10
ENDBRANCH   8   9
ENDBRANCH   7   8
ENDBRANCH   6   7
ENDBRANCH   5   6
ENDBRANCH   4   5
ENDBRANCH   3   4
ENDBRANCH   2   3
ENDBRANCH   1   2
BRANCH   1  15
ATOM     15  C   UNL     1      12.010  43.163 154.092  1.00  0.00     0.000 C 
BRANCH  15  16
ATOM     16  C   UNL     1      10.491  42.959 154.226  1.00  0.00     0.000 C 
BRANCH  16  17
ATOM     17  C   UNL     1      10.099  42.340 155.576  1.00  0.00     0.000 C 
BRANCH  17  18
ATOM     18  C   UNL     1       9.015  43.176 156.272  1.00  0.00    -0.000 C 
BRANCH  18  19
ATOM     19  C   UNL     1       8.623  44.423 155.452  1.00  0.00    -0.000 C 
BRANCH  19  20
ATOM     20  C   UNL     1       8.473  45.703 156.298  1.00  0.00    -0.000 C 
BRANCH  20  21
ATOM     21  C   UNL     1       9.327  46.895 155.829  1.00  0.00    -0.000 C 
BRANCH  21  22
ATOM     22  C   UNL     1      10.204  46.617 154.592  1.00  0.00    -0.000 C 
BRANCH  22  23
ATOM     23  C   UNL     1       9.782  47.418 153.342  1.00  0.00    -0.000 C 
BRANCH  23  24
ATOM     24  C   UNL     1       9.782  46.555 152.069  1.00  0.00    -0.000 C 
BRANCH  24  25
ATOM     25  C   UNL     1       8.560  45.628 151.980  1.00  0.00    -0.003 C 
ATOM     26  C   UNL     1       7.268  46.303 152.439  1.00  0.00     0.004 C 
ENDBRANCH  24  25
ENDBRANCH  23  24
ENDBRANCH  22  23
ENDBRANCH  21  22
ENDBRANCH  20  21
ENDBRANCH  19  20
ENDBRANCH  18  19
ENDBRANCH  17  18
ENDBRANCH  16  17
ENDBRANCH  15  16
ENDBRANCH   1  15
TORSDOF 22
ENDMDL
MODEL 3
REMARK VINA RESULT:    -3.186      1.473      2.139
REMARK INTER + INTRA:         -11.205
REMARK INTER:                  -6.297
REMARK INTRA:                  -4.908
REMARK UNBOUND:                -3.921
REMARK SMILES CCCCCCCCCCCCCCCCCCCCCCCC(=O)[O-]
REMARK SMILES IDX 13 1 14 2 15 3 16 4 17 5 18 6 19 7 20 8 21 9 22 10 23 11
REMARK SMILES IDX 24 12 25 13 26 14 12 15 11 16 10 17 9 18 8 19 7 20 6 21 5 22
REMARK SMILES IDX 4 23 3 24 2 25 1 26
REMARK H PARENT
REMARK Flexibility Score: inf
ROOT
ATOM      1  C   UNL     1      11.499  44.076 151.191  1.00  0.00     0.000 C 
ENDROOT
BRANCH   1   2
ATOM      2  C   UNL     1      12.737  43.710 152.020  1.00  0.00     0.000 C 
BRANCH   2   3
ATOM      3  C   UNL     1      12.486  43.946 153.517  1.00  0.00     0.000 C 
BRANCH   3   4
ATOM      4  C   UNL     1      12.073  42.665 154.261  1.00  0.00     0.000 C 
BRANCH   4   5
ATOM      5  C   UNL     1      10.549  42.455 154.283  1.00  0.00     0.000 C 
BRANCH   5   6
ATOM      6  C   UNL     1       9.978  42.467 155.711  1.00  0.00     0.000 C 
BRANCH   6   7
ATOM      7  C   UNL     1       9.175  43.744 156.014  1.00  0.00     0.000 C 
BRANCH   7   8
ATOM      8  C   UNL     1       8.939  44.604 154.762  1.00  0.00     0.000 C 
BRANCH   8   9
ATOM      9  C   UNL     1       9.654  45.964 154.841  1.00  0.00     0.000 C 
BRANCH   9  10
ATOM     10  C   UNL     1       9.690  46.699 153.488  1.00  0.00     0.006 C 
BRANCH  10  11
ATOM     11  C   UNL     1       8.821  46.058 152.394  1.00  0.00     0.053 C 
BRANCH  11  12
ATOM     12  C   UNL     1       7.921  47.056 151.732  1.00  0.00     0.041 C 
ATOM     13  O   UNL     1       6.911  46.669 151.089  1.00  0.00    -0.550 OA
ATOM     14  O   UNL     1       8.215  48.412 151.803  1.00  0.00    -0.550 OA
ENDBRANCH  11  12
ENDBRANCH  10  11
ENDBRANCH   9  10
ENDBRANCH   8   9
ENDBRANCH   7   8
ENDBRANCH   6   7
ENDBRANCH   5   6
ENDBRANCH   4   5
ENDBRANCH   3   4
ENDBRANCH   2   3
ENDBRANCH   1   2
BRANCH   1  15
ATOM     15  C   UNL     1      11.253  43.039 150.085  1.00  0.00     0.000 C 
BRANCH  15  16
ATOM     16  C   UNL     1      12.438  42.075 149.907  1.00  0.00     0.000 C 
BRANCH  16  17
ATOM     17  C   UNL     1      12.018  40.602 150.018  1.00  0.00     0.000 C 
BRANCH  17  18
ATOM     18  C   UNL     1      11.933  40.162 151.488  1.00  0.00    -0.000 C 
BRANCH  18  19
ATOM     19  C   UNL     1      10.500  39.758 151.895  1.00  0.00    -0.000 C 
BRANCH  19  20
ATOM     20  C   UNL     1       9.680  39.133 150.750  1.00  0.00    -0.000 C 
BRANCH  20  21
ATOM     21  C   UNL     1       8.281  39.742 150.545  1.00  0.00    -0.000 C 
BRANCH  21  22
ATOM     22  C   UNL     1       8.238  40.964 149.605  1.00  0.00    -0.000 C 
BRANCH  22  23
ATOM     23  C   UNL     1       7.538  42.194 150.222  1.00  0.00    -0.000 C 
BRANCH  23  24
ATOM     24  C   UNL     1       8.035  42.494 151.646  1.00  0.00    -0.000 C 
BRANCH  24  25
ATOM     25  C   UNL     1       6.899  42.505 152.681  1.00  0.00    -0.003 C 
ATOM     26  C   UNL     1       6.961  41.319 153.643  1.00  0.00     0.004 C 
ENDBRANCH  24  25
ENDBRANCH  23  24
ENDBRANCH  22  23
ENDBRANCH  21  22
ENDBRANCH  20  21
ENDBRANCH  19  20
ENDBRANCH  18  19
ENDBRANCH  17  18
ENDBRANCH  16  17
ENDBRANCH  15  16
ENDBRANCH   1  15
TORSDOF 22
ENDMDL
MODEL 4
REMARK VINA RESULT:    -3.166      2.267      5.170
REMARK INTER + INTRA:         -11.160
REMARK INTER:                  -6.557
REMARK INTRA:                  -4.603
REMARK UNBOUND:                -3.921
REMARK SMILES CCCCCCCCCCCCCCCCCCCCCCCC(=O)[O-]
REMARK SMILES IDX 13 1 14 2 15 3 16 4 17 5 18 6 19 7 20 8 21 9 22 10 23 11
REMARK SMILES IDX 24 12 25 13 26 14 12 15 11 16 10 17 9 18 8 19 7 20 6 21 5 22
REMARK SMILES IDX 4 23 3 24 2 25 1 26
REMARK H PARENT
REMARK Flexibility Score: inf
ROOT
ATOM      1  C   UNL     1      12.002  41.897 150.288  1.00  0.00     0.000 C 
ENDROOT
BRANCH   1   2
ATOM      2  C   UNL     1      12.034  40.811 151.371  1.00  0.00     0.000 C 
BRANCH   2   3
ATOM      3  C   UNL     1      11.378  39.515 150.870  1.00  0.00     0.000 C 
BRANCH   3   4
ATOM      4  C   UNL     1       9.960  39.312 151.426  1.00  0.00     0.000 C 
BRANCH   4   5
ATOM      5  C   UNL     1       9.721  40.072 152.742  1.00  0.00     0.000 C 
BRANCH   5   6
ATOM      6  C   UNL     1       8.398  40.854 152.735  1.00  0.00     0.000 C 
BRANCH   6   7
ATOM      7  C   UNL     1       8.275  41.794 151.522  1.00  0.00     0.000 C 
BRANCH   7   8
ATOM      8  C   UNL     1       8.529  43.266 151.888  1.00  0.00     0.000 C 
BRANCH   8   9
ATOM      9  C   UNL     1       7.822  44.239 150.928  1.00  0.00     0.000 C 
BRANCH   9  10
ATOM     10  C   UNL     1       8.802  45.184 150.208  1.00  0.00     0.006 C 
BRANCH  10  11
ATOM     11  C   UNL     1       9.623  44.517 149.093  1.00  0.00     0.053 C 
BRANCH  11  12
ATOM     12  C   UNL     1      10.728  45.401 148.600  1.00  0.00     0.041 C 
ATOM     13  O   UNL     1      11.075  45.365 147.391  1.00  0.00    -0.550 OA
ATOM     14  O   UNL     1      11.392  46.242 149.483  1.00  0.00    -0.550 OA
ENDBRANCH  11  12
ENDBRANCH  10  11
ENDBRANCH   9  10
ENDBRANCH   8   9
ENDBRANCH   7   8
ENDBRANCH   6   7
ENDBRANCH   5   6
ENDBRANCH   4   5
ENDBRANCH   3   4
ENDBRANCH   2   3
ENDBRANCH   1   2
BRANCH   1  15
ATOM     15  C   UNL     1      12.734  43.163 150.759  1.00  0.00     0.000 C 
BRANCH  15  16
ATOM     16  C   UNL     1      12.082  43.794 152.000  1.00  0.00     0.000 C 
BRANCH  16  17
ATOM     17  C   UNL     1      13.032  43.835 153.206  1.00  0.00     0.000 C 
BRANCH  17  18
ATOM     18  C   UNL     1      12.493  42.980 154.363  1.00  0.00    -0.000 C 
BRANCH  18  19
ATOM     19  C   UNL     1      10.957  43.063 154.484  1.00  0.00    -0.000 C 
BRANCH  19  20
ATOM     20  C   UNL     1      10.386  42.303 155.697  1.00  0.00    -0.000 C 
BRANCH  20  21
ATOM     21  C   UNL     1       9.216  43.004 156.412  1.00  0.00    -0.000 C 
BRANCH  21  22
ATOM     22  C   UNL     1       8.234  43.739 155.478  1.00  0.00    -0.000 C 
BRANCH  22  23
ATOM     23  C   UNL     1       7.895  45.171 155.942  1.00  0.00    -0.000 C 
BRANCH  23  24
ATOM     24  C   UNL     1       7.808  46.159 154.766  1.00  0.00    -0.000 C 
BRANCH  24  25
ATOM     25  C   UNL     1       9.076  46.164 153.900  1.00  0.00    -0.003 C 
ATOM     26  C   UNL     1      10.264  46.835 154.590  1.00  0.00     0.004 C 
ENDBRANCH  24  25
ENDBRANCH  23  24
ENDBRANCH  22  23
ENDBRANCH  21  22
ENDBRANCH  20  21
ENDBRANCH  19  20
ENDBRANCH  18  19
ENDBRANCH  17  18
ENDBRANCH  16  17
ENDBRANCH  15  16
ENDBRANCH   1  15
TORSDOF 22
ENDMDL
MODEL 5
REMARK VINA RESULT:    -3.156      3.043      6.708
REMARK INTER + INTRA:         -11.136
REMARK INTER:                  -6.590
REMARK INTRA:                  -4.546
REMARK UNBOUND:                -3.921
REMARK SMILES CCCCCCCCCCCCCCCCCCCCCCCC(=O)[O-]
REMARK SMILES IDX 13 1 14 2 15 3 16 4 17 5 18 6 19 7 20 8 21 9 22 10 23 11
REMARK SMILES IDX 24 12 25 13 26 14 12 15 11 16 10 17 9 18 8 19 7 20 6 21 5 22
REMARK SMILES IDX 4 23 3 24 2 25 1 26
REMARK H PARENT
REMARK Flexibility Score: inf
ROOT
ATOM      1  C   UNL     1      12.096  42.888 153.255  1.00  0.00     0.000 C 
ENDROOT
BRANCH   1   2
ATOM      2  C   UNL     1      11.532  41.687 152.484  1.00  0.00     0.000 C 
BRANCH   2   3
ATOM      3  C   UNL     1      12.080  41.649 151.049  1.00  0.00     0.000 C 
BRANCH   3   4
ATOM      4  C   UNL     1      12.060  40.237 150.442  1.00  0.00     0.000 C 
BRANCH   4   5
ATOM      5  C   UNL     1      11.079  39.293 151.160  1.00  0.00     0.000 C 
BRANCH   5   6
ATOM      6  C   UNL     1      10.434  38.280 150.201  1.00  0.00     0.000 C 
BRANCH   6   7
ATOM      7  C   UNL     1       8.937  38.556 149.971  1.00  0.00     0.000 C 
BRANCH   7   8
ATOM      8  C   UNL     1       8.541  39.997 150.331  1.00  0.00     0.000 C 
BRANCH   8   9
ATOM      9  C   UNL     1       7.384  40.052 151.343  1.00  0.00     0.000 C 
BRANCH   9  10
ATOM     10  C   UNL     1       7.846  40.451 152.757  1.00  0.00     0.006 C 
BRANCH  10  11
ATOM     11  C   UNL     1       6.840  41.314 153.534  1.00  0.00     0.053 C 
BRANCH  11  12
ATOM     12  C   UNL     1       5.486  40.678 153.605  1.00  0.00     0.041 C 
ATOM     13  O   UNL     1       4.508  41.204 153.013  1.00  0.00    -0.550 OA
ATOM     14  O   UNL     1       5.300  39.518 154.346  1.00  0.00    -0.550 OA
ENDBRANCH  11  12
ENDBRANCH  10  11
ENDBRANCH   9  10
ENDBRANCH   8   9
ENDBRANCH   7   8
ENDBRANCH   6   7
ENDBRANCH   5   6
ENDBRANCH   4   5
ENDBRANCH   3   4
ENDBRANCH   2   3
ENDBRANCH   1   2
BRANCH   1  15
ATOM     15  C   UNL     1      11.600  42.887 154.709  1.00  0.00     0.000 C 
BRANCH  15  16
ATOM     16  C   UNL     1      10.151  42.387 154.838  1.00  0.00     0.000 C 
BRANCH  16  17
ATOM     17  C   UNL     1       9.351  43.171 155.889  1.00  0.00     0.000 C 
BRANCH  17  18
ATOM     18  C   UNL     1       8.565  44.321 155.241  1.00  0.00    -0.000 C 
BRANCH  18  19
ATOM     19  C   UNL     1       9.254  45.687 155.443  1.00  0.00    -0.000 C 
BRANCH  19  20
ATOM     20  C   UNL     1      10.059  46.165 154.219  1.00  0.00    -0.000 C 
BRANCH  20  21
ATOM     21  C   UNL     1       9.267  46.218 152.900  1.00  0.00    -0.000 C 
BRANCH  21  22
ATOM     22  C   UNL     1       9.729  45.215 151.826  1.00  0.00    -0.000 C 
BRANCH  22  23
ATOM     23  C   UNL     1       8.799  43.992 151.680  1.00  0.00    -0.000 C 
BRANCH  23  24
ATOM     24  C   UNL     1       8.583  43.596 150.209  1.00  0.00    -0.000 C 
BRANCH  24  25
ATOM     25  C   UNL     1       9.810  43.885 149.330  1.00  0.00    -0.003 C 
ATOM     26  C   UNL     1       9.981  42.873 148.198  1.00  0.00     0.004 C 
ENDBRANCH  24  25
ENDBRANCH  23  24
ENDBRANCH  22  23
ENDBRANCH  21  22
ENDBRANCH  20  21
ENDBRANCH  19  20
ENDBRANCH  18  19
ENDBRANCH  17  18
ENDBRANCH  16  17
ENDBRANCH  15  16
ENDBRANCH   1  15
TORSDOF 22
ENDMDL
MODEL 6
REMARK VINA RESULT:    -3.146      1.637      3.664
REMARK INTER + INTRA:         -11.114
REMARK INTER:                  -6.436
REMARK INTRA:                  -4.678
REMARK UNBOUND:                -3.921
REMARK SMILES CCCCCCCCCCCCCCCCCCCCCCCC(=O)[O-]
REMARK SMILES IDX 13 1 14 2 15 3 16 4 17 5 18 6 19 7 20 8 21 9 22 10 23 11
REMARK SMILES IDX 24 12 25 13 26 14 12 15 11 16 10 17 9 18 8 19 7 20 6 21 5 22
REMARK SMILES IDX 4 23 3 24 2 25 1 26
REMARK H PARENT
REMARK Flexibility Score: inf
ROOT
ATOM      1  C   UNL     1       9.396  42.845 156.538  1.00  0.00     0.000 C 
ENDROOT
BRANCH   1   2
ATOM      2  C   UNL     1       8.986  44.268 156.136  1.00  0.00     0.000 C 
BRANCH   2   3
ATOM      3  C   UNL     1       7.458  44.395 156.044  1.00  0.00     0.000 C 
BRANCH   3   4
ATOM      4  C   UNL     1       6.811  43.245 155.257  1.00  0.00     0.000 C 
BRANCH   4   5
ATOM      5  C   UNL     1       5.733  43.729 154.272  1.00  0.00     0.000 C 
BRANCH   5   6
ATOM      6  C   UNL     1       6.240  44.855 153.356  1.00  0.00     0.000 C 
BRANCH   6   7
ATOM      7  C   UNL     1       6.837  44.323 152.041  1.00  0.00     0.000 C 
BRANCH   7   8
ATOM      8  C   UNL     1       8.367  44.463 151.988  1.00  0.00     0.000 C 
BRANCH   8   9
ATOM      9  C   UNL     1       8.818  45.640 151.106  1.00  0.00     0.000 C 
BRANCH   9  10
ATOM     10  C   UNL     1       9.808  46.577 151.822  1.00  0.00     0.006 C 
BRANCH  10  11
ATOM     11  C   UNL     1       9.737  46.523 153.357  1.00  0.00     0.053 C 
BRANCH  11  12
ATOM     12  C   UNL     1       9.123  47.760 153.937  1.00  0.00     0.041 C 
ATOM     13  O   UNL     1       8.156  47.671 154.737  1.00  0.00    -0.550 OA
ATOM     14  O   UNL     1       9.602  49.011 153.572  1.00  0.00    -0.550 OA
ENDBRANCH  11  12
ENDBRANCH  10  11
ENDBRANCH   9  10
ENDBRANCH   8   9
ENDBRANCH   7   8
ENDBRANCH   6   7
ENDBRANCH   5   6
ENDBRANCH   4   5
ENDBRANCH   3   4
ENDBRANCH   2   3
ENDBRANCH   1   2
BRANCH   1  15
ATOM     15  C   UNL     1      10.541  42.334 155.651  1.00  0.00     0.000 C 
BRANCH  15  16
ATOM     16  C   UNL     1      10.844  43.279 154.475  1.00  0.00     0.000 C 
BRANCH  16  17
ATOM     17  C   UNL     1      12.027  42.794 153.623  1.00  0.00     0.000 C 
BRANCH  17  18
ATOM     18  C   UNL     1      11.884  43.260 152.166  1.00  0.00    -0.000 C 
BRANCH  18  19
ATOM     19  C   UNL     1      11.895  42.080 151.171  1.00  0.00    -0.000 C 
BRANCH  19  20
ATOM     20  C   UNL     1      11.839  40.696 151.847  1.00  0.00    -0.000 C 
BRANCH  20  21
ATOM     21  C   UNL     1      10.488  39.968 151.727  1.00  0.00    -0.000 C 
BRANCH  21  22
ATOM     22  C   UNL     1       9.604  40.031 152.987  1.00  0.00    -0.000 C 
BRANCH  22  23
ATOM     23  C   UNL     1       8.437  41.036 152.875  1.00  0.00    -0.000 C 
BRANCH  23  24
ATOM     24  C   UNL     1       7.066  40.341 152.888  1.00  0.00    -0.000 C 
BRANCH  24  25
ATOM     25  C   UNL     1       6.230  40.654 151.637  1.00  0.00    -0.003 C 
ATOM     26  C   UNL     1       6.686  39.872 150.406  1.00  0.00     0.004 C 
ENDBRANCH  24  25
ENDBRANCH  23  24
ENDBRANCH  22  23
ENDBRANCH  21  22
ENDBRANCH  20  21
ENDBRANCH  19  20
ENDBRANCH  18  19
ENDBRANCH  17  18
ENDBRANCH  16  17
ENDBRANCH  15  16
ENDBRANCH   1  15
TORSDOF 22
ENDMDL
MODEL 7
REMARK VINA RESULT:    -3.140      3.519      7.456
REMARK INTER + INTRA:         -11.101
REMARK INTER:                  -6.815
REMARK INTRA:                  -4.286
REMARK UNBOUND:                -3.921
REMARK SMILES CCCCCCCCCCCCCCCCCCCCCCCC(=O)[O-]
REMARK SMILES IDX 13 1 14 2 15 3 16 4 17 5 18 6 19 7 20 8 21 9 22 10 23 11
REMARK SMILES IDX 24 12 25 13 26 14 12 15 11 16 10 17 9 18 8 19 7 20 6 21 5 22
REMARK SMILES IDX 4 23 3 24 2 25 1 26
REMARK H PARENT
REMARK Flexibility Score: inf
ROOT
ATOM      1  C   UNL     1       7.260  43.194 154.280  1.00  0.00     0.000 C 
ENDROOT
BRANCH   1   2
ATOM      2  C   UNL     1       8.647  43.087 153.632  1.00  0.00     0.000 C 
BRANCH   2   3
ATOM      3  C   UNL     1       9.540  42.102 154.400  1.00  0.00     0.000 C 
BRANCH   3   4
ATOM      4  C   UNL     1      10.899  42.707 154.786  1.00  0.00     0.000 C 
BRANCH   4   5
ATOM      5  C   UNL     1      11.327  43.854 153.854  1.00  0.00     0.000 C 
BRANCH   5   6
ATOM      6  C   UNL     1      12.745  43.656 153.296  1.00  0.00     0.000 C 
BRANCH   6   7
ATOM      7  C   UNL     1      12.780  43.659 151.757  1.00  0.00     0.000 C 
BRANCH   7   8
ATOM      8  C   UNL     1      11.625  42.855 151.140  1.00  0.00     0.000 C 
BRANCH   8   9
ATOM      9  C   UNL     1      12.056  41.441 150.713  1.00  0.00     0.000 C 
BRANCH   9  10
ATOM     10  C   UNL     1      11.769  40.379 151.791  1.00  0.00     0.006 C 
BRANCH  10  11
ATOM     11  C   UNL     1      10.389  39.713 151.675  1.00  0.00     0.053 C 
BRANCH  11  12
ATOM     12  C   UNL     1      10.198  39.039 150.351  1.00  0.00     0.041 C 
ATOM     13  O   UNL     1      10.838  37.990 150.077  1.00  0.00    -0.550 OA
ATOM     14  O   UNL     1       9.334  39.584 149.410  1.00  0.00    -0.550 OA
ENDBRANCH  11  12
ENDBRANCH  10  11
ENDBRANCH   9  10
ENDBRANCH   8   9
ENDBRANCH   7   8
ENDBRANCH   6   7
ENDBRANCH   5   6
ENDBRANCH   4   5
ENDBRANCH   3   4
ENDBRANCH   2   3
ENDBRANCH   1   2
BRANCH   1  15
ATOM     15  C   UNL     1       7.094  44.539 155.002  1.00  0.00     0.000 C 
BRANCH  15  16
ATOM     16  C   UNL     1       7.673  44.520 156.427  1.00  0.00     0.000 C 
BRANCH  16  17
ATOM     17  C   UNL     1       8.806  45.540 156.614  1.00  0.00     0.000 C 
BRANCH  17  18
ATOM     18  C   UNL     1       8.662  46.711 155.630  1.00  0.00    -0.000 C 
BRANCH  18  19
ATOM     19  C   UNL     1       9.982  47.021 154.893  1.00  0.00    -0.000 C 
BRANCH  19  20
ATOM     20  C   UNL     1       9.783  47.592 153.475  1.00  0.00    -0.000 C 
BRANCH  20  21
ATOM     21  C   UNL     1       9.056  46.656 152.493  1.00  0.00    -0.000 C 
BRANCH  21  22
ATOM     22  C   UNL     1       9.928  46.126 151.337  1.00  0.00    -0.000 C 
BRANCH  22  23
ATOM     23  C   UNL     1       9.358  46.442 149.938  1.00  0.00    -0.000 C 
BRANCH  23  24
ATOM     24  C   UNL     1      10.369  46.146 148.817  1.00  0.00    -0.000 C 
BRANCH  24  25
ATOM     25  C   UNL     1      11.821  46.122 149.318  1.00  0.00    -0.003 C 
ATOM     26  C   UNL     1      12.828  45.818 148.209  1.00  0.00     0.004 C 
ENDBRANCH  24  25
ENDBRANCH  23  24
ENDBRANCH  22  23
ENDBRANCH  21  22
ENDBRANCH  20  21
ENDBRANCH  19  20
ENDBRANCH  18  19
ENDBRANCH  17  18
ENDBRANCH  16  17
ENDBRANCH  15  16
ENDBRANCH   1  15
TORSDOF 22
ENDMDL
MODEL 8
REMARK VINA RESULT:    -3.134      1.688      3.410
REMARK INTER + INTRA:         -11.086
REMARK INTER:                  -6.384
REMARK INTRA:                  -4.701
REMARK UNBOUND:                -3.921
REMARK SMILES CCCCCCCCCCCCCCCCCCCCCCCC(=O)[O-]
REMARK SMILES IDX 13 1 14 2 15 3 16 4 17 5 18 6 19 7 20 8 21 9 22 10 23 11
REMARK SMILES IDX 24 12 25 13 26 14 12 15 11 16 10 17 9 18 8 19 7 20 6 21 5 22
REMARK SMILES IDX 4 23 3 24 2 25 1 26
REMARK H PARENT
REMARK Flexibility Score: inf
ROOT
ATOM      1  C   UNL     1      11.768  43.065 151.659  1.00  0.00     0.000 C 
ENDROOT
BRANCH   1   2
ATOM      2  C   UNL     1      12.767  43.567 152.710  1.00  0.00     0.000 C 
BRANCH   2   3
ATOM      3  C   UNL     1      12.173  43.471 154.123  1.00  0.00     0.000 C 
BRANCH   3   4
ATOM      4  C   UNL     1      11.073  42.403 154.236  1.00  0.00     0.000 C 
BRANCH   4   5
ATOM      5  C   UNL     1      10.181  42.595 155.475  1.00  0.00     0.000 C 
BRANCH   5   6
ATOM      6  C   UNL     1       9.126  43.693 155.272  1.00  0.00     0.000 C 
BRANCH   6   7
ATOM      7  C   UNL     1       8.307  43.495 153.984  1.00  0.00     0.000 C 
BRANCH   7   8
ATOM      8  C   UNL     1       8.091  44.808 153.214  1.00  0.00     0.000 C 
BRANCH   8   9
ATOM      9  C   UNL     1       9.417  45.490 152.836  1.00  0.00     0.000 C 
BRANCH   9  10
ATOM     10  C   UNL     1       9.473  46.967 153.270  1.00  0.00     0.006 C 
BRANCH  10  11
ATOM     11  C   UNL     1      10.221  47.213 154.590  1.00  0.00     0.053 C 
BRANCH  11  12
ATOM     12  C   UNL     1       9.308  47.696 155.675  1.00  0.00     0.041 C 
ATOM     13  O   UNL     1       9.656  48.651 156.417  1.00  0.00    -0.550 OA
ATOM     14  O   UNL     1       8.084  47.073 155.883  1.00  0.00    -0.550 OA
ENDBRANCH  11  12
ENDBRANCH  10  11
ENDBRANCH   9  10
ENDBRANCH   8   9
ENDBRANCH   7   8
ENDBRANCH   6   7
ENDBRANCH   5   6
ENDBRANCH   4   5
ENDBRANCH   3   4
ENDBRANCH   2   3
ENDBRANCH   1   2
BRANCH   1  15
ATOM     15  C   UNL     1      12.500  42.539 150.415  1.00  0.00     0.000 C 
BRANCH  15  16
ATOM     16  C   UNL     1      12.049  41.123 150.019  1.00  0.00     0.000 C 
BRANCH  16  17
ATOM     17  C   UNL     1      11.942  40.182 151.229  1.00  0.00     0.000 C 
BRANCH  17  18
ATOM     18  C   UNL     1      10.603  39.428 151.225  1.00  0.00    -0.000 C 
BRANCH  18  19
ATOM     19  C   UNL     1       9.551  40.100 152.133  1.00  0.00    -0.000 C 
BRANCH  19  20
ATOM     20  C   UNL     1       8.201  40.359 151.436  1.00  0.00    -0.000 C 
BRANCH  20  21
ATOM     21  C   UNL     1       8.282  41.215 150.159  1.00  0.00    -0.000 C 
BRANCH  21  22
ATOM     22  C   UNL     1       8.423  42.731 150.404  1.00  0.00    -0.000 C 
BRANCH  22  23
ATOM     23  C   UNL     1       9.039  43.495 149.212  1.00  0.00    -0.000 C 
BRANCH  23  24
ATOM     24  C   UNL     1       8.290  44.804 148.910  1.00  0.00    -0.000 C 
BRANCH  24  25
ATOM     25  C   UNL     1       9.197  46.041 149.004  1.00  0.00    -0.003 C 
ATOM     26  C   UNL     1      10.641  45.694 149.363  1.00  0.00     0.004 C 
ENDBRANCH  24  25
ENDBRANCH  23  24
ENDBRANCH  22  23
ENDBRANCH  21  22
ENDBRANCH  20  21
ENDBRANCH  19  20
ENDBRANCH  18  19
ENDBRANCH  17  18
ENDBRANCH  16  17
ENDBRANCH  15  16
ENDBRANCH   1  15
TORSDOF 22
ENDMDL
MODEL 9
REMARK VINA RESULT:    -3.124      1.677      3.352
REMARK INTER + INTRA:         -11.063
REMARK INTER:                  -6.074
REMARK INTRA:                  -4.989
REMARK UNBOUND:                -3.921
REMARK SMILES CCCCCCCCCCCCCCCCCCCCCCCC(=O)[O-]
REMARK SMILES IDX 13 1 14 2 15 3 16 4 17 5 18 6 19 7 20 8 21 9 22 10 23 11
REMARK SMILES IDX 24 12 25 13 26 14 12 15 11 16 10 17 9 18 8 19 7 20 6 21 5 22
REMARK SMILES IDX 4 23 3 24 2 25 1 26
REMARK H PARENT
REMARK Flexibility Score: inf
ROOT
ATOM      1  C   UNL     1      12.054  42.574 153.615  1.00  0.00     0.000 C 
ENDROOT
BRANCH   1   2
ATOM      2  C   UNL     1      11.036  43.321 154.488  1.00  0.00     0.000 C 
BRANCH   2   3
ATOM      3  C   UNL     1      10.336  42.360 155.461  1.00  0.00     0.000 C 
BRANCH   3   4
ATOM      4  C   UNL     1       9.413  43.085 156.453  1.00  0.00     0.000 C 
BRANCH   4   5
ATOM      5  C   UNL     1       7.995  43.303 155.897  1.00  0.00     0.000 C 
BRANCH   5   6
ATOM      6  C   UNL     1       7.631  44.793 155.792  1.00  0.00     0.000 C 
BRANCH   6   7
ATOM      7  C   UNL     1       8.828  45.716 156.087  1.00  0.00     0.000 C 
BRANCH   7   8
ATOM      8  C   UNL     1       8.886  46.926 155.141  1.00  0.00     0.000 C 
BRANCH   8   9
ATOM      9  C   UNL     1       9.991  46.788 154.079  1.00  0.00     0.000 C 
BRANCH   9  10
ATOM     10  C   UNL     1       9.483  46.160 152.768  1.00  0.00     0.006 C 
BRANCH  10  11
ATOM     11  C   UNL     1       7.983  46.367 152.504  1.00  0.00     0.053 C 
BRANCH  11  12
ATOM     12  C   UNL     1       7.735  47.327 151.382  1.00  0.00     0.041 C 
ATOM     13  O   UNL     1       8.673  47.652 150.608  1.00  0.00    -0.550 OA
ATOM     14  O   UNL     1       6.474  47.884 151.208  1.00  0.00    -0.550 OA
ENDBRANCH  11  12
ENDBRANCH  10  11
ENDBRANCH   9  10
ENDBRANCH   8   9
ENDBRANCH   7   8
ENDBRANCH   6   7
ENDBRANCH   5   6
ENDBRANCH   4   5
ENDBRANCH   3   4
ENDBRANCH   2   3
ENDBRANCH   1   2
BRANCH   1  15
ATOM     15  C   UNL     1      11.979  43.052 152.157  1.00  0.00     0.000 C 
BRANCH  15  16
ATOM     16  C   UNL     1      11.943  41.885 151.155  1.00  0.00     0.000 C 
BRANCH  16  17
ATOM     17  C   UNL     1      11.901  40.516 151.849  1.00  0.00     0.000 C 
BRANCH  17  18
ATOM     18  C   UNL     1      11.046  39.519 151.052  1.00  0.00    -0.000 C 
BRANCH  18  19
ATOM     19  C   UNL     1       9.535  39.730 151.284  1.00  0.00    -0.000 C 
BRANCH  19  20
ATOM     20  C   UNL     1       9.184  40.205 152.707  1.00  0.00    -0.000 C 
BRANCH  20  21
ATOM     21  C   UNL     1       7.996  41.181 152.792  1.00  0.00    -0.000 C 
BRANCH  21  22
ATOM     22  C   UNL     1       8.302  42.616 152.317  1.00  0.00    -0.000 C 
BRANCH  22  23
ATOM     23  C   UNL     1       7.674  42.962 150.951  1.00  0.00    -0.000 C 
BRANCH  23  24
ATOM     24  C   UNL     1       8.718  43.000 149.822  1.00  0.00    -0.000 C 
BRANCH  24  25
ATOM     25  C   UNL     1       8.937  44.415 149.264  1.00  0.00    -0.003 C 
ATOM     26  C   UNL     1      10.401  44.852 149.312  1.00  0.00     0.004 C 
ENDBRANCH  24  25
ENDBRANCH  23  24
ENDBRANCH  22  23
ENDBRANCH  21  22
ENDBRANCH  20  21
ENDBRANCH  19  20
ENDBRANCH  18  19
ENDBRANCH  17  18
ENDBRANCH  16  17
ENDBRANCH  15  16
ENDBRANCH   1  15
TORSDOF 22
ENDMDL
