MODEL 1
REMARK VINA RESULT:    39.879      0.000      0.000
REMARK INTER + INTRA:          48.189
REMARK INTER:                  48.039
REMARK INTRA:                   0.151
REMARK UNBOUND:                 0.151
REMARK SMILES O=c1c(O)c(-c2ccc(O)c(O)c2)oc2cc(O)cc(O)c12
REMARK SMILES IDX 5 1 3 2 2 3 1 4 22 5 20 6 19 7 17 8 16 9 15 10 14 11 6 12
REMARK SMILES IDX 7 13 8 14 9 15 13 16 11 17 10 18 12 20 4 22 21 24 18 26
REMARK H PARENT 10 19 12 21 4 23 21 25 18 27
REMARK Flexibility Score: inf
ROOT
ATOM      1  C   UNL     1      31.202  11.633  -1.433  1.00  0.00     0.180 A 
ATOM      2  C   UNL     1      29.885  11.626  -0.938  1.00  0.00     0.208 A 
ATOM      3  C   UNL     1      29.397  10.466  -0.318  1.00  0.00     0.238 A 
ATOM      4  O   UNL     1      28.201  10.447   0.073  1.00  0.00    -0.285 OA
ATOM      5  C   UNL     1      30.234   9.332  -0.185  1.00  0.00     0.111 A 
ATOM      6  C   UNL     1      29.857   8.117   0.461  1.00  0.00     0.134 A 
ATOM      7  C   UNL     1      30.720   7.016   0.420  1.00  0.00     0.093 A 
ATOM      8  C   UNL     1      31.972   7.104  -0.187  1.00  0.00     0.123 A 
ATOM      9  C   UNL     1      32.376   8.306  -0.770  1.00  0.00     0.094 A 
ATOM     10  C   UNL     1      31.522   9.411  -0.776  1.00  0.00     0.146 A 
ATOM     11  O   UNL     1      31.940  10.533  -1.351  1.00  0.00    -0.452 OA
ENDROOT
BRANCH   1  12
ATOM     12  C   UNL     1      31.795  12.827  -2.077  1.00  0.00     0.025 A 
ATOM     13  C   UNL     1      33.124  13.211  -1.826  1.00  0.00     0.016 A 
ATOM     14  C   UNL     1      33.669  14.328  -2.464  1.00  0.00     0.051 A 
ATOM     15  C   UNL     1      32.902  15.069  -3.373  1.00  0.00     0.157 A 
ATOM     16  C   UNL     1      31.037  13.561  -3.005  1.00  0.00     0.062 A 
ATOM     17  C   UNL     1      31.579  14.680  -3.645  1.00  0.00     0.158 A 
BRANCH  15  18
ATOM     18  O   UNL     1      33.449  16.183  -4.006  1.00  0.00    -0.504 OA
ATOM     19  H   UNL     1      34.143  16.765  -3.552  1.00  0.00     0.293 HD
ENDBRANCH  15  18
BRANCH  17  20
ATOM     20  O   UNL     1      30.791  15.392  -4.548  1.00  0.00    -0.504 OA
ATOM     21  H   UNL     1      30.245  16.197  -4.267  1.00  0.00     0.293 HD
ENDBRANCH  17  20
ENDBRANCH   1  12
BRANCH   2  22
ATOM     22  O   UNL     1      29.068  12.748  -1.100  1.00  0.00    -0.502 OA
ATOM     23  H   UNL     1      28.318  12.972  -0.458  1.00  0.00     0.293 HD
ENDBRANCH   2  22
BRANCH   6  24
ATOM     24  O   UNL     1      28.667   7.951   1.176  1.00  0.00    -0.507 OA
ATOM     25  H   UNL     1      28.199   7.069   1.316  1.00  0.00     0.293 HD
ENDBRANCH   6  24
BRANCH   8  26
ATOM     26  O   UNL     1      32.812   5.992  -0.196  1.00  0.00    -0.508 OA
ATOM     27  H   UNL     1      32.541   5.128  -0.652  1.00  0.00     0.293 HD
ENDBRANCH   8  26
TORSDOF 6
ENDMDL
MODEL 2
REMARK VINA RESULT:    41.416      1.857      7.066
REMARK INTER + INTRA:          50.040
REMARK INTER:                  50.223
REMARK INTRA:                  -0.182
REMARK UNBOUND:                 0.151
REMARK SMILES O=c1c(O)c(-c2ccc(O)c(O)c2)oc2cc(O)cc(O)c12
REMARK SMILES IDX 5 1 3 2 2 3 1 4 22 5 20 6 19 7 17 8 16 9 15 10 14 11 6 12
REMARK SMILES IDX 7 13 8 14 9 15 13 16 11 17 10 18 12 20 4 22 21 24 18 26
REMARK H PARENT 10 19 12 21 4 23 21 25 18 27
REMARK Flexibility Score: inf
ROOT
ATOM      1  C   UNL     1      31.122  11.319  -1.000  1.00  0.00     0.180 A 
ATOM      2  C   UNL     1      32.202  11.661  -0.167  1.00  0.00     0.208 A 
ATOM      3  C   UNL     1      32.956  12.807  -0.463  1.00  0.00     0.238 A 
ATOM      4  O   UNL     1      33.954  13.077   0.255  1.00  0.00    -0.285 OA
ATOM      5  C   UNL     1      32.611  13.607  -1.579  1.00  0.00     0.111 A 
ATOM      6  C   UNL     1      33.280  14.812  -1.949  1.00  0.00     0.134 A 
ATOM      7  C   UNL     1      32.938  15.453  -3.146  1.00  0.00     0.093 A 
ATOM      8  C   UNL     1      31.908  14.970  -3.953  1.00  0.00     0.123 A 
ATOM      9  C   UNL     1      31.207  13.826  -3.569  1.00  0.00     0.094 A 
ATOM     10  C   UNL     1      31.549  13.144  -2.399  1.00  0.00     0.146 A 
ATOM     11  O   UNL     1      30.865  12.054  -2.076  1.00  0.00    -0.452 OA
ENDROOT
BRANCH   1  12
ATOM     12  C   UNL     1      30.266  10.140  -0.737  1.00  0.00     0.025 A 
ATOM     13  C   UNL     1      30.281   9.020  -1.587  1.00  0.00     0.016 A 
ATOM     14  C   UNL     1      29.483   7.909  -1.305  1.00  0.00     0.051 A 
ATOM     15  C   UNL     1      28.671   7.891  -0.163  1.00  0.00     0.157 A 
ATOM     16  C   UNL     1      29.467  10.109   0.418  1.00  0.00     0.062 A 
ATOM     17  C   UNL     1      28.667   8.998   0.703  1.00  0.00     0.158 A 
BRANCH  15  18
ATOM     18  O   UNL     1      27.875   6.781   0.114  1.00  0.00    -0.504 OA
ATOM     19  H   UNL     1      27.575   6.147  -0.618  1.00  0.00     0.293 HD
ENDBRANCH  15  18
BRANCH  17  20
ATOM     20  O   UNL     1      27.875   9.010   1.851  1.00  0.00    -0.504 OA
ATOM     21  H   UNL     1      27.514   8.159   2.264  1.00  0.00     0.293 HD
ENDBRANCH  17  20
ENDBRANCH   1  12
BRANCH   2  22
ATOM     22  O   UNL     1      32.538  10.844   0.917  1.00  0.00    -0.502 OA
ATOM     23  H   UNL     1      31.869  10.228   1.362  1.00  0.00     0.293 HD
ENDBRANCH   2  22
BRANCH   6  24
ATOM     24  O   UNL     1      34.261  15.432  -1.169  1.00  0.00    -0.507 OA
ATOM     25  H   UNL     1      35.247  15.437  -1.383  1.00  0.00     0.293 HD
ENDBRANCH   6  24
BRANCH   8  26
ATOM     26  O   UNL     1      31.584  15.641  -5.129  1.00  0.00    -0.508 OA
ATOM     27  H   UNL     1      30.791  16.272  -5.178  1.00  0.00     0.293 HD
ENDBRANCH   8  26
TORSDOF 6
ENDMDL
