MODEL 1
REMARK VINA RESULT:    -0.593      0.000      0.000
REMARK INTER + INTRA:          -0.953
REMARK INTER:                  -0.696
REMARK INTRA:                  -0.256
REMARK UNBOUND:                -0.256
REMARK SMILES O=c1c(O)c(-c2ccc(O)cc2)oc2cc(O)cc(O)c12
REMARK SMILES IDX 5 1 3 2 2 3 1 4 21 5 19 6 18 7 16 8 15 9 14 10 13 11 6 12
REMARK SMILES IDX 7 13 8 14 9 15 12 16 11 17 10 18 4 20 20 22 17 24
REMARK H PARENT 10 19 4 21 20 23 17 25
REMARK Flexibility Score: inf
ROOT
ATOM      1  C   UNL     1     -18.900   9.063  26.578  1.00  0.00     0.180 A 
ATOM      2  C   UNL     1     -17.541   8.884  26.890  1.00  0.00     0.208 A 
ATOM      3  C   UNL     1     -16.588   8.994  25.865  1.00  0.00     0.238 A 
ATOM      4  O   UNL     1     -15.382   8.760  26.135  1.00  0.00    -0.285 OA
ATOM      5  C   UNL     1     -16.998   9.337  24.553  1.00  0.00     0.111 A 
ATOM      6  C   UNL     1     -16.113   9.520  23.447  1.00  0.00     0.134 A 
ATOM      7  C   UNL     1     -16.643   9.753  22.171  1.00  0.00     0.093 A 
ATOM      8  C   UNL     1     -18.020   9.875  21.973  1.00  0.00     0.123 A 
ATOM      9  C   UNL     1     -18.887   9.753  23.055  1.00  0.00     0.094 A 
ATOM     10  C   UNL     1     -18.393   9.481  24.333  1.00  0.00     0.146 A 
ATOM     11  O   UNL     1     -19.257   9.351  25.332  1.00  0.00    -0.452 OA
ENDROOT
BRANCH   1  12
ATOM     12  C   UNL     1     -19.965   8.948  27.600  1.00  0.00     0.021 A 
ATOM     13  C   UNL     1     -20.400   7.695  28.069  1.00  0.00     0.016 A 
ATOM     14  C   UNL     1     -21.425   7.612  29.017  1.00  0.00     0.047 A 
ATOM     15  C   UNL     1     -22.035   8.777  29.497  1.00  0.00     0.115 A 
ATOM     16  C   UNL     1     -20.597  10.110  28.072  1.00  0.00     0.016 A 
ATOM     17  C   UNL     1     -21.621  10.023  29.021  1.00  0.00     0.047 A 
BRANCH  15  18
ATOM     18  O   UNL     1     -23.057   8.706  30.443  1.00  0.00    -0.508 OA
ATOM     19  H   UNL     1     -23.966   8.322  30.212  1.00  0.00     0.293 HD
ENDBRANCH  15  18
ENDBRANCH   1  12
BRANCH   2  20
ATOM     20  O   UNL     1     -17.150   8.622  28.205  1.00  0.00    -0.502 OA
ATOM     21  H   UNL     1     -16.509   7.874  28.443  1.00  0.00     0.293 HD
ENDBRANCH   2  20
BRANCH   6  22
ATOM     22  O   UNL     1     -14.718   9.507  23.549  1.00  0.00    -0.507 OA
ATOM     23  H   UNL     1     -14.198   9.063  24.289  1.00  0.00     0.293 HD
ENDBRANCH   6  22
BRANCH   8  24
ATOM     24  O   UNL     1     -18.536  10.125  20.704  1.00  0.00    -0.508 OA
ATOM     25  H   UNL     1     -19.209   9.502  20.273  1.00  0.00     0.293 HD
ENDBRANCH   8  24
TORSDOF 5
ENDMDL
MODEL 2
REMARK VINA RESULT:    -0.298      0.133      1.065
REMARK INTER + INTRA:          -0.607
REMARK INTER:                  -0.391
REMARK INTRA:                  -0.216
REMARK UNBOUND:                -0.256
REMARK SMILES O=c1c(O)c(-c2ccc(O)cc2)oc2cc(O)cc(O)c12
REMARK SMILES IDX 5 1 3 2 2 3 1 4 21 5 19 6 18 7 16 8 15 9 14 10 13 11 6 12
REMARK SMILES IDX 7 13 8 14 9 15 12 16 11 17 10 18 4 20 20 22 17 24
REMARK H PARENT 10 19 4 21 20 23 17 25
REMARK Flexibility Score: inf
ROOT
ATOM      1  C   UNL     1     -18.883   9.076  26.461  1.00  0.00     0.180 A 
ATOM      2  C   UNL     1     -17.523   8.890  26.763  1.00  0.00     0.208 A 
ATOM      3  C   UNL     1     -16.576   8.993  25.732  1.00  0.00     0.238 A 
ATOM      4  O   UNL     1     -15.370   8.753  25.994  1.00  0.00    -0.285 OA
ATOM      5  C   UNL     1     -16.994   9.335  24.422  1.00  0.00     0.111 A 
ATOM      6  C   UNL     1     -16.116   9.512  23.309  1.00  0.00     0.134 A 
ATOM      7  C   UNL     1     -16.654   9.745  22.037  1.00  0.00     0.093 A 
ATOM      8  C   UNL     1     -18.031   9.875  21.849  1.00  0.00     0.123 A 
ATOM      9  C   UNL     1     -18.891   9.760  22.937  1.00  0.00     0.094 A 
ATOM     10  C   UNL     1     -18.390   9.487  24.212  1.00  0.00     0.146 A 
ATOM     11  O   UNL     1     -19.247   9.364  25.217  1.00  0.00    -0.452 OA
ENDROOT
BRANCH   1  12
ATOM     12  C   UNL     1     -19.941   8.969  27.491  1.00  0.00     0.021 A 
ATOM     13  C   UNL     1     -20.569  10.112  28.019  1.00  0.00     0.016 A 
ATOM     14  C   UNL     1     -21.549   9.985  29.009  1.00  0.00     0.047 A 
ATOM     15  C   UNL     1     -21.903   8.719  29.492  1.00  0.00     0.115 A 
ATOM     16  C   UNL     1     -20.288   7.704  27.996  1.00  0.00     0.016 A 
ATOM     17  C   UNL     1     -21.269   7.582  28.986  1.00  0.00     0.047 A 
BRANCH  15  18
ATOM     18  O   UNL     1     -22.878   8.582  30.478  1.00  0.00    -0.508 OA
ATOM     19  H   UNL     1     -23.675   9.207  30.524  1.00  0.00     0.293 HD
ENDBRANCH  15  18
ENDBRANCH   1  12
BRANCH   2  20
ATOM     20  O   UNL     1     -17.124   8.628  28.077  1.00  0.00    -0.502 OA
ATOM     21  H   UNL     1     -16.191   8.306  28.307  1.00  0.00     0.293 HD
ENDBRANCH   2  20
BRANCH   6  22
ATOM     22  O   UNL     1     -14.721   9.491  23.402  1.00  0.00    -0.507 OA
ATOM     23  H   UNL     1     -14.178  10.014  24.071  1.00  0.00     0.293 HD
ENDBRANCH   6  22
BRANCH   8  24
ATOM     24  O   UNL     1     -18.555  10.125  20.583  1.00  0.00    -0.508 OA
ATOM     25  H   UNL     1     -18.938  11.030  20.336  1.00  0.00     0.293 HD
ENDBRANCH   8  24
TORSDOF 5
ENDMDL
MODEL 3
REMARK VINA RESULT:     1.971      1.115      1.291
REMARK INTER + INTRA:           2.061
REMARK INTER:                   1.785
REMARK INTRA:                   0.275
REMARK UNBOUND:                -0.256
REMARK SMILES O=c1c(O)c(-c2ccc(O)cc2)oc2cc(O)cc(O)c12
REMARK SMILES IDX 5 1 3 2 2 3 1 4 21 5 19 6 18 7 16 8 15 9 14 10 13 11 6 12
REMARK SMILES IDX 7 13 8 14 9 15 12 16 11 17 10 18 4 20 20 22 17 24
REMARK H PARENT 10 19 4 21 20 23 17 25
REMARK Flexibility Score: inf
ROOT
ATOM      1  C   UNL     1     -19.394   9.338  27.378  1.00  0.00     0.180 A 
ATOM      2  C   UNL     1     -18.119   8.894  27.771  1.00  0.00     0.208 A 
ATOM      3  C   UNL     1     -17.112   8.774  26.800  1.00  0.00     0.238 A 
ATOM      4  O   UNL     1     -15.995   8.307  27.143  1.00  0.00    -0.285 OA
ATOM      5  C   UNL     1     -17.374   9.151  25.460  1.00  0.00     0.111 A 
ATOM      6  C   UNL     1     -16.416   9.114  24.402  1.00  0.00     0.134 A 
ATOM      7  C   UNL     1     -16.819   9.409  23.094  1.00  0.00     0.093 A 
ATOM      8  C   UNL     1     -18.130   9.804  22.816  1.00  0.00     0.123 A 
ATOM      9  C   UNL     1     -19.058   9.897  23.849  1.00  0.00     0.094 A 
ATOM     10  C   UNL     1     -18.697   9.570  25.158  1.00  0.00     0.146 A 
ATOM     11  O   UNL     1     -19.619   9.653  26.109  1.00  0.00    -0.452 OA
ENDROOT
BRANCH   1  12
ATOM     12  C   UNL     1     -20.511   9.476  28.341  1.00  0.00     0.021 A 
ATOM     13  C   UNL     1     -21.842   9.230  27.960  1.00  0.00     0.016 A 
ATOM     14  C   UNL     1     -22.882   9.392  28.881  1.00  0.00     0.047 A 
ATOM     15  C   UNL     1     -22.606   9.813  30.187  1.00  0.00     0.115 A 
ATOM     16  C   UNL     1     -20.245   9.918  29.648  1.00  0.00     0.016 A 
ATOM     17  C   UNL     1     -21.287  10.078  30.566  1.00  0.00     0.047 A 
BRANCH  15  18
ATOM     18  O   UNL     1     -23.634   9.976  31.113  1.00  0.00    -0.508 OA
ATOM     19  H   UNL     1     -23.445  10.234  32.075  1.00  0.00     0.293 HD
ENDBRANCH  15  18
ENDBRANCH   1  12
BRANCH   2  20
ATOM     20  O   UNL     1     -17.858   8.601  29.112  1.00  0.00    -0.502 OA
ATOM     21  H   UNL     1     -18.380   9.020  29.871  1.00  0.00     0.293 HD
ENDBRANCH   2  20
BRANCH   6  22
ATOM     22  O   UNL     1     -15.061   8.818  24.584  1.00  0.00    -0.507 OA
ATOM     23  H   UNL     1     -14.571   8.056  24.142  1.00  0.00     0.293 HD
ENDBRANCH   6  22
BRANCH   8  24
ATOM     24  O   UNL     1     -18.517  10.113  21.514  1.00  0.00    -0.508 OA
ATOM     25  H   UNL     1     -17.875  10.028  20.735  1.00  0.00     0.293 HD
ENDBRANCH   8  24
TORSDOF 5
ENDMDL
