MODEL 1
REMARK VINA RESULT:    -2.919      0.000      0.000
REMARK INTER + INTRA:         -10.053
REMARK INTER:                  -6.673
REMARK INTRA:                  -3.381
REMARK UNBOUND:                -3.381
REMARK SMILES CCCCCCCCCCCCCCCCCCCCCCCC(=O)[O-]
REMARK SMILES IDX 13 1 14 2 15 3 16 4 17 5 18 6 19 7 20 8 21 9 22 10 23 11
REMARK SMILES IDX 24 12 25 13 26 14 12 15 11 16 10 17 9 18 8 19 7 20 6 21 5 22
REMARK SMILES IDX 4 23 3 24 2 25 1 26
REMARK H PARENT
REMARK Flexibility Score: inf
ROOT
ATOM      1  C   UNL     1      11.116  -3.268  -1.703  1.00  0.00     0.000 C 
ENDROOT
BRANCH   1   2
ATOM      2  C   UNL     1       9.976  -4.262  -1.405  1.00  0.00     0.000 C 
BRANCH   2   3
ATOM      3  C   UNL     1       8.553  -3.693  -1.558  1.00  0.00     0.000 C 
BRANCH   3   4
ATOM      4  C   UNL     1       7.955  -3.776  -2.976  1.00  0.00     0.000 C 
BRANCH   4   5
ATOM      5  C   UNL     1       7.561  -2.410  -3.576  1.00  0.00     0.000 C 
BRANCH   5   6
ATOM      6  C   UNL     1       7.371  -1.319  -2.506  1.00  0.00     0.000 C 
BRANCH   6   7
ATOM      7  C   UNL     1       8.105  -0.015  -2.852  1.00  0.00     0.000 C 
BRANCH   7   8
ATOM      8  C   UNL     1       7.999   1.043  -1.737  1.00  0.00     0.000 C 
BRANCH   8   9
ATOM      9  C   UNL     1       7.757   2.459  -2.303  1.00  0.00     0.000 C 
BRANCH   9  10
ATOM     10  C   UNL     1       7.440   3.507  -1.221  1.00  0.00     0.006 C 
BRANCH  10  11
ATOM     11  C   UNL     1       7.734   3.009   0.202  1.00  0.00     0.053 C 
BRANCH  11  12
ATOM     12  C   UNL     1       7.248   3.987   1.226  1.00  0.00     0.041 C 
ATOM     13  O   UNL     1       6.863   3.585   2.356  1.00  0.00    -0.550 OA
ATOM     14  O   UNL     1       7.200   5.343   0.925  1.00  0.00    -0.550 OA
ENDBRANCH  11  12
ENDBRANCH  10  11
ENDBRANCH   9  10
ENDBRANCH   8   9
ENDBRANCH   7   8
ENDBRANCH   6   7
ENDBRANCH   5   6
ENDBRANCH   4   5
ENDBRANCH   3   4
ENDBRANCH   2   3
ENDBRANCH   1   2
BRANCH   1  15
ATOM     15  C   UNL     1      10.805  -1.838  -1.240  1.00  0.00     0.000 C 
BRANCH  15  16
ATOM     16  C   UNL     1      10.962  -1.707   0.279  1.00  0.00     0.000 C 
BRANCH  16  17
ATOM     17  C   UNL     1       9.846  -0.836   0.876  1.00  0.00     0.000 C 
BRANCH  17  18
ATOM     18  C   UNL     1       8.688  -1.672   1.445  1.00  0.00    -0.000 C 
BRANCH  18  19
ATOM     19  C   UNL     1       9.176  -2.857   2.291  1.00  0.00    -0.000 C 
BRANCH  19  20
ATOM     20  C   UNL     1       8.362  -4.121   1.980  1.00  0.00    -0.000 C 
BRANCH  20  21
ATOM     21  C   UNL     1       8.501  -5.202   3.063  1.00  0.00    -0.000 C 
BRANCH  21  22
ATOM     22  C   UNL     1       8.742  -6.603   2.473  1.00  0.00    -0.000 C 
BRANCH  22  23
ATOM     23  C   UNL     1       9.632  -6.569   1.221  1.00  0.00    -0.000 C 
BRANCH  23  24
ATOM     24  C   UNL     1       9.454  -7.813   0.338  1.00  0.00    -0.000 C 
BRANCH  24  25
ATOM     25  C   UNL     1       7.995  -7.968  -0.107  1.00  0.00    -0.003 C 
ATOM     26  C   UNL     1       7.804  -7.487  -1.541  1.00  0.00     0.004 C 
ENDBRANCH  24  25
ENDBRANCH  23  24
ENDBRANCH  22  23
ENDBRANCH  21  22
ENDBRANCH  20  21
ENDBRANCH  19  20
ENDBRANCH  18  19
ENDBRANCH  17  18
ENDBRANCH  16  17
ENDBRANCH  15  16
ENDBRANCH   1  15
TORSDOF 22
ENDMDL
MODEL 2
REMARK VINA RESULT:    -2.907      4.145      8.382
REMARK INTER + INTRA:         -10.027
REMARK INTER:                  -5.888
REMARK INTRA:                  -4.138
REMARK UNBOUND:                -3.381
REMARK SMILES CCCCCCCCCCCCCCCCCCCCCCCC(=O)[O-]
REMARK SMILES IDX 13 1 14 2 15 3 16 4 17 5 18 6 19 7 20 8 21 9 22 10 23 11
REMARK SMILES IDX 24 12 25 13 26 14 12 15 11 16 10 17 9 18 8 19 7 20 6 21 5 22
REMARK SMILES IDX 4 23 3 24 2 25 1 26
REMARK H PARENT
REMARK Flexibility Score: inf
ROOT
ATOM      1  C   UNL     1       9.068  -2.294   0.275  1.00  0.00     0.000 C 
ENDROOT
BRANCH   1   2
ATOM      2  C   UNL     1       8.602  -1.950   1.702  1.00  0.00     0.000 C 
BRANCH   2   3
ATOM      3  C   UNL     1       9.471  -0.920   2.447  1.00  0.00     0.000 C 
BRANCH   3   4
ATOM      4  C   UNL     1      10.984  -1.216   2.462  1.00  0.00     0.000 C 
BRANCH   4   5
ATOM      5  C   UNL     1      11.378  -2.452   3.299  1.00  0.00     0.000 C 
BRANCH   5   6
ATOM      6  C   UNL     1      11.843  -3.637   2.432  1.00  0.00     0.000 C 
BRANCH   6   7
ATOM      7  C   UNL     1      11.083  -4.935   2.745  1.00  0.00     0.000 C 
BRANCH   7   8
ATOM      8  C   UNL     1       9.959  -4.734   3.779  1.00  0.00     0.000 C 
BRANCH   8   9
ATOM      9  C   UNL     1       8.629  -5.368   3.320  1.00  0.00     0.000 C 
BRANCH   9  10
ATOM     10  C   UNL     1       8.805  -6.457   2.247  1.00  0.00     0.006 C 
BRANCH  10  11
ATOM     11  C   UNL     1       8.479  -7.866   2.761  1.00  0.00     0.053 C 
BRANCH  11  12
ATOM     12  C   UNL     1       9.611  -8.421   3.569  1.00  0.00     0.041 C 
ATOM     13  O   UNL     1      10.634  -8.882   2.995  1.00  0.00    -0.550 OA
ATOM     14  O   UNL     1       9.530  -8.446   4.957  1.00  0.00    -0.550 OA
ENDBRANCH  11  12
ENDBRANCH  10  11
ENDBRANCH   9  10
ENDBRANCH   8   9
ENDBRANCH   7   8
ENDBRANCH   6   7
ENDBRANCH   5   6
ENDBRANCH   4   5
ENDBRANCH   3   4
ENDBRANCH   2   3
ENDBRANCH   1   2
BRANCH   1  15
ATOM     15  C   UNL     1       8.952  -3.789  -0.053  1.00  0.00     0.000 C 
BRANCH  15  16
ATOM     16  C   UNL     1       8.901  -4.016  -1.569  1.00  0.00     0.000 C 
BRANCH  16  17
ATOM     17  C   UNL     1       8.788  -2.682  -2.322  1.00  0.00     0.000 C 
BRANCH  17  18
ATOM     18  C   UNL     1       7.472  -2.559  -3.107  1.00  0.00    -0.000 C 
BRANCH  18  19
ATOM     19  C   UNL     1       7.063  -1.099  -3.346  1.00  0.00    -0.000 C 
BRANCH  19  20
ATOM     20  C   UNL     1       7.511  -0.209  -2.178  1.00  0.00    -0.000 C 
BRANCH  20  21
ATOM     21  C   UNL     1       7.257   1.285  -2.434  1.00  0.00    -0.000 C 
BRANCH  21  22
ATOM     22  C   UNL     1       8.125   2.193  -1.546  1.00  0.00    -0.000 C 
BRANCH  22  23
ATOM     23  C   UNL     1       8.848   1.415  -0.437  1.00  0.00    -0.000 C 
BRANCH  23  24
ATOM     24  C   UNL     1      10.373   1.596  -0.487  1.00  0.00    -0.000 C 
BRANCH  24  25
ATOM     25  C   UNL     1      11.064   0.308  -0.951  1.00  0.00    -0.003 C 
ATOM     26  C   UNL     1      11.184   0.265  -2.471  1.00  0.00     0.004 C 
ENDBRANCH  24  25
ENDBRANCH  23  24
ENDBRANCH  22  23
ENDBRANCH  21  22
ENDBRANCH  20  21
ENDBRANCH  19  20
ENDBRANCH  18  19
ENDBRANCH  17  18
ENDBRANCH  16  17
ENDBRANCH  15  16
ENDBRANCH   1  15
TORSDOF 22
ENDMDL
MODEL 3
REMARK VINA RESULT:    -2.886      4.623      7.429
REMARK INTER + INTRA:          -9.977
REMARK INTER:                  -6.301
REMARK INTRA:                  -3.677
REMARK UNBOUND:                -3.381
REMARK SMILES CCCCCCCCCCCCCCCCCCCCCCCC(=O)[O-]
REMARK SMILES IDX 13 1 14 2 15 3 16 4 17 5 18 6 19 7 20 8 21 9 22 10 23 11
REMARK SMILES IDX 24 12 25 13 26 14 12 15 11 16 10 17 9 18 8 19 7 20 6 21 5 22
REMARK SMILES IDX 4 23 3 24 2 25 1 26
REMARK H PARENT
REMARK Flexibility Score: inf
ROOT
ATOM      1  C   UNL     1       5.489   3.034  -3.492  1.00  0.00     0.000 C 
ENDROOT
BRANCH   1   2
ATOM      2  C   UNL     1       5.240   2.720  -4.979  1.00  0.00     0.000 C 
BRANCH   2   3
ATOM      3  C   UNL     1       4.118   1.703  -5.256  1.00  0.00     0.000 C 
BRANCH   3   4
ATOM      4  C   UNL     1       4.386   0.268  -4.761  1.00  0.00     0.000 C 
BRANCH   4   5
ATOM      5  C   UNL     1       3.291  -0.750  -5.147  1.00  0.00     0.000 C 
BRANCH   5   6
ATOM      6  C   UNL     1       1.916  -0.092  -5.370  1.00  0.00     0.000 C 
BRANCH   6   7
ATOM      7  C   UNL     1       1.152   0.143  -4.059  1.00  0.00     0.000 C 
BRANCH   7   8
ATOM      8  C   UNL     1       0.132   1.293  -4.161  1.00  0.00     0.000 C 
BRANCH   8   9
ATOM      9  C   UNL     1       0.793   2.674  -3.958  1.00  0.00     0.000 C 
BRANCH   9  10
ATOM     10  C   UNL     1       1.533   2.809  -2.616  1.00  0.00     0.006 C 
BRANCH  10  11
ATOM     11  C   UNL     1       0.589   2.795  -1.405  1.00  0.00     0.053 C 
BRANCH  11  12
ATOM     12  C   UNL     1       1.104   3.679  -0.311  1.00  0.00     0.041 C 
ATOM     13  O   UNL     1       1.646   4.782  -0.588  1.00  0.00    -0.550 OA
ATOM     14  O   UNL     1       1.002   3.275   1.015  1.00  0.00    -0.550 OA
ENDBRANCH  11  12
ENDBRANCH  10  11
ENDBRANCH   9  10
ENDBRANCH   8   9
ENDBRANCH   7   8
ENDBRANCH   6   7
ENDBRANCH   5   6
ENDBRANCH   4   5
ENDBRANCH   3   4
ENDBRANCH   2   3
ENDBRANCH   1   2
BRANCH   1  15
ATOM     15  C   UNL     1       6.977   3.006  -3.112  1.00  0.00     0.000 C 
BRANCH  15  16
ATOM     16  C   UNL     1       7.269   1.869  -2.125  1.00  0.00     0.000 C 
BRANCH  16  17
ATOM     17  C   UNL     1       7.539   0.552  -2.867  1.00  0.00     0.000 C 
BRANCH  17  18
ATOM     18  C   UNL     1       8.036  -0.561  -1.930  1.00  0.00    -0.000 C 
BRANCH  18  19
ATOM     19  C   UNL     1       7.750  -1.966  -2.479  1.00  0.00    -0.000 C 
BRANCH  19  20
ATOM     20  C   UNL     1       6.994  -1.886  -3.813  1.00  0.00    -0.000 C 
BRANCH  20  21
ATOM     21  C   UNL     1       6.575  -3.266  -4.346  1.00  0.00    -0.000 C 
BRANCH  21  22
ATOM     22  C   UNL     1       6.267  -3.249  -5.853  1.00  0.00    -0.000 C 
BRANCH  22  23
ATOM     23  C   UNL     1       7.034  -2.147  -6.599  1.00  0.00    -0.000 C 
BRANCH  23  24
ATOM     24  C   UNL     1       6.139  -1.353  -7.563  1.00  0.00    -0.000 C 
BRANCH  24  25
ATOM     25  C   UNL     1       6.597   0.107  -7.663  1.00  0.00    -0.003 C 
ATOM     26  C   UNL     1       7.679   0.415  -6.633  1.00  0.00     0.004 C 
ENDBRANCH  24  25
ENDBRANCH  23  24
ENDBRANCH  22  23
ENDBRANCH  21  22
ENDBRANCH  20  21
ENDBRANCH  19  20
ENDBRANCH  18  19
ENDBRANCH  17  18
ENDBRANCH  16  17
ENDBRANCH  15  16
ENDBRANCH   1  15
TORSDOF 22
ENDMDL
MODEL 4
REMARK VINA RESULT:    -2.874      2.888      6.362
REMARK INTER + INTRA:          -9.952
REMARK INTER:                  -5.522
REMARK INTRA:                  -4.429
REMARK UNBOUND:                -3.381
REMARK SMILES CCCCCCCCCCCCCCCCCCCCCCCC(=O)[O-]
REMARK SMILES IDX 13 1 14 2 15 3 16 4 17 5 18 6 19 7 20 8 21 9 22 10 23 11
REMARK SMILES IDX 24 12 25 13 26 14 12 15 11 16 10 17 9 18 8 19 7 20 6 21 5 22
REMARK SMILES IDX 4 23 3 24 2 25 1 26
REMARK H PARENT
REMARK Flexibility Score: inf
ROOT
ATOM      1  C   UNL     1      10.487   0.518  -4.144  1.00  0.00     0.000 C 
ENDROOT
BRANCH   1   2
ATOM      2  C   UNL     1      11.150   1.466  -3.126  1.00  0.00     0.000 C 
BRANCH   2   3
ATOM      3  C   UNL     1      11.788   0.776  -1.906  1.00  0.00     0.000 C 
BRANCH   3   4
ATOM      4  C   UNL     1      10.803   0.084  -0.945  1.00  0.00     0.000 C 
BRANCH   4   5
ATOM      5  C   UNL     1      11.196  -1.361  -0.567  1.00  0.00     0.000 C 
BRANCH   5   6
ATOM      6  C   UNL     1      10.196  -2.018   0.402  1.00  0.00     0.000 C 
BRANCH   6   7
ATOM      7  C   UNL     1       9.004  -1.108   0.733  1.00  0.00     0.000 C 
BRANCH   7   8
ATOM      8  C   UNL     1       8.783  -0.941   2.248  1.00  0.00     0.000 C 
BRANCH   8   9
ATOM      9  C   UNL     1       9.289   0.424   2.761  1.00  0.00     0.000 C 
BRANCH   9  10
ATOM     10  C   UNL     1       8.865   1.608   1.874  1.00  0.00     0.006 C 
BRANCH  10  11
ATOM     11  C   UNL     1       7.608   2.325   2.389  1.00  0.00     0.053 C 
BRANCH  11  12
ATOM     12  C   UNL     1       7.955   3.645   3.004  1.00  0.00     0.041 C 
ATOM     13  O   UNL     1       9.148   4.048   3.012  1.00  0.00    -0.550 OA
ATOM     14  O   UNL     1       6.961   4.424   3.587  1.00  0.00    -0.550 OA
ENDBRANCH  11  12
ENDBRANCH  10  11
ENDBRANCH   9  10
ENDBRANCH   8   9
ENDBRANCH   7   8
ENDBRANCH   6   7
ENDBRANCH   5   6
ENDBRANCH   4   5
ENDBRANCH   3   4
ENDBRANCH   2   3
ENDBRANCH   1   2
BRANCH   1  15
ATOM     15  C   UNL     1      11.484  -0.432  -4.821  1.00  0.00     0.000 C 
BRANCH  15  16
ATOM     16  C   UNL     1      11.284  -1.873  -4.336  1.00  0.00     0.000 C 
BRANCH  16  17
ATOM     17  C   UNL     1       9.811  -2.294  -4.452  1.00  0.00     0.000 C 
BRANCH  17  18
ATOM     18  C   UNL     1       9.286  -2.961  -3.170  1.00  0.00    -0.000 C 
BRANCH  18  19
ATOM     19  C   UNL     1       7.794  -2.689  -2.932  1.00  0.00    -0.000 C 
BRANCH  19  20
ATOM     20  C   UNL     1       7.574  -1.256  -2.428  1.00  0.00    -0.000 C 
BRANCH  20  21
ATOM     21  C   UNL     1       6.906  -0.350  -3.474  1.00  0.00    -0.000 C 
BRANCH  21  22
ATOM     22  C   UNL     1       6.829   1.119  -3.023  1.00  0.00    -0.000 C 
BRANCH  22  23
ATOM     23  C   UNL     1       7.620   1.381  -1.733  1.00  0.00    -0.000 C 
BRANCH  23  24
ATOM     24  C   UNL     1       8.046   2.850  -1.590  1.00  0.00    -0.000 C 
BRANCH  24  25
ATOM     25  C   UNL     1       6.851   3.790  -1.787  1.00  0.00    -0.003 C 
ATOM     26  C   UNL     1       6.351   4.331  -0.451  1.00  0.00     0.004 C 
ENDBRANCH  24  25
ENDBRANCH  23  24
ENDBRANCH  22  23
ENDBRANCH  21  22
ENDBRANCH  20  21
ENDBRANCH  19  20
ENDBRANCH  18  19
ENDBRANCH  17  18
ENDBRANCH  16  17
ENDBRANCH  15  16
ENDBRANCH   1  15
TORSDOF 22
ENDMDL
MODEL 5
REMARK VINA RESULT:    -2.866      2.276      5.780
REMARK INTER + INTRA:          -9.932
REMARK INTER:                  -5.750
REMARK INTRA:                  -4.182
REMARK UNBOUND:                -3.381
REMARK SMILES CCCCCCCCCCCCCCCCCCCCCCCC(=O)[O-]
REMARK SMILES IDX 13 1 14 2 15 3 16 4 17 5 18 6 19 7 20 8 21 9 22 10 23 11
REMARK SMILES IDX 24 12 25 13 26 14 12 15 11 16 10 17 9 18 8 19 7 20 6 21 5 22
REMARK SMILES IDX 4 23 3 24 2 25 1 26
REMARK H PARENT
REMARK Flexibility Score: inf
ROOT
ATOM      1  C   UNL     1       7.613   3.641  -2.574  1.00  0.00     0.000 C 
ENDROOT
BRANCH   1   2
ATOM      2  C   UNL     1       6.880   3.590  -1.219  1.00  0.00     0.000 C 
BRANCH   2   3
ATOM      3  C   UNL     1       7.317   4.654  -0.196  1.00  0.00     0.000 C 
BRANCH   3   4
ATOM      4  C   UNL     1       8.585   5.447  -0.565  1.00  0.00     0.000 C 
BRANCH   4   5
ATOM      5  C   UNL     1       9.826   5.088   0.282  1.00  0.00     0.000 C 
BRANCH   5   6
ATOM      6  C   UNL     1      10.638   3.922  -0.313  1.00  0.00     0.000 C 
BRANCH   6   7
ATOM      7  C   UNL     1      10.723   2.715   0.632  1.00  0.00     0.000 C 
BRANCH   7   8
ATOM      8  C   UNL     1       9.853   1.532   0.168  1.00  0.00     0.000 C 
BRANCH   8   9
ATOM      9  C   UNL     1       8.631   1.316   1.087  1.00  0.00     0.000 C 
BRANCH   9  10
ATOM     10  C   UNL     1       8.701   2.113   2.401  1.00  0.00     0.006 C 
BRANCH  10  11
ATOM     11  C   UNL     1       7.359   2.748   2.792  1.00  0.00     0.053 C 
BRANCH  11  12
ATOM     12  C   UNL     1       7.499   3.587   4.024  1.00  0.00     0.041 C 
ATOM     13  O   UNL     1       6.585   4.389   4.353  1.00  0.00    -0.550 OA
ATOM     14  O   UNL     1       8.649   3.498   4.800  1.00  0.00    -0.550 OA
ENDBRANCH  11  12
ENDBRANCH  10  11
ENDBRANCH   9  10
ENDBRANCH   8   9
ENDBRANCH   7   8
ENDBRANCH   6   7
ENDBRANCH   5   6
ENDBRANCH   4   5
ENDBRANCH   3   4
ENDBRANCH   2   3
ENDBRANCH   1   2
BRANCH   1  15
ATOM     15  C   UNL     1       8.137   2.271  -3.028  1.00  0.00     0.000 C 
BRANCH  15  16
ATOM     16  C   UNL     1       7.053   1.196  -2.888  1.00  0.00     0.000 C 
BRANCH  16  17
ATOM     17  C   UNL     1       7.610  -0.061  -2.203  1.00  0.00     0.000 C 
BRANCH  17  18
ATOM     18  C   UNL     1       7.188  -1.356  -2.916  1.00  0.00    -0.000 C 
BRANCH  18  19
ATOM     19  C   UNL     1       8.219  -2.482  -2.752  1.00  0.00    -0.000 C 
BRANCH  19  20
ATOM     20  C   UNL     1       9.543  -1.933  -2.203  1.00  0.00    -0.000 C 
BRANCH  20  21
ATOM     21  C   UNL     1      10.086  -2.752  -1.021  1.00  0.00    -0.000 C 
BRANCH  21  22
ATOM     22  C   UNL     1       8.978  -3.512  -0.271  1.00  0.00    -0.000 C 
BRANCH  22  23
ATOM     23  C   UNL     1       9.163  -3.467   1.254  1.00  0.00    -0.000 C 
BRANCH  23  24
ATOM     24  C   UNL     1       8.594  -2.184   1.879  1.00  0.00    -0.000 C 
BRANCH  24  25
ATOM     25  C   UNL     1       9.500  -1.674   3.007  1.00  0.00    -0.003 C 
ATOM     26  C   UNL     1      10.914  -1.412   2.499  1.00  0.00     0.004 C 
ENDBRANCH  24  25
ENDBRANCH  23  24
ENDBRANCH  22  23
ENDBRANCH  21  22
ENDBRANCH  20  21
ENDBRANCH  19  20
ENDBRANCH  18  19
ENDBRANCH  17  18
ENDBRANCH  16  17
ENDBRANCH  15  16
ENDBRANCH   1  15
TORSDOF 22
ENDMDL
MODEL 6
REMARK VINA RESULT:    -2.851      4.838      6.895
REMARK INTER + INTRA:          -9.898
REMARK INTER:                  -6.470
REMARK INTRA:                  -3.428
REMARK UNBOUND:                -3.381
REMARK SMILES CCCCCCCCCCCCCCCCCCCCCCCC(=O)[O-]
REMARK SMILES IDX 13 1 14 2 15 3 16 4 17 5 18 6 19 7 20 8 21 9 22 10 23 11
REMARK SMILES IDX 24 12 25 13 26 14 12 15 11 16 10 17 9 18 8 19 7 20 6 21 5 22
REMARK SMILES IDX 4 23 3 24 2 25 1 26
REMARK H PARENT
REMARK Flexibility Score: inf
ROOT
ATOM      1  C   UNL     1       9.264  -2.909  -2.475  1.00  0.00     0.000 C 
ENDROOT
BRANCH   1   2
ATOM      2  C   UNL     1       7.955  -2.222  -2.041  1.00  0.00     0.000 C 
BRANCH   2   3
ATOM      3  C   UNL     1       8.055  -0.703  -1.815  1.00  0.00     0.000 C 
BRANCH   3   4
ATOM      4  C   UNL     1       7.326   0.172  -2.853  1.00  0.00     0.000 C 
BRANCH   4   5
ATOM      5  C   UNL     1       6.373  -0.611  -3.782  1.00  0.00     0.000 C 
BRANCH   5   6
ATOM      6  C   UNL     1       6.531  -0.223  -5.265  1.00  0.00     0.000 C 
BRANCH   6   7
ATOM      7  C   UNL     1       5.197  -0.230  -6.025  1.00  0.00     0.000 C 
BRANCH   7   8
ATOM      8  C   UNL     1       3.976  -0.292  -5.088  1.00  0.00     0.000 C 
BRANCH   8   9
ATOM      9  C   UNL     1       2.874  -1.227  -5.633  1.00  0.00     0.000 C 
BRANCH   9  10
ATOM     10  C   UNL     1       1.598  -1.237  -4.773  1.00  0.00     0.006 C 
BRANCH  10  11
ATOM     11  C   UNL     1       1.363   0.086  -4.030  1.00  0.00     0.053 C 
BRANCH  11  12
ATOM     12  C   UNL     1       0.202   0.832  -4.611  1.00  0.00     0.041 C 
ATOM     13  O   UNL     1       0.384   1.924  -5.211  1.00  0.00    -0.550 OA
ATOM     14  O   UNL     1      -1.087   0.329  -4.473  1.00  0.00    -0.550 OA
ENDBRANCH  11  12
ENDBRANCH  10  11
ENDBRANCH   9  10
ENDBRANCH   8   9
ENDBRANCH   7   8
ENDBRANCH   6   7
ENDBRANCH   5   6
ENDBRANCH   4   5
ENDBRANCH   3   4
ENDBRANCH   2   3
ENDBRANCH   1   2
BRANCH   1  15
ATOM     15  C   UNL     1       9.041  -4.062  -3.464  1.00  0.00     0.000 C 
BRANCH  15  16
ATOM     16  C   UNL     1       7.607  -4.597  -3.367  1.00  0.00     0.000 C 
BRANCH  16  17
ATOM     17  C   UNL     1       6.980  -4.747  -4.761  1.00  0.00     0.000 C 
BRANCH  17  18
ATOM     18  C   UNL     1       5.685  -3.932  -4.915  1.00  0.00    -0.000 C 
BRANCH  18  19
ATOM     19  C   UNL     1       5.056  -4.083  -6.307  1.00  0.00    -0.000 C 
BRANCH  19  20
ATOM     20  C   UNL     1       3.811  -4.980  -6.248  1.00  0.00    -0.000 C 
BRANCH  20  21
ATOM     21  C   UNL     1       2.982  -4.769  -4.971  1.00  0.00    -0.000 C 
BRANCH  21  22
ATOM     22  C   UNL     1       2.589  -6.094  -4.296  1.00  0.00    -0.000 C 
BRANCH  22  23
ATOM     23  C   UNL     1       3.610  -6.543  -3.240  1.00  0.00    -0.000 C 
BRANCH  23  24
ATOM     24  C   UNL     1       4.567  -7.623  -3.767  1.00  0.00    -0.000 C 
BRANCH  24  25
ATOM     25  C   UNL     1       5.810  -7.738  -2.876  1.00  0.00    -0.003 C 
ATOM     26  C   UNL     1       5.868  -9.097  -2.187  1.00  0.00     0.004 C 
ENDBRANCH  24  25
ENDBRANCH  23  24
ENDBRANCH  22  23
ENDBRANCH  21  22
ENDBRANCH  20  21
ENDBRANCH  19  20
ENDBRANCH  18  19
ENDBRANCH  17  18
ENDBRANCH  16  17
ENDBRANCH  15  16
ENDBRANCH   1  15
TORSDOF 22
ENDMDL
MODEL 7
REMARK VINA RESULT:    -2.844      2.026      5.269
REMARK INTER + INTRA:          -9.883
REMARK INTER:                  -5.683
REMARK INTRA:                  -4.200
REMARK UNBOUND:                -3.381
REMARK SMILES CCCCCCCCCCCCCCCCCCCCCCCC(=O)[O-]
REMARK SMILES IDX 13 1 14 2 15 3 16 4 17 5 18 6 19 7 20 8 21 9 22 10 23 11
REMARK SMILES IDX 24 12 25 13 26 14 12 15 11 16 10 17 9 18 8 19 7 20 6 21 5 22
REMARK SMILES IDX 4 23 3 24 2 25 1 26
REMARK H PARENT
REMARK Flexibility Score: inf
ROOT
ATOM      1  C   UNL     1      11.199  -3.106  -2.871  1.00  0.00     0.000 C 
ENDROOT
BRANCH   1   2
ATOM      2  C   UNL     1      11.100  -3.591  -1.412  1.00  0.00     0.000 C 
BRANCH   2   3
ATOM      3  C   UNL     1       9.806  -4.345  -1.058  1.00  0.00     0.000 C 
BRANCH   3   4
ATOM      4  C   UNL     1       9.179  -3.984   0.303  1.00  0.00     0.000 C 
BRANCH   4   5
ATOM      5  C   UNL     1       8.785  -2.498   0.444  1.00  0.00     0.000 C 
BRANCH   5   6
ATOM      6  C   UNL     1       8.993  -1.958   1.871  1.00  0.00     0.000 C 
BRANCH   6   7
ATOM      7  C   UNL     1      10.296  -1.160   2.019  1.00  0.00     0.000 C 
BRANCH   7   8
ATOM      8  C   UNL     1      10.060   0.287   2.491  1.00  0.00     0.000 C 
BRANCH   8   9
ATOM      9  C   UNL     1       8.829   0.402   3.416  1.00  0.00     0.000 C 
BRANCH   9  10
ATOM     10  C   UNL     1       7.815   1.466   2.961  1.00  0.00     0.006 C 
BRANCH  10  11
ATOM     11  C   UNL     1       8.482   2.758   2.468  1.00  0.00     0.053 C 
BRANCH  11  12
ATOM     12  C   UNL     1       7.476   3.856   2.308  1.00  0.00     0.041 C 
ATOM     13  O   UNL     1       7.433   4.803   3.137  1.00  0.00    -0.550 OA
ATOM     14  O   UNL     1       6.572   3.823   1.252  1.00  0.00    -0.550 OA
ENDBRANCH  11  12
ENDBRANCH  10  11
ENDBRANCH   9  10
ENDBRANCH   8   9
ENDBRANCH   7   8
ENDBRANCH   6   7
ENDBRANCH   5   6
ENDBRANCH   4   5
ENDBRANCH   3   4
ENDBRANCH   2   3
ENDBRANCH   1   2
BRANCH   1  15
ATOM     15  C   UNL     1      10.922  -1.604  -3.027  1.00  0.00     0.000 C 
BRANCH  15  16
ATOM     16  C   UNL     1      10.959  -0.896  -1.667  1.00  0.00     0.000 C 
BRANCH  16  17
ATOM     17  C   UNL     1      11.454   0.551  -1.812  1.00  0.00     0.000 C 
BRANCH  17  18
ATOM     18  C   UNL     1      10.472   1.572  -1.213  1.00  0.00    -0.000 C 
BRANCH  18  19
ATOM     19  C   UNL     1       9.128   0.939  -0.826  1.00  0.00    -0.000 C 
BRANCH  19  20
ATOM     20  C   UNL     1       7.958   1.817  -1.293  1.00  0.00    -0.000 C 
BRANCH  20  21
ATOM     21  C   UNL     1       8.177   2.407  -2.695  1.00  0.00    -0.000 C 
BRANCH  21  22
ATOM     22  C   UNL     1       7.733   1.450  -3.815  1.00  0.00    -0.000 C 
BRANCH  22  23
ATOM     23  C   UNL     1       6.443   0.693  -3.466  1.00  0.00    -0.000 C 
BRANCH  23  24
ATOM     24  C   UNL     1       6.492  -0.783  -3.890  1.00  0.00    -0.000 C 
BRANCH  24  25
ATOM     25  C   UNL     1       7.281  -1.621  -2.877  1.00  0.00    -0.003 C 
ATOM     26  C   UNL     1       7.488  -3.045  -3.384  1.00  0.00     0.004 C 
ENDBRANCH  24  25
ENDBRANCH  23  24
ENDBRANCH  22  23
ENDBRANCH  21  22
ENDBRANCH  20  21
ENDBRANCH  19  20
ENDBRANCH  18  19
ENDBRANCH  17  18
ENDBRANCH  16  17
ENDBRANCH  15  16
ENDBRANCH   1  15
TORSDOF 22
ENDMDL
MODEL 8
REMARK VINA RESULT:    -2.817      2.865      6.416
REMARK INTER + INTRA:          -9.822
REMARK INTER:                  -5.918
REMARK INTRA:                  -3.904
REMARK UNBOUND:                -3.381
REMARK SMILES CCCCCCCCCCCCCCCCCCCCCCCC(=O)[O-]
REMARK SMILES IDX 13 1 14 2 15 3 16 4 17 5 18 6 19 7 20 8 21 9 22 10 23 11
REMARK SMILES IDX 24 12 25 13 26 14 12 15 11 16 10 17 9 18 8 19 7 20 6 21 5 22
REMARK SMILES IDX 4 23 3 24 2 25 1 26
REMARK H PARENT
REMARK Flexibility Score: inf
ROOT
ATOM      1  C   UNL     1       9.437  -2.919   0.166  1.00  0.00     0.000 C 
ENDROOT
BRANCH   1   2
ATOM      2  C   UNL     1       8.712  -2.625   1.494  1.00  0.00     0.000 C 
BRANCH   2   3
ATOM      3  C   UNL     1       9.138  -1.325   2.199  1.00  0.00     0.000 C 
BRANCH   3   4
ATOM      4  C   UNL     1      10.367  -0.616   1.599  1.00  0.00     0.000 C 
BRANCH   4   5
ATOM      5  C   UNL     1      10.148   0.883   1.296  1.00  0.00     0.000 C 
BRANCH   5   6
ATOM      6  C   UNL     1       8.658   1.264   1.211  1.00  0.00     0.000 C 
BRANCH   6   7
ATOM      7  C   UNL     1       8.412   2.758   1.467  1.00  0.00     0.000 C 
BRANCH   7   8
ATOM      8  C   UNL     1       7.524   3.013   2.699  1.00  0.00     0.000 C 
BRANCH   8   9
ATOM      9  C   UNL     1       7.190   1.708   3.454  1.00  0.00     0.000 C 
BRANCH   9  10
ATOM     10  C   UNL     1       7.774   1.655   4.876  1.00  0.00     0.006 C 
BRANCH  10  11
ATOM     11  C   UNL     1       9.238   1.195   4.908  1.00  0.00     0.053 C 
BRANCH  11  12
ATOM     12  C   UNL     1       9.394  -0.050   5.726  1.00  0.00     0.041 C 
ATOM     13  O   UNL     1       8.481  -0.408   6.518  1.00  0.00    -0.550 OA
ATOM     14  O   UNL     1      10.557  -0.805   5.630  1.00  0.00    -0.550 OA
ENDBRANCH  11  12
ENDBRANCH  10  11
ENDBRANCH   9  10
ENDBRANCH   8   9
ENDBRANCH   7   8
ENDBRANCH   6   7
ENDBRANCH   5   6
ENDBRANCH   4   5
ENDBRANCH   3   4
ENDBRANCH   2   3
ENDBRANCH   1   2
BRANCH   1  15
ATOM     15  C   UNL     1       8.988  -4.234  -0.487  1.00  0.00     0.000 C 
BRANCH  15  16
ATOM     16  C   UNL     1       9.313  -4.242  -1.985  1.00  0.00     0.000 C 
BRANCH  16  17
ATOM     17  C   UNL     1       8.062  -4.555  -2.819  1.00  0.00     0.000 C 
BRANCH  17  18
ATOM     18  C   UNL     1       7.360  -3.286  -3.328  1.00  0.00    -0.000 C 
BRANCH  18  19
ATOM     19  C   UNL     1       7.945  -2.780  -4.654  1.00  0.00    -0.000 C 
BRANCH  19  20
ATOM     20  C   UNL     1       7.145  -1.579  -5.180  1.00  0.00    -0.000 C 
BRANCH  20  21
ATOM     21  C   UNL     1       6.319  -0.887  -4.085  1.00  0.00    -0.000 C 
BRANCH  21  22
ATOM     22  C   UNL     1       6.713   0.588  -3.891  1.00  0.00    -0.000 C 
BRANCH  22  23
ATOM     23  C   UNL     1       7.170   0.891  -2.456  1.00  0.00    -0.000 C 
BRANCH  23  24
ATOM     24  C   UNL     1       8.200  -0.125  -1.939  1.00  0.00    -0.000 C 
BRANCH  24  25
ATOM     25  C   UNL     1       9.626   0.298  -2.313  1.00  0.00    -0.003 C 
ATOM     26  C   UNL     1      10.473  -0.910  -2.701  1.00  0.00     0.004 C 
ENDBRANCH  24  25
ENDBRANCH  23  24
ENDBRANCH  22  23
ENDBRANCH  21  22
ENDBRANCH  20  21
ENDBRANCH  19  20
ENDBRANCH  18  19
ENDBRANCH  17  18
ENDBRANCH  16  17
ENDBRANCH  15  16
ENDBRANCH   1  15
TORSDOF 22
ENDMDL
MODEL 9
REMARK VINA RESULT:    -2.796      1.822      6.746
REMARK INTER + INTRA:          -9.773
REMARK INTER:                  -6.292
REMARK INTRA:                  -3.481
REMARK UNBOUND:                -3.381
REMARK SMILES CCCCCCCCCCCCCCCCCCCCCCCC(=O)[O-]
REMARK SMILES IDX 13 1 14 2 15 3 16 4 17 5 18 6 19 7 20 8 21 9 22 10 23 11
REMARK SMILES IDX 24 12 25 13 26 14 12 15 11 16 10 17 9 18 8 19 7 20 6 21 5 22
REMARK SMILES IDX 4 23 3 24 2 25 1 26
REMARK H PARENT
REMARK Flexibility Score: inf
ROOT
ATOM      1  C   UNL     1       8.352  -2.505  -2.321  1.00  0.00     0.000 C 
ENDROOT
BRANCH   1   2
ATOM      2  C   UNL     1       8.080  -4.002  -2.569  1.00  0.00     0.000 C 
BRANCH   2   3
ATOM      3  C   UNL     1       8.798  -4.968  -1.610  1.00  0.00     0.000 C 
BRANCH   3   4
ATOM      4  C   UNL     1       9.410  -4.321  -0.352  1.00  0.00     0.000 C 
BRANCH   4   5
ATOM      5  C   UNL     1       8.754  -4.769   0.972  1.00  0.00     0.000 C 
BRANCH   5   6
ATOM      6  C   UNL     1       8.624  -3.622   1.993  1.00  0.00     0.000 C 
BRANCH   6   7
ATOM      7  C   UNL     1       9.262  -2.315   1.500  1.00  0.00     0.000 C 
BRANCH   7   8
ATOM      8  C   UNL     1       8.516  -1.063   1.999  1.00  0.00     0.000 C 
BRANCH   8   9
ATOM      9  C   UNL     1       9.477   0.114   2.275  1.00  0.00     0.000 C 
BRANCH   9  10
ATOM     10  C   UNL     1       9.014   1.029   3.421  1.00  0.00     0.006 C 
BRANCH  10  11
ATOM     11  C   UNL     1       7.624   1.635   3.182  1.00  0.00     0.053 C 
BRANCH  11  12
ATOM     12  C   UNL     1       7.598   3.086   3.553  1.00  0.00     0.041 C 
ATOM     13  O   UNL     1       8.214   3.491   4.574  1.00  0.00    -0.550 OA
ATOM     14  O   UNL     1       6.875   3.988   2.781  1.00  0.00    -0.550 OA
ENDBRANCH  11  12
ENDBRANCH  10  11
ENDBRANCH   9  10
ENDBRANCH   8   9
ENDBRANCH   7   8
ENDBRANCH   6   7
ENDBRANCH   5   6
ENDBRANCH   4   5
ENDBRANCH   3   4
ENDBRANCH   2   3
ENDBRANCH   1   2
BRANCH   1  15
ATOM     15  C   UNL     1       7.250  -1.592  -2.876  1.00  0.00     0.000 C 
BRANCH  15  16
ATOM     16  C   UNL     1       7.659  -0.118  -2.779  1.00  0.00     0.000 C 
BRANCH  16  17
ATOM     17  C   UNL     1       8.229   0.206  -1.390  1.00  0.00     0.000 C 
BRANCH  17  18
ATOM     18  C   UNL     1       9.321   1.288  -1.438  1.00  0.00    -0.000 C 
BRANCH  18  19
ATOM     19  C   UNL     1       9.089   2.405  -0.410  1.00  0.00    -0.000 C 
BRANCH  19  20
ATOM     20  C   UNL     1       7.626   2.871  -0.432  1.00  0.00    -0.000 C 
BRANCH  20  21
ATOM     21  C   UNL     1       7.480   4.365  -0.763  1.00  0.00    -0.000 C 
BRANCH  21  22
ATOM     22  C   UNL     1       8.403   4.810  -1.910  1.00  0.00    -0.000 C 
BRANCH  22  23
ATOM     23  C   UNL     1       7.697   4.796  -3.274  1.00  0.00    -0.000 C 
BRANCH  23  24
ATOM     24  C   UNL     1       7.975   3.512  -4.070  1.00  0.00    -0.000 C 
BRANCH  24  25
ATOM     25  C   UNL     1       6.682   2.942  -4.664  1.00  0.00    -0.003 C 
ATOM     26  C   UNL     1       5.605   2.793  -3.593  1.00  0.00     0.004 C 
ENDBRANCH  24  25
ENDBRANCH  23  24
ENDBRANCH  22  23
ENDBRANCH  21  22
ENDBRANCH  20  21
ENDBRANCH  19  20
ENDBRANCH  18  19
ENDBRANCH  17  18
ENDBRANCH  16  17
ENDBRANCH  15  16
ENDBRANCH   1  15
TORSDOF 22
ENDMDL
