MODEL 1
REMARK VINA RESULT:    -5.549      0.000      0.000
REMARK INTER + INTRA:          -9.589
REMARK INTER:                  -8.793
REMARK INTRA:                  -0.796
REMARK UNBOUND:                -0.796
REMARK SMILES CCCCCCCCCCCC(=O)[O-]
REMARK SMILES IDX 7 1 8 2 9 3 10 4 11 5 12 6 13 7 14 8 6 9 5 10 4 11 3 12 2 13
REMARK SMILES IDX 1 14
REMARK H PARENT
REMARK Flexibility Score: inf
ROOT
ATOM      1  C   UNL     1      13.270   2.598  15.265  1.00  0.00     0.000 C 
ENDROOT
BRANCH   1   2
ATOM      2  C   UNL     1      13.009   3.350  16.576  1.00  0.00     0.000 C 
BRANCH   2   3
ATOM      3  C   UNL     1      14.301   3.502  17.388  1.00  0.00     0.000 C 
BRANCH   3   4
ATOM      4  C   UNL     1      14.127   2.950  18.808  1.00  0.00     0.006 C 
BRANCH   4   5
ATOM      5  C   UNL     1      13.951   1.428  18.789  1.00  0.00     0.053 C 
BRANCH   5   6
ATOM      6  C   UNL     1      15.203   0.762  18.312  1.00  0.00     0.041 C 
ATOM      7  O   UNL     1      16.303   1.007  18.873  1.00  0.00    -0.550 OA
ATOM      8  O   UNL     1      15.162  -0.092  17.218  1.00  0.00    -0.550 OA
ENDBRANCH   5   6
ENDBRANCH   4   5
ENDBRANCH   3   4
ENDBRANCH   2   3
ENDBRANCH   1   2
BRANCH   1   9
ATOM      9  C   UNL     1      14.775   2.518  14.969  1.00  0.00     0.000 C 
BRANCH   9  10
ATOM     10  C   UNL     1      15.107   2.856  13.506  1.00  0.00    -0.000 C 
BRANCH  10  11
ATOM     11  C   UNL     1      15.368   1.600  12.654  1.00  0.00    -0.000 C 
BRANCH  11  12
ATOM     12  C   UNL     1      16.008   1.931  11.296  1.00  0.00    -0.000 C 
BRANCH  12  13
ATOM     13  C   UNL     1      17.249   1.075  11.005  1.00  0.00    -0.003 C 
ATOM     14  C   UNL     1      17.661   0.271  12.235  1.00  0.00     0.004 C 
ENDBRANCH  12  13
ENDBRANCH  11  12
ENDBRANCH  10  11
ENDBRANCH   9  10
ENDBRANCH   1   9
TORSDOF 10
ENDMDL
MODEL 2
REMARK VINA RESULT:    -5.537     14.684     16.813
REMARK INTER + INTRA:          -9.571
REMARK INTER:                  -8.444
REMARK INTRA:                  -1.127
REMARK UNBOUND:                -0.796
REMARK SMILES CCCCCCCCCCCC(=O)[O-]
REMARK SMILES IDX 7 1 8 2 9 3 10 4 11 5 12 6 13 7 14 8 6 9 5 10 4 11 3 12 2 13
REMARK SMILES IDX 1 14
REMARK H PARENT
REMARK Flexibility Score: inf
ROOT
ATOM      1  C   UNL     1      31.476  -1.687   8.671  1.00  0.00     0.000 C 
ENDROOT
BRANCH   1   2
ATOM      2  C   UNL     1      31.908  -0.250   8.352  1.00  0.00     0.000 C 
BRANCH   2   3
ATOM      3  C   UNL     1      30.717   0.712   8.423  1.00  0.00     0.000 C 
BRANCH   3   4
ATOM      4  C   UNL     1      29.390  -0.056   8.470  1.00  0.00     0.006 C 
BRANCH   4   5
ATOM      5  C   UNL     1      28.309   0.755   9.191  1.00  0.00     0.053 C 
BRANCH   5   6
ATOM      6  C   UNL     1      28.682   0.966  10.625  1.00  0.00     0.041 C 
ATOM      7  O   UNL     1      28.685   2.126  11.114  1.00  0.00    -0.550 OA
ATOM      8  O   UNL     1      29.072  -0.114  11.407  1.00  0.00    -0.550 OA
ENDBRANCH   5   6
ENDBRANCH   4   5
ENDBRANCH   3   4
ENDBRANCH   2   3
ENDBRANCH   1   2
BRANCH   1   9
ATOM      9  C   UNL     1      31.828  -2.635   7.515  1.00  0.00     0.000 C 
BRANCH   9  10
ATOM     10  C   UNL     1      30.581  -3.204   6.818  1.00  0.00    -0.000 C 
BRANCH  10  11
ATOM     11  C   UNL     1      29.980  -2.225   5.793  1.00  0.00    -0.000 C 
BRANCH  11  12
ATOM     12  C   UNL     1      28.554  -2.615   5.371  1.00  0.00    -0.000 C 
BRANCH  12  13
ATOM     13  C   UNL     1      27.552  -2.527   6.531  1.00  0.00    -0.003 C 
ATOM     14  C   UNL     1      26.556  -1.392   6.311  1.00  0.00     0.004 C 
ENDBRANCH  12  13
ENDBRANCH  11  12
ENDBRANCH  10  11
ENDBRANCH   9  10
ENDBRANCH   1   9
TORSDOF 10
ENDMDL
MODEL 3
REMARK VINA RESULT:    -5.468      2.651      6.127
REMARK INTER + INTRA:          -9.461
REMARK INTER:                  -8.084
REMARK INTRA:                  -1.377
REMARK UNBOUND:                -0.796
REMARK SMILES CCCCCCCCCCCC(=O)[O-]
REMARK SMILES IDX 7 1 8 2 9 3 10 4 11 5 12 6 13 7 14 8 6 9 5 10 4 11 3 12 2 13
REMARK SMILES IDX 1 14
REMARK H PARENT
REMARK Flexibility Score: inf
ROOT
ATOM      1  C   UNL     1      16.661  -1.470  18.807  1.00  0.00     0.000 C 
ENDROOT
BRANCH   1   2
ATOM      2  C   UNL     1      16.982  -1.626  17.315  1.00  0.00     0.000 C 
BRANCH   2   3
ATOM      3  C   UNL     1      17.075  -0.259  16.627  1.00  0.00     0.000 C 
BRANCH   3   4
ATOM      4  C   UNL     1      15.881  -0.030  15.693  1.00  0.00     0.006 C 
BRANCH   4   5
ATOM      5  C   UNL     1      15.852   1.413  15.180  1.00  0.00     0.053 C 
BRANCH   5   6
ATOM      6  C   UNL     1      14.674   1.626  14.283  1.00  0.00     0.041 C 
ATOM      7  O   UNL     1      14.759   1.366  13.054  1.00  0.00    -0.550 OA
ATOM      8  O   UNL     1      13.497   2.156  14.795  1.00  0.00    -0.550 OA
ENDBRANCH   5   6
ENDBRANCH   4   5
ENDBRANCH   3   4
ENDBRANCH   2   3
ENDBRANCH   1   2
BRANCH   1   9
ATOM      9  C   UNL     1      16.960  -0.041  19.285  1.00  0.00     0.000 C 
BRANCH   9  10
ATOM     10  C   UNL     1      15.755   0.612  19.984  1.00  0.00    -0.000 C 
BRANCH  10  11
ATOM     11  C   UNL     1      14.409   0.088  19.452  1.00  0.00    -0.000 C 
BRANCH  11  12
ATOM     12  C   UNL     1      13.759   1.050  18.443  1.00  0.00    -0.000 C 
BRANCH  12  13
ATOM     13  C   UNL     1      14.267   2.491  18.592  1.00  0.00    -0.003 C 
ATOM     14  C   UNL     1      13.250   3.491  18.050  1.00  0.00     0.004 C 
ENDBRANCH  12  13
ENDBRANCH  11  12
ENDBRANCH  10  11
ENDBRANCH   9  10
ENDBRANCH   1   9
TORSDOF 10
ENDMDL
MODEL 4
REMARK VINA RESULT:    -5.452      1.898      3.865
REMARK INTER + INTRA:          -9.436
REMARK INTER:                  -8.337
REMARK INTRA:                  -1.099
REMARK UNBOUND:                -0.796
REMARK SMILES CCCCCCCCCCCC(=O)[O-]
REMARK SMILES IDX 7 1 8 2 9 3 10 4 11 5 12 6 13 7 14 8 6 9 5 10 4 11 3 12 2 13
REMARK SMILES IDX 1 14
REMARK H PARENT
REMARK Flexibility Score: inf
ROOT
ATOM      1  C   UNL     1      15.710   1.983  11.579  1.00  0.00     0.000 C 
ENDROOT
BRANCH   1   2
ATOM      2  C   UNL     1      15.452   2.678  12.922  1.00  0.00     0.000 C 
BRANCH   2   3
ATOM      3  C   UNL     1      14.635   1.780  13.859  1.00  0.00     0.000 C 
BRANCH   3   4
ATOM      4  C   UNL     1      13.879   2.614  14.900  1.00  0.00     0.006 C 
BRANCH   4   5
ATOM      5  C   UNL     1      14.642   2.659  16.228  1.00  0.00     0.053 C 
BRANCH   5   6
ATOM      6  C   UNL     1      13.726   2.346  17.369  1.00  0.00     0.041 C 
ATOM      7  O   UNL     1      13.644   1.169  17.810  1.00  0.00    -0.550 OA
ATOM      8  O   UNL     1      12.927   3.344  17.913  1.00  0.00    -0.550 OA
ENDBRANCH   5   6
ENDBRANCH   4   5
ENDBRANCH   3   4
ENDBRANCH   2   3
ENDBRANCH   1   2
BRANCH   1   9
ATOM      9  C   UNL     1      17.216   1.861  11.305  1.00  0.00     0.000 C 
BRANCH   9  10
ATOM     10  C   UNL     1      17.725   0.416  11.436  1.00  0.00    -0.000 C 
BRANCH  10  11
ATOM     11  C   UNL     1      18.319   0.121  12.825  1.00  0.00    -0.000 C 
BRANCH  11  12
ATOM     12  C   UNL     1      17.332  -0.616  13.744  1.00  0.00    -0.000 C 
BRANCH  12  13
ATOM     13  C   UNL     1      17.478  -0.203  15.216  1.00  0.00    -0.003 C 
ATOM     14  C   UNL     1      16.290  -0.687  16.042  1.00  0.00     0.004 C 
ENDBRANCH  12  13
ENDBRANCH  11  12
ENDBRANCH  10  11
ENDBRANCH   9  10
ENDBRANCH   1   9
TORSDOF 10
ENDMDL
MODEL 5
REMARK VINA RESULT:    -5.452      1.381      3.060
REMARK INTER + INTRA:          -9.435
REMARK INTER:                  -8.747
REMARK INTRA:                  -0.688
REMARK UNBOUND:                -0.796
REMARK SMILES CCCCCCCCCCCC(=O)[O-]
REMARK SMILES IDX 7 1 8 2 9 3 10 4 11 5 12 6 13 7 14 8 6 9 5 10 4 11 3 12 2 13
REMARK SMILES IDX 1 14
REMARK H PARENT
REMARK Flexibility Score: inf
ROOT
ATOM      1  C   UNL     1      14.260   2.922  18.376  1.00  0.00     0.000 C 
ENDROOT
BRANCH   1   2
ATOM      2  C   UNL     1      14.032   1.577  19.077  1.00  0.00     0.000 C 
BRANCH   2   3
ATOM      3  C   UNL     1      15.142   1.293  20.096  1.00  0.00     0.000 C 
BRANCH   3   4
ATOM      4  C   UNL     1      15.790  -0.073  19.839  1.00  0.00     0.006 C 
BRANCH   4   5
ATOM      5  C   UNL     1      17.220   0.085  19.315  1.00  0.00     0.053 C 
BRANCH   5   6
ATOM      6  C   UNL     1      17.209   0.438  17.861  1.00  0.00     0.041 C 
ATOM      7  O   UNL     1      17.659   1.549  17.476  1.00  0.00    -0.550 OA
ATOM      8  O   UNL     1      16.659  -0.441  16.937  1.00  0.00    -0.550 OA
ENDBRANCH   5   6
ENDBRANCH   4   5
ENDBRANCH   3   4
ENDBRANCH   2   3
ENDBRANCH   1   2
BRANCH   1   9
ATOM      9  C   UNL     1      13.044   3.308  17.521  1.00  0.00     0.000 C 
BRANCH   9  10
ATOM     10  C   UNL     1      13.253   3.010  16.027  1.00  0.00    -0.000 C 
BRANCH  10  11
ATOM     11  C   UNL     1      14.717   2.670  15.692  1.00  0.00    -0.000 C 
BRANCH  11  12
ATOM     12  C   UNL     1      14.864   1.978  14.327  1.00  0.00    -0.000 C 
BRANCH  12  13
ATOM     13  C   UNL     1      15.526   2.882  13.278  1.00  0.00    -0.003 C 
ATOM     14  C   UNL     1      15.655   2.165  11.937  1.00  0.00     0.004 C 
ENDBRANCH  12  13
ENDBRANCH  11  12
ENDBRANCH  10  11
ENDBRANCH   9  10
ENDBRANCH   1   9
TORSDOF 10
ENDMDL
MODEL 6
REMARK VINA RESULT:    -5.443      3.011      5.625
REMARK INTER + INTRA:          -9.422
REMARK INTER:                  -8.072
REMARK INTRA:                  -1.350
REMARK UNBOUND:                -0.796
REMARK SMILES CCCCCCCCCCCC(=O)[O-]
REMARK SMILES IDX 7 1 8 2 9 3 10 4 11 5 12 6 13 7 14 8 6 9 5 10 4 11 3 12 2 13
REMARK SMILES IDX 1 14
REMARK H PARENT
REMARK Flexibility Score: inf
ROOT
ATOM      1  C   UNL     1      16.043   0.707  19.837  1.00  0.00     0.000 C 
ENDROOT
BRANCH   1   2
ATOM      2  C   UNL     1      17.273  -0.028  19.291  1.00  0.00     0.000 C 
BRANCH   2   3
ATOM      3  C   UNL     1      16.953  -1.501  19.009  1.00  0.00     0.000 C 
BRANCH   3   4
ATOM      4  C   UNL     1      17.281  -1.867  17.556  1.00  0.00     0.006 C 
BRANCH   4   5
ATOM      5  C   UNL     1      16.126  -1.495  16.621  1.00  0.00     0.053 C 
BRANCH   5   6
ATOM      6  C   UNL     1      16.530  -0.381  15.708  1.00  0.00     0.041 C 
ATOM      7  O   UNL     1      15.712   0.076  14.867  1.00  0.00    -0.550 OA
ATOM      8  O   UNL     1      17.825   0.120  15.753  1.00  0.00    -0.550 OA
ENDBRANCH   5   6
ENDBRANCH   4   5
ENDBRANCH   3   4
ENDBRANCH   2   3
ENDBRANCH   1   2
BRANCH   1   9
ATOM      9  C   UNL     1      14.840  -0.243  19.946  1.00  0.00     0.000 C 
BRANCH   9  10
ATOM     10  C   UNL     1      13.626   0.247  19.139  1.00  0.00    -0.000 C 
BRANCH  10  11
ATOM     11  C   UNL     1      14.021   1.203  18.000  1.00  0.00    -0.000 C 
BRANCH  11  12
ATOM     12  C   UNL     1      13.480   2.627  18.210  1.00  0.00    -0.000 C 
BRANCH  12  13
ATOM     13  C   UNL     1      14.360   3.695  17.544  1.00  0.00    -0.003 C 
ATOM     14  C   UNL     1      15.581   3.065  16.881  1.00  0.00     0.004 C 
ENDBRANCH  12  13
ENDBRANCH  11  12
ENDBRANCH  10  11
ENDBRANCH   9  10
ENDBRANCH   1   9
TORSDOF 10
ENDMDL
MODEL 7
REMARK VINA RESULT:    -5.438      1.595      2.374
REMARK INTER + INTRA:          -9.413
REMARK INTER:                  -8.271
REMARK INTRA:                  -1.142
REMARK UNBOUND:                -0.796
REMARK SMILES CCCCCCCCCCCC(=O)[O-]
REMARK SMILES IDX 7 1 8 2 9 3 10 4 11 5 12 6 13 7 14 8 6 9 5 10 4 11 3 12 2 13
REMARK SMILES IDX 1 14
REMARK H PARENT
REMARK Flexibility Score: inf
ROOT
ATOM      1  C   UNL     1      14.856   2.573  14.507  1.00  0.00     0.000 C 
ENDROOT
BRANCH   1   2
ATOM      2  C   UNL     1      15.165   1.099  14.799  1.00  0.00     0.000 C 
BRANCH   2   3
ATOM      3  C   UNL     1      16.190   0.967  15.931  1.00  0.00     0.000 C 
BRANCH   3   4
ATOM      4  C   UNL     1      16.020   2.087  16.964  1.00  0.00     0.006 C 
BRANCH   4   5
ATOM      5  C   UNL     1      15.614   1.521  18.329  1.00  0.00     0.053 C 
BRANCH   5   6
ATOM      6  C   UNL     1      14.128   1.371  18.412  1.00  0.00     0.041 C 
ATOM      7  O   UNL     1      13.624   0.408  19.048  1.00  0.00    -0.550 OA
ATOM      8  O   UNL     1      13.300   2.267  17.747  1.00  0.00    -0.550 OA
ENDBRANCH   5   6
ENDBRANCH   4   5
ENDBRANCH   3   4
ENDBRANCH   2   3
ENDBRANCH   1   2
BRANCH   1   9
ATOM      9  C   UNL     1      15.374   2.976  13.118  1.00  0.00     0.000 C 
BRANCH   9  10
ATOM     10  C   UNL     1      15.581   1.766  12.191  1.00  0.00    -0.000 C 
BRANCH  10  11
ATOM     11  C   UNL     1      16.747   1.969  11.207  1.00  0.00    -0.000 C 
BRANCH  11  12
ATOM     12  C   UNL     1      17.793   0.845  11.292  1.00  0.00    -0.000 C 
BRANCH  12  13
ATOM     13  C   UNL     1      17.473  -0.175  12.394  1.00  0.00    -0.003 C 
ATOM     14  C   UNL     1      18.593  -0.237  13.428  1.00  0.00     0.004 C 
ENDBRANCH  12  13
ENDBRANCH  11  12
ENDBRANCH  10  11
ENDBRANCH   9  10
ENDBRANCH   1   9
TORSDOF 10
ENDMDL
MODEL 8
REMARK VINA RESULT:    -5.409      2.540      4.515
REMARK INTER + INTRA:          -9.367
REMARK INTER:                  -8.093
REMARK INTRA:                  -1.274
REMARK UNBOUND:                -0.796
REMARK SMILES CCCCCCCCCCCC(=O)[O-]
REMARK SMILES IDX 7 1 8 2 9 3 10 4 11 5 12 6 13 7 14 8 6 9 5 10 4 11 3 12 2 13
REMARK SMILES IDX 1 14
REMARK H PARENT
REMARK Flexibility Score: inf
ROOT
ATOM      1  C   UNL     1      13.999   0.385  19.720  1.00  0.00     0.000 C 
ENDROOT
BRANCH   1   2
ATOM      2  C   UNL     1      15.315   0.816  20.377  1.00  0.00     0.000 C 
BRANCH   2   3
ATOM      3  C   UNL     1      16.520   0.362  19.545  1.00  0.00     0.000 C 
BRANCH   3   4
ATOM      4  C   UNL     1      16.628  -1.168  19.520  1.00  0.00     0.006 C 
BRANCH   4   5
ATOM      5  C   UNL     1      17.138  -1.662  18.163  1.00  0.00     0.053 C 
BRANCH   5   6
ATOM      6  C   UNL     1      16.028  -1.677  17.161  1.00  0.00     0.041 C 
ATOM      7  O   UNL     1      14.953  -2.281  17.416  1.00  0.00    -0.550 OA
ATOM      8  O   UNL     1      16.199  -1.066  15.925  1.00  0.00    -0.550 OA
ENDBRANCH   5   6
ENDBRANCH   4   5
ENDBRANCH   3   4
ENDBRANCH   2   3
ENDBRANCH   1   2
BRANCH   1   9
ATOM      9  C   UNL     1      13.811   1.078  18.362  1.00  0.00     0.000 C 
BRANCH   9  10
ATOM     10  C   UNL     1      13.693   2.606  18.490  1.00  0.00    -0.000 C 
BRANCH  10  11
ATOM     11  C   UNL     1      14.406   3.352  17.348  1.00  0.00    -0.000 C 
BRANCH  11  12
ATOM     12  C   UNL     1      15.555   2.534  16.736  1.00  0.00    -0.000 C 
BRANCH  12  13
ATOM     13  C   UNL     1      15.449   2.423  15.208  1.00  0.00    -0.003 C 
ATOM     14  C   UNL     1      13.994   2.290  14.767  1.00  0.00     0.004 C 
ENDBRANCH  12  13
ENDBRANCH  11  12
ENDBRANCH  10  11
ENDBRANCH   9  10
ENDBRANCH   1   9
TORSDOF 10
ENDMDL
MODEL 9
REMARK VINA RESULT:    -5.376      2.074      3.707
REMARK INTER + INTRA:          -9.314
REMARK INTER:                  -8.421
REMARK INTRA:                  -0.894
REMARK UNBOUND:                -0.796
REMARK SMILES CCCCCCCCCCCC(=O)[O-]
REMARK SMILES IDX 7 1 8 2 9 3 10 4 11 5 12 6 13 7 14 8 6 9 5 10 4 11 3 12 2 13
REMARK SMILES IDX 1 14
REMARK H PARENT
REMARK Flexibility Score: inf
ROOT
ATOM      1  C   UNL     1      16.704  -1.464  17.152  1.00  0.00     0.000 C 
ENDROOT
BRANCH   1   2
ATOM      2  C   UNL     1      17.213  -1.547  18.596  1.00  0.00     0.000 C 
BRANCH   2   3
ATOM      3  C   UNL     1      17.142  -0.178  19.283  1.00  0.00     0.000 C 
BRANCH   3   4
ATOM      4  C   UNL     1      15.799   0.012  19.998  1.00  0.00     0.006 C 
BRANCH   4   5
ATOM      5  C   UNL     1      15.161   1.353  19.624  1.00  0.00     0.053 C 
BRANCH   5   6
ATOM      6  C   UNL     1      14.049   1.149  18.643  1.00  0.00     0.041 C 
ATOM      7  O   UNL     1      13.756  -0.012  18.252  1.00  0.00    -0.550 OA
ATOM      8  O   UNL     1      13.369   2.244  18.126  1.00  0.00    -0.550 OA
ENDBRANCH   5   6
ENDBRANCH   4   5
ENDBRANCH   3   4
ENDBRANCH   2   3
ENDBRANCH   1   2
BRANCH   1   9
ATOM      9  C   UNL     1      16.945  -0.065  16.565  1.00  0.00     0.000 C 
BRANCH   9  10
ATOM     10  C   UNL     1      16.198   0.155  15.238  1.00  0.00    -0.000 C 
BRANCH  10  11
ATOM     11  C   UNL     1      15.607   1.571  15.122  1.00  0.00    -0.000 C 
BRANCH  11  12
ATOM     12  C   UNL     1      14.782   1.762  13.838  1.00  0.00    -0.000 C 
BRANCH  12  13
ATOM     13  C   UNL     1      15.446   2.733  12.851  1.00  0.00    -0.003 C 
ATOM     14  C   UNL     1      15.870   2.013  11.574  1.00  0.00     0.004 C 
ENDBRANCH  12  13
ENDBRANCH  11  12
ENDBRANCH  10  11
ENDBRANCH   9  10
ENDBRANCH   1   9
TORSDOF 10
ENDMDL
