MODEL 1
REMARK VINA RESULT:     0.646      0.000      0.000
REMARK INTER + INTRA:           0.986
REMARK INTER:                   1.704
REMARK INTRA:                  -0.719
REMARK UNBOUND:                -0.719
REMARK SMILES CCCCCCCCCCCCCCCCCCCCCCCCCCCCCC(=O)[O-]
REMARK SMILES IDX 16 1 17 2 18 3 19 4 20 5 21 6 22 7 23 8 24 9 25 10 26 11
REMARK SMILES IDX 27 12 28 13 29 14 30 15 31 16 32 17 15 18 14 19 13 20 12 21
REMARK SMILES IDX 11 22 10 23 9 24 8 25 7 26 6 27 5 28 4 29 3 30 2 31 1 32
REMARK H PARENT
REMARK Flexibility Score: inf
ROOT
ATOM      1  C   UNL     1      23.306  22.876 -10.482  1.00  0.00     0.000 C 
ENDROOT
BRANCH   1   2
ATOM      2  C   UNL     1      23.297  22.227  -9.089  1.00  0.00     0.000 C 
BRANCH   2   3
ATOM      3  C   UNL     1      21.884  22.111  -8.494  1.00  0.00     0.000 C 
BRANCH   3   4
ATOM      4  C   UNL     1      20.800  22.664  -9.435  1.00  0.00     0.000 C 
BRANCH   4   5
ATOM      5  C   UNL     1      20.838  22.027 -10.836  1.00  0.00     0.000 C 
BRANCH   5   6
ATOM      6  C   UNL     1      20.423  20.544 -10.897  1.00  0.00     0.000 C 
BRANCH   6   7
ATOM      7  C   UNL     1      21.578  19.585 -10.563  1.00  0.00     0.000 C 
BRANCH   7   8
ATOM      8  C   UNL     1      21.142  18.110 -10.569  1.00  0.00     0.000 C 
BRANCH   8   9
ATOM      9  C   UNL     1      19.720  17.913 -11.124  1.00  0.00     0.000 C 
BRANCH   9  10
ATOM     10  C   UNL     1      18.862  17.008 -10.226  1.00  0.00     0.000 C 
BRANCH  10  11
ATOM     11  C   UNL     1      17.799  17.792  -9.437  1.00  0.00     0.000 C 
BRANCH  11  12
ATOM     12  C   UNL     1      16.366  17.511  -9.923  1.00  0.00     0.000 C 
BRANCH  12  13
ATOM     13  C   UNL     1      15.820  18.522 -10.949  1.00  0.00     0.006 C 
BRANCH  13  14
ATOM     14  C   UNL     1      14.408  19.015 -10.610  1.00  0.00     0.053 C 
BRANCH  14  15
ATOM     15  C   UNL     1      14.298  19.318  -9.149  1.00  0.00     0.041 C 
ATOM     16  O   UNL     1      13.593  18.590  -8.402  1.00  0.00    -0.550 OA
ATOM     17  O   UNL     1      14.933  20.435  -8.621  1.00  0.00    -0.550 OA
ENDBRANCH  14  15
ENDBRANCH  13  14
ENDBRANCH  12  13
ENDBRANCH  11  12
ENDBRANCH  10  11
ENDBRANCH   9  10
ENDBRANCH   8   9
ENDBRANCH   7   8
ENDBRANCH   6   7
ENDBRANCH   5   6
ENDBRANCH   4   5
ENDBRANCH   3   4
ENDBRANCH   2   3
ENDBRANCH   1   2
BRANCH   1  18
ATOM     18  C   UNL     1      24.648  23.573 -10.746  1.00  0.00     0.000 C 
BRANCH  18  19
ATOM     19  C   UNL     1      25.773  22.591 -11.121  1.00  0.00     0.000 C 
BRANCH  19  20
ATOM     20  C   UNL     1      27.149  22.902 -10.498  1.00  0.00     0.000 C 
BRANCH  20  21
ATOM     21  C   UNL     1      27.321  24.338  -9.971  1.00  0.00     0.000 C 
BRANCH  21  22
ATOM     22  C   UNL     1      28.610  24.526  -9.151  1.00  0.00     0.000 C 
BRANCH  22  23
ATOM     23  C   UNL     1      28.380  24.312  -7.645  1.00  0.00     0.000 C 
BRANCH  23  24
ATOM     24  C   UNL     1      29.125  23.077  -7.111  1.00  0.00    -0.000 C 
BRANCH  24  25
ATOM     25  C   UNL     1      28.845  22.821  -5.618  1.00  0.00    -0.000 C 
BRANCH  25  26
ATOM     26  C   UNL     1      28.938  24.090  -4.741  1.00  0.00    -0.000 C 
BRANCH  26  27
ATOM     27  C   UNL     1      29.125  23.801  -3.239  1.00  0.00    -0.000 C 
BRANCH  27  28
ATOM     28  C   UNL     1      28.027  22.926  -2.599  1.00  0.00    -0.000 C 
BRANCH  28  29
ATOM     29  C   UNL     1      26.753  23.694  -2.191  1.00  0.00    -0.000 C 
BRANCH  29  30
ATOM     30  C   UNL     1      27.031  24.925  -1.298  1.00  0.00    -0.000 C 
BRANCH  30  31
ATOM     31  C   UNL     1      27.466  24.560   0.130  1.00  0.00    -0.003 C 
ATOM     32  C   UNL     1      28.091  25.738   0.877  1.00  0.00     0.004 C 
ENDBRANCH  30  31
ENDBRANCH  29  30
ENDBRANCH  28  29
ENDBRANCH  27  28
ENDBRANCH  26  27
ENDBRANCH  25  26
ENDBRANCH  24  25
ENDBRANCH  23  24
ENDBRANCH  22  23
ENDBRANCH  21  22
ENDBRANCH  20  21
ENDBRANCH  19  20
ENDBRANCH  18  19
ENDBRANCH   1  18
TORSDOF 28
ENDMDL
MODEL 2
REMARK VINA RESULT:     2.671      8.191     12.638
REMARK INTER + INTRA:           6.325
REMARK INTER:                   7.443
REMARK INTRA:                  -1.118
REMARK UNBOUND:                -0.719
REMARK SMILES CCCCCCCCCCCCCCCCCCCCCCCCCCCCCC(=O)[O-]
REMARK SMILES IDX 16 1 17 2 18 3 19 4 20 5 21 6 22 7 23 8 24 9 25 10 26 11
REMARK SMILES IDX 27 12 28 13 29 14 30 15 31 16 32 17 15 18 14 19 13 20 12 21
REMARK SMILES IDX 11 22 10 23 9 24 8 25 7 26 6 27 5 28 4 29 3 30 2 31 1 32
REMARK H PARENT
REMARK Flexibility Score: inf
ROOT
ATOM      1  C   UNL     1      26.893  24.921  -0.509  1.00  0.00     0.000 C 
ENDROOT
BRANCH   1   2
ATOM      2  C   UNL     1      26.868  24.004  -1.741  1.00  0.00     0.000 C 
BRANCH   2   3
ATOM      3  C   UNL     1      28.179  23.225  -1.931  1.00  0.00     0.000 C 
BRANCH   3   4
ATOM      4  C   UNL     1      27.952  21.813  -2.497  1.00  0.00     0.000 C 
BRANCH   4   5
ATOM      5  C   UNL     1      27.934  21.778  -4.037  1.00  0.00     0.000 C 
BRANCH   5   6
ATOM      6  C   UNL     1      29.081  22.541  -4.726  1.00  0.00     0.000 C 
BRANCH   6   7
ATOM      7  C   UNL     1      28.835  24.057  -4.799  1.00  0.00     0.000 C 
BRANCH   7   8
ATOM      8  C   UNL     1      28.770  24.577  -6.245  1.00  0.00     0.000 C 
BRANCH   8   9
ATOM      9  C   UNL     1      29.124  23.495  -7.281  1.00  0.00     0.000 C 
BRANCH   9  10
ATOM     10  C   UNL     1      28.242  23.578  -8.538  1.00  0.00     0.000 C 
BRANCH  10  11
ATOM     11  C   UNL     1      29.058  23.514  -9.841  1.00  0.00     0.000 C 
BRANCH  11  12
ATOM     12  C   UNL     1      28.669  24.616 -10.843  1.00  0.00     0.000 C 
BRANCH  12  13
ATOM     13  C   UNL     1      28.980  26.051 -10.380  1.00  0.00     0.006 C 
BRANCH  13  14
ATOM     14  C   UNL     1      27.834  26.681  -9.578  1.00  0.00     0.053 C 
BRANCH  14  15
ATOM     15  C   UNL     1      27.714  28.138  -9.897  1.00  0.00     0.041 C 
ATOM     16  O   UNL     1      28.721  28.890  -9.813  1.00  0.00    -0.550 OA
ATOM     17  O   UNL     1      26.479  28.676 -10.236  1.00  0.00    -0.550 OA
ENDBRANCH  14  15
ENDBRANCH  13  14
ENDBRANCH  12  13
ENDBRANCH  11  12
ENDBRANCH  10  11
ENDBRANCH   9  10
ENDBRANCH   8   9
ENDBRANCH   7   8
ENDBRANCH   6   7
ENDBRANCH   5   6
ENDBRANCH   4   5
ENDBRANCH   3   4
ENDBRANCH   2   3
ENDBRANCH   1   2
BRANCH   1  18
ATOM     18  C   UNL     1      28.241  24.814   0.219  1.00  0.00     0.000 C 
BRANCH  18  19
ATOM     19  C   UNL     1      28.252  25.542   1.575  1.00  0.00     0.000 C 
BRANCH  19  20
ATOM     20  C   UNL     1      28.416  27.073   1.495  1.00  0.00     0.000 C 
BRANCH  20  21
ATOM     21  C   UNL     1      29.114  27.724   2.704  1.00  0.00     0.000 C 
BRANCH  21  22
ATOM     22  C   UNL     1      29.021  26.871   3.981  1.00  0.00     0.000 C 
BRANCH  22  23
ATOM     23  C   UNL     1      27.585  26.788   4.524  1.00  0.00     0.000 C 
BRANCH  23  24
ATOM     24  C   UNL     1      26.936  28.175   4.671  1.00  0.00    -0.000 C 
BRANCH  24  25
ATOM     25  C   UNL     1      26.573  28.502   6.132  1.00  0.00    -0.000 C 
BRANCH  25  26
ATOM     26  C   UNL     1      27.699  28.179   7.141  1.00  0.00    -0.000 C 
BRANCH  26  27
ATOM     27  C   UNL     1      28.943  29.077   6.998  1.00  0.00    -0.000 C 
BRANCH  27  28
ATOM     28  C   UNL     1      28.649  30.577   6.785  1.00  0.00    -0.000 C 
BRANCH  28  29
ATOM     29  C   UNL     1      28.664  31.423   8.074  1.00  0.00    -0.000 C 
BRANCH  29  30
ATOM     30  C   UNL     1      28.660  32.947   7.815  1.00  0.00    -0.000 C 
BRANCH  30  31
ATOM     31  C   UNL     1      28.206  33.773   9.029  1.00  0.00    -0.003 C 
ATOM     32  C   UNL     1      28.201  35.276   8.754  1.00  0.00     0.004 C 
ENDBRANCH  30  31
ENDBRANCH  29  30
ENDBRANCH  28  29
ENDBRANCH  27  28
ENDBRANCH  26  27
ENDBRANCH  25  26
ENDBRANCH  24  25
ENDBRANCH  23  24
ENDBRANCH  22  23
ENDBRANCH  21  22
ENDBRANCH  20  21
ENDBRANCH  19  20
ENDBRANCH  18  19
ENDBRANCH   1  18
TORSDOF 28
ENDMDL
MODEL 3
REMARK VINA RESULT:     3.050      8.249     12.262
REMARK INTER + INTRA:           7.325
REMARK INTER:                   8.342
REMARK INTRA:                  -1.018
REMARK UNBOUND:                -0.719
REMARK SMILES CCCCCCCCCCCCCCCCCCCCCCCCCCCCCC(=O)[O-]
REMARK SMILES IDX 16 1 17 2 18 3 19 4 20 5 21 6 22 7 23 8 24 9 25 10 26 11
REMARK SMILES IDX 27 12 28 13 29 14 30 15 31 16 32 17 15 18 14 19 13 20 12 21
REMARK SMILES IDX 11 22 10 23 9 24 8 25 7 26 6 27 5 28 4 29 3 30 2 31 1 32
REMARK H PARENT
REMARK Flexibility Score: inf
ROOT
ATOM      1  C   UNL     1      27.418  24.789  -1.842  1.00  0.00     0.000 C 
ENDROOT
BRANCH   1   2
ATOM      2  C   UNL     1      27.256  23.647  -2.857  1.00  0.00     0.000 C 
BRANCH   2   3
ATOM      3  C   UNL     1      28.542  22.828  -3.045  1.00  0.00     0.000 C 
BRANCH   3   4
ATOM      4  C   UNL     1      29.125  22.959  -4.462  1.00  0.00     0.000 C 
BRANCH   4   5
ATOM      5  C   UNL     1      28.042  23.000  -5.556  1.00  0.00     0.000 C 
BRANCH   5   6
ATOM      6  C   UNL     1      28.471  22.446  -6.928  1.00  0.00     0.000 C 
BRANCH   6   7
ATOM      7  C   UNL     1      28.915  23.546  -7.907  1.00  0.00     0.000 C 
BRANCH   7   8
ATOM      8  C   UNL     1      28.491  23.255  -9.356  1.00  0.00     0.000 C 
BRANCH   8   9
ATOM      9  C   UNL     1      29.094  24.251 -10.363  1.00  0.00     0.000 C 
BRANCH   9  10
ATOM     10  C   UNL     1      28.663  25.700 -10.083  1.00  0.00     0.000 C 
BRANCH  10  11
ATOM     11  C   UNL     1      27.244  26.006 -10.595  1.00  0.00     0.000 C 
BRANCH  11  12
ATOM     12  C   UNL     1      26.342  26.632  -9.515  1.00  0.00     0.000 C 
BRANCH  12  13
ATOM     13  C   UNL     1      26.383  28.170  -9.450  1.00  0.00     0.006 C 
BRANCH  13  14
ATOM     14  C   UNL     1      27.799  28.739  -9.611  1.00  0.00     0.053 C 
BRANCH  14  15
ATOM     15  C   UNL     1      27.742  30.146 -10.114  1.00  0.00     0.041 C 
ATOM     16  O   UNL     1      28.595  30.557 -10.945  1.00  0.00    -0.550 OA
ATOM     17  O   UNL     1      26.777  31.020  -9.630  1.00  0.00    -0.550 OA
ENDBRANCH  14  15
ENDBRANCH  13  14
ENDBRANCH  12  13
ENDBRANCH  11  12
ENDBRANCH  10  11
ENDBRANCH   9  10
ENDBRANCH   8   9
ENDBRANCH   7   8
ENDBRANCH   6   7
ENDBRANCH   5   6
ENDBRANCH   4   5
ENDBRANCH   3   4
ENDBRANCH   2   3
ENDBRANCH   1   2
BRANCH   1  18
ATOM     18  C   UNL     1      28.895  24.966  -1.458  1.00  0.00     0.000 C 
BRANCH  18  19
ATOM     19  C   UNL     1      29.093  25.872  -0.230  1.00  0.00     0.000 C 
BRANCH  19  20
ATOM     20  C   UNL     1      28.054  25.689   0.894  1.00  0.00     0.000 C 
BRANCH  20  21
ATOM     21  C   UNL     1      28.241  26.605   2.117  1.00  0.00     0.000 C 
BRANCH  21  22
ATOM     22  C   UNL     1      28.473  25.824   3.423  1.00  0.00     0.000 C 
BRANCH  22  23
ATOM     23  C   UNL     1      28.908  26.738   4.580  1.00  0.00     0.000 C 
BRANCH  23  24
ATOM     24  C   UNL     1      29.054  28.205   4.140  1.00  0.00    -0.000 C 
BRANCH  24  25
ATOM     25  C   UNL     1      28.472  29.189   5.173  1.00  0.00    -0.000 C 
BRANCH  25  26
ATOM     26  C   UNL     1      27.141  28.717   5.801  1.00  0.00    -0.000 C 
BRANCH  26  27
ATOM     27  C   UNL     1      27.178  28.611   7.338  1.00  0.00    -0.000 C 
BRANCH  27  28
ATOM     28  C   UNL     1      28.569  28.806   7.977  1.00  0.00    -0.000 C 
BRANCH  28  29
ATOM     29  C   UNL     1      29.102  30.253   7.921  1.00  0.00    -0.000 C 
BRANCH  29  30
ATOM     30  C   UNL     1      28.005  31.324   8.118  1.00  0.00    -0.000 C 
BRANCH  30  31
ATOM     31  C   UNL     1      28.509  32.761   7.904  1.00  0.00    -0.003 C 
ATOM     32  C   UNL     1      27.568  33.812   8.494  1.00  0.00     0.004 C 
ENDBRANCH  30  31
ENDBRANCH  29  30
ENDBRANCH  28  29
ENDBRANCH  27  28
ENDBRANCH  26  27
ENDBRANCH  25  26
ENDBRANCH  24  25
ENDBRANCH  23  24
ENDBRANCH  22  23
ENDBRANCH  21  22
ENDBRANCH  20  21
ENDBRANCH  19  20
ENDBRANCH  18  19
ENDBRANCH   1  18
TORSDOF 28
ENDMDL
MODEL 4
REMARK VINA RESULT:     3.485      9.482     16.194
REMARK INTER + INTRA:           8.470
REMARK INTER:                   9.587
REMARK INTRA:                  -1.117
REMARK UNBOUND:                -0.719
REMARK SMILES CCCCCCCCCCCCCCCCCCCCCCCCCCCCCC(=O)[O-]
REMARK SMILES IDX 16 1 17 2 18 3 19 4 20 5 21 6 22 7 23 8 24 9 25 10 26 11
REMARK SMILES IDX 27 12 28 13 29 14 30 15 31 16 32 17 15 18 14 19 13 20 12 21
REMARK SMILES IDX 11 22 10 23 9 24 8 25 7 26 6 27 5 28 4 29 3 30 2 31 1 32
REMARK H PARENT
REMARK Flexibility Score: inf
ROOT
ATOM      1  C   UNL     1      27.872  25.437  -0.866  1.00  0.00     0.000 C 
ENDROOT
BRANCH   1   2
ATOM      2  C   UNL     1      27.210  25.464   0.520  1.00  0.00     0.000 C 
BRANCH   2   3
ATOM      3  C   UNL     1      28.172  25.915   1.631  1.00  0.00     0.000 C 
BRANCH   3   4
ATOM      4  C   UNL     1      29.100  27.056   1.182  1.00  0.00     0.000 C 
BRANCH   4   5
ATOM      5  C   UNL     1      28.335  28.321   0.753  1.00  0.00     0.000 C 
BRANCH   5   6
ATOM      6  C   UNL     1      28.782  29.625   1.441  1.00  0.00     0.000 C 
BRANCH   6   7
ATOM      7  C   UNL     1      28.343  29.708   2.913  1.00  0.00     0.000 C 
BRANCH   7   8
ATOM      8  C   UNL     1      29.124  28.741   3.819  1.00  0.00     0.000 C 
BRANCH   8   9
ATOM      9  C   UNL     1      28.319  28.303   5.055  1.00  0.00     0.000 C 
BRANCH   9  10
ATOM     10  C   UNL     1      28.937  28.812   6.367  1.00  0.00     0.000 C 
BRANCH  10  11
ATOM     11  C   UNL     1      27.990  28.655   7.569  1.00  0.00     0.000 C 
BRANCH  11  12
ATOM     12  C   UNL     1      27.779  29.971   8.340  1.00  0.00     0.000 C 
BRANCH  12  13
ATOM     13  C   UNL     1      28.939  30.979   8.228  1.00  0.00     0.006 C 
BRANCH  13  14
ATOM     14  C   UNL     1      28.750  32.210   9.124  1.00  0.00     0.053 C 
BRANCH  14  15
ATOM     15  C   UNL     1      28.490  33.425   8.291  1.00  0.00     0.041 C 
ATOM     16  O   UNL     1      27.732  33.356   7.288  1.00  0.00    -0.550 OA
ATOM     17  O   UNL     1      29.125  34.623   8.592  1.00  0.00    -0.550 OA
ENDBRANCH  14  15
ENDBRANCH  13  14
ENDBRANCH  12  13
ENDBRANCH  11  12
ENDBRANCH  10  11
ENDBRANCH   9  10
ENDBRANCH   8   9
ENDBRANCH   7   8
ENDBRANCH   6   7
ENDBRANCH   5   6
ENDBRANCH   4   5
ENDBRANCH   3   4
ENDBRANCH   2   3
ENDBRANCH   1   2
BRANCH   1  18
ATOM     18  C   UNL     1      28.159  23.992  -1.300  1.00  0.00     0.000 C 
BRANCH  18  19
ATOM     19  C   UNL     1      29.047  23.906  -2.555  1.00  0.00     0.000 C 
BRANCH  19  20
ATOM     20  C   UNL     1      28.288  23.711  -3.883  1.00  0.00     0.000 C 
BRANCH  20  21
ATOM     21  C   UNL     1      29.112  23.977  -5.156  1.00  0.00     0.000 C 
BRANCH  21  22
ATOM     22  C   UNL     1      28.261  23.960  -6.437  1.00  0.00     0.000 C 
BRANCH  22  23
ATOM     23  C   UNL     1      29.120  23.844  -7.707  1.00  0.00     0.000 C 
BRANCH  23  24
ATOM     24  C   UNL     1      28.293  23.425  -8.935  1.00  0.00    -0.000 C 
BRANCH  24  25
ATOM     25  C   UNL     1      27.835  24.632  -9.775  1.00  0.00    -0.000 C 
BRANCH  25  26
ATOM     26  C   UNL     1      28.885  25.763  -9.864  1.00  0.00    -0.000 C 
BRANCH  26  27
ATOM     27  C   UNL     1      28.335  27.156  -9.502  1.00  0.00    -0.000 C 
BRANCH  27  28
ATOM     28  C   UNL     1      27.059  27.576 -10.261  1.00  0.00    -0.000 C 
BRANCH  28  29
ATOM     29  C   UNL     1      27.090  29.011 -10.823  1.00  0.00    -0.000 C 
BRANCH  29  30
ATOM     30  C   UNL     1      27.862  30.010  -9.930  1.00  0.00    -0.000 C 
BRANCH  30  31
ATOM     31  C   UNL     1      26.978  30.697  -8.876  1.00  0.00    -0.003 C 
ATOM     32  C   UNL     1      26.370  32.007  -9.377  1.00  0.00     0.004 C 
ENDBRANCH  30  31
ENDBRANCH  29  30
ENDBRANCH  28  29
ENDBRANCH  27  28
ENDBRANCH  26  27
ENDBRANCH  25  26
ENDBRANCH  24  25
ENDBRANCH  23  24
ENDBRANCH  22  23
ENDBRANCH  21  22
ENDBRANCH  20  21
ENDBRANCH  19  20
ENDBRANCH  18  19
ENDBRANCH   1  18
TORSDOF 28
ENDMDL
MODEL 5
REMARK VINA RESULT:     3.498      5.456     11.146
REMARK INTER + INTRA:           8.506
REMARK INTER:                  10.049
REMARK INTRA:                  -1.543
REMARK UNBOUND:                -0.719
REMARK SMILES CCCCCCCCCCCCCCCCCCCCCCCCCCCCCC(=O)[O-]
REMARK SMILES IDX 16 1 17 2 18 3 19 4 20 5 21 6 22 7 23 8 24 9 25 10 26 11
REMARK SMILES IDX 27 12 28 13 29 14 30 15 31 16 32 17 15 18 14 19 13 20 12 21
REMARK SMILES IDX 11 22 10 23 9 24 8 25 7 26 6 27 5 28 4 29 3 30 2 31 1 32
REMARK H PARENT
REMARK Flexibility Score: inf
ROOT
ATOM      1  C   UNL     1      27.413  24.791  -1.842  1.00  0.00     0.000 C 
ENDROOT
BRANCH   1   2
ATOM      2  C   UNL     1      27.245  23.655  -2.863  1.00  0.00     0.000 C 
BRANCH   2   3
ATOM      3  C   UNL     1      28.531  22.837  -3.062  1.00  0.00     0.000 C 
BRANCH   3   4
ATOM      4  C   UNL     1      29.107  22.976  -4.481  1.00  0.00     0.000 C 
BRANCH   4   5
ATOM      5  C   UNL     1      28.019  23.009  -5.571  1.00  0.00     0.000 C 
BRANCH   5   6
ATOM      6  C   UNL     1      28.448  22.461  -6.945  1.00  0.00     0.000 C 
BRANCH   6   7
ATOM      7  C   UNL     1      28.870  23.567  -7.927  1.00  0.00     0.000 C 
BRANCH   7   8
ATOM      8  C   UNL     1      28.459  23.259  -9.377  1.00  0.00     0.000 C 
BRANCH   8   9
ATOM      9  C   UNL     1      29.040  24.266 -10.386  1.00  0.00     0.000 C 
BRANCH   9  10
ATOM     10  C   UNL     1      28.578  25.705 -10.107  1.00  0.00     0.000 C 
BRANCH  10  11
ATOM     11  C   UNL     1      27.536  26.201 -11.125  1.00  0.00     0.000 C 
BRANCH  11  12
ATOM     12  C   UNL     1      26.271  26.769 -10.455  1.00  0.00     0.000 C 
BRANCH  12  13
ATOM     13  C   UNL     1      25.243  25.711 -10.010  1.00  0.00     0.006 C 
BRANCH  13  14
ATOM     14  C   UNL     1      24.243  25.348 -11.115  1.00  0.00     0.053 C 
BRANCH  14  15
ATOM     15  C   UNL     1      23.679  23.983 -10.879  1.00  0.00     0.041 C 
ATOM     16  O   UNL     1      22.449  23.769 -11.041  1.00  0.00    -0.550 OA
ATOM     17  O   UNL     1      24.503  22.958 -10.431  1.00  0.00    -0.550 OA
ENDBRANCH  14  15
ENDBRANCH  13  14
ENDBRANCH  12  13
ENDBRANCH  11  12
ENDBRANCH  10  11
ENDBRANCH   9  10
ENDBRANCH   8   9
ENDBRANCH   7   8
ENDBRANCH   6   7
ENDBRANCH   5   6
ENDBRANCH   4   5
ENDBRANCH   3   4
ENDBRANCH   2   3
ENDBRANCH   1   2
BRANCH   1  18
ATOM     18  C   UNL     1      28.892  24.968  -1.467  1.00  0.00     0.000 C 
BRANCH  18  19
ATOM     19  C   UNL     1      29.097  25.866  -0.234  1.00  0.00     0.000 C 
BRANCH  19  20
ATOM     20  C   UNL     1      28.070  25.667   0.899  1.00  0.00     0.000 C 
BRANCH  20  21
ATOM     21  C   UNL     1      28.264  26.574   2.128  1.00  0.00     0.000 C 
BRANCH  21  22
ATOM     22  C   UNL     1      28.519  25.784   3.423  1.00  0.00     0.000 C 
BRANCH  22  23
ATOM     23  C   UNL     1      28.954  26.693   4.585  1.00  0.00     0.000 C 
BRANCH  23  24
ATOM     24  C   UNL     1      29.071  28.167   4.159  1.00  0.00    -0.000 C 
BRANCH  24  25
ATOM     25  C   UNL     1      28.486  29.130   5.209  1.00  0.00    -0.000 C 
BRANCH  25  26
ATOM     26  C   UNL     1      27.168  28.632   5.845  1.00  0.00    -0.000 C 
BRANCH  26  27
ATOM     27  C   UNL     1      27.224  28.501   7.379  1.00  0.00    -0.000 C 
BRANCH  27  28
ATOM     28  C   UNL     1      28.619  28.706   8.005  1.00  0.00    -0.000 C 
BRANCH  28  29
ATOM     29  C   UNL     1      29.125  30.162   7.980  1.00  0.00    -0.000 C 
BRANCH  29  30
ATOM     30  C   UNL     1      28.013  31.208   8.223  1.00  0.00    -0.000 C 
BRANCH  30  31
ATOM     31  C   UNL     1      28.487  32.659   8.041  1.00  0.00    -0.003 C 
ATOM     32  C   UNL     1      29.023  32.935   6.636  1.00  0.00     0.004 C 
ENDBRANCH  30  31
ENDBRANCH  29  30
ENDBRANCH  28  29
ENDBRANCH  27  28
ENDBRANCH  26  27
ENDBRANCH  25  26
ENDBRANCH  24  25
ENDBRANCH  23  24
ENDBRANCH  22  23
ENDBRANCH  21  22
ENDBRANCH  20  21
ENDBRANCH  19  20
ENDBRANCH  18  19
ENDBRANCH   1  18
TORSDOF 28
ENDMDL
