MODEL 1
REMARK VINA RESULT:    -4.229      0.000      0.000
REMARK INTER + INTRA:          -9.909
REMARK INTER:                  -7.690
REMARK INTRA:                  -2.218
REMARK UNBOUND:                -2.218
REMARK SMILES CCCCCCCCCCCCCCCC(=O)[O-]
REMARK SMILES IDX 9 1 10 2 11 3 12 4 13 5 14 6 15 7 16 8 17 9 18 10 8 11 7 12
REMARK SMILES IDX 6 13 5 14 4 15 3 16 2 17 1 18
REMARK H PARENT
REMARK Flexibility Score: inf
ROOT
ATOM      1  C   UNL     1     -17.858 -33.734  19.290  1.00  0.00     0.000 C 
ENDROOT
BRANCH   1   2
ATOM      2  C   UNL     1     -17.766 -33.786  17.755  1.00  0.00     0.000 C 
BRANCH   2   3
ATOM      3  C   UNL     1     -19.146 -33.798  17.072  1.00  0.00     0.000 C 
BRANCH   3   4
ATOM      4  C   UNL     1     -19.302 -32.810  15.902  1.00  0.00     0.000 C 
BRANCH   4   5
ATOM      5  C   UNL     1     -18.887 -33.416  14.549  1.00  0.00     0.000 C 
BRANCH   5   6
ATOM      6  C   UNL     1     -17.406 -33.163  14.215  1.00  0.00     0.006 C 
BRANCH   6   7
ATOM      7  C   UNL     1     -17.182 -32.211  13.028  1.00  0.00     0.053 C 
BRANCH   7   8
ATOM      8  C   UNL     1     -15.902 -31.444  13.158  1.00  0.00     0.041 C 
ATOM      9  O   UNL     1     -14.795 -32.041  13.090  1.00  0.00    -0.550 OA
ATOM     10  O   UNL     1     -15.931 -30.065  13.321  1.00  0.00    -0.550 OA
ENDBRANCH   7   8
ENDBRANCH   6   7
ENDBRANCH   5   6
ENDBRANCH   4   5
ENDBRANCH   3   4
ENDBRANCH   2   3
ENDBRANCH   1   2
BRANCH   1  11
ATOM     11  C   UNL     1     -19.256 -33.326  19.783  1.00  0.00     0.000 C 
BRANCH  11  12
ATOM     12  C   UNL     1     -19.245 -31.986  20.541  1.00  0.00    -0.000 C 
BRANCH  12  13
ATOM     13  C   UNL     1     -20.319 -31.013  20.028  1.00  0.00    -0.000 C 
BRANCH  13  14
ATOM     14  C   UNL     1     -19.886 -30.269  18.753  1.00  0.00    -0.000 C 
BRANCH  14  15
ATOM     15  C   UNL     1     -18.462 -29.691  18.852  1.00  0.00    -0.000 C 
BRANCH  15  16
ATOM     16  C   UNL     1     -17.589 -29.907  17.602  1.00  0.00    -0.000 C 
BRANCH  16  17
ATOM     17  C   UNL     1     -16.136 -30.266  17.942  1.00  0.00    -0.003 C 
ATOM     18  C   UNL     1     -15.497 -31.089  16.827  1.00  0.00     0.004 C 
ENDBRANCH  16  17
ENDBRANCH  15  16
ENDBRANCH  14  15
ENDBRANCH  13  14
ENDBRANCH  12  13
ENDBRANCH  11  12
ENDBRANCH   1  11
TORSDOF 14
ENDMDL
MODEL 2
REMARK VINA RESULT:    -4.222      2.741      4.610
REMARK INTER + INTRA:          -9.897
REMARK INTER:                  -7.293
REMARK INTRA:                  -2.604
REMARK UNBOUND:                -2.218
REMARK SMILES CCCCCCCCCCCCCCCC(=O)[O-]
REMARK SMILES IDX 9 1 10 2 11 3 12 4 13 5 14 6 15 7 16 8 17 9 18 10 8 11 7 12
REMARK SMILES IDX 6 13 5 14 4 15 3 16 2 17 1 18
REMARK H PARENT
REMARK Flexibility Score: inf
ROOT
ATOM      1  C   UNL     1     -15.653 -33.088  21.486  1.00  0.00     0.000 C 
ENDROOT
BRANCH   1   2
ATOM      2  C   UNL     1     -14.859 -32.725  20.219  1.00  0.00     0.000 C 
BRANCH   2   3
ATOM      3  C   UNL     1     -15.542 -33.206  18.926  1.00  0.00     0.000 C 
BRANCH   3   4
ATOM      4  C   UNL     1     -15.676 -32.139  17.825  1.00  0.00     0.000 C 
BRANCH   4   5
ATOM      5  C   UNL     1     -16.004 -30.743  18.383  1.00  0.00     0.000 C 
BRANCH   5   6
ATOM      6  C   UNL     1     -16.613 -29.808  17.323  1.00  0.00     0.006 C 
BRANCH   6   7
ATOM      7  C   UNL     1     -17.856 -29.039  17.800  1.00  0.00     0.053 C 
BRANCH   7   8
ATOM      8  C   UNL     1     -17.492 -27.774  18.516  1.00  0.00     0.041 C 
ATOM      9  O   UNL     1     -18.353 -27.164  19.203  1.00  0.00    -0.550 OA
ATOM     10  O   UNL     1     -16.192 -27.288  18.451  1.00  0.00    -0.550 OA
ENDBRANCH   7   8
ENDBRANCH   6   7
ENDBRANCH   5   6
ENDBRANCH   4   5
ENDBRANCH   3   4
ENDBRANCH   2   3
ENDBRANCH   1   2
BRANCH   1  11
ATOM     11  C   UNL     1     -16.666 -31.999  21.878  1.00  0.00     0.000 C 
BRANCH  11  12
ATOM     12  C   UNL     1     -18.107 -32.365  21.480  1.00  0.00    -0.000 C 
BRANCH  12  13
ATOM     13  C   UNL     1     -18.807 -31.237  20.704  1.00  0.00    -0.000 C 
BRANCH  13  14
ATOM     14  C   UNL     1     -19.588 -31.752  19.484  1.00  0.00    -0.000 C 
BRANCH  14  15
ATOM     15  C   UNL     1     -19.425 -33.267  19.263  1.00  0.00    -0.000 C 
BRANCH  15  16
ATOM     16  C   UNL     1     -19.081 -33.677  17.819  1.00  0.00    -0.000 C 
BRANCH  16  17
ATOM     17  C   UNL     1     -19.205 -32.516  16.823  1.00  0.00    -0.003 C 
ATOM     18  C   UNL     1     -19.042 -33.005  15.386  1.00  0.00     0.004 C 
ENDBRANCH  16  17
ENDBRANCH  15  16
ENDBRANCH  14  15
ENDBRANCH  13  14
ENDBRANCH  12  13
ENDBRANCH  11  12
ENDBRANCH   1  11
TORSDOF 14
ENDMDL
MODEL 3
REMARK VINA RESULT:    -4.213      2.568      4.894
REMARK INTER + INTRA:          -9.880
REMARK INTER:                  -7.447
REMARK INTRA:                  -2.433
REMARK UNBOUND:                -2.218
REMARK SMILES CCCCCCCCCCCCCCCC(=O)[O-]
REMARK SMILES IDX 9 1 10 2 11 3 12 4 13 5 14 6 15 7 16 8 17 9 18 10 8 11 7 12
REMARK SMILES IDX 6 13 5 14 4 15 3 16 2 17 1 18
REMARK H PARENT
REMARK Flexibility Score: inf
ROOT
ATOM      1  C   UNL     1     -17.772 -32.765  21.787  1.00  0.00     0.000 C 
ENDROOT
BRANCH   1   2
ATOM      2  C   UNL     1     -18.154 -33.787  20.703  1.00  0.00     0.000 C 
BRANCH   2   3
ATOM      3  C   UNL     1     -19.320 -33.313  19.816  1.00  0.00     0.000 C 
BRANCH   3   4
ATOM      4  C   UNL     1     -19.871 -31.917  20.157  1.00  0.00     0.000 C 
BRANCH   4   5
ATOM      5  C   UNL     1     -19.659 -30.897  19.024  1.00  0.00     0.000 C 
BRANCH   5   6
ATOM      6  C   UNL     1     -18.469 -29.957  19.286  1.00  0.00     0.006 C 
BRANCH   6   7
ATOM      7  C   UNL     1     -17.962 -29.219  18.037  1.00  0.00     0.053 C 
BRANCH   7   8
ATOM      8  C   UNL     1     -17.598 -27.796  18.334  1.00  0.00     0.041 C 
ATOM      9  O   UNL     1     -18.325 -27.101  19.091  1.00  0.00    -0.550 OA
ATOM     10  O   UNL     1     -16.437 -27.250  17.802  1.00  0.00    -0.550 OA
ENDBRANCH   7   8
ENDBRANCH   6   7
ENDBRANCH   5   6
ENDBRANCH   4   5
ENDBRANCH   3   4
ENDBRANCH   2   3
ENDBRANCH   1   2
BRANCH   1  11
ATOM     11  C   UNL     1     -16.328 -32.259  21.637  1.00  0.00     0.000 C 
BRANCH  11  12
ATOM     12  C   UNL     1     -15.627 -32.838  20.394  1.00  0.00    -0.000 C 
BRANCH  12  13
ATOM     13  C   UNL     1     -15.353 -31.770  19.324  1.00  0.00    -0.000 C 
BRANCH  13  14
ATOM     14  C   UNL     1     -14.961 -32.377  17.966  1.00  0.00    -0.000 C 
BRANCH  14  15
ATOM     15  C   UNL     1     -15.999 -32.097  16.864  1.00  0.00    -0.000 C 
BRANCH  15  16
ATOM     16  C   UNL     1     -17.267 -32.969  16.933  1.00  0.00    -0.000 C 
BRANCH  16  17
ATOM     17  C   UNL     1     -18.042 -33.004  15.609  1.00  0.00    -0.003 C 
ATOM     18  C   UNL     1     -19.548 -32.958  15.852  1.00  0.00     0.004 C 
ENDBRANCH  16  17
ENDBRANCH  15  16
ENDBRANCH  14  15
ENDBRANCH  13  14
ENDBRANCH  12  13
ENDBRANCH  11  12
ENDBRANCH   1  11
TORSDOF 14
ENDMDL
MODEL 4
REMARK VINA RESULT:    -4.065      2.512      5.209
REMARK INTER + INTRA:          -9.610
REMARK INTER:                  -7.549
REMARK INTRA:                  -2.060
REMARK UNBOUND:                -2.218
REMARK SMILES CCCCCCCCCCCCCCCC(=O)[O-]
REMARK SMILES IDX 9 1 10 2 11 3 12 4 13 5 14 6 15 7 16 8 17 9 18 10 8 11 7 12
REMARK SMILES IDX 6 13 5 14 4 15 3 16 2 17 1 18
REMARK H PARENT
REMARK Flexibility Score: inf
ROOT
ATOM      1  C   UNL     1     -19.357 -33.008  15.849  1.00  0.00     0.000 C 
ENDROOT
BRANCH   1   2
ATOM      2  C   UNL     1     -19.303 -33.887  17.110  1.00  0.00     0.000 C 
BRANCH   2   3
ATOM      3  C   UNL     1     -17.989 -33.728  17.896  1.00  0.00     0.000 C 
BRANCH   3   4
ATOM      4  C   UNL     1     -18.140 -33.116  19.301  1.00  0.00     0.000 C 
BRANCH   4   5
ATOM      5  C   UNL     1     -19.594 -32.733  19.632  1.00  0.00     0.000 C 
BRANCH   5   6
ATOM      6  C   UNL     1     -19.800 -31.210  19.723  1.00  0.00     0.006 C 
BRANCH   6   7
ATOM      7  C   UNL     1     -19.043 -30.407  18.654  1.00  0.00     0.053 C 
BRANCH   7   8
ATOM      8  C   UNL     1     -18.168 -29.352  19.260  1.00  0.00     0.041 C 
ATOM      9  O   UNL     1     -17.245 -29.674  20.054  1.00  0.00    -0.550 OA
ATOM     10  O   UNL     1     -18.351 -28.018  18.921  1.00  0.00    -0.550 OA
ENDBRANCH   7   8
ENDBRANCH   6   7
ENDBRANCH   5   6
ENDBRANCH   4   5
ENDBRANCH   3   4
ENDBRANCH   2   3
ENDBRANCH   1   2
BRANCH   1  11
ATOM     11  C   UNL     1     -19.286 -33.833  14.553  1.00  0.00     0.000 C 
BRANCH  11  12
ATOM     12  C   UNL     1     -18.255 -33.275  13.555  1.00  0.00    -0.000 C 
BRANCH  12  13
ATOM     13  C   UNL     1     -16.927 -32.899  14.233  1.00  0.00    -0.000 C 
BRANCH  13  14
ATOM     14  C   UNL     1     -16.338 -31.584  13.695  1.00  0.00    -0.000 C 
BRANCH  14  15
ATOM     15  C   UNL     1     -15.599 -30.773  14.775  1.00  0.00    -0.000 C 
BRANCH  15  16
ATOM     16  C   UNL     1     -16.320 -30.699  16.134  1.00  0.00    -0.000 C 
BRANCH  16  17
ATOM     17  C   UNL     1     -15.421 -31.104  17.310  1.00  0.00    -0.003 C 
ATOM     18  C   UNL     1     -14.565 -29.930  17.777  1.00  0.00     0.004 C 
ENDBRANCH  16  17
ENDBRANCH  15  16
ENDBRANCH  14  15
ENDBRANCH  13  14
ENDBRANCH  12  13
ENDBRANCH  11  12
ENDBRANCH   1  11
TORSDOF 14
ENDMDL
MODEL 5
REMARK VINA RESULT:    -4.041      2.337      3.383
REMARK INTER + INTRA:          -9.567
REMARK INTER:                  -7.590
REMARK INTRA:                  -1.977
REMARK UNBOUND:                -2.218
REMARK SMILES CCCCCCCCCCCCCCCC(=O)[O-]
REMARK SMILES IDX 9 1 10 2 11 3 12 4 13 5 14 6 15 7 16 8 17 9 18 10 8 11 7 12
REMARK SMILES IDX 6 13 5 14 4 15 3 16 2 17 1 18
REMARK H PARENT
REMARK Flexibility Score: inf
ROOT
ATOM      1  C   UNL     1     -17.292 -32.143  21.314  1.00  0.00     0.000 C 
ENDROOT
BRANCH   1   2
ATOM      2  C   UNL     1     -16.062 -32.938  20.843  1.00  0.00     0.000 C 
BRANCH   2   3
ATOM      3  C   UNL     1     -15.388 -32.321  19.604  1.00  0.00     0.000 C 
BRANCH   3   4
ATOM      4  C   UNL     1     -15.939 -32.809  18.252  1.00  0.00     0.000 C 
BRANCH   4   5
ATOM      5  C   UNL     1     -15.753 -31.780  17.123  1.00  0.00     0.000 C 
BRANCH   5   6
ATOM      6  C   UNL     1     -16.865 -31.856  16.061  1.00  0.00     0.006 C 
BRANCH   6   7
ATOM      7  C   UNL     1     -18.037 -32.774  16.441  1.00  0.00     0.053 C 
BRANCH   7   8
ATOM      8  C   UNL     1     -18.877 -33.132  15.253  1.00  0.00     0.041 C 
ATOM      9  O   UNL     1     -18.436 -32.952  14.088  1.00  0.00    -0.550 OA
ATOM     10  O   UNL     1     -20.133 -33.698  15.435  1.00  0.00    -0.550 OA
ENDBRANCH   7   8
ENDBRANCH   6   7
ENDBRANCH   5   6
ENDBRANCH   4   5
ENDBRANCH   3   4
ENDBRANCH   2   3
ENDBRANCH   1   2
BRANCH   1  11
ATOM     11  C   UNL     1     -18.608 -32.907  21.091  1.00  0.00     0.000 C 
BRANCH  11  12
ATOM     12  C   UNL     1     -19.334 -32.468  19.807  1.00  0.00    -0.000 C 
BRANCH  12  13
ATOM     13  C   UNL     1     -20.121 -31.161  19.995  1.00  0.00    -0.000 C 
BRANCH  13  14
ATOM     14  C   UNL     1     -19.797 -30.112  18.919  1.00  0.00    -0.000 C 
BRANCH  14  15
ATOM     15  C   UNL     1     -18.307 -29.723  18.891  1.00  0.00    -0.000 C 
BRANCH  15  16
ATOM     16  C   UNL     1     -17.918 -28.731  17.780  1.00  0.00    -0.000 C 
BRANCH  16  17
ATOM     17  C   UNL     1     -17.848 -27.279  18.272  1.00  0.00    -0.003 C 
ATOM     18  C   UNL     1     -17.180 -27.195  19.643  1.00  0.00     0.004 C 
ENDBRANCH  16  17
ENDBRANCH  15  16
ENDBRANCH  14  15
ENDBRANCH  13  14
ENDBRANCH  12  13
ENDBRANCH  11  12
ENDBRANCH   1  11
TORSDOF 14
ENDMDL
MODEL 6
REMARK VINA RESULT:    -4.018      1.865      4.854
REMARK INTER + INTRA:          -9.525
REMARK INTER:                  -7.668
REMARK INTRA:                  -1.856
REMARK UNBOUND:                -2.218
REMARK SMILES CCCCCCCCCCCCCCCC(=O)[O-]
REMARK SMILES IDX 9 1 10 2 11 3 12 4 13 5 14 6 15 7 16 8 17 9 18 10 8 11 7 12
REMARK SMILES IDX 6 13 5 14 4 15 3 16 2 17 1 18
REMARK H PARENT
REMARK Flexibility Score: inf
ROOT
ATOM      1  C   UNL     1     -16.696 -33.294  19.033  1.00  0.00     0.000 C 
ENDROOT
BRANCH   1   2
ATOM      2  C   UNL     1     -17.451 -33.972  20.189  1.00  0.00     0.000 C 
BRANCH   2   3
ATOM      3  C   UNL     1     -18.511 -33.058  20.831  1.00  0.00     0.000 C 
BRANCH   3   4
ATOM      4  C   UNL     1     -19.680 -32.669  19.909  1.00  0.00     0.000 C 
BRANCH   4   5
ATOM      5  C   UNL     1     -19.909 -31.149  19.841  1.00  0.00     0.000 C 
BRANCH   5   6
ATOM      6  C   UNL     1     -19.223 -30.499  18.626  1.00  0.00     0.006 C 
BRANCH   6   7
ATOM      7  C   UNL     1     -18.252 -29.362  18.983  1.00  0.00     0.053 C 
BRANCH   7   8
ATOM      8  C   UNL     1     -17.418 -28.947  17.811  1.00  0.00     0.041 C 
ATOM      9  O   UNL     1     -17.609 -27.831  17.259  1.00  0.00    -0.550 OA
ATOM     10  O   UNL     1     -16.406 -29.779  17.348  1.00  0.00    -0.550 OA
ENDBRANCH   7   8
ENDBRANCH   6   7
ENDBRANCH   5   6
ENDBRANCH   4   5
ENDBRANCH   3   4
ENDBRANCH   2   3
ENDBRANCH   1   2
BRANCH   1  11
ATOM     11  C   UNL     1     -16.941 -33.989  17.683  1.00  0.00     0.000 C 
BRANCH  11  12
ATOM     12  C   UNL     1     -17.550 -33.040  16.634  1.00  0.00    -0.000 C 
BRANCH  12  13
ATOM     13  C   UNL     1     -19.007 -33.394  16.299  1.00  0.00    -0.000 C 
BRANCH  13  14
ATOM     14  C   UNL     1     -19.250 -33.539  14.787  1.00  0.00    -0.000 C 
BRANCH  14  15
ATOM     15  C   UNL     1     -17.953 -33.778  13.993  1.00  0.00    -0.000 C 
BRANCH  15  16
ATOM     16  C   UNL     1     -17.659 -32.728  12.905  1.00  0.00    -0.000 C 
BRANCH  16  17
ATOM     17  C   UNL     1     -16.204 -32.239  12.924  1.00  0.00    -0.003 C 
ATOM     18  C   UNL     1     -16.053 -31.002  13.806  1.00  0.00     0.004 C 
ENDBRANCH  16  17
ENDBRANCH  15  16
ENDBRANCH  14  15
ENDBRANCH  13  14
ENDBRANCH  12  13
ENDBRANCH  11  12
ENDBRANCH   1  11
TORSDOF 14
ENDMDL
MODEL 7
REMARK VINA RESULT:    -3.962      2.747      4.176
REMARK INTER + INTRA:          -9.423
REMARK INTER:                  -6.863
REMARK INTRA:                  -2.560
REMARK UNBOUND:                -2.218
REMARK SMILES CCCCCCCCCCCCCCCC(=O)[O-]
REMARK SMILES IDX 9 1 10 2 11 3 12 4 13 5 14 6 15 7 16 8 17 9 18 10 8 11 7 12
REMARK SMILES IDX 6 13 5 14 4 15 3 16 2 17 1 18
REMARK H PARENT
REMARK Flexibility Score: inf
ROOT
ATOM      1  C   UNL     1     -18.608 -31.493  21.084  1.00  0.00     0.000 C 
ENDROOT
BRANCH   1   2
ATOM      2  C   UNL     1     -17.877 -32.760  21.560  1.00  0.00     0.000 C 
BRANCH   2   3
ATOM      3  C   UNL     1     -17.807 -33.854  20.478  1.00  0.00     0.000 C 
BRANCH   3   4
ATOM      4  C   UNL     1     -16.455 -33.964  19.751  1.00  0.00     0.000 C 
BRANCH   4   5
ATOM      5  C   UNL     1     -15.301 -33.310  20.532  1.00  0.00     0.000 C 
BRANCH   5   6
ATOM      6  C   UNL     1     -14.313 -32.564  19.617  1.00  0.00     0.006 C 
BRANCH   6   7
ATOM      7  C   UNL     1     -14.154 -33.187  18.221  1.00  0.00     0.053 C 
BRANCH   7   8
ATOM      8  C   UNL     1     -13.346 -32.317  17.307  1.00  0.00     0.041 C 
ATOM      9  O   UNL     1     -12.254 -32.731  16.839  1.00  0.00    -0.550 OA
ATOM     10  O   UNL     1     -13.818 -31.060  16.947  1.00  0.00    -0.550 OA
ENDBRANCH   7   8
ENDBRANCH   6   7
ENDBRANCH   5   6
ENDBRANCH   4   5
ENDBRANCH   3   4
ENDBRANCH   2   3
ENDBRANCH   1   2
BRANCH   1  11
ATOM     11  C   UNL     1     -19.656 -31.790  19.998  1.00  0.00     0.000 C 
BRANCH  11  12
ATOM     12  C   UNL     1     -19.557 -30.824  18.804  1.00  0.00    -0.000 C 
BRANCH  12  13
ATOM     13  C   UNL     1     -18.889 -31.470  17.580  1.00  0.00    -0.000 C 
BRANCH  13  14
ATOM     14  C   UNL     1     -17.376 -31.204  17.520  1.00  0.00    -0.000 C 
BRANCH  14  15
ATOM     15  C   UNL     1     -17.021 -29.718  17.707  1.00  0.00    -0.000 C 
BRANCH  15  16
ATOM     16  C   UNL     1     -16.197 -29.404  18.970  1.00  0.00    -0.000 C 
BRANCH  16  17
ATOM     17  C   UNL     1     -16.880 -28.384  19.891  1.00  0.00    -0.003 C 
ATOM     18  C   UNL     1     -17.833 -27.485  19.106  1.00  0.00     0.004 C 
ENDBRANCH  16  17
ENDBRANCH  15  16
ENDBRANCH  14  15
ENDBRANCH  13  14
ENDBRANCH  12  13
ENDBRANCH  11  12
ENDBRANCH   1  11
TORSDOF 14
ENDMDL
MODEL 8
REMARK VINA RESULT:    -3.932      3.080      5.464
REMARK INTER + INTRA:          -9.369
REMARK INTER:                  -7.512
REMARK INTRA:                  -1.857
REMARK UNBOUND:                -2.218
REMARK SMILES CCCCCCCCCCCCCCCC(=O)[O-]
REMARK SMILES IDX 9 1 10 2 11 3 12 4 13 5 14 6 15 7 16 8 17 9 18 10 8 11 7 12
REMARK SMILES IDX 6 13 5 14 4 15 3 16 2 17 1 18
REMARK H PARENT
REMARK Flexibility Score: inf
ROOT
ATOM      1  C   UNL     1     -18.636 -33.080  14.628  1.00  0.00     0.000 C 
ENDROOT
BRANCH   1   2
ATOM      2  C   UNL     1     -19.474 -32.910  15.906  1.00  0.00     0.000 C 
BRANCH   2   3
ATOM      3  C   UNL     1     -19.185 -33.993  16.962  1.00  0.00     0.000 C 
BRANCH   3   4
ATOM      4  C   UNL     1     -18.511 -33.484  18.249  1.00  0.00     0.000 C 
BRANCH   4   5
ATOM      5  C   UNL     1     -19.495 -33.348  19.425  1.00  0.00     0.000 C 
BRANCH   5   6
ATOM      6  C   UNL     1     -18.787 -33.058  20.761  1.00  0.00     0.006 C 
BRANCH   6   7
ATOM      7  C   UNL     1     -17.493 -33.860  20.975  1.00  0.00     0.053 C 
BRANCH   7   8
ATOM      8  C   UNL     1     -16.340 -32.977  21.343  1.00  0.00     0.041 C 
ATOM      9  O   UNL     1     -15.185 -33.230  20.912  1.00  0.00    -0.550 OA
ATOM     10  O   UNL     1     -16.549 -31.855  22.136  1.00  0.00    -0.550 OA
ENDBRANCH   7   8
ENDBRANCH   6   7
ENDBRANCH   5   6
ENDBRANCH   4   5
ENDBRANCH   3   4
ENDBRANCH   2   3
ENDBRANCH   1   2
BRANCH   1  11
ATOM     11  C   UNL     1     -17.137 -33.259  14.926  1.00  0.00     0.000 C 
BRANCH  11  12
ATOM     12  C   UNL     1     -16.378 -31.920  14.945  1.00  0.00    -0.000 C 
BRANCH  12  13
ATOM     13  C   UNL     1     -15.893 -31.540  16.353  1.00  0.00    -0.000 C 
BRANCH  13  14
ATOM     14  C   UNL     1     -16.789 -30.486  17.025  1.00  0.00    -0.000 C 
BRANCH  14  15
ATOM     15  C   UNL     1     -16.464 -30.288  18.517  1.00  0.00    -0.000 C 
BRANCH  15  16
ATOM     16  C   UNL     1     -17.677 -29.948  19.403  1.00  0.00    -0.000 C 
BRANCH  16  17
ATOM     17  C   UNL     1     -18.414 -28.682  18.946  1.00  0.00    -0.003 C 
ATOM     18  C   UNL     1     -17.517 -27.452  19.056  1.00  0.00     0.004 C 
ENDBRANCH  16  17
ENDBRANCH  15  16
ENDBRANCH  14  15
ENDBRANCH  13  14
ENDBRANCH  12  13
ENDBRANCH  11  12
ENDBRANCH   1  11
TORSDOF 14
ENDMDL
MODEL 9
REMARK VINA RESULT:    -3.912      1.792      3.471
REMARK INTER + INTRA:          -9.333
REMARK INTER:                  -7.157
REMARK INTRA:                  -2.176
REMARK UNBOUND:                -2.218
REMARK SMILES CCCCCCCCCCCCCCCC(=O)[O-]
REMARK SMILES IDX 9 1 10 2 11 3 12 4 13 5 14 6 15 7 16 8 17 9 18 10 8 11 7 12
REMARK SMILES IDX 6 13 5 14 4 15 3 16 2 17 1 18
REMARK H PARENT
REMARK Flexibility Score: inf
ROOT
ATOM      1  C   UNL     1     -19.233 -32.641  16.614  1.00  0.00     0.000 C 
ENDROOT
BRANCH   1   2
ATOM      2  C   UNL     1     -19.526 -33.441  15.333  1.00  0.00     0.000 C 
BRANCH   2   3
ATOM      3  C   UNL     1     -18.249 -33.839  14.570  1.00  0.00     0.000 C 
BRANCH   3   4
ATOM      4  C   UNL     1     -17.508 -32.674  13.889  1.00  0.00     0.000 C 
BRANCH   4   5
ATOM      5  C   UNL     1     -16.155 -32.358  14.550  1.00  0.00     0.000 C 
BRANCH   5   6
ATOM      6  C   UNL     1     -16.099 -30.937  15.138  1.00  0.00     0.006 C 
BRANCH   6   7
ATOM      7  C   UNL     1     -15.869 -30.892  16.657  1.00  0.00     0.053 C 
BRANCH   7   8
ATOM      8  C   UNL     1     -14.527 -30.326  17.005  1.00  0.00     0.041 C 
ATOM      9  O   UNL     1     -14.381 -29.635  18.047  1.00  0.00    -0.550 OA
ATOM     10  O   UNL     1     -13.429 -30.590  16.195  1.00  0.00    -0.550 OA
ENDBRANCH   7   8
ENDBRANCH   6   7
ENDBRANCH   5   6
ENDBRANCH   4   5
ENDBRANCH   3   4
ENDBRANCH   2   3
ENDBRANCH   1   2
BRANCH   1  11
ATOM     11  C   UNL     1     -19.150 -33.537  17.862  1.00  0.00     0.000 C 
BRANCH  11  12
ATOM     12  C   UNL     1     -17.729 -33.592  18.454  1.00  0.00    -0.000 C 
BRANCH  12  13
ATOM     13  C   UNL     1     -17.735 -33.624  19.990  1.00  0.00    -0.000 C 
BRANCH  13  14
ATOM     14  C   UNL     1     -17.128 -32.355  20.613  1.00  0.00    -0.000 C 
BRANCH  14  15
ATOM     15  C   UNL     1     -18.101 -31.162  20.609  1.00  0.00    -0.000 C 
BRANCH  15  16
ATOM     16  C   UNL     1     -17.677 -29.985  19.712  1.00  0.00    -0.000 C 
BRANCH  16  17
ATOM     17  C   UNL     1     -18.749 -29.599  18.684  1.00  0.00    -0.003 C 
ATOM     18  C   UNL     1     -20.128 -30.093  19.116  1.00  0.00     0.004 C 
ENDBRANCH  16  17
ENDBRANCH  15  16
ENDBRANCH  14  15
ENDBRANCH  13  14
ENDBRANCH  12  13
ENDBRANCH  11  12
ENDBRANCH   1  11
TORSDOF 14
ENDMDL
