MODEL 1
REMARK VINA RESULT:    -7.082      0.000      0.000
REMARK INTER + INTRA:         -11.023
REMARK INTER:                 -10.395
REMARK INTRA:                  -0.629
REMARK UNBOUND:                -0.629
REMARK SMILES O=c1c(O[C@H]2O[C@@H](CO)[C@H](O)[C@H](O)[C@H]2O)c(-c2ccc(O)c(O)c2)oc2cc(O)cc(O)c12
REMARK SMILES IDX 4 1 3 2 16 3 25 4 2 5 26 6 1 7 33 8 27 9 31 10 28 11 30 12
REMARK SMILES IDX 17 13 18 14 19 15 20 16 24 17 22 18 21 19 23 21 32 23 29 25
REMARK SMILES IDX 5 27 14 28 6 29 12 30 7 31 10 32 15 33 13 35 8 37 9 38 11 40
REMARK H PARENT 21 20 23 22 32 24 29 26 15 34 13 36 9 39 11 41
REMARK Flexibility Score: inf
ROOT
ATOM      1  O   UNL     1     -39.703  -8.423   4.023  1.00  0.00    -0.454 OA
ENDROOT
BRANCH   1   2
ATOM      2  C   UNL     1     -40.368  -8.940   5.139  1.00  0.00     0.214 A 
ATOM      3  C   UNL     1     -41.600  -9.611   5.007  1.00  0.00     0.180 A 
ATOM      4  O   UNL     1     -42.164 -10.159   6.076  1.00  0.00    -0.452 OA
ATOM      5  C   UNL     1     -39.793  -8.813   6.408  1.00  0.00     0.239 A 
ATOM      6  C   UNL     1     -41.652 -10.073   7.299  1.00  0.00     0.146 A 
ATOM      7  O   UNL     1     -38.672  -8.250   6.501  1.00  0.00    -0.285 OA
ATOM      8  C   UNL     1     -40.452  -9.353   7.539  1.00  0.00     0.111 A 
ATOM      9  C   UNL     1     -42.319 -10.712   8.347  1.00  0.00     0.094 A 
ATOM     10  C   UNL     1     -39.974  -9.254   8.880  1.00  0.00     0.134 A 
ATOM     11  C   UNL     1     -41.810 -10.656   9.646  1.00  0.00     0.123 A 
ATOM     12  C   UNL     1     -40.645  -9.935   9.903  1.00  0.00     0.093 A 
BRANCH   3  13
ATOM     13  C   UNL     1     -42.278  -9.760   3.701  1.00  0.00     0.025 A 
ATOM     14  C   UNL     1     -43.663  -9.972   3.663  1.00  0.00     0.016 A 
ATOM     15  C   UNL     1     -44.314 -10.162   2.443  1.00  0.00     0.051 A 
ATOM     16  C   UNL     1     -43.601 -10.129   1.240  1.00  0.00     0.157 A 
ATOM     17  C   UNL     1     -41.562  -9.698   2.494  1.00  0.00     0.062 A 
ATOM     18  C   UNL     1     -42.207  -9.887   1.265  1.00  0.00     0.158 A 
BRANCH  16  19
ATOM     19  O   UNL     1     -44.309 -10.338   0.055  1.00  0.00    -0.504 OA
ATOM     20  H   UNL     1     -44.256 -11.183  -0.493  1.00  0.00     0.293 HD
ENDBRANCH  16  19
BRANCH  18  21
ATOM     21  O   UNL     1     -41.431  -9.827   0.107  1.00  0.00    -0.504 OA
ATOM     22  H   UNL     1     -41.767 -10.076  -0.812  1.00  0.00     0.293 HD
ENDBRANCH  18  21
ENDBRANCH   3  13
BRANCH  10  23
ATOM     23  O   UNL     1     -38.868  -8.487   9.260  1.00  0.00    -0.507 OA
ATOM     24  H   UNL     1     -37.923  -8.646   8.945  1.00  0.00     0.293 HD
ENDBRANCH  10  23
BRANCH  11  25
ATOM     25  O   UNL     1     -42.459 -11.308  10.692  1.00  0.00    -0.508 OA
ATOM     26  H   UNL     1     -42.731 -10.816  11.536  1.00  0.00     0.293 HD
ENDBRANCH  11  25
ENDBRANCH   1   2
BRANCH   1  27
ATOM     27  C   UNL     1     -39.783  -7.045   3.667  1.00  0.00     0.339 C 
ATOM     28  C   UNL     1     -38.362  -6.516   3.416  1.00  0.00     0.214 C 
ATOM     29  O   UNL     1     -40.395  -6.324   4.721  1.00  0.00    -0.332 OA
ATOM     30  C   UNL     1     -38.418  -5.012   3.081  1.00  0.00     0.180 C 
ATOM     31  C   UNL     1     -40.607  -4.972   4.358  1.00  0.00     0.179 C 
ATOM     32  C   UNL     1     -39.249  -4.259   4.141  1.00  0.00     0.177 C 
BRANCH  28  33
ATOM     33  O   UNL     1     -37.576  -6.727   4.561  1.00  0.00    -0.384 OA
ATOM     34  H   UNL     1     -37.957  -6.156   5.279  1.00  0.00     0.211 HD
ENDBRANCH  28  33
BRANCH  30  35
ATOM     35  O   UNL     1     -38.990  -4.821   1.810  1.00  0.00    -0.387 OA
ATOM     36  H   UNL     1     -39.973  -4.792   1.940  1.00  0.00     0.211 HD
ENDBRANCH  30  35
BRANCH  31  37
ATOM     37  C   UNL     1     -41.414  -4.310   5.488  1.00  0.00     0.191 C 
BRANCH  37  38
ATOM     38  O   UNL     1     -42.066  -3.153   5.038  1.00  0.00    -0.394 OA
ATOM     39  H   UNL     1     -42.622  -2.829   5.795  1.00  0.00     0.210 HD
ENDBRANCH  37  38
ENDBRANCH  31  37
BRANCH  32  40
ATOM     40  O   UNL     1     -39.458  -2.933   3.727  1.00  0.00    -0.387 OA
ATOM     41  H   UNL     1     -39.696  -2.413   4.539  1.00  0.00     0.211 HD
ENDBRANCH  32  40
ENDBRANCH   1  27
TORSDOF 12
ENDMDL
MODEL 2
REMARK VINA RESULT:    -7.058      6.948     11.735
REMARK INTER + INTRA:         -10.987
REMARK INTER:                 -10.734
REMARK INTRA:                  -0.253
REMARK UNBOUND:                -0.629
REMARK SMILES O=c1c(O[C@H]2O[C@@H](CO)[C@H](O)[C@H](O)[C@H]2O)c(-c2ccc(O)c(O)c2)oc2cc(O)cc(O)c12
REMARK SMILES IDX 4 1 3 2 16 3 25 4 2 5 26 6 1 7 33 8 27 9 31 10 28 11 30 12
REMARK SMILES IDX 17 13 18 14 19 15 20 16 24 17 22 18 21 19 23 21 32 23 29 25
REMARK SMILES IDX 5 27 14 28 6 29 12 30 7 31 10 32 15 33 13 35 8 37 9 38 11 40
REMARK H PARENT 21 20 23 22 32 24 29 26 15 34 13 36 9 39 11 41
REMARK Flexibility Score: inf
ROOT
ATOM      1  O   UNL     1     -44.611 -12.613  11.903  1.00  0.00    -0.454 OA
ENDROOT
BRANCH   1   2
ATOM      2  C   UNL     1     -44.189 -11.334  12.281  1.00  0.00     0.214 A 
ATOM      3  C   UNL     1     -44.555 -10.783  13.524  1.00  0.00     0.180 A 
ATOM      4  O   UNL     1     -44.071  -9.601  13.884  1.00  0.00    -0.452 OA
ATOM      5  C   UNL     1     -43.368 -10.595  11.423  1.00  0.00     0.239 A 
ATOM      6  C   UNL     1     -43.282  -8.866  13.108  1.00  0.00     0.146 A 
ATOM      7  O   UNL     1     -43.015 -11.120  10.335  1.00  0.00    -0.285 OA
ATOM      8  C   UNL     1     -42.921  -9.308  11.808  1.00  0.00     0.111 A 
ATOM      9  C   UNL     1     -42.810  -7.648  13.601  1.00  0.00     0.094 A 
ATOM     10  C   UNL     1     -42.109  -8.457  11.001  1.00  0.00     0.134 A 
ATOM     11  C   UNL     1     -41.969  -6.849  12.823  1.00  0.00     0.123 A 
ATOM     12  C   UNL     1     -41.622  -7.258  11.537  1.00  0.00     0.093 A 
BRANCH   3  13
ATOM     13  C   UNL     1     -45.441 -11.497  14.470  1.00  0.00     0.025 A 
ATOM     14  C   UNL     1     -44.885 -12.394  15.392  1.00  0.00     0.016 A 
ATOM     15  C   UNL     1     -45.708 -13.112  16.262  1.00  0.00     0.051 A 
ATOM     16  C   UNL     1     -47.096 -12.939  16.237  1.00  0.00     0.157 A 
ATOM     17  C   UNL     1     -46.832 -11.299  14.461  1.00  0.00     0.062 A 
ATOM     18  C   UNL     1     -47.665 -12.015  15.329  1.00  0.00     0.158 A 
BRANCH  16  19
ATOM     19  O   UNL     1     -47.865 -13.696  17.124  1.00  0.00    -0.504 OA
ATOM     20  H   UNL     1     -48.587 -14.339  16.838  1.00  0.00     0.293 HD
ENDBRANCH  16  19
BRANCH  18  21
ATOM     21  O   UNL     1     -49.039 -11.778  15.256  1.00  0.00    -0.504 OA
ATOM     22  H   UNL     1     -49.734 -12.330  15.738  1.00  0.00     0.293 HD
ENDBRANCH  18  21
ENDBRANCH   3  13
BRANCH  10  23
ATOM     23  O   UNL     1     -41.774  -8.728   9.671  1.00  0.00    -0.507 OA
ATOM     24  H   UNL     1     -41.742  -9.650   9.263  1.00  0.00     0.293 HD
ENDBRANCH  10  23
BRANCH  11  25
ATOM     25  O   UNL     1     -41.479  -5.642  13.317  1.00  0.00    -0.508 OA
ATOM     26  H   UNL     1     -41.751  -5.293  14.228  1.00  0.00     0.293 HD
ENDBRANCH  11  25
ENDBRANCH   1   2
BRANCH   1  27
ATOM     27  C   UNL     1     -45.949 -13.060  12.111  1.00  0.00     0.339 C 
ATOM     28  C   UNL     1     -46.046 -14.538  11.701  1.00  0.00     0.214 C 
ATOM     29  O   UNL     1     -46.831 -12.275  11.328  1.00  0.00    -0.332 OA
ATOM     30  C   UNL     1     -47.498 -15.030  11.867  1.00  0.00     0.180 C 
ATOM     31  C   UNL     1     -48.182 -12.604  11.599  1.00  0.00     0.179 C 
ATOM     32  C   UNL     1     -48.473 -14.062  11.165  1.00  0.00     0.177 C 
BRANCH  28  33
ATOM     33  O   UNL     1     -45.636 -14.679  10.365  1.00  0.00    -0.384 OA
ATOM     34  H   UNL     1     -46.242 -14.113   9.818  1.00  0.00     0.211 HD
ENDBRANCH  28  33
BRANCH  30  35
ATOM     35  O   UNL     1     -47.824 -15.121  13.231  1.00  0.00    -0.387 OA
ATOM     36  H   UNL     1     -48.725 -14.721  13.338  1.00  0.00     0.211 HD
ENDBRANCH  30  35
BRANCH  31  37
ATOM     37  C   UNL     1     -49.064 -11.603  10.834  1.00  0.00     0.191 C 
BRANCH  37  38
ATOM     38  O   UNL     1     -50.412 -11.728  11.200  1.00  0.00    -0.394 OA
ATOM     39  H   UNL     1     -50.606 -10.980  11.824  1.00  0.00     0.210 HD
ENDBRANCH  37  38
ENDBRANCH  31  37
BRANCH  32  40
ATOM     40  O   UNL     1     -49.796 -14.408  11.482  1.00  0.00    -0.387 OA
ATOM     41  H   UNL     1     -50.156 -14.912  10.706  1.00  0.00     0.211 HD
ENDBRANCH  32  40
ENDBRANCH   1  27
TORSDOF 12
ENDMDL
MODEL 3
REMARK VINA RESULT:    -6.619      1.338      2.162
REMARK INTER + INTRA:         -10.343
REMARK INTER:                  -9.887
REMARK INTRA:                  -0.456
REMARK UNBOUND:                -0.629
REMARK SMILES O=c1c(O[C@H]2O[C@@H](CO)[C@H](O)[C@H](O)[C@H]2O)c(-c2ccc(O)c(O)c2)oc2cc(O)cc(O)c12
REMARK SMILES IDX 4 1 3 2 16 3 25 4 2 5 26 6 1 7 33 8 27 9 31 10 28 11 30 12
REMARK SMILES IDX 17 13 18 14 19 15 20 16 24 17 22 18 21 19 23 21 32 23 29 25
REMARK SMILES IDX 5 27 14 28 6 29 12 30 7 31 10 32 15 33 13 35 8 37 9 38 11 40
REMARK H PARENT 21 20 23 22 32 24 29 26 15 34 13 36 9 39 11 41
REMARK Flexibility Score: inf
ROOT
ATOM      1  O   UNL     1     -39.312  -8.437   4.685  1.00  0.00    -0.454 OA
ENDROOT
BRANCH   1   2
ATOM      2  C   UNL     1     -40.065  -8.917   5.762  1.00  0.00     0.214 A 
ATOM      3  C   UNL     1     -41.278  -9.601   5.556  1.00  0.00     0.180 A 
ATOM      4  O   UNL     1     -41.926 -10.113   6.596  1.00  0.00    -0.452 OA
ATOM      5  C   UNL     1     -39.596  -8.737   7.067  1.00  0.00     0.239 A 
ATOM      6  C   UNL     1     -41.516  -9.976   7.852  1.00  0.00     0.146 A 
ATOM      7  O   UNL     1     -38.489  -8.162   7.230  1.00  0.00    -0.285 OA
ATOM      8  C   UNL     1     -40.343  -9.238   8.161  1.00  0.00     0.111 A 
ATOM      9  C   UNL     1     -42.263 -10.579   8.867  1.00  0.00     0.094 A 
ATOM     10  C   UNL     1     -39.977  -9.085   9.531  1.00  0.00     0.134 A 
ATOM     11  C   UNL     1     -41.862 -10.470  10.199  1.00  0.00     0.123 A 
ATOM     12  C   UNL     1     -40.726  -9.731  10.522  1.00  0.00     0.093 A 
BRANCH   3  13
ATOM     13  C   UNL     1     -41.847  -9.805   4.205  1.00  0.00     0.025 A 
ATOM     14  C   UNL     1     -40.986  -9.964   3.111  1.00  0.00     0.016 A 
ATOM     15  C   UNL     1     -41.502 -10.111   1.823  1.00  0.00     0.051 A 
ATOM     16  C   UNL     1     -42.884 -10.116   1.603  1.00  0.00     0.157 A 
ATOM     17  C   UNL     1     -43.235  -9.838   3.994  1.00  0.00     0.062 A 
ATOM     18  C   UNL     1     -43.762  -9.984   2.705  1.00  0.00     0.158 A 
BRANCH  16  19
ATOM     19  O   UNL     1     -43.336 -10.255   0.290  1.00  0.00    -0.504 OA
ATOM     20  H   UNL     1     -44.235  -9.933  -0.035  1.00  0.00     0.293 HD
ENDBRANCH  16  19
BRANCH  18  21
ATOM     21  O   UNL     1     -45.151  -9.995   2.567  1.00  0.00    -0.504 OA
ATOM     22  H   UNL     1     -45.632  -9.860   1.689  1.00  0.00     0.293 HD
ENDBRANCH  18  21
ENDBRANCH   3  13
BRANCH  10  23
ATOM     23  O   UNL     1     -38.909  -8.295   9.971  1.00  0.00    -0.507 OA
ATOM     24  H   UNL     1     -37.973  -8.335   9.597  1.00  0.00     0.293 HD
ENDBRANCH  10  23
BRANCH  11  25
ATOM     25  O   UNL     1     -42.592 -11.086  11.214  1.00  0.00    -0.508 OA
ATOM     26  H   UNL     1     -42.990 -10.554  11.979  1.00  0.00     0.293 HD
ENDBRANCH  11  25
ENDBRANCH   1   2
BRANCH   1  27
ATOM     27  C   UNL     1     -39.140  -7.042   4.445  1.00  0.00     0.339 C 
ATOM     28  C   UNL     1     -39.437  -6.755   2.965  1.00  0.00     0.214 C 
ATOM     29  O   UNL     1     -37.807  -6.676   4.757  1.00  0.00    -0.332 OA
ATOM     30  C   UNL     1     -39.205  -5.260   2.668  1.00  0.00     0.180 C 
ATOM     31  C   UNL     1     -37.627  -5.275   4.651  1.00  0.00     0.179 C 
ATOM     32  C   UNL     1     -37.818  -4.822   3.182  1.00  0.00     0.177 C 
BRANCH  28  33
ATOM     33  O   UNL     1     -38.600  -7.544   2.159  1.00  0.00    -0.384 OA
ATOM     34  H   UNL     1     -38.634  -8.466   2.527  1.00  0.00     0.211 HD
ENDBRANCH  28  33
BRANCH  30  35
ATOM     35  O   UNL     1     -40.203  -4.484   3.285  1.00  0.00    -0.387 OA
ATOM     36  H   UNL     1     -40.050  -3.545   3.003  1.00  0.00     0.211 HD
ENDBRANCH  30  35
BRANCH  31  37
ATOM     37  C   UNL     1     -36.212  -4.951   5.159  1.00  0.00     0.191 C 
BRANCH  37  38
ATOM     38  O   UNL     1     -36.127  -3.632   5.628  1.00  0.00    -0.394 OA
ATOM     39  H   UNL     1     -37.011  -3.213   5.455  1.00  0.00     0.210 HD
ENDBRANCH  37  38
ENDBRANCH  31  37
BRANCH  32  40
ATOM     40  O   UNL     1     -37.693  -3.427   3.084  1.00  0.00    -0.387 OA
ATOM     41  H   UNL     1     -38.385  -3.121   2.442  1.00  0.00     0.211 HD
ENDBRANCH  32  40
ENDBRANCH   1  27
TORSDOF 12
ENDMDL
MODEL 4
REMARK VINA RESULT:    -6.407      2.219      7.320
REMARK INTER + INTRA:         -10.032
REMARK INTER:                  -9.369
REMARK INTRA:                  -0.663
REMARK UNBOUND:                -0.629
REMARK SMILES O=c1c(O[C@H]2O[C@@H](CO)[C@H](O)[C@H](O)[C@H]2O)c(-c2ccc(O)c(O)c2)oc2cc(O)cc(O)c12
REMARK SMILES IDX 4 1 3 2 16 3 25 4 2 5 26 6 1 7 33 8 27 9 31 10 28 11 30 12
REMARK SMILES IDX 17 13 18 14 19 15 20 16 24 17 22 18 21 19 23 21 32 23 29 25
REMARK SMILES IDX 5 27 14 28 6 29 12 30 7 31 10 32 15 33 13 35 8 37 9 38 11 40
REMARK H PARENT 21 20 23 22 32 24 29 26 15 34 13 36 9 39 11 41
REMARK Flexibility Score: inf
ROOT
ATOM      1  O   UNL     1     -39.055  -8.375   2.401  1.00  0.00    -0.454 OA
ENDROOT
BRANCH   1   2
ATOM      2  C   UNL     1     -38.660  -7.078   2.739  1.00  0.00     0.214 A 
ATOM      3  C   UNL     1     -39.010  -6.508   3.978  1.00  0.00     0.180 A 
ATOM      4  O   UNL     1     -38.550  -5.305   4.300  1.00  0.00    -0.452 OA
ATOM      5  C   UNL     1     -37.882  -6.336   1.844  1.00  0.00     0.239 A 
ATOM      6  C   UNL     1     -37.801  -4.567   3.488  1.00  0.00     0.146 A 
ATOM      7  O   UNL     1     -37.542  -6.876   0.759  1.00  0.00    -0.285 OA
ATOM      8  C   UNL     1     -37.461  -5.029   2.189  1.00  0.00     0.111 A 
ATOM      9  C   UNL     1     -37.351  -3.325   3.941  1.00  0.00     0.094 A 
ATOM     10  C   UNL     1     -36.694  -4.174   1.343  1.00  0.00     0.134 A 
ATOM     11  C   UNL     1     -36.553  -2.522   3.125  1.00  0.00     0.123 A 
ATOM     12  C   UNL     1     -36.227  -2.950   1.839  1.00  0.00     0.093 A 
BRANCH   3  13
ATOM     13  C   UNL     1     -39.851  -7.225   4.963  1.00  0.00     0.025 A 
ATOM     14  C   UNL     1     -39.284  -8.237   5.748  1.00  0.00     0.016 A 
ATOM     15  C   UNL     1     -40.071  -8.956   6.649  1.00  0.00     0.051 A 
ATOM     16  C   UNL     1     -41.433  -8.670   6.794  1.00  0.00     0.157 A 
ATOM     17  C   UNL     1     -41.212  -6.915   5.125  1.00  0.00     0.062 A 
ATOM     18  C   UNL     1     -42.009  -7.631   6.026  1.00  0.00     0.158 A 
BRANCH  16  19
ATOM     19  O   UNL     1     -42.168  -9.433   7.703  1.00  0.00    -0.504 OA
ATOM     20  H   UNL     1     -43.113  -9.222   7.983  1.00  0.00     0.293 HD
ENDBRANCH  16  19
BRANCH  18  21
ATOM     21  O   UNL     1     -43.357  -7.279   6.125  1.00  0.00    -0.504 OA
ATOM     22  H   UNL     1     -44.022  -7.372   5.371  1.00  0.00     0.293 HD
ENDBRANCH  18  21
ENDBRANCH   3  13
BRANCH  10  23
ATOM     23  O   UNL     1     -36.386  -4.466   0.010  1.00  0.00    -0.507 OA
ATOM     24  H   UNL     1     -35.902  -3.843  -0.618  1.00  0.00     0.293 HD
ENDBRANCH  10  23
BRANCH  11  25
ATOM     25  O   UNL     1     -36.084  -1.291   3.579  1.00  0.00    -0.508 OA
ATOM     26  H   UNL     1     -35.786  -1.159   4.538  1.00  0.00     0.293 HD
ENDBRANCH  11  25
ENDBRANCH   1   2
BRANCH   1  27
ATOM     27  C   UNL     1     -40.428  -8.735   2.261  1.00  0.00     0.339 C 
ATOM     28  C   UNL     1     -40.744  -9.869   3.251  1.00  0.00     0.214 C 
ATOM     29  O   UNL     1     -40.667  -9.164   0.933  1.00  0.00    -0.332 OA
ATOM     30  C   UNL     1     -42.211 -10.312   3.081  1.00  0.00     0.180 C 
ATOM     31  C   UNL     1     -42.044  -9.413   0.718  1.00  0.00     0.179 C 
ATOM     32  C   UNL     1     -42.515 -10.599   1.596  1.00  0.00     0.177 C 
BRANCH  28  33
ATOM     33  O   UNL     1     -39.880 -10.950   3.012  1.00  0.00    -0.384 OA
ATOM     34  H   UNL     1     -38.960 -10.578   2.968  1.00  0.00     0.211 HD
ENDBRANCH  28  33
BRANCH  30  35
ATOM     35  O   UNL     1     -43.077  -9.311   3.555  1.00  0.00    -0.387 OA
ATOM     36  H   UNL     1     -42.596  -8.448   3.459  1.00  0.00     0.211 HD
ENDBRANCH  30  35
BRANCH  31  37
ATOM     37  C   UNL     1     -42.232  -9.713  -0.779  1.00  0.00     0.191 C 
BRANCH  37  38
ATOM     38  O   UNL     1     -43.582  -9.631  -1.150  1.00  0.00    -0.394 OA
ATOM     39  H   UNL     1     -43.658 -10.064  -2.040  1.00  0.00     0.210 HD
ENDBRANCH  37  38
ENDBRANCH  31  37
BRANCH  32  40
ATOM     40  O   UNL     1     -43.892 -10.813   1.425  1.00  0.00    -0.387 OA
ATOM     41  H   UNL     1     -44.101 -11.688   1.845  1.00  0.00     0.211 HD
ENDBRANCH  32  40
ENDBRANCH   1  27
TORSDOF 12
ENDMDL
MODEL 5
REMARK VINA RESULT:    -6.390      6.011     10.981
REMARK INTER + INTRA:         -10.008
REMARK INTER:                 -12.258
REMARK INTRA:                   2.251
REMARK UNBOUND:                -0.629
REMARK SMILES O=c1c(O[C@H]2O[C@@H](CO)[C@H](O)[C@H](O)[C@H]2O)c(-c2ccc(O)c(O)c2)oc2cc(O)cc(O)c12
REMARK SMILES IDX 4 1 3 2 16 3 25 4 2 5 26 6 1 7 33 8 27 9 31 10 28 11 30 12
REMARK SMILES IDX 17 13 18 14 19 15 20 16 24 17 22 18 21 19 23 21 32 23 29 25
REMARK SMILES IDX 5 27 14 28 6 29 12 30 7 31 10 32 15 33 13 35 8 37 9 38 11 40
REMARK H PARENT 21 20 23 22 32 24 29 26 15 34 13 36 9 39 11 41
REMARK Flexibility Score: inf
ROOT
ATOM      1  O   UNL     1     -46.014  -9.732  13.104  1.00  0.00    -0.454 OA
ENDROOT
BRANCH   1   2
ATOM      2  C   UNL     1     -44.930  -9.971  12.254  1.00  0.00     0.214 A 
ATOM      3  C   UNL     1     -44.943 -11.040  11.338  1.00  0.00     0.180 A 
ATOM      4  O   UNL     1     -43.932 -11.190  10.490  1.00  0.00    -0.452 OA
ATOM      5  C   UNL     1     -43.820  -9.120  12.293  1.00  0.00     0.239 A 
ATOM      6  C   UNL     1     -42.861 -10.403  10.483  1.00  0.00     0.146 A 
ATOM      7  O   UNL     1     -43.843  -8.145  13.087  1.00  0.00    -0.285 OA
ATOM      8  C   UNL     1     -42.727  -9.345  11.421  1.00  0.00     0.111 A 
ATOM      9  C   UNL     1     -41.869 -10.636   9.529  1.00  0.00     0.094 A 
ATOM     10  C   UNL     1     -41.535  -8.561  11.397  1.00  0.00     0.134 A 
ATOM     11  C   UNL     1     -40.733  -9.827   9.479  1.00  0.00     0.123 A 
ATOM     12  C   UNL     1     -40.575  -8.798  10.405  1.00  0.00     0.093 A 
BRANCH   3  13
ATOM     13  C   UNL     1     -46.071 -11.994  11.259  1.00  0.00     0.025 A 
ATOM     14  C   UNL     1     -45.810 -13.370  11.212  1.00  0.00     0.016 A 
ATOM     15  C   UNL     1     -46.858 -14.283  11.090  1.00  0.00     0.051 A 
ATOM     16  C   UNL     1     -48.185 -13.844  11.028  1.00  0.00     0.157 A 
ATOM     17  C   UNL     1     -47.404 -11.549  11.225  1.00  0.00     0.062 A 
ATOM     18  C   UNL     1     -48.461 -12.458  11.103  1.00  0.00     0.158 A 
BRANCH  16  19
ATOM     19  O   UNL     1     -49.187 -14.807  10.895  1.00  0.00    -0.504 OA
ATOM     20  H   UNL     1     -49.915 -14.962  11.575  1.00  0.00     0.293 HD
ENDBRANCH  16  19
BRANCH  18  21
ATOM     21  O   UNL     1     -49.759 -11.945  11.062  1.00  0.00    -0.504 OA
ATOM     22  H   UNL     1     -50.415 -12.126  10.315  1.00  0.00     0.293 HD
ENDBRANCH  18  21
ENDBRANCH   3  13
BRANCH  10  23
ATOM     23  O   UNL     1     -41.236  -7.564  12.331  1.00  0.00    -0.507 OA
ATOM     24  H   UNL     1     -40.374  -7.502  12.849  1.00  0.00     0.293 HD
ENDBRANCH  10  23
BRANCH  11  25
ATOM     25  O   UNL     1     -39.748 -10.042   8.516  1.00  0.00    -0.508 OA
ATOM     26  H   UNL     1     -38.764  -9.929   8.730  1.00  0.00     0.293 HD
ENDBRANCH  11  25
ENDBRANCH   1   2
BRANCH   1  27
ATOM     27  C   UNL     1     -46.187 -10.445  14.327  1.00  0.00     0.339 C 
ATOM     28  C   UNL     1     -44.834 -11.046  14.744  1.00  0.00     0.214 C 
ATOM     29  O   UNL     1     -47.142 -11.474  14.137  1.00  0.00    -0.332 OA
ATOM     30  C   UNL     1     -45.007 -11.867  16.037  1.00  0.00     0.180 C 
ATOM     31  C   UNL     1     -47.435 -12.128  15.359  1.00  0.00     0.179 C 
ATOM     32  C   UNL     1     -46.177 -12.861  15.886  1.00  0.00     0.177 C 
BRANCH  28  33
ATOM     33  O   UNL     1     -44.349 -11.864  13.711  1.00  0.00    -0.384 OA
ATOM     34  H   UNL     1     -43.433 -11.544  13.497  1.00  0.00     0.211 HD
ENDBRANCH  28  33
BRANCH  30  35
ATOM     35  O   UNL     1     -45.253 -11.011  17.125  1.00  0.00    -0.387 OA
ATOM     36  H   UNL     1     -46.230 -10.840  17.140  1.00  0.00     0.211 HD
ENDBRANCH  30  35
BRANCH  31  37
ATOM     37  C   UNL     1     -48.588 -13.110  15.093  1.00  0.00     0.191 C 
BRANCH  37  38
ATOM     38  O   UNL     1     -49.708 -12.451  14.566  1.00  0.00    -0.394 OA
ATOM     39  H   UNL     1     -50.031 -11.832  15.273  1.00  0.00     0.210 HD
ENDBRANCH  37  38
ENDBRANCH  31  37
BRANCH  32  40
ATOM     40  O   UNL     1     -46.451 -13.465  17.125  1.00  0.00    -0.387 OA
ATOM     41  H   UNL     1     -46.496 -12.735  17.797  1.00  0.00     0.211 HD
ENDBRANCH  32  40
ENDBRANCH   1  27
TORSDOF 12
ENDMDL
MODEL 6
REMARK VINA RESULT:    -6.284      5.900     11.342
REMARK INTER + INTRA:          -9.852
REMARK INTER:                  -9.906
REMARK INTRA:                   0.054
REMARK UNBOUND:                -0.629
REMARK SMILES O=c1c(O[C@H]2O[C@@H](CO)[C@H](O)[C@H](O)[C@H]2O)c(-c2ccc(O)c(O)c2)oc2cc(O)cc(O)c12
REMARK SMILES IDX 4 1 3 2 16 3 25 4 2 5 26 6 1 7 33 8 27 9 31 10 28 11 30 12
REMARK SMILES IDX 17 13 18 14 19 15 20 16 24 17 22 18 21 19 23 21 32 23 29 25
REMARK SMILES IDX 5 27 14 28 6 29 12 30 7 31 10 32 15 33 13 35 8 37 9 38 11 40
REMARK H PARENT 21 20 23 22 32 24 29 26 15 34 13 36 9 39 11 41
REMARK Flexibility Score: inf
ROOT
ATOM      1  O   UNL     1     -45.591 -10.068  13.502  1.00  0.00    -0.454 OA
ENDROOT
BRANCH   1   2
ATOM      2  C   UNL     1     -44.577 -10.157  12.543  1.00  0.00     0.214 A 
ATOM      3  C   UNL     1     -44.672 -11.055  11.463  1.00  0.00     0.180 A 
ATOM      4  O   UNL     1     -43.729 -11.057  10.528  1.00  0.00    -0.452 OA
ATOM      5  C   UNL     1     -43.457  -9.325  12.642  1.00  0.00     0.239 A 
ATOM      6  C   UNL     1     -42.653 -10.280  10.573  1.00  0.00     0.146 A 
ATOM      7  O   UNL     1     -43.409  -8.498  13.589  1.00  0.00    -0.285 OA
ATOM      8  C   UNL     1     -42.436  -9.396  11.663  1.00  0.00     0.111 A 
ATOM      9  C   UNL     1     -41.738 -10.346   9.520  1.00  0.00     0.094 A 
ATOM     10  C   UNL     1     -41.239  -8.619  11.681  1.00  0.00     0.134 A 
ATOM     11  C   UNL     1     -40.599  -9.539   9.521  1.00  0.00     0.123 A 
ATOM     12  C   UNL     1     -40.360  -8.682  10.594  1.00  0.00     0.093 A 
BRANCH   3  13
ATOM     13  C   UNL     1     -45.815 -11.983  11.310  1.00  0.00     0.025 A 
ATOM     14  C   UNL     1     -46.816 -11.694  10.373  1.00  0.00     0.016 A 
ATOM     15  C   UNL     1     -47.925 -12.532  10.246  1.00  0.00     0.051 A 
ATOM     16  C   UNL     1     -48.050 -13.678  11.039  1.00  0.00     0.157 A 
ATOM     17  C   UNL     1     -45.921 -13.147  12.089  1.00  0.00     0.062 A 
ATOM     18  C   UNL     1     -47.031 -13.993  11.968  1.00  0.00     0.158 A 
BRANCH  16  19
ATOM     19  O   UNL     1     -49.189 -14.467  10.872  1.00  0.00    -0.504 OA
ATOM     20  H   UNL     1     -50.107 -14.099  10.671  1.00  0.00     0.293 HD
ENDBRANCH  16  19
BRANCH  18  21
ATOM     21  O   UNL     1     -47.078 -15.125  12.784  1.00  0.00    -0.504 OA
ATOM     22  H   UNL     1     -47.931 -15.522  13.150  1.00  0.00     0.293 HD
ENDBRANCH  18  21
ENDBRANCH   3  13
BRANCH  10  23
ATOM     23  O   UNL     1     -40.859  -7.796  12.746  1.00  0.00    -0.507 OA
ATOM     24  H   UNL     1     -41.308  -6.925  12.988  1.00  0.00     0.293 HD
ENDBRANCH  10  23
BRANCH  11  25
ATOM     25  O   UNL     1     -39.693  -9.587   8.464  1.00  0.00    -0.508 OA
ATOM     26  H   UNL     1     -39.100 -10.394   8.310  1.00  0.00     0.293 HD
ENDBRANCH  11  25
ENDBRANCH   1   2
BRANCH   1  27
ATOM     27  C   UNL     1     -46.127 -11.222  14.145  1.00  0.00     0.339 C 
ATOM     28  C   UNL     1     -47.586 -10.935  14.539  1.00  0.00     0.214 C 
ATOM     29  O   UNL     1     -45.358 -11.516  15.297  1.00  0.00    -0.332 OA
ATOM     30  C   UNL     1     -48.171 -12.151  15.284  1.00  0.00     0.180 C 
ATOM     31  C   UNL     1     -45.780 -12.727  15.897  1.00  0.00     0.179 C 
ATOM     32  C   UNL     1     -47.228 -12.582  16.427  1.00  0.00     0.177 C 
BRANCH  28  33
ATOM     33  O   UNL     1     -47.631  -9.796  15.359  1.00  0.00    -0.384 OA
ATOM     34  H   UNL     1     -46.841  -9.842  15.959  1.00  0.00     0.211 HD
ENDBRANCH  28  33
BRANCH  30  35
ATOM     35  O   UNL     1     -48.354 -13.223  14.393  1.00  0.00    -0.387 OA
ATOM     36  H   UNL     1     -47.971 -12.940  13.522  1.00  0.00     0.211 HD
ENDBRANCH  30  35
BRANCH  31  37
ATOM     37  C   UNL     1     -44.796 -13.049  17.033  1.00  0.00     0.191 C 
BRANCH  37  38
ATOM     38  O   UNL     1     -44.552 -14.427  17.122  1.00  0.00    -0.394 OA
ATOM     39  H   UNL     1     -43.675 -14.531  17.576  1.00  0.00     0.210 HD
ENDBRANCH  37  38
ENDBRANCH  31  37
BRANCH  32  40
ATOM     40  O   UNL     1     -47.669 -13.799  16.973  1.00  0.00    -0.387 OA
ATOM     41  H   UNL     1     -48.068 -13.589  17.858  1.00  0.00     0.211 HD
ENDBRANCH  32  40
ENDBRANCH   1  27
TORSDOF 12
ENDMDL
MODEL 7
REMARK VINA RESULT:    -6.203      3.677      8.202
REMARK INTER + INTRA:          -9.732
REMARK INTER:                 -10.170
REMARK INTRA:                   0.438
REMARK UNBOUND:                -0.629
REMARK SMILES O=c1c(O[C@H]2O[C@@H](CO)[C@H](O)[C@H](O)[C@H]2O)c(-c2ccc(O)c(O)c2)oc2cc(O)cc(O)c12
REMARK SMILES IDX 4 1 3 2 16 3 25 4 2 5 26 6 1 7 33 8 27 9 31 10 28 11 30 12
REMARK SMILES IDX 17 13 18 14 19 15 20 16 24 17 22 18 21 19 23 21 32 23 29 25
REMARK SMILES IDX 5 27 14 28 6 29 12 30 7 31 10 32 15 33 13 35 8 37 9 38 11 40
REMARK H PARENT 21 20 23 22 32 24 29 26 15 34 13 36 9 39 11 41
REMARK Flexibility Score: inf
ROOT
ATOM      1  O   UNL     1     -36.895  -5.569   3.352  1.00  0.00    -0.454 OA
ENDROOT
BRANCH   1   2
ATOM      2  C   UNL     1     -36.694  -4.239   2.971  1.00  0.00     0.214 A 
ATOM      3  C   UNL     1     -36.450  -3.893   1.628  1.00  0.00     0.180 A 
ATOM      4  O   UNL     1     -36.345  -2.614   1.289  1.00  0.00    -0.452 OA
ATOM      5  C   UNL     1     -36.760  -3.226   3.935  1.00  0.00     0.239 A 
ATOM      6  C   UNL     1     -36.410  -1.618   2.166  1.00  0.00     0.146 A 
ATOM      7  O   UNL     1     -37.022  -3.548   5.122  1.00  0.00    -0.285 OA
ATOM      8  C   UNL     1     -36.579  -1.875   3.552  1.00  0.00     0.111 A 
ATOM      9  C   UNL     1     -36.312  -0.307   1.694  1.00  0.00     0.094 A 
ATOM     10  C   UNL     1     -36.595  -0.768   4.452  1.00  0.00     0.134 A 
ATOM     11  C   UNL     1     -36.386   0.770   2.578  1.00  0.00     0.123 A 
ATOM     12  C   UNL     1     -36.530   0.535   3.945  1.00  0.00     0.093 A 
BRANCH   3  13
ATOM     13  C   UNL     1     -36.342  -4.913   0.562  1.00  0.00     0.025 A 
ATOM     14  C   UNL     1     -36.104  -6.250   0.907  1.00  0.00     0.016 A 
ATOM     15  C   UNL     1     -35.952  -7.219  -0.086  1.00  0.00     0.051 A 
ATOM     16  C   UNL     1     -36.048  -6.876  -1.439  1.00  0.00     0.157 A 
ATOM     17  C   UNL     1     -36.467  -4.569  -0.795  1.00  0.00     0.062 A 
ATOM     18  C   UNL     1     -36.316  -5.534  -1.798  1.00  0.00     0.158 A 
BRANCH  16  19
ATOM     19  O   UNL     1     -35.875  -7.890  -2.384  1.00  0.00    -0.504 OA
ATOM     20  H   UNL     1     -35.343  -7.783  -3.234  1.00  0.00     0.293 HD
ENDBRANCH  16  19
BRANCH  18  21
ATOM     21  O   UNL     1     -36.441  -5.119  -3.125  1.00  0.00    -0.504 OA
ATOM     22  H   UNL     1     -37.324  -5.005  -3.601  1.00  0.00     0.293 HD
ENDBRANCH  18  21
ENDBRANCH   3  13
BRANCH  10  23
ATOM     23  O   UNL     1     -36.647  -0.895   5.844  1.00  0.00    -0.507 OA
ATOM     24  H   UNL     1     -37.425  -0.608   6.419  1.00  0.00     0.293 HD
ENDBRANCH  10  23
BRANCH  11  25
ATOM     25  O   UNL     1     -36.309   2.080   2.111  1.00  0.00    -0.508 OA
ATOM     26  H   UNL     1     -35.439   2.599   2.129  1.00  0.00     0.293 HD
ENDBRANCH  11  25
ENDBRANCH   1   2
BRANCH   1  27
ATOM     27  C   UNL     1     -38.014  -5.969   4.139  1.00  0.00     0.339 C 
ATOM     28  C   UNL     1     -38.423  -7.393   3.729  1.00  0.00     0.214 C 
ATOM     29  O   UNL     1     -39.086  -5.070   3.920  1.00  0.00    -0.332 OA
ATOM     30  C   UNL     1     -39.667  -7.829   4.529  1.00  0.00     0.180 C 
ATOM     31  C   UNL     1     -40.177  -5.358   4.776  1.00  0.00     0.179 C 
ATOM     32  C   UNL     1     -40.766  -6.750   4.438  1.00  0.00     0.177 C 
BRANCH  28  33
ATOM     33  O   UNL     1     -38.700  -7.420   2.352  1.00  0.00    -0.384 OA
ATOM     34  H   UNL     1     -38.497  -6.513   2.001  1.00  0.00     0.211 HD
ENDBRANCH  28  33
BRANCH  30  35
ATOM     35  O   UNL     1     -39.324  -8.040   5.877  1.00  0.00    -0.387 OA
ATOM     36  H   UNL     1     -40.017  -7.586   6.423  1.00  0.00     0.211 HD
ENDBRANCH  30  35
BRANCH  31  37
ATOM     37  C   UNL     1     -41.221  -4.245   4.587  1.00  0.00     0.191 C 
BRANCH  37  38
ATOM     38  O   UNL     1     -42.182  -4.268   5.608  1.00  0.00    -0.394 OA
ATOM     39  H   UNL     1     -41.739  -3.910   6.422  1.00  0.00     0.210 HD
ENDBRANCH  37  38
ENDBRANCH  31  37
BRANCH  32  40
ATOM     40  O   UNL     1     -41.813  -7.062   5.321  1.00  0.00    -0.387 OA
ATOM     41  H   UNL     1     -41.456  -6.950   6.240  1.00  0.00     0.211 HD
ENDBRANCH  32  40
ENDBRANCH   1  27
TORSDOF 12
ENDMDL
MODEL 8
REMARK VINA RESULT:    -5.804      2.448      5.152
REMARK INTER + INTRA:          -9.147
REMARK INTER:                  -8.904
REMARK INTRA:                  -0.243
REMARK UNBOUND:                -0.629
REMARK SMILES O=c1c(O[C@H]2O[C@@H](CO)[C@H](O)[C@H](O)[C@H]2O)c(-c2ccc(O)c(O)c2)oc2cc(O)cc(O)c12
REMARK SMILES IDX 4 1 3 2 16 3 25 4 2 5 26 6 1 7 33 8 27 9 31 10 28 11 30 12
REMARK SMILES IDX 17 13 18 14 19 15 20 16 24 17 22 18 21 19 23 21 32 23 29 25
REMARK SMILES IDX 5 27 14 28 6 29 12 30 7 31 10 32 15 33 13 35 8 37 9 38 11 40
REMARK H PARENT 21 20 23 22 32 24 29 26 15 34 13 36 9 39 11 41
REMARK Flexibility Score: inf
ROOT
ATOM      1  O   UNL     1     -38.144  -6.810   4.534  1.00  0.00    -0.454 OA
ENDROOT
BRANCH   1   2
ATOM      2  C   UNL     1     -39.186  -7.525   3.936  1.00  0.00     0.214 A 
ATOM      3  C   UNL     1     -39.364  -7.525   2.540  1.00  0.00     0.180 A 
ATOM      4  O   UNL     1     -40.314  -8.279   2.000  1.00  0.00    -0.452 OA
ATOM      5  C   UNL     1     -40.056  -8.276   4.735  1.00  0.00     0.239 A 
ATOM      6  C   UNL     1     -41.158  -9.015   2.715  1.00  0.00     0.146 A 
ATOM      7  O   UNL     1     -39.857  -8.300   5.976  1.00  0.00    -0.285 OA
ATOM      8  C   UNL     1     -41.102  -9.018   4.134  1.00  0.00     0.111 A 
ATOM      9  C   UNL     1     -42.103  -9.791   2.040  1.00  0.00     0.094 A 
ATOM     10  C   UNL     1     -42.063  -9.792   4.851  1.00  0.00     0.134 A 
ATOM     11  C   UNL     1     -43.002 -10.587   2.751  1.00  0.00     0.123 A 
ATOM     12  C   UNL     1     -42.974 -10.586   4.145  1.00  0.00     0.093 A 
BRANCH   3  13
ATOM     13  C   UNL     1     -38.498  -6.734   1.637  1.00  0.00     0.025 A 
ATOM     14  C   UNL     1     -37.412  -7.354   1.005  1.00  0.00     0.016 A 
ATOM     15  C   UNL     1     -36.556  -6.615   0.187  1.00  0.00     0.051 A 
ATOM     16  C   UNL     1     -36.775  -5.250  -0.027  1.00  0.00     0.157 A 
ATOM     17  C   UNL     1     -38.738  -5.370   1.403  1.00  0.00     0.062 A 
ATOM     18  C   UNL     1     -37.885  -4.620   0.584  1.00  0.00     0.158 A 
BRANCH  16  19
ATOM     19  O   UNL     1     -35.876  -4.565  -0.846  1.00  0.00    -0.504 OA
ATOM     20  H   UNL     1     -34.903  -4.812  -0.947  1.00  0.00     0.293 HD
ENDBRANCH  16  19
BRANCH  18  21
ATOM     21  O   UNL     1     -38.176  -3.266   0.407  1.00  0.00    -0.504 OA
ATOM     22  H   UNL     1     -37.574  -2.619  -0.082  1.00  0.00     0.293 HD
ENDBRANCH  18  21
ENDBRANCH   3  13
BRANCH  10  23
ATOM     23  O   UNL     1     -42.180  -9.794   6.245  1.00  0.00    -0.507 OA
ATOM     24  H   UNL     1     -43.053  -9.820   6.748  1.00  0.00     0.293 HD
ENDBRANCH  10  23
BRANCH  11  25
ATOM     25  O   UNL     1     -43.933 -11.379   2.083  1.00  0.00    -0.508 OA
ATOM     26  H   UNL     1     -44.928 -11.198   2.151  1.00  0.00     0.293 HD
ENDBRANCH  11  25
ENDBRANCH   1   2
BRANCH   1  27
ATOM     27  C   UNL     1     -37.867  -5.453   4.195  1.00  0.00     0.339 C 
ATOM     28  C   UNL     1     -36.425  -5.123   4.616  1.00  0.00     0.214 C 
ATOM     29  O   UNL     1     -38.780  -4.606   4.870  1.00  0.00    -0.332 OA
ATOM     30  C   UNL     1     -36.120  -3.643   4.308  1.00  0.00     0.180 C 
ATOM     31  C   UNL     1     -38.620  -3.259   4.466  1.00  0.00     0.179 C 
ATOM     32  C   UNL     1     -37.225  -2.737   4.890  1.00  0.00     0.177 C 
BRANCH  28  33
ATOM     33  O   UNL     1     -36.272  -5.374   5.989  1.00  0.00    -0.384 OA
ATOM     34  H   UNL     1     -35.766  -6.225   6.071  1.00  0.00     0.211 HD
ENDBRANCH  28  33
BRANCH  30  35
ATOM     35  O   UNL     1     -36.032  -3.447   2.919  1.00  0.00    -0.387 OA
ATOM     36  H   UNL     1     -35.290  -2.805   2.767  1.00  0.00     0.211 HD
ENDBRANCH  30  35
BRANCH  31  37
ATOM     37  C   UNL     1     -39.747  -2.442   5.120  1.00  0.00     0.191 C 
BRANCH  37  38
ATOM     38  O   UNL     1     -40.992  -3.066   4.953  1.00  0.00    -0.394 OA
ATOM     39  H   UNL     1     -40.866  -3.770   4.264  1.00  0.00     0.210 HD
ENDBRANCH  37  38
ENDBRANCH  31  37
BRANCH  32  40
ATOM     40  O   UNL     1     -37.042  -1.419   4.443  1.00  0.00    -0.387 OA
ATOM     41  H   UNL     1     -37.942  -0.999   4.410  1.00  0.00     0.211 HD
ENDBRANCH  32  40
ENDBRANCH   1  27
TORSDOF 12
ENDMDL
MODEL 9
REMARK VINA RESULT:    -5.419      2.944      7.781
REMARK INTER + INTRA:          -8.581
REMARK INTER:                  -8.960
REMARK INTRA:                   0.379
REMARK UNBOUND:                -0.629
REMARK SMILES O=c1c(O[C@H]2O[C@@H](CO)[C@H](O)[C@H](O)[C@H]2O)c(-c2ccc(O)c(O)c2)oc2cc(O)cc(O)c12
REMARK SMILES IDX 4 1 3 2 16 3 25 4 2 5 26 6 1 7 33 8 27 9 31 10 28 11 30 12
REMARK SMILES IDX 17 13 18 14 19 15 20 16 24 17 22 18 21 19 23 21 32 23 29 25
REMARK SMILES IDX 5 27 14 28 6 29 12 30 7 31 10 32 15 33 13 35 8 37 9 38 11 40
REMARK H PARENT 21 20 23 22 32 24 29 26 15 34 13 36 9 39 11 41
REMARK Flexibility Score: inf
ROOT
ATOM      1  O   UNL     1     -39.444  -8.013   3.217  1.00  0.00    -0.454 OA
ENDROOT
BRANCH   1   2
ATOM      2  C   UNL     1     -38.958  -6.816   2.682  1.00  0.00     0.214 A 
ATOM      3  C   UNL     1     -39.462  -5.571   3.106  1.00  0.00     0.180 A 
ATOM      4  O   UNL     1     -38.922  -4.452   2.637  1.00  0.00    -0.452 OA
ATOM      5  C   UNL     1     -37.937  -6.849   1.727  1.00  0.00     0.239 A 
ATOM      6  C   UNL     1     -37.946  -4.433   1.736  1.00  0.00     0.146 A 
ATOM      7  O   UNL     1     -37.469  -7.968   1.392  1.00  0.00    -0.285 OA
ATOM      8  C   UNL     1     -37.427  -5.640   1.197  1.00  0.00     0.111 A 
ATOM      9  C   UNL     1     -37.435  -3.197   1.333  1.00  0.00     0.094 A 
ATOM     10  C   UNL     1     -36.411  -5.557   0.198  1.00  0.00     0.134 A 
ATOM     11  C   UNL     1     -36.402  -3.131   0.397  1.00  0.00     0.123 A 
ATOM     12  C   UNL     1     -35.896  -4.305  -0.159  1.00  0.00     0.093 A 
BRANCH   3  13
ATOM     13  C   UNL     1     -40.559  -5.461   4.093  1.00  0.00     0.025 A 
ATOM     14  C   UNL     1     -41.003  -4.194   4.493  1.00  0.00     0.016 A 
ATOM     15  C   UNL     1     -42.004  -4.069   5.458  1.00  0.00     0.051 A 
ATOM     16  C   UNL     1     -42.589  -5.203   6.030  1.00  0.00     0.157 A 
ATOM     17  C   UNL     1     -41.163  -6.603   4.645  1.00  0.00     0.062 A 
ATOM     18  C   UNL     1     -42.167  -6.488   5.613  1.00  0.00     0.158 A 
BRANCH  16  19
ATOM     19  O   UNL     1     -43.577  -5.010   6.998  1.00  0.00    -0.504 OA
ATOM     20  H   UNL     1     -43.590  -5.478   7.892  1.00  0.00     0.293 HD
ENDBRANCH  16  19
BRANCH  18  21
ATOM     21  O   UNL     1     -42.714  -7.665   6.129  1.00  0.00    -0.504 OA
ATOM     22  H   UNL     1     -42.409  -8.591   5.866  1.00  0.00     0.293 HD
ENDBRANCH  18  21
ENDBRANCH   3  13
BRANCH  10  23
ATOM     23  O   UNL     1     -35.895  -6.663  -0.485  1.00  0.00    -0.507 OA
ATOM     24  H   UNL     1     -35.442  -6.622  -1.385  1.00  0.00     0.293 HD
ENDBRANCH  10  23
BRANCH  11  25
ATOM     25  O   UNL     1     -35.875  -1.902   0.006  1.00  0.00    -0.508 OA
ATOM     26  H   UNL     1     -36.265  -1.028   0.339  1.00  0.00     0.293 HD
ENDBRANCH  11  25
ENDBRANCH   1   2
BRANCH   1  27
ATOM     27  C   UNL     1     -40.715  -8.545   2.849  1.00  0.00     0.339 C 
ATOM     28  C   UNL     1     -41.019  -9.761   3.740  1.00  0.00     0.214 C 
ATOM     29  O   UNL     1     -40.685  -8.931   1.487  1.00  0.00    -0.332 OA
ATOM     30  C   UNL     1     -42.366 -10.385   3.325  1.00  0.00     0.180 C 
ATOM     31  C   UNL     1     -41.964  -9.349   1.047  1.00  0.00     0.179 C 
ATOM     32  C   UNL     1     -42.394 -10.631   1.802  1.00  0.00     0.177 C 
BRANCH  28  33
ATOM     33  O   UNL     1     -39.987 -10.704   3.609  1.00  0.00    -0.384 OA
ATOM     34  H   UNL     1     -39.664 -10.906   4.526  1.00  0.00     0.211 HD
ENDBRANCH  28  33
BRANCH  30  35
ATOM     35  O   UNL     1     -43.425  -9.534   3.685  1.00  0.00    -0.387 OA
ATOM     36  H   UNL     1     -43.195  -9.149   4.571  1.00  0.00     0.211 HD
ENDBRANCH  30  35
BRANCH  31  37
ATOM     37  C   UNL     1     -41.876  -9.593  -0.469  1.00  0.00     0.191 C 
BRANCH  37  38
ATOM     38  O   UNL     1     -43.138  -9.505  -1.074  1.00  0.00    -0.394 OA
ATOM     39  H   UNL     1     -43.536 -10.414  -1.031  1.00  0.00     0.210 HD
ENDBRANCH  37  38
ENDBRANCH  31  37
BRANCH  32  40
ATOM     40  O   UNL     1     -43.686 -11.017   1.407  1.00  0.00    -0.387 OA
ATOM     41  H   UNL     1     -43.711 -10.965   0.416  1.00  0.00     0.211 HD
ENDBRANCH  32  40
ENDBRANCH   1  27
TORSDOF 12
ENDMDL
