MODEL 1
REMARK VINA RESULT:    -6.766      0.000      0.000
REMARK INTER + INTRA:         -11.467
REMARK INTER:                  -9.337
REMARK INTRA:                  -2.130
REMARK UNBOUND:                -2.130
REMARK SMILES CC[C@@H](CC[C@H](C)[C@@H]1CC[C@H]2[C@@H]3CC=C4C[C@H](O)CC[C@]4(C)[C@@H]3CC[C@]21C)C(C)C
REMARK SMILES IDX 5 1 4 2 3 3 2 4 1 5 28 6 29 7 30 8 6 9 7 10 8 11 9 12 26 13
REMARK SMILES IDX 10 14 11 15 25 16 27 17 12 18 24 19 23 20 13 21 21 22 14 23
REMARK SMILES IDX 15 24 20 25 22 26 16 27 19 28 17 29 18 30
REMARK H PARENT 18 31
REMARK Flexibility Score: inf
ROOT
ATOM      1  C   UNL     1      33.628  29.518  15.456  1.00  0.00     0.004 C 
ENDROOT
BRANCH   1   2
ATOM      2  C   UNL     1      33.061  30.058  16.793  1.00  0.00     0.004 C 
BRANCH   2   3
ATOM      3  C   UNL     1      32.108  31.293  16.702  1.00  0.00    -0.009 C 
BRANCH   3   4
ATOM      4  C   UNL     1      30.697  30.961  17.285  1.00  0.00     0.000 C 
ATOM      5  C   UNL     1      30.745  30.570  18.766  1.00  0.00     0.004 C 
ENDBRANCH   3   4
BRANCH   3   6
ATOM      6  C   UNL     1      31.998  31.813  15.223  1.00  0.00    -0.014 C 
ATOM      7  C   UNL     1      30.554  31.755  14.693  1.00  0.00     0.007 C 
ATOM      8  C   UNL     1      32.532  33.249  15.054  1.00  0.00     0.007 C 
ENDBRANCH   3   6
ENDBRANCH   2   3
ENDBRANCH   1   2
BRANCH   1   9
ATOM      9  C   UNL     1      33.330  28.020  15.144  1.00  0.00    -0.011 C 
ATOM     10  C   UNL     1      34.658  27.279  14.870  1.00  0.00     0.008 C 
BRANCH   9  11
ATOM     11  C   UNL     1      32.359  27.850  13.917  1.00  0.00    -0.002 C 
ATOM     12  C   UNL     1      32.320  29.058  12.976  1.00  0.00     0.005 C 
ATOM     13  C   UNL     1      30.833  27.498  14.199  1.00  0.00    -0.026 C 
ATOM     14  C   UNL     1      31.052  28.881  12.177  1.00  0.00     0.005 C 
ATOM     15  C   UNL     1      30.039  28.430  13.216  1.00  0.00    -0.001 C 
ATOM     16  C   UNL     1      30.596  25.981  13.914  1.00  0.00     0.007 C 
ATOM     17  C   UNL     1      30.384  27.822  15.651  1.00  0.00     0.012 C 
ATOM     18  C   UNL     1      28.717  27.900  12.572  1.00  0.00     0.000 C 
ATOM     19  C   UNL     1      29.160  25.614  13.534  1.00  0.00     0.005 C 
ATOM     20  C   UNL     1      28.734  26.383  12.263  1.00  0.00     0.003 C 
ATOM     21  C   UNL     1      27.493  28.282  13.427  1.00  0.00     0.031 C 
ATOM     22  C   UNL     1      27.380  25.916  11.568  1.00  0.00    -0.008 C 
ATOM     23  C   UNL     1      26.209  27.709  12.908  1.00  0.00    -0.027 C 
ATOM     24  C   UNL     1      26.138  26.578  12.177  1.00  0.00    -0.065 C 
ATOM     25  C   UNL     1      27.192  24.369  11.647  1.00  0.00     0.014 C 
ATOM     26  C   UNL     1      27.455  26.328  10.069  1.00  0.00     0.016 C 
ATOM     27  C   UNL     1      24.767  26.079  11.751  1.00  0.00     0.063 C 
ATOM     28  C   UNL     1      25.834  23.875  11.113  1.00  0.00     0.033 C 
ATOM     29  C   UNL     1      24.668  24.549  11.852  1.00  0.00     0.118 C 
BRANCH  29  30
ATOM     30  O   UNL     1      24.663  24.141  13.197  1.00  0.00    -0.393 OA
ATOM     31  H   UNL     1      24.091  24.784  13.689  1.00  0.00     0.210 HD
ENDBRANCH  29  30
ENDBRANCH   9  11
ENDBRANCH   1   9
TORSDOF 7
ENDMDL
MODEL 2
REMARK VINA RESULT:    -6.383      2.326      3.570
REMARK INTER + INTRA:         -10.938
REMARK INTER:                  -8.870
REMARK INTRA:                  -2.068
REMARK UNBOUND:                -2.130
REMARK SMILES CC[C@@H](CC[C@H](C)[C@@H]1CC[C@H]2[C@@H]3CC=C4C[C@H](O)CC[C@]4(C)[C@@H]3CC[C@]21C)C(C)C
REMARK SMILES IDX 5 1 4 2 3 3 2 4 1 5 28 6 29 7 30 8 6 9 7 10 8 11 9 12 26 13
REMARK SMILES IDX 10 14 11 15 25 16 27 17 12 18 24 19 23 20 13 21 21 22 14 23
REMARK SMILES IDX 15 24 20 25 22 26 16 27 19 28 17 29 18 30
REMARK H PARENT 18 31
REMARK Flexibility Score: inf
ROOT
ATOM      1  C   UNL     1      31.579  27.876  14.966  1.00  0.00     0.004 C 
ENDROOT
BRANCH   1   2
ATOM      2  C   UNL     1      32.025  29.298  15.391  1.00  0.00     0.004 C 
BRANCH   2   3
ATOM      3  C   UNL     1      31.193  30.492  14.823  1.00  0.00    -0.009 C 
BRANCH   3   4
ATOM      4  C   UNL     1      31.653  30.864  13.377  1.00  0.00     0.000 C 
ATOM      5  C   UNL     1      30.478  31.039  12.409  1.00  0.00     0.004 C 
ENDBRANCH   3   4
BRANCH   3   6
ATOM      6  C   UNL     1      31.272  31.738  15.777  1.00  0.00    -0.014 C 
ATOM      7  C   UNL     1      31.434  31.331  17.252  1.00  0.00     0.007 C 
ATOM      8  C   UNL     1      32.411  32.706  15.400  1.00  0.00     0.007 C 
ENDBRANCH   3   6
ENDBRANCH   2   3
ENDBRANCH   1   2
BRANCH   1   9
ATOM      9  C   UNL     1      30.058  27.565  15.114  1.00  0.00    -0.011 C 
ATOM     10  C   UNL     1      29.867  26.408  16.120  1.00  0.00     0.008 C 
BRANCH   9  11
ATOM     11  C   UNL     1      29.391  27.194  13.737  1.00  0.00    -0.002 C 
ATOM     12  C   UNL     1      30.324  27.328  12.531  1.00  0.00     0.005 C 
ATOM     13  C   UNL     1      28.057  27.951  13.313  1.00  0.00    -0.026 C 
ATOM     14  C   UNL     1      29.403  27.375  11.337  1.00  0.00     0.005 C 
ATOM     15  C   UNL     1      28.276  28.285  11.794  1.00  0.00    -0.001 C 
ATOM     16  C   UNL     1      26.835  27.008  13.551  1.00  0.00     0.007 C 
ATOM     17  C   UNL     1      27.832  29.283  14.080  1.00  0.00     0.012 C 
ATOM     18  C   UNL     1      27.049  28.252  10.827  1.00  0.00     0.000 C 
ATOM     19  C   UNL     1      25.620  27.294  12.666  1.00  0.00     0.005 C 
ATOM     20  C   UNL     1      26.005  27.163  11.175  1.00  0.00     0.003 C 
ATOM     21  C   UNL     1      26.392  29.641  10.717  1.00  0.00     0.031 C 
ATOM     22  C   UNL     1      24.806  27.150  10.129  1.00  0.00    -0.008 C 
ATOM     23  C   UNL     1      25.148  29.640   9.881  1.00  0.00    -0.027 C 
ATOM     24  C   UNL     1      24.362  28.558   9.712  1.00  0.00    -0.065 C 
ATOM     25  C   UNL     1      23.559  26.393  10.684  1.00  0.00     0.014 C 
ATOM     26  C   UNL     1      25.305  26.411   8.853  1.00  0.00     0.016 C 
ATOM     27  C   UNL     1      23.101  28.704   8.876  1.00  0.00     0.063 C 
ATOM     28  C   UNL     1      22.323  26.467   9.768  1.00  0.00     0.033 C 
ATOM     29  C   UNL     1      21.927  27.925   9.488  1.00  0.00     0.118 C 
BRANCH  29  30
ATOM     30  O   UNL     1      21.495  28.534  10.679  1.00  0.00    -0.393 OA
ATOM     31  H   UNL     1      21.736  27.920  11.418  1.00  0.00     0.210 HD
ENDBRANCH  29  30
ENDBRANCH   9  11
ENDBRANCH   1   9
TORSDOF 7
ENDMDL
MODEL 3
REMARK VINA RESULT:    -5.857      1.758      4.021
REMARK INTER + INTRA:         -10.212
REMARK INTER:                  -8.171
REMARK INTRA:                  -2.041
REMARK UNBOUND:                -2.130
REMARK SMILES CC[C@@H](CC[C@H](C)[C@@H]1CC[C@H]2[C@@H]3CC=C4C[C@H](O)CC[C@]4(C)[C@@H]3CC[C@]21C)C(C)C
REMARK SMILES IDX 5 1 4 2 3 3 2 4 1 5 28 6 29 7 30 8 6 9 7 10 8 11 9 12 26 13
REMARK SMILES IDX 10 14 11 15 25 16 27 17 12 18 24 19 23 20 13 21 21 22 14 23
REMARK SMILES IDX 15 24 20 25 22 26 16 27 19 28 17 29 18 30
REMARK H PARENT 18 31
REMARK Flexibility Score: inf
ROOT
ATOM      1  C   UNL     1      32.785  29.735  16.126  1.00  0.00     0.004 C 
ENDROOT
BRANCH   1   2
ATOM      2  C   UNL     1      33.677  29.314  14.930  1.00  0.00     0.004 C 
BRANCH   2   3
ATOM      3  C   UNL     1      33.556  27.832  14.454  1.00  0.00    -0.009 C 
BRANCH   3   4
ATOM      4  C   UNL     1      34.379  26.873  15.374  1.00  0.00     0.000 C 
ATOM      5  C   UNL     1      33.599  25.613  15.764  1.00  0.00     0.004 C 
ENDBRANCH   3   4
BRANCH   3   6
ATOM      6  C   UNL     1      33.996  27.684  12.952  1.00  0.00    -0.014 C 
ATOM      7  C   UNL     1      35.405  27.081  12.816  1.00  0.00     0.007 C 
ATOM      8  C   UNL     1      33.010  26.837  12.123  1.00  0.00     0.007 C 
ENDBRANCH   3   6
ENDBRANCH   2   3
ENDBRANCH   1   2
BRANCH   1   9
ATOM      9  C   UNL     1      31.420  30.395  15.759  1.00  0.00    -0.011 C 
ATOM     10  C   UNL     1      31.007  31.374  16.881  1.00  0.00     0.008 C 
BRANCH   9  11
ATOM     11  C   UNL     1      30.286  29.328  15.534  1.00  0.00    -0.002 C 
ATOM     12  C   UNL     1      30.628  27.929  16.054  1.00  0.00     0.005 C 
ATOM     13  C   UNL     1      29.744  29.097  14.055  1.00  0.00    -0.026 C 
ATOM     14  C   UNL     1      29.655  27.012  15.355  1.00  0.00     0.005 C 
ATOM     15  C   UNL     1      29.634  27.536  13.930  1.00  0.00    -0.001 C 
ATOM     16  C   UNL     1      28.365  29.812  13.898  1.00  0.00     0.007 C 
ATOM     17  C   UNL     1      30.714  29.610  12.956  1.00  0.00     0.012 C 
ATOM     18  C   UNL     1      28.471  26.924  13.084  1.00  0.00     0.000 C 
ATOM     19  C   UNL     1      27.447  29.212  12.831  1.00  0.00     0.005 C 
ATOM     20  C   UNL     1      27.151  27.731  13.157  1.00  0.00     0.003 C 
ATOM     21  C   UNL     1      28.907  26.700  11.623  1.00  0.00     0.031 C 
ATOM     22  C   UNL     1      25.995  27.033  12.314  1.00  0.00    -0.008 C 
ATOM     23  C   UNL     1      27.796  26.211  10.744  1.00  0.00    -0.027 C 
ATOM     24  C   UNL     1      26.492  26.462  10.980  1.00  0.00    -0.065 C 
ATOM     25  C   UNL     1      24.822  28.017  12.012  1.00  0.00     0.014 C 
ATOM     26  C   UNL     1      25.443  25.851  13.162  1.00  0.00     0.016 C 
ATOM     27  C   UNL     1      25.466  25.947   9.983  1.00  0.00     0.063 C 
ATOM     28  C   UNL     1      23.740  27.436  11.083  1.00  0.00     0.033 C 
ATOM     29  C   UNL     1      24.345  26.971   9.749  1.00  0.00     0.118 C 
BRANCH  29  30
ATOM     30  O   UNL     1      24.831  28.082   9.038  1.00  0.00    -0.393 OA
ATOM     31  H   UNL     1      25.184  27.740   8.177  1.00  0.00     0.210 HD
ENDBRANCH  29  30
ENDBRANCH   9  11
ENDBRANCH   1   9
TORSDOF 7
ENDMDL
MODEL 4
REMARK VINA RESULT:    -5.719      2.427      8.350
REMARK INTER + INTRA:         -10.023
REMARK INTER:                  -7.752
REMARK INTRA:                  -2.271
REMARK UNBOUND:                -2.130
REMARK SMILES CC[C@@H](CC[C@H](C)[C@@H]1CC[C@H]2[C@@H]3CC=C4C[C@H](O)CC[C@]4(C)[C@@H]3CC[C@]21C)C(C)C
REMARK SMILES IDX 5 1 4 2 3 3 2 4 1 5 28 6 29 7 30 8 6 9 7 10 8 11 9 12 26 13
REMARK SMILES IDX 10 14 11 15 25 16 27 17 12 18 24 19 23 20 13 21 21 22 14 23
REMARK SMILES IDX 15 24 20 25 22 26 16 27 19 28 17 29 18 30
REMARK H PARENT 18 31
REMARK Flexibility Score: inf
ROOT
ATOM      1  C   UNL     1      25.386  26.851   9.171  1.00  0.00     0.004 C 
ENDROOT
BRANCH   1   2
ATOM      2  C   UNL     1      25.430  25.308   9.312  1.00  0.00     0.004 C 
BRANCH   2   3
ATOM      3  C   UNL     1      25.920  24.743  10.684  1.00  0.00    -0.009 C 
BRANCH   3   4
ATOM      4  C   UNL     1      27.239  23.921  10.518  1.00  0.00     0.000 C 
ATOM      5  C   UNL     1      28.231  24.156  11.662  1.00  0.00     0.004 C 
ENDBRANCH   3   4
BRANCH   3   6
ATOM      6  C   UNL     1      24.801  23.879  11.370  1.00  0.00    -0.014 C 
ATOM      7  C   UNL     1      24.697  24.158  12.880  1.00  0.00     0.007 C 
ATOM      8  C   UNL     1      23.414  24.083  10.730  1.00  0.00     0.007 C 
ENDBRANCH   3   6
ENDBRANCH   2   3
ENDBRANCH   1   2
BRANCH   1   9
ATOM      9  C   UNL     1      25.503  27.661  10.498  1.00  0.00    -0.011 C 
ATOM     10  C   UNL     1      24.456  28.797  10.500  1.00  0.00     0.008 C 
BRANCH   9  11
ATOM     11  C   UNL     1      26.944  28.260  10.704  1.00  0.00    -0.002 C 
ATOM     12  C   UNL     1      28.023  27.611   9.833  1.00  0.00     0.005 C 
ATOM     13  C   UNL     1      27.556  28.278  12.173  1.00  0.00    -0.026 C 
ATOM     14  C   UNL     1      29.327  27.991  10.491  1.00  0.00     0.005 C 
ATOM     15  C   UNL     1      29.041  27.811  11.972  1.00  0.00    -0.001 C 
ATOM     16  C   UNL     1      27.453  29.725  12.752  1.00  0.00     0.007 C 
ATOM     17  C   UNL     1      26.857  27.288  13.145  1.00  0.00     0.012 C 
ATOM     18  C   UNL     1      30.157  28.427  12.876  1.00  0.00     0.000 C 
ATOM     19  C   UNL     1      28.493  30.065  13.821  1.00  0.00     0.005 C 
ATOM     20  C   UNL     1      29.918  29.912  13.243  1.00  0.00     0.003 C 
ATOM     21  C   UNL     1      30.385  27.571  14.137  1.00  0.00     0.031 C 
ATOM     22  C   UNL     1      31.110  30.493  14.124  1.00  0.00    -0.008 C 
ATOM     23  C   UNL     1      31.374  28.173  15.088  1.00  0.00    -0.027 C 
ATOM     24  C   UNL     1      31.615  29.497  15.176  1.00  0.00    -0.065 C 
ATOM     25  C   UNL     1      30.700  31.807  14.860  1.00  0.00     0.014 C 
ATOM     26  C   UNL     1      32.292  30.813  13.163  1.00  0.00     0.016 C 
ATOM     27  C   UNL     1      32.610  29.983  16.217  1.00  0.00     0.063 C 
ATOM     28  C   UNL     1      31.769  32.339  15.834  1.00  0.00     0.033 C 
ATOM     29  C   UNL     1      32.135  31.282  16.887  1.00  0.00     0.118 C 
BRANCH  29  30
ATOM     30  O   UNL     1      31.025  31.035  17.714  1.00  0.00    -0.393 OA
ATOM     31  H   UNL     1      30.498  31.874  17.742  1.00  0.00     0.210 HD
ENDBRANCH  29  30
ENDBRANCH   9  11
ENDBRANCH   1   9
TORSDOF 7
ENDMDL
MODEL 5
REMARK VINA RESULT:    -5.593      1.850      2.936
REMARK INTER + INTRA:          -9.848
REMARK INTER:                  -7.883
REMARK INTRA:                  -1.965
REMARK UNBOUND:                -2.130
REMARK SMILES CC[C@@H](CC[C@H](C)[C@@H]1CC[C@H]2[C@@H]3CC=C4C[C@H](O)CC[C@]4(C)[C@@H]3CC[C@]21C)C(C)C
REMARK SMILES IDX 5 1 4 2 3 3 2 4 1 5 28 6 29 7 30 8 6 9 7 10 8 11 9 12 26 13
REMARK SMILES IDX 10 14 11 15 25 16 27 17 12 18 24 19 23 20 13 21 21 22 14 23
REMARK SMILES IDX 15 24 20 25 22 26 16 27 19 28 17 29 18 30
REMARK H PARENT 18 31
REMARK Flexibility Score: inf
ROOT
ATOM      1  C   UNL     1      32.487  29.810  12.804  1.00  0.00     0.004 C 
ENDROOT
BRANCH   1   2
ATOM      2  C   UNL     1      32.569  29.465  14.313  1.00  0.00     0.004 C 
BRANCH   2   3
ATOM      3  C   UNL     1      31.481  30.101  15.236  1.00  0.00    -0.009 C 
BRANCH   3   4
ATOM      4  C   UNL     1      30.359  30.791  14.395  1.00  0.00     0.000 C 
ATOM      5  C   UNL     1      28.954  30.506  14.937  1.00  0.00     0.004 C 
ENDBRANCH   3   4
BRANCH   3   6
ATOM      6  C   UNL     1      32.124  31.112  16.253  1.00  0.00    -0.014 C 
ATOM      7  C   UNL     1      32.151  32.549  15.704  1.00  0.00     0.007 C 
ATOM      8  C   UNL     1      31.414  31.116  17.621  1.00  0.00     0.007 C 
ENDBRANCH   3   6
ENDBRANCH   2   3
ENDBRANCH   1   2
BRANCH   1   9
ATOM      9  C   UNL     1      32.158  28.622  11.849  1.00  0.00    -0.011 C 
ATOM     10  C   UNL     1      33.299  28.460  10.820  1.00  0.00     0.008 C 
BRANCH   9  11
ATOM     11  C   UNL     1      30.787  28.821  11.103  1.00  0.00    -0.002 C 
ATOM     12  C   UNL     1      30.283  30.267  11.093  1.00  0.00     0.005 C 
ATOM     13  C   UNL     1      29.538  27.951  11.566  1.00  0.00    -0.026 C 
ATOM     14  C   UNL     1      28.815  30.158  10.757  1.00  0.00     0.005 C 
ATOM     15  C   UNL     1      28.348  28.975  11.587  1.00  0.00    -0.001 C 
ATOM     16  C   UNL     1      29.315  26.792  10.544  1.00  0.00     0.007 C 
ATOM     17  C   UNL     1      29.696  27.353  12.991  1.00  0.00     0.012 C 
ATOM     18  C   UNL     1      26.920  28.486  11.181  1.00  0.00     0.000 C 
ATOM     19  C   UNL     1      27.879  26.269  10.466  1.00  0.00     0.005 C 
ATOM     20  C   UNL     1      26.919  27.412  10.066  1.00  0.00     0.003 C 
ATOM     21  C   UNL     1      26.126  28.012  12.414  1.00  0.00     0.031 C 
ATOM     22  C   UNL     1      25.437  26.990   9.666  1.00  0.00    -0.008 C 
ATOM     23  C   UNL     1      24.787  27.436  12.066  1.00  0.00    -0.027 C 
ATOM     24  C   UNL     1      24.505  26.863  10.878  1.00  0.00    -0.065 C 
ATOM     25  C   UNL     1      25.409  25.636   8.891  1.00  0.00     0.014 C 
ATOM     26  C   UNL     1      24.865  28.102   8.740  1.00  0.00     0.016 C 
ATOM     27  C   UNL     1      23.120  26.275  10.671  1.00  0.00     0.063 C 
ATOM     28  C   UNL     1      23.990  25.111   8.599  1.00  0.00     0.033 C 
ATOM     29  C   UNL     1      23.181  24.950   9.895  1.00  0.00     0.118 C 
BRANCH  29  30
ATOM     30  O   UNL     1      23.753  23.939  10.686  1.00  0.00    -0.393 OA
ATOM     31  H   UNL     1      24.669  24.239  10.916  1.00  0.00     0.210 HD
ENDBRANCH  29  30
ENDBRANCH   9  11
ENDBRANCH   1   9
TORSDOF 7
ENDMDL
MODEL 6
REMARK VINA RESULT:    -5.583      2.670      8.414
REMARK INTER + INTRA:          -9.835
REMARK INTER:                  -8.239
REMARK INTRA:                  -1.595
REMARK UNBOUND:                -2.130
REMARK SMILES CC[C@@H](CC[C@H](C)[C@@H]1CC[C@H]2[C@@H]3CC=C4C[C@H](O)CC[C@]4(C)[C@@H]3CC[C@]21C)C(C)C
REMARK SMILES IDX 5 1 4 2 3 3 2 4 1 5 28 6 29 7 30 8 6 9 7 10 8 11 9 12 26 13
REMARK SMILES IDX 10 14 11 15 25 16 27 17 12 18 24 19 23 20 13 21 21 22 14 23
REMARK SMILES IDX 15 24 20 25 22 26 16 27 19 28 17 29 18 30
REMARK H PARENT 18 31
REMARK Flexibility Score: inf
ROOT
ATOM      1  C   UNL     1      25.282  24.930  10.871  1.00  0.00     0.004 C 
ENDROOT
BRANCH   1   2
ATOM      2  C   UNL     1      23.816  25.414  11.010  1.00  0.00     0.004 C 
BRANCH   2   3
ATOM      3  C   UNL     1      23.214  26.182   9.790  1.00  0.00    -0.009 C 
BRANCH   3   4
ATOM      4  C   UNL     1      24.195  26.168   8.573  1.00  0.00     0.000 C 
ATOM      5  C   UNL     1      24.481  27.571   8.028  1.00  0.00     0.004 C 
ENDBRANCH   3   4
BRANCH   3   6
ATOM      6  C   UNL     1      22.829  27.654  10.185  1.00  0.00    -0.014 C 
ATOM      7  C   UNL     1      21.314  27.906  10.082  1.00  0.00     0.007 C 
ATOM      8  C   UNL     1      23.301  28.034  11.602  1.00  0.00     0.007 C 
ENDBRANCH   3   6
ENDBRANCH   2   3
ENDBRANCH   1   2
BRANCH   1   9
ATOM      9  C   UNL     1      26.170  25.072  12.144  1.00  0.00    -0.011 C 
ATOM     10  C   UNL     1      25.371  24.609  13.383  1.00  0.00     0.008 C 
BRANCH   9  11
ATOM     11  C   UNL     1      26.676  26.548  12.354  1.00  0.00    -0.002 C 
ATOM     12  C   UNL     1      26.641  27.409  11.088  1.00  0.00     0.005 C 
ATOM     13  C   UNL     1      28.127  26.773  12.966  1.00  0.00    -0.026 C 
ATOM     14  C   UNL     1      27.554  28.572  11.391  1.00  0.00     0.005 C 
ATOM     15  C   UNL     1      28.737  27.922  12.087  1.00  0.00    -0.001 C 
ATOM     16  C   UNL     1      27.992  27.173  14.470  1.00  0.00     0.007 C 
ATOM     17  C   UNL     1      29.047  25.526  12.849  1.00  0.00     0.012 C 
ATOM     18  C   UNL     1      29.685  28.968  12.759  1.00  0.00     0.000 C 
ATOM     19  C   UNL     1      29.156  27.999  15.023  1.00  0.00     0.005 C 
ATOM     20  C   UNL     1      29.305  29.311  14.220  1.00  0.00     0.003 C 
ATOM     21  C   UNL     1      31.158  28.529  12.653  1.00  0.00     0.031 C 
ATOM     22  C   UNL     1      30.277  30.413  14.831  1.00  0.00    -0.008 C 
ATOM     23  C   UNL     1      32.099  29.446  13.372  1.00  0.00    -0.027 C 
ATOM     24  C   UNL     1      31.743  30.203  14.430  1.00  0.00    -0.065 C 
ATOM     25  C   UNL     1      30.203  30.453  16.389  1.00  0.00     0.014 C 
ATOM     26  C   UNL     1      29.825  31.796  14.279  1.00  0.00     0.016 C 
ATOM     27  C   UNL     1      32.808  31.056  15.099  1.00  0.00     0.063 C 
ATOM     28  C   UNL     1      31.223  31.405  17.041  1.00  0.00     0.033 C 
ATOM     29  C   UNL     1      32.659  31.047  16.628  1.00  0.00     0.118 C 
BRANCH  29  30
ATOM     30  O   UNL     1      33.000  29.787  17.151  1.00  0.00    -0.393 OA
ATOM     31  H   UNL     1      33.582  29.951  17.936  1.00  0.00     0.210 HD
ENDBRANCH  29  30
ENDBRANCH   9  11
ENDBRANCH   1   9
TORSDOF 7
ENDMDL
MODEL 7
REMARK VINA RESULT:    -5.537      3.113      8.079
REMARK INTER + INTRA:          -9.771
REMARK INTER:                  -9.210
REMARK INTRA:                  -0.560
REMARK UNBOUND:                -2.130
REMARK SMILES CC[C@@H](CC[C@H](C)[C@@H]1CC[C@H]2[C@@H]3CC=C4C[C@H](O)CC[C@]4(C)[C@@H]3CC[C@]21C)C(C)C
REMARK SMILES IDX 5 1 4 2 3 3 2 4 1 5 28 6 29 7 30 8 6 9 7 10 8 11 9 12 26 13
REMARK SMILES IDX 10 14 11 15 25 16 27 17 12 18 24 19 23 20 13 21 21 22 14 23
REMARK SMILES IDX 15 24 20 25 22 26 16 27 19 28 17 29 18 30
REMARK H PARENT 18 31
REMARK Flexibility Score: inf
ROOT
ATOM      1  C   UNL     1      24.270  27.621  12.004  1.00  0.00     0.004 C 
ENDROOT
BRANCH   1   2
ATOM      2  C   UNL     1      23.109  28.241  11.185  1.00  0.00     0.004 C 
BRANCH   2   3
ATOM      3  C   UNL     1      23.218  29.764  10.856  1.00  0.00    -0.009 C 
BRANCH   3   4
ATOM      4  C   UNL     1      21.830  30.471  10.984  1.00  0.00     0.000 C 
ATOM      5  C   UNL     1      21.873  31.698  11.902  1.00  0.00     0.004 C 
ENDBRANCH   3   4
BRANCH   3   6
ATOM      6  C   UNL     1      23.836  29.991   9.429  1.00  0.00    -0.014 C 
ATOM      7  C   UNL     1      25.331  30.350   9.493  1.00  0.00     0.007 C 
ATOM      8  C   UNL     1      23.657  28.772   8.502  1.00  0.00     0.007 C 
ENDBRANCH   3   6
ENDBRANCH   2   3
ENDBRANCH   1   2
BRANCH   1   9
ATOM      9  C   UNL     1      25.315  26.797  11.191  1.00  0.00    -0.011 C 
ATOM     10  C   UNL     1      25.374  25.356  11.746  1.00  0.00     0.008 C 
BRANCH   9  11
ATOM     11  C   UNL     1      26.747  27.448  11.234  1.00  0.00    -0.002 C 
ATOM     12  C   UNL     1      27.803  26.694  10.419  1.00  0.00     0.005 C 
ATOM     13  C   UNL     1      27.424  27.700  12.652  1.00  0.00    -0.026 C 
ATOM     14  C   UNL     1      29.125  27.194  10.949  1.00  0.00     0.005 C 
ATOM     15  C   UNL     1      28.911  27.236  12.452  1.00  0.00    -0.001 C 
ATOM     16  C   UNL     1      27.310  29.216  13.011  1.00  0.00     0.007 C 
ATOM     17  C   UNL     1      26.796  26.856  13.795  1.00  0.00     0.012 C 
ATOM     18  C   UNL     1      30.050  28.003  13.198  1.00  0.00     0.000 C 
ATOM     19  C   UNL     1      28.388  29.734  13.965  1.00  0.00     0.005 C 
ATOM     20  C   UNL     1      29.789  29.522  13.348  1.00  0.00     0.003 C 
ATOM     21  C   UNL     1      30.357  27.352  14.561  1.00  0.00     0.031 C 
ATOM     22  C   UNL     1      31.004  30.252  14.073  1.00  0.00    -0.008 C 
ATOM     23  C   UNL     1      31.371  28.110  15.361  1.00  0.00    -0.027 C 
ATOM     24  C   UNL     1      31.582  29.437  15.237  1.00  0.00    -0.065 C 
ATOM     25  C   UNL     1      30.594  31.655  14.621  1.00  0.00     0.014 C 
ATOM     26  C   UNL     1      32.133  30.444  13.019  1.00  0.00     0.016 C 
ATOM     27  C   UNL     1      32.609  30.093  16.144  1.00  0.00     0.063 C 
ATOM     28  C   UNL     1      31.691  32.347  15.451  1.00  0.00     0.033 C 
ATOM     29  C   UNL     1      32.132  31.469  16.632  1.00  0.00     0.118 C 
BRANCH  29  30
ATOM     30  O   UNL     1      31.067  31.330  17.540  1.00  0.00    -0.393 OA
ATOM     31  H   UNL     1      30.231  31.432  17.018  1.00  0.00     0.210 HD
ENDBRANCH  29  30
ENDBRANCH   9  11
ENDBRANCH   1   9
TORSDOF 7
ENDMDL
MODEL 8
REMARK VINA RESULT:    -5.450      3.660      7.091
REMARK INTER + INTRA:          -9.650
REMARK INTER:                  -8.948
REMARK INTRA:                  -0.702
REMARK UNBOUND:                -2.130
REMARK SMILES CC[C@@H](CC[C@H](C)[C@@H]1CC[C@H]2[C@@H]3CC=C4C[C@H](O)CC[C@]4(C)[C@@H]3CC[C@]21C)C(C)C
REMARK SMILES IDX 5 1 4 2 3 3 2 4 1 5 28 6 29 7 30 8 6 9 7 10 8 11 9 12 26 13
REMARK SMILES IDX 10 14 11 15 25 16 27 17 12 18 24 19 23 20 13 21 21 22 14 23
REMARK SMILES IDX 15 24 20 25 22 26 16 27 19 28 17 29 18 30
REMARK H PARENT 18 31
REMARK Flexibility Score: inf
ROOT
ATOM      1  C   UNL     1      29.486  31.193  15.163  1.00  0.00     0.004 C 
ENDROOT
BRANCH   1   2
ATOM      2  C   UNL     1      29.854  31.697  13.745  1.00  0.00     0.004 C 
BRANCH   2   3
ATOM      3  C   UNL     1      29.167  30.974  12.543  1.00  0.00    -0.009 C 
BRANCH   3   4
ATOM      4  C   UNL     1      28.182  29.866  13.039  1.00  0.00     0.000 C 
ATOM      5  C   UNL     1      27.107  29.522  12.002  1.00  0.00     0.004 C 
ENDBRANCH   3   4
BRANCH   3   6
ATOM      6  C   UNL     1      30.236  30.375  11.558  1.00  0.00    -0.014 C 
ATOM      7  C   UNL     1      31.635  30.975  11.786  1.00  0.00     0.007 C 
ATOM      8  C   UNL     1      30.334  28.840  11.646  1.00  0.00     0.007 C 
ENDBRANCH   3   6
ENDBRANCH   2   3
ENDBRANCH   1   2
BRANCH   1   9
ATOM      9  C   UNL     1      30.579  30.357  15.896  1.00  0.00    -0.011 C 
ATOM     10  C   UNL     1      31.843  31.223  16.089  1.00  0.00     0.008 C 
BRANCH   9  11
ATOM     11  C   UNL     1      30.945  29.042  15.112  1.00  0.00    -0.002 C 
ATOM     12  C   UNL     1      30.045  27.846  15.439  1.00  0.00     0.005 C 
ATOM     13  C   UNL     1      32.430  28.482  15.223  1.00  0.00    -0.026 C 
ATOM     14  C   UNL     1      30.820  26.642  14.961  1.00  0.00     0.005 C 
ATOM     15  C   UNL     1      32.241  26.934  15.409  1.00  0.00    -0.001 C 
ATOM     16  C   UNL     1      33.210  28.840  13.917  1.00  0.00     0.007 C 
ATOM     17  C   UNL     1      33.208  29.032  16.449  1.00  0.00     0.012 C 
ATOM     18  C   UNL     1      33.283  25.961  14.768  1.00  0.00     0.000 C 
ATOM     19  C   UNL     1      34.371  27.900  13.583  1.00  0.00     0.005 C 
ATOM     20  C   UNL     1      33.852  26.454  13.415  1.00  0.00     0.003 C 
ATOM     21  C   UNL     1      34.414  25.629  15.761  1.00  0.00     0.031 C 
ATOM     22  C   UNL     1      34.870  25.400  12.793  1.00  0.00    -0.008 C 
ATOM     23  C   UNL     1      35.494  24.781  15.162  1.00  0.00    -0.027 C 
ATOM     24  C   UNL     1      35.788  24.765  13.845  1.00  0.00    -0.065 C 
ATOM     25  C   UNL     1      35.768  26.042  11.691  1.00  0.00     0.014 C 
ATOM     26  C   UNL     1      34.030  24.262  12.145  1.00  0.00     0.016 C 
ATOM     27  C   UNL     1      36.940  23.894  13.373  1.00  0.00     0.063 C 
ATOM     28  C   UNL     1      36.864  25.104  11.152  1.00  0.00     0.033 C 
ATOM     29  C   UNL     1      37.768  24.596  12.285  1.00  0.00     0.118 C 
BRANCH  29  30
ATOM     30  O   UNL     1      38.490  25.672  12.831  1.00  0.00    -0.393 OA
ATOM     31  H   UNL     1      39.446  25.508  12.626  1.00  0.00     0.210 HD
ENDBRANCH  29  30
ENDBRANCH   9  11
ENDBRANCH   1   9
TORSDOF 7
ENDMDL
MODEL 9
REMARK VINA RESULT:    -5.373      2.543      4.326
REMARK INTER + INTRA:          -9.544
REMARK INTER:                  -8.307
REMARK INTRA:                  -1.238
REMARK UNBOUND:                -2.130
REMARK SMILES CC[C@@H](CC[C@H](C)[C@@H]1CC[C@H]2[C@@H]3CC=C4C[C@H](O)CC[C@]4(C)[C@@H]3CC[C@]21C)C(C)C
REMARK SMILES IDX 5 1 4 2 3 3 2 4 1 5 28 6 29 7 30 8 6 9 7 10 8 11 9 12 26 13
REMARK SMILES IDX 10 14 11 15 25 16 27 17 12 18 24 19 23 20 13 21 21 22 14 23
REMARK SMILES IDX 15 24 20 25 22 26 16 27 19 28 17 29 18 30
REMARK H PARENT 18 31
REMARK Flexibility Score: inf
ROOT
ATOM      1  C   UNL     1      32.153  29.085  12.959  1.00  0.00     0.004 C 
ENDROOT
BRANCH   1   2
ATOM      2  C   UNL     1      32.506  30.119  14.058  1.00  0.00     0.004 C 
BRANCH   2   3
ATOM      3  C   UNL     1      31.993  29.811  15.501  1.00  0.00    -0.009 C 
BRANCH   3   4
ATOM      4  C   UNL     1      30.477  29.427  15.492  1.00  0.00     0.000 C 
ATOM      5  C   UNL     1      30.244  27.934  15.744  1.00  0.00     0.004 C 
ENDBRANCH   3   4
BRANCH   3   6
ATOM      6  C   UNL     1      32.260  31.023  16.466  1.00  0.00    -0.014 C 
ATOM      7  C   UNL     1      32.110  32.378  15.752  1.00  0.00     0.007 C 
ATOM      8  C   UNL     1      31.345  31.011  17.706  1.00  0.00     0.007 C 
ENDBRANCH   3   6
ENDBRANCH   2   3
ENDBRANCH   1   2
BRANCH   1   9
ATOM      9  C   UNL     1      31.058  29.520  11.939  1.00  0.00    -0.011 C 
ATOM     10  C   UNL     1      30.674  30.994  12.196  1.00  0.00     0.008 C 
BRANCH   9  11
ATOM     11  C   UNL     1      29.776  28.610  12.020  1.00  0.00    -0.002 C 
ATOM     12  C   UNL     1      30.072  27.108  12.032  1.00  0.00     0.005 C 
ATOM     13  C   UNL     1      28.642  28.798  10.919  1.00  0.00    -0.026 C 
ATOM     14  C   UNL     1      28.763  26.456  11.659  1.00  0.00     0.005 C 
ATOM     15  C   UNL     1      28.239  27.330  10.533  1.00  0.00    -0.001 C 
ATOM     16  C   UNL     1      27.457  29.604  11.539  1.00  0.00     0.007 C 
ATOM     17  C   UNL     1      29.139  29.523   9.638  1.00  0.00     0.012 C 
ATOM     18  C   UNL     1      26.749  27.022  10.180  1.00  0.00     0.000 C 
ATOM     19  C   UNL     1      26.095  29.350  10.886  1.00  0.00     0.005 C 
ATOM     20  C   UNL     1      25.726  27.853  10.993  1.00  0.00     0.003 C 
ATOM     21  C   UNL     1      26.499  27.158   8.665  1.00  0.00     0.031 C 
ATOM     22  C   UNL     1      24.229  27.461  10.621  1.00  0.00    -0.008 C 
ATOM     23  C   UNL     1      25.061  26.973   8.286  1.00  0.00    -0.027 C 
ATOM     24  C   UNL     1      24.030  27.226   9.118  1.00  0.00    -0.065 C 
ATOM     25  C   UNL     1      23.212  28.553  11.079  1.00  0.00     0.014 C 
ATOM     26  C   UNL     1      23.894  26.133  11.359  1.00  0.00     0.016 C 
ATOM     27  C   UNL     1      22.616  27.042   8.593  1.00  0.00     0.063 C 
ATOM     28  C   UNL     1      21.765  28.290  10.623  1.00  0.00     0.033 C 
ATOM     29  C   UNL     1      21.680  28.152   9.095  1.00  0.00     0.118 C 
BRANCH  29  30
ATOM     30  O   UNL     1      22.001  29.381   8.492  1.00  0.00    -0.393 OA
ATOM     31  H   UNL     1      21.585  30.089   9.047  1.00  0.00     0.210 HD
ENDBRANCH  29  30
ENDBRANCH   9  11
ENDBRANCH   1   9
TORSDOF 7
ENDMDL
