MODEL 1
REMARK VINA RESULT:    12.334      0.000      0.000
REMARK INTER + INTRA:          13.244
REMARK INTER:                  13.416
REMARK INTRA:                  -0.172
REMARK UNBOUND:                -0.172
REMARK SMILES CC1(C)CC[C@@]2(C(=O)[O-])CC[C@]3(C)C(=CC[C@@H]4[C@@]5(C)CC[C@H](O)C(C)(C)[C@H]5CC[C@@]43C)[C@H]2C1
REMARK SMILES IDX 6 1 5 2 10 3 32 4 4 5 11 6 14 7 33 8 2 9 12 10 15 11 1 12
REMARK SMILES IDX 3 13 13 14 30 15 16 16 17 17 29 18 31 19 18 20 28 21 27 22
REMARK SMILES IDX 20 23 19 24 24 25 21 26 22 27 25 28 26 29 7 30 8 31 9 32
REMARK SMILES IDX 23 33
REMARK H PARENT 23 34
REMARK Flexibility Score: inf
ROOT
ATOM      1  C   UNL     1      99.329 115.563 123.658  1.00  0.00     0.017 C 
ATOM      2  C   UNL     1      98.232 116.468 124.321  1.00  0.00     0.014 C 
ATOM      3  C   UNL     1      98.718 114.142 123.414  1.00  0.00     0.014 C 
ATOM      4  C   UNL     1      99.858 116.257 122.332  1.00  0.00     0.028 C 
ATOM      5  C   UNL     1      98.530 117.961 124.152  1.00  0.00     0.007 C 
ATOM      6  C   UNL     1      98.578 113.752 121.940  1.00  0.00     0.013 C 
ATOM      7  C   UNL     1     100.400 115.300 121.265  1.00  0.00    -0.064 C 
ATOM      8  C   UNL     1      98.812 117.212 121.705  1.00  0.00     0.015 C 
ATOM      9  C   UNL     1      98.448 118.396 122.656  1.00  0.00    -0.035 C 
ATOM     10  C   UNL     1      99.919 113.863 121.131  1.00  0.00    -0.006 C 
ATOM     11  C   UNL     1     101.290 115.793 120.395  1.00  0.00    -0.027 C 
ATOM     12  C   UNL     1      97.016 118.875 122.330  1.00  0.00     0.011 C 
ATOM     13  C   UNL     1      99.416 119.575 122.419  1.00  0.00     0.011 C 
ATOM     14  C   UNL     1     100.997 112.961 121.804  1.00  0.00     0.017 C 
ATOM     15  C   UNL     1      99.737 113.460 119.577  1.00  0.00    -0.020 C 
ATOM     16  C   UNL     1     101.739 115.100 119.150  1.00  0.00     0.032 C 
ATOM     17  C   UNL     1     101.072 113.730 118.755  1.00  0.00     0.006 C 
ATOM     18  C   UNL     1      98.620 114.321 118.924  1.00  0.00     0.008 C 
ATOM     19  C   UNL     1      99.350 111.941 119.507  1.00  0.00     0.012 C 
ATOM     20  C   UNL     1     100.989 113.592 117.150  1.00  0.00    -0.025 C 
ATOM     21  C   UNL     1      98.484 114.161 117.405  1.00  0.00     0.005 C 
ATOM     22  C   UNL     1      99.780 114.445 116.586  1.00  0.00     0.003 C 
ATOM     23  C   UNL     1     100.826 112.106 116.683  1.00  0.00     0.010 C 
ATOM     24  C   UNL     1     102.374 114.076 116.584  1.00  0.00     0.012 C 
ATOM     25  C   UNL     1      99.521 114.267 115.019  1.00  0.00    -0.006 C 
ATOM     26  C   UNL     1     100.635 111.934 115.165  1.00  0.00     0.033 C 
ATOM     27  C   UNL     1      99.448 112.754 114.635  1.00  0.00     0.120 C 
ATOM     28  C   UNL     1      98.172 114.924 114.602  1.00  0.00     0.014 C 
ATOM     29  C   UNL     1     100.606 115.000 114.178  1.00  0.00     0.014 C 
ENDROOT
BRANCH   1  30
ATOM     30  C   UNL     1     100.472 115.397 124.662  1.00  0.00     0.048 C 
ATOM     31  O   UNL     1     100.542 114.389 125.419  1.00  0.00    -0.550 OA
ATOM     32  O   UNL     1     101.415 116.409 124.816  1.00  0.00    -0.550 OA
ENDBRANCH   1  30
BRANCH  27  33
ATOM     33  O   UNL     1      99.379 112.612 113.236  1.00  0.00    -0.393 OA
ATOM     34  H   UNL     1     100.026 111.905 112.982  1.00  0.00     0.210 HD
ENDBRANCH  27  33
TORSDOF 2
ENDMDL
