MODEL 1
REMARK VINA RESULT:    -3.295      0.000      0.000
REMARK INTER + INTRA:          -6.603
REMARK INTER:                  -5.222
REMARK INTRA:                  -1.381
REMARK UNBOUND:                -1.381
REMARK SMILES CCCCCCCCCCCC(=O)[O-]
REMARK SMILES IDX 7 1 8 2 9 3 10 4 11 5 12 6 13 7 14 8 6 9 5 10 4 11 3 12 2 13
REMARK SMILES IDX 1 14
REMARK H PARENT
REMARK Flexibility Score: inf
ROOT
ATOM      1  C   UNL     1      61.929  32.063  59.074  1.00  0.00     0.000 C 
ENDROOT
BRANCH   1   2
ATOM      2  C   UNL     1      61.253  32.005  60.455  1.00  0.00     0.000 C 
BRANCH   2   3
ATOM      3  C   UNL     1      60.791  30.591  60.838  1.00  0.00     0.000 C 
BRANCH   3   4
ATOM      4  C   UNL     1      61.848  29.880  61.693  1.00  0.00     0.006 C 
BRANCH   4   5
ATOM      5  C   UNL     1      62.399  28.646  60.972  1.00  0.00     0.053 C 
BRANCH   5   6
ATOM      6  C   UNL     1      63.650  28.989  60.228  1.00  0.00     0.041 C 
ATOM      7  O   UNL     1      64.710  29.250  60.855  1.00  0.00    -0.550 OA
ATOM      8  O   UNL     1      63.659  28.972  58.838  1.00  0.00    -0.550 OA
ENDBRANCH   5   6
ENDBRANCH   4   5
ENDBRANCH   3   4
ENDBRANCH   2   3
ENDBRANCH   1   2
BRANCH   1   9
ATOM      9  C   UNL     1      63.268  32.820  59.033  1.00  0.00     0.000 C 
BRANCH   9  10
ATOM     10  C   UNL     1      64.029  32.764  60.369  1.00  0.00    -0.000 C 
BRANCH  10  11
ATOM     11  C   UNL     1      64.199  34.153  61.008  1.00  0.00    -0.000 C 
BRANCH  11  12
ATOM     12  C   UNL     1      63.578  35.274  60.157  1.00  0.00    -0.000 C 
BRANCH  12  13
ATOM     13  C   UNL     1      62.450  36.014  60.892  1.00  0.00    -0.003 C 
ATOM     14  C   UNL     1      61.067  35.704  60.320  1.00  0.00     0.004 C 
ENDBRANCH  12  13
ENDBRANCH  11  12
ENDBRANCH  10  11
ENDBRANCH   9  10
ENDBRANCH   1   9
TORSDOF 10
ENDMDL
MODEL 2
REMARK VINA RESULT:    -3.221     11.640     13.234
REMARK INTER + INTRA:          -6.485
REMARK INTER:                  -5.023
REMARK INTRA:                  -1.463
REMARK UNBOUND:                -1.381
REMARK SMILES CCCCCCCCCCCC(=O)[O-]
REMARK SMILES IDX 7 1 8 2 9 3 10 4 11 5 12 6 13 7 14 8 6 9 5 10 4 11 3 12 2 13
REMARK SMILES IDX 1 14
REMARK H PARENT
REMARK Flexibility Score: inf
ROOT
ATOM      1  C   UNL     1      58.852  29.348  50.841  1.00  0.00     0.000 C 
ENDROOT
BRANCH   1   2
ATOM      2  C   UNL     1      57.418  29.026  51.297  1.00  0.00     0.000 C 
BRANCH   2   3
ATOM      3  C   UNL     1      56.581  28.345  50.205  1.00  0.00     0.000 C 
BRANCH   3   4
ATOM      4  C   UNL     1      56.270  26.889  50.579  1.00  0.00     0.006 C 
BRANCH   4   5
ATOM      5  C   UNL     1      55.859  26.081  49.345  1.00  0.00     0.053 C 
BRANCH   5   6
ATOM      6  C   UNL     1      54.375  25.906  49.304  1.00  0.00     0.041 C 
ATOM      7  O   UNL     1      53.627  26.888  49.054  1.00  0.00    -0.550 OA
ATOM      8  O   UNL     1      53.817  24.647  49.492  1.00  0.00    -0.550 OA
ENDBRANCH   5   6
ENDBRANCH   4   5
ENDBRANCH   3   4
ENDBRANCH   2   3
ENDBRANCH   1   2
BRANCH   1   9
ATOM      9  C   UNL     1      59.054  29.418  49.316  1.00  0.00     0.000 C 
BRANCH   9  10
ATOM     10  C   UNL     1      60.151  28.464  48.813  1.00  0.00    -0.000 C 
BRANCH  10  11
ATOM     11  C   UNL     1      60.579  27.443  49.882  1.00  0.00    -0.000 C 
BRANCH  11  12
ATOM     12  C   UNL     1      60.328  25.990  49.444  1.00  0.00    -0.000 C 
BRANCH  12  13
ATOM     13  C   UNL     1      59.503  25.200  50.471  1.00  0.00    -0.003 C 
ATOM     14  C   UNL     1      59.608  25.773  51.885  1.00  0.00     0.004 C 
ENDBRANCH  12  13
ENDBRANCH  11  12
ENDBRANCH  10  11
ENDBRANCH   9  10
ENDBRANCH   1   9
TORSDOF 10
ENDMDL
MODEL 3
REMARK VINA RESULT:    -3.166     11.278     13.014
REMARK INTER + INTRA:          -6.399
REMARK INTER:                  -5.421
REMARK INTRA:                  -0.977
REMARK UNBOUND:                -1.381
REMARK SMILES CCCCCCCCCCCC(=O)[O-]
REMARK SMILES IDX 7 1 8 2 9 3 10 4 11 5 12 6 13 7 14 8 6 9 5 10 4 11 3 12 2 13
REMARK SMILES IDX 1 14
REMARK H PARENT
REMARK Flexibility Score: inf
ROOT
ATOM      1  C   UNL     1      57.020  27.450  51.085  1.00  0.00     0.000 C 
ENDROOT
BRANCH   1   2
ATOM      2  C   UNL     1      58.316  28.269  50.947  1.00  0.00     0.000 C 
BRANCH   2   3
ATOM      3  C   UNL     1      58.295  29.226  49.746  1.00  0.00     0.000 C 
BRANCH   3   4
ATOM      4  C   UNL     1      59.606  29.141  48.954  1.00  0.00     0.006 C 
BRANCH   4   5
ATOM      5  C   UNL     1      60.339  27.829  49.245  1.00  0.00     0.053 C 
BRANCH   5   6
ATOM      6  C   UNL     1      61.751  28.098  49.659  1.00  0.00     0.041 C 
ATOM      7  O   UNL     1      62.708  27.726  48.930  1.00  0.00    -0.550 OA
ATOM      8  O   UNL     1      62.010  28.805  50.827  1.00  0.00    -0.550 OA
ENDBRANCH   5   6
ENDBRANCH   4   5
ENDBRANCH   3   4
ENDBRANCH   2   3
ENDBRANCH   1   2
BRANCH   1   9
ATOM      9  C   UNL     1      56.888  26.265  50.110  1.00  0.00     0.000 C 
BRANCH   9  10
ATOM     10  C   UNL     1      55.516  26.211  49.416  1.00  0.00    -0.000 C 
BRANCH  10  11
ATOM     11  C   UNL     1      54.403  26.856  50.260  1.00  0.00    -0.000 C 
BRANCH  11  12
ATOM     12  C   UNL     1      53.398  27.646  49.405  1.00  0.00    -0.000 C 
BRANCH  12  13
ATOM     13  C   UNL     1      53.112  29.044  49.975  1.00  0.00    -0.003 C 
ATOM     14  C   UNL     1      54.385  29.841  50.259  1.00  0.00     0.004 C 
ENDBRANCH  12  13
ENDBRANCH  11  12
ENDBRANCH  10  11
ENDBRANCH   9  10
ENDBRANCH   1   9
TORSDOF 10
ENDMDL
MODEL 4
REMARK VINA RESULT:    -3.164      1.647      2.837
REMARK INTER + INTRA:          -6.395
REMARK INTER:                  -5.609
REMARK INTRA:                  -0.786
REMARK UNBOUND:                -1.381
REMARK SMILES CCCCCCCCCCCC(=O)[O-]
REMARK SMILES IDX 7 1 8 2 9 3 10 4 11 5 12 6 13 7 14 8 6 9 5 10 4 11 3 12 2 13
REMARK SMILES IDX 1 14
REMARK H PARENT
REMARK Flexibility Score: inf
ROOT
ATOM      1  C   UNL     1      61.991  34.408  59.783  1.00  0.00     0.000 C 
ENDROOT
BRANCH   1   2
ATOM      2  C   UNL     1      61.706  33.050  60.449  1.00  0.00     0.000 C 
BRANCH   2   3
ATOM      3  C   UNL     1      61.347  31.951  59.439  1.00  0.00     0.000 C 
BRANCH   3   4
ATOM      4  C   UNL     1      60.542  30.831  60.110  1.00  0.00     0.006 C 
BRANCH   4   5
ATOM      5  C   UNL     1      61.079  30.533  61.513  1.00  0.00     0.053 C 
BRANCH   5   6
ATOM      6  C   UNL     1      62.184  29.527  61.449  1.00  0.00     0.041 C 
ATOM      7  O   UNL     1      61.920  28.297  61.411  1.00  0.00    -0.550 OA
ATOM      8  O   UNL     1      63.506  29.950  61.379  1.00  0.00    -0.550 OA
ENDBRANCH   5   6
ENDBRANCH   4   5
ENDBRANCH   3   4
ENDBRANCH   2   3
ENDBRANCH   1   2
BRANCH   1   9
ATOM      9  C   UNL     1      61.920  35.626  60.723  1.00  0.00     0.000 C 
BRANCH   9  10
ATOM     10  C   UNL     1      63.293  36.274  60.968  1.00  0.00    -0.000 C 
BRANCH  10  11
ATOM     11  C   UNL     1      64.400  35.234  61.214  1.00  0.00    -0.000 C 
BRANCH  11  12
ATOM     12  C   UNL     1      65.750  35.656  60.608  1.00  0.00    -0.000 C 
BRANCH  12  13
ATOM     13  C   UNL     1      65.659  35.927  59.099  1.00  0.00    -0.003 C 
ATOM     14  C   UNL     1      65.463  34.653  58.277  1.00  0.00     0.004 C 
ENDBRANCH  12  13
ENDBRANCH  11  12
ENDBRANCH  10  11
ENDBRANCH   9  10
ENDBRANCH   1   9
TORSDOF 10
ENDMDL
MODEL 5
REMARK VINA RESULT:    -3.122      3.247      5.356
REMARK INTER + INTRA:          -6.328
REMARK INTER:                  -5.023
REMARK INTRA:                  -1.305
REMARK UNBOUND:                -1.381
REMARK SMILES CCCCCCCCCCCC(=O)[O-]
REMARK SMILES IDX 7 1 8 2 9 3 10 4 11 5 12 6 13 7 14 8 6 9 5 10 4 11 3 12 2 13
REMARK SMILES IDX 1 14
REMARK H PARENT
REMARK Flexibility Score: inf
ROOT
ATOM      1  C   UNL     1      63.916  31.535  58.617  1.00  0.00     0.000 C 
ENDROOT
BRANCH   1   2
ATOM      2  C   UNL     1      63.957  33.051  58.877  1.00  0.00     0.000 C 
BRANCH   2   3
ATOM      3  C   UNL     1      64.089  33.401  60.366  1.00  0.00     0.000 C 
BRANCH   3   4
ATOM      4  C   UNL     1      63.317  34.685  60.698  1.00  0.00     0.006 C 
BRANCH   4   5
ATOM      5  C   UNL     1      61.830  34.534  60.364  1.00  0.00     0.053 C 
BRANCH   5   6
ATOM      6  C   UNL     1      61.157  35.870  60.357  1.00  0.00     0.041 C 
ATOM      7  O   UNL     1      61.674  36.844  60.965  1.00  0.00    -0.550 OA
ATOM      8  O   UNL     1      59.983  36.053  59.637  1.00  0.00    -0.550 OA
ENDBRANCH   5   6
ENDBRANCH   4   5
ENDBRANCH   3   4
ENDBRANCH   2   3
ENDBRANCH   1   2
BRANCH   1   9
ATOM      9  C   UNL     1      64.920  30.703  59.436  1.00  0.00     0.000 C 
BRANCH   9  10
ATOM     10  C   UNL     1      64.256  29.544  60.199  1.00  0.00    -0.000 C 
BRANCH  10  11
ATOM     11  C   UNL     1      63.426  30.028  61.400  1.00  0.00    -0.000 C 
BRANCH  11  12
ATOM     12  C   UNL     1      61.934  29.678  61.265  1.00  0.00    -0.000 C 
BRANCH  12  13
ATOM     13  C   UNL     1      61.050  30.923  61.101  1.00  0.00    -0.003 C 
ATOM     14  C   UNL     1      60.500  31.078  59.683  1.00  0.00     0.004 C 
ENDBRANCH  12  13
ENDBRANCH  11  12
ENDBRANCH  10  11
ENDBRANCH   9  10
ENDBRANCH   1   9
TORSDOF 10
ENDMDL
MODEL 6
REMARK VINA RESULT:    -3.110     11.113     12.806
REMARK INTER + INTRA:          -6.309
REMARK INTER:                  -5.120
REMARK INTRA:                  -1.190
REMARK UNBOUND:                -1.381
REMARK SMILES CCCCCCCCCCCC(=O)[O-]
REMARK SMILES IDX 7 1 8 2 9 3 10 4 11 5 12 6 13 7 14 8 6 9 5 10 4 11 3 12 2 13
REMARK SMILES IDX 1 14
REMARK H PARENT
REMARK Flexibility Score: inf
ROOT
ATOM      1  C   UNL     1      58.865  29.316  49.393  1.00  0.00     0.000 C 
ENDROOT
BRANCH   1   2
ATOM      2  C   UNL     1      60.241  28.733  49.026  1.00  0.00     0.000 C 
BRANCH   2   3
ATOM      3  C   UNL     1      60.576  27.451  49.804  1.00  0.00     0.000 C 
BRANCH   3   4
ATOM      4  C   UNL     1      59.661  26.296  49.378  1.00  0.00     0.006 C 
BRANCH   4   5
ATOM      5  C   UNL     1      59.504  25.275  50.508  1.00  0.00     0.053 C 
BRANCH   5   6
ATOM      6  C   UNL     1      60.692  24.368  50.565  1.00  0.00     0.041 C 
ATOM      7  O   UNL     1      60.855  23.481  49.687  1.00  0.00    -0.550 OA
ATOM      8  O   UNL     1      61.648  24.536  51.560  1.00  0.00    -0.550 OA
ENDBRANCH   5   6
ENDBRANCH   4   5
ENDBRANCH   3   4
ENDBRANCH   2   3
ENDBRANCH   1   2
BRANCH   1   9
ATOM      9  C   UNL     1      58.582  29.425  50.902  1.00  0.00     0.000 C 
BRANCH   9  10
ATOM     10  C   UNL     1      57.224  28.822  51.302  1.00  0.00    -0.000 C 
BRANCH  10  11
ATOM     11  C   UNL     1      56.509  28.146  50.120  1.00  0.00    -0.000 C 
BRANCH  11  12
ATOM     12  C   UNL     1      56.029  26.723  50.456  1.00  0.00    -0.000 C 
BRANCH  12  13
ATOM     13  C   UNL     1      55.515  25.968  49.221  1.00  0.00    -0.003 C 
ATOM     14  C   UNL     1      54.051  25.546  49.350  1.00  0.00     0.004 C 
ENDBRANCH  12  13
ENDBRANCH  11  12
ENDBRANCH  10  11
ENDBRANCH   9  10
ENDBRANCH   1   9
TORSDOF 10
ENDMDL
MODEL 7
REMARK VINA RESULT:    -3.099      3.115      5.562
REMARK INTER + INTRA:          -6.292
REMARK INTER:                  -5.079
REMARK INTRA:                  -1.213
REMARK UNBOUND:                -1.381
REMARK SMILES CCCCCCCCCCCC(=O)[O-]
REMARK SMILES IDX 7 1 8 2 9 3 10 4 11 5 12 6 13 7 14 8 6 9 5 10 4 11 3 12 2 13
REMARK SMILES IDX 1 14
REMARK H PARENT
REMARK Flexibility Score: inf
ROOT
ATOM      1  C   UNL     1      61.112  31.932  59.522  1.00  0.00     0.000 C 
ENDROOT
BRANCH   1   2
ATOM      2  C   UNL     1      62.052  33.112  59.215  1.00  0.00     0.000 C 
BRANCH   2   3
ATOM      3  C   UNL     1      62.540  33.835  60.479  1.00  0.00     0.000 C 
BRANCH   3   4
ATOM      4  C   UNL     1      64.067  33.753  60.603  1.00  0.00     0.006 C 
BRANCH   4   5
ATOM      5  C   UNL     1      64.615  34.927  61.421  1.00  0.00     0.053 C 
BRANCH   5   6
ATOM      6  C   UNL     1      64.191  36.228  60.818  1.00  0.00     0.041 C 
ATOM      7  O   UNL     1      63.523  37.053  61.496  1.00  0.00    -0.550 OA
ATOM      8  O   UNL     1      64.577  36.554  59.524  1.00  0.00    -0.550 OA
ENDBRANCH   5   6
ENDBRANCH   4   5
ENDBRANCH   3   4
ENDBRANCH   2   3
ENDBRANCH   1   2
BRANCH   1   9
ATOM      9  C   UNL     1      61.124  31.451  60.985  1.00  0.00     0.000 C 
BRANCH   9  10
ATOM     10  C   UNL     1      60.917  29.932  61.117  1.00  0.00    -0.000 C 
BRANCH  10  11
ATOM     11  C   UNL     1      62.236  29.176  61.352  1.00  0.00    -0.000 C 
BRANCH  11  12
ATOM     12  C   UNL     1      63.460  30.109  61.341  1.00  0.00    -0.000 C 
BRANCH  12  13
ATOM     13  C   UNL     1      64.597  29.577  60.455  1.00  0.00    -0.003 C 
ATOM     14  C   UNL     1      64.802  30.408  59.189  1.00  0.00     0.004 C 
ENDBRANCH  12  13
ENDBRANCH  11  12
ENDBRANCH  10  11
ENDBRANCH   9  10
ENDBRANCH   1   9
TORSDOF 10
ENDMDL
MODEL 8
REMARK VINA RESULT:    -3.076     11.382     12.951
REMARK INTER + INTRA:          -6.256
REMARK INTER:                  -4.927
REMARK INTRA:                  -1.329
REMARK UNBOUND:                -1.381
REMARK SMILES CCCCCCCCCCCC(=O)[O-]
REMARK SMILES IDX 7 1 8 2 9 3 10 4 11 5 12 6 13 7 14 8 6 9 5 10 4 11 3 12 2 13
REMARK SMILES IDX 1 14
REMARK H PARENT
REMARK Flexibility Score: inf
ROOT
ATOM      1  C   UNL     1      58.332  25.934  51.382  1.00  0.00     0.000 C 
ENDROOT
BRANCH   1   2
ATOM      2  C   UNL     1      56.808  26.114  51.255  1.00  0.00     0.000 C 
BRANCH   2   3
ATOM      3  C   UNL     1      56.363  26.462  49.827  1.00  0.00     0.000 C 
BRANCH   3   4
ATOM      4  C   UNL     1      55.058  27.270  49.841  1.00  0.00     0.006 C 
BRANCH   4   5
ATOM      5  C   UNL     1      55.326  28.739  50.181  1.00  0.00     0.053 C 
BRANCH   5   6
ATOM      6  C   UNL     1      54.048  29.441  50.514  1.00  0.00     0.041 C 
ATOM      7  O   UNL     1      53.097  29.454  49.688  1.00  0.00    -0.550 OA
ATOM      8  O   UNL     1      53.887  30.040  51.758  1.00  0.00    -0.550 OA
ENDBRANCH   5   6
ENDBRANCH   4   5
ENDBRANCH   3   4
ENDBRANCH   2   3
ENDBRANCH   1   2
BRANCH   1   9
ATOM      9  C   UNL     1      59.066  25.623  50.064  1.00  0.00     0.000 C 
BRANCH   9  10
ATOM     10  C   UNL     1      60.533  26.084  50.073  1.00  0.00    -0.000 C 
BRANCH  10  11
ATOM     11  C   UNL     1      60.670  27.613  50.187  1.00  0.00    -0.000 C 
BRANCH  11  12
ATOM     12  C   UNL     1      60.050  28.350  48.987  1.00  0.00    -0.000 C 
BRANCH  12  13
ATOM     13  C   UNL     1      58.970  29.358  49.410  1.00  0.00    -0.003 C 
ATOM     14  C   UNL     1      58.956  29.617  50.916  1.00  0.00     0.004 C 
ENDBRANCH  12  13
ENDBRANCH  11  12
ENDBRANCH  10  11
ENDBRANCH   9  10
ENDBRANCH   1   9
TORSDOF 10
ENDMDL
MODEL 9
REMARK VINA RESULT:    -3.035      2.774      5.242
REMARK INTER + INTRA:          -6.191
REMARK INTER:                  -4.785
REMARK INTRA:                  -1.405
REMARK UNBOUND:                -1.381
REMARK SMILES CCCCCCCCCCCC(=O)[O-]
REMARK SMILES IDX 7 1 8 2 9 3 10 4 11 5 12 6 13 7 14 8 6 9 5 10 4 11 3 12 2 13
REMARK SMILES IDX 1 14
REMARK H PARENT
REMARK Flexibility Score: inf
ROOT
ATOM      1  C   UNL     1      63.027  32.497  58.746  1.00  0.00     0.000 C 
ENDROOT
BRANCH   1   2
ATOM      2  C   UNL     1      61.910  33.493  59.107  1.00  0.00     0.000 C 
BRANCH   2   3
ATOM      3  C   UNL     1      62.121  34.159  60.475  1.00  0.00     0.000 C 
BRANCH   3   4
ATOM      4  C   UNL     1      62.109  35.688  60.348  1.00  0.00     0.006 C 
BRANCH   4   5
ATOM      5  C   UNL     1      63.306  36.309  61.075  1.00  0.00     0.053 C 
BRANCH   5   6
ATOM      6  C   UNL     1      64.582  35.951  60.383  1.00  0.00     0.041 C 
ATOM      7  O   UNL     1      64.701  36.126  59.142  1.00  0.00    -0.550 OA
ATOM      8  O   UNL     1      65.660  35.471  61.117  1.00  0.00    -0.550 OA
ENDBRANCH   5   6
ENDBRANCH   4   5
ENDBRANCH   3   4
ENDBRANCH   2   3
ENDBRANCH   1   2
BRANCH   1   9
ATOM      9  C   UNL     1      64.198  32.437  59.744  1.00  0.00     0.000 C 
BRANCH   9  10
ATOM     10  C   UNL     1      64.399  31.035  60.346  1.00  0.00    -0.000 C 
BRANCH  10  11
ATOM     11  C   UNL     1      63.156  30.143  60.190  1.00  0.00    -0.000 C 
BRANCH  11  12
ATOM     12  C   UNL     1      62.353  30.017  61.496  1.00  0.00    -0.000 C 
BRANCH  12  13
ATOM     13  C   UNL     1      60.906  30.513  61.347  1.00  0.00    -0.003 C 
ATOM     14  C   UNL     1      60.287  30.141  60.000  1.00  0.00     0.004 C 
ENDBRANCH  12  13
ENDBRANCH  11  12
ENDBRANCH  10  11
ENDBRANCH   9  10
ENDBRANCH   1   9
TORSDOF 10
ENDMDL
