MODEL 1
REMARK VINA RESULT:    -4.991      0.000      0.000
REMARK INTER + INTRA:          -8.387
REMARK INTER:                  -7.908
REMARK INTRA:                  -0.479
REMARK UNBOUND:                -0.479
REMARK SMILES CCCCCCCCCCCC(=O)[O-]
REMARK SMILES IDX 7 1 8 2 9 3 10 4 11 5 12 6 13 7 14 8 6 9 5 10 4 11 3 12 2 13
REMARK SMILES IDX 1 14
REMARK H PARENT
REMARK Flexibility Score: inf
ROOT
ATOM      1  C   UNL     1      27.695  39.004  33.559  1.00  0.00     0.000 C 
ENDROOT
BRANCH   1   2
ATOM      2  C   UNL     1      27.518  37.507  33.267  1.00  0.00     0.000 C 
BRANCH   2   3
ATOM      3  C   UNL     1      27.563  37.188  31.764  1.00  0.00     0.000 C 
BRANCH   3   4
ATOM      4  C   UNL     1      26.544  36.110  31.356  1.00  0.00     0.006 C 
BRANCH   4   5
ATOM      5  C   UNL     1      27.067  35.217  30.224  1.00  0.00     0.053 C 
BRANCH   5   6
ATOM      6  C   UNL     1      26.873  33.763  30.531  1.00  0.00     0.041 C 
ATOM      7  O   UNL     1      27.682  33.160  31.283  1.00  0.00    -0.550 OA
ATOM      8  O   UNL     1      25.779  33.083  30.011  1.00  0.00    -0.550 OA
ENDBRANCH   5   6
ENDBRANCH   4   5
ENDBRANCH   3   4
ENDBRANCH   2   3
ENDBRANCH   1   2
BRANCH   1   9
ATOM      9  C   UNL     1      27.977  39.786  32.270  1.00  0.00     0.000 C 
BRANCH   9  10
ATOM     10  C   UNL     1      27.810  41.296  32.496  1.00  0.00    -0.000 C 
BRANCH  10  11
ATOM     11  C   UNL     1      27.421  41.641  33.944  1.00  0.00    -0.000 C 
BRANCH  11  12
ATOM     12  C   UNL     1      27.746  43.100  34.311  1.00  0.00    -0.000 C 
BRANCH  12  13
ATOM     13  C   UNL     1      26.886  43.619  35.474  1.00  0.00    -0.003 C 
ATOM     14  C   UNL     1      25.531  42.918  35.568  1.00  0.00     0.004 C 
ENDBRANCH  12  13
ENDBRANCH  11  12
ENDBRANCH  10  11
ENDBRANCH   9  10
ENDBRANCH   1   9
TORSDOF 10
ENDMDL
MODEL 2
REMARK VINA RESULT:    -4.935      3.701      8.111
REMARK INTER + INTRA:          -8.298
REMARK INTER:                  -7.836
REMARK INTRA:                  -0.462
REMARK UNBOUND:                -0.479
REMARK SMILES CCCCCCCCCCCC(=O)[O-]
REMARK SMILES IDX 7 1 8 2 9 3 10 4 11 5 12 6 13 7 14 8 6 9 5 10 4 11 3 12 2 13
REMARK SMILES IDX 1 14
REMARK H PARENT
REMARK Flexibility Score: inf
ROOT
ATOM      1  C   UNL     1      28.217  35.890  30.970  1.00  0.00     0.000 C 
ENDROOT
BRANCH   1   2
ATOM      2  C   UNL     1      27.195  36.567  31.895  1.00  0.00     0.000 C 
BRANCH   2   3
ATOM      3  C   UNL     1      27.512  38.050  32.142  1.00  0.00     0.000 C 
BRANCH   3   4
ATOM      4  C   UNL     1      27.294  38.467  33.607  1.00  0.00     0.006 C 
BRANCH   4   5
ATOM      5  C   UNL     1      28.120  39.703  33.987  1.00  0.00     0.053 C 
BRANCH   5   6
ATOM      6  C   UNL     1      27.297  40.954  33.943  1.00  0.00     0.041 C 
ATOM      7  O   UNL     1      26.149  40.976  34.460  1.00  0.00    -0.550 OA
ATOM      8  O   UNL     1      27.811  42.105  33.359  1.00  0.00    -0.550 OA
ENDBRANCH   5   6
ENDBRANCH   4   5
ENDBRANCH   3   4
ENDBRANCH   2   3
ENDBRANCH   1   2
BRANCH   1   9
ATOM      9  C   UNL     1      28.561  34.481  31.468  1.00  0.00     0.000 C 
BRANCH   9  10
ATOM     10  C   UNL     1      27.366  33.531  31.299  1.00  0.00    -0.000 C 
BRANCH  10  11
ATOM     11  C   UNL     1      26.712  33.640  29.911  1.00  0.00    -0.000 C 
BRANCH  11  12
ATOM     12  C   UNL     1      25.187  33.833  29.991  1.00  0.00    -0.000 C 
BRANCH  12  13
ATOM     13  C   UNL     1      24.413  32.677  29.337  1.00  0.00    -0.003 C 
ATOM     14  C   UNL     1      25.244  31.916  28.304  1.00  0.00     0.004 C 
ENDBRANCH  12  13
ENDBRANCH  11  12
ENDBRANCH  10  11
ENDBRANCH   9  10
ENDBRANCH   1   9
TORSDOF 10
ENDMDL
MODEL 3
REMARK VINA RESULT:    -4.875      4.479      7.963
REMARK INTER + INTRA:          -8.204
REMARK INTER:                  -7.569
REMARK INTRA:                  -0.634
REMARK UNBOUND:                -0.479
REMARK SMILES CCCCCCCCCCCC(=O)[O-]
REMARK SMILES IDX 7 1 8 2 9 3 10 4 11 5 12 6 13 7 14 8 6 9 5 10 4 11 3 12 2 13
REMARK SMILES IDX 1 14
REMARK H PARENT
REMARK Flexibility Score: inf
ROOT
ATOM      1  C   UNL     1      27.494  37.905  33.618  1.00  0.00     0.000 C 
ENDROOT
BRANCH   1   2
ATOM      2  C   UNL     1      28.227  39.252  33.700  1.00  0.00     0.000 C 
BRANCH   2   3
ATOM      3  C   UNL     1      27.926  40.163  32.499  1.00  0.00     0.000 C 
BRANCH   3   4
ATOM      4  C   UNL     1      27.662  41.621  32.912  1.00  0.00     0.006 C 
BRANCH   4   5
ATOM      5  C   UNL     1      27.408  41.759  34.419  1.00  0.00     0.053 C 
BRANCH   5   6
ATOM      6  C   UNL     1      27.165  43.185  34.811  1.00  0.00     0.041 C 
ATOM      7  O   UNL     1      27.839  44.110  34.287  1.00  0.00    -0.550 OA
ATOM      8  O   UNL     1      26.171  43.493  35.731  1.00  0.00    -0.550 OA
ENDBRANCH   5   6
ENDBRANCH   4   5
ENDBRANCH   3   4
ENDBRANCH   2   3
ENDBRANCH   1   2
BRANCH   1   9
ATOM      9  C   UNL     1      27.063  37.599  32.179  1.00  0.00     0.000 C 
BRANCH   9  10
ATOM     10  C   UNL     1      27.879  36.436  31.596  1.00  0.00    -0.000 C 
BRANCH  10  11
ATOM     11  C   UNL     1      28.084  35.291  32.602  1.00  0.00    -0.000 C 
BRANCH  11  12
ATOM     12  C   UNL     1      27.749  33.913  32.003  1.00  0.00    -0.000 C 
BRANCH  12  13
ATOM     13  C   UNL     1      27.509  33.973  30.487  1.00  0.00    -0.003 C 
ATOM     14  C   UNL     1      26.140  33.429  30.080  1.00  0.00     0.004 C 
ENDBRANCH  12  13
ENDBRANCH  11  12
ENDBRANCH  10  11
ENDBRANCH   9  10
ENDBRANCH   1   9
TORSDOF 10
ENDMDL
MODEL 4
REMARK VINA RESULT:    -4.839      3.698      7.410
REMARK INTER + INTRA:          -8.147
REMARK INTER:                  -7.380
REMARK INTRA:                  -0.767
REMARK UNBOUND:                -0.479
REMARK SMILES CCCCCCCCCCCC(=O)[O-]
REMARK SMILES IDX 7 1 8 2 9 3 10 4 11 5 12 6 13 7 14 8 6 9 5 10 4 11 3 12 2 13
REMARK SMILES IDX 1 14
REMARK H PARENT
REMARK Flexibility Score: inf
ROOT
ATOM      1  C   UNL     1      27.481  35.639  33.290  1.00  0.00     0.000 C 
ENDROOT
BRANCH   1   2
ATOM      2  C   UNL     1      26.979  36.044  34.684  1.00  0.00     0.000 C 
BRANCH   2   3
ATOM      3  C   UNL     1      27.020  37.563  34.909  1.00  0.00     0.000 C 
BRANCH   3   4
ATOM      4  C   UNL     1      27.435  38.339  33.647  1.00  0.00     0.006 C 
BRANCH   4   5
ATOM      5  C   UNL     1      28.209  39.620  33.984  1.00  0.00     0.053 C 
BRANCH   5   6
ATOM      6  C   UNL     1      27.515  40.840  33.458  1.00  0.00     0.041 C 
ATOM      7  O   UNL     1      27.766  41.262  32.299  1.00  0.00    -0.550 OA
ATOM      8  O   UNL     1      26.568  41.491  34.238  1.00  0.00    -0.550 OA
ENDBRANCH   5   6
ENDBRANCH   4   5
ENDBRANCH   3   4
ENDBRANCH   2   3
ENDBRANCH   1   2
BRANCH   1   9
ATOM      9  C   UNL     1      28.392  34.407  33.371  1.00  0.00     0.000 C 
BRANCH   9  10
ATOM     10  C   UNL     1      28.635  33.812  31.975  1.00  0.00    -0.000 C 
BRANCH  10  11
ATOM     11  C   UNL     1      28.678  34.883  30.872  1.00  0.00    -0.000 C 
BRANCH  11  12
ATOM     12  C   UNL     1      27.908  34.459  29.608  1.00  0.00    -0.000 C 
BRANCH  12  13
ATOM     13  C   UNL     1      26.791  33.448  29.912  1.00  0.00    -0.003 C 
ATOM     14  C   UNL     1      25.440  34.115  30.165  1.00  0.00     0.004 C 
ENDBRANCH  12  13
ENDBRANCH  11  12
ENDBRANCH  10  11
ENDBRANCH   9  10
ENDBRANCH   1   9
TORSDOF 10
ENDMDL
MODEL 5
REMARK VINA RESULT:    -4.781      1.409      2.058
REMARK INTER + INTRA:          -8.054
REMARK INTER:                  -7.712
REMARK INTRA:                  -0.342
REMARK UNBOUND:                -0.479
REMARK SMILES CCCCCCCCCCCC(=O)[O-]
REMARK SMILES IDX 7 1 8 2 9 3 10 4 11 5 12 6 13 7 14 8 6 9 5 10 4 11 3 12 2 13
REMARK SMILES IDX 1 14
REMARK H PARENT
REMARK Flexibility Score: inf
ROOT
ATOM      1  C   UNL     1      28.207  39.697  33.838  1.00  0.00     0.000 C 
ENDROOT
BRANCH   1   2
ATOM      2  C   UNL     1      27.299  38.486  33.576  1.00  0.00     0.000 C 
BRANCH   2   3
ATOM      3  C   UNL     1      27.456  37.925  32.154  1.00  0.00     0.000 C 
BRANCH   3   4
ATOM      4  C   UNL     1      27.098  36.431  32.063  1.00  0.00     0.006 C 
BRANCH   4   5
ATOM      5  C   UNL     1      27.837  35.594  33.115  1.00  0.00     0.053 C 
BRANCH   5   6
ATOM      6  C   UNL     1      28.384  34.328  32.530  1.00  0.00     0.041 C 
ATOM      7  O   UNL     1      29.573  33.984  32.762  1.00  0.00    -0.550 OA
ATOM      8  O   UNL     1      27.570  33.512  31.755  1.00  0.00    -0.550 OA
ENDBRANCH   5   6
ENDBRANCH   4   5
ENDBRANCH   3   4
ENDBRANCH   2   3
ENDBRANCH   1   2
BRANCH   1   9
ATOM      9  C   UNL     1      27.402  41.002  33.815  1.00  0.00     0.000 C 
BRANCH   9  10
ATOM     10  C   UNL     1      27.950  42.003  34.843  1.00  0.00    -0.000 C 
BRANCH  10  11
ATOM     11  C   UNL     1      27.259  43.375  34.764  1.00  0.00    -0.000 C 
BRANCH  11  12
ATOM     12  C   UNL     1      26.330  43.638  35.962  1.00  0.00    -0.000 C 
BRANCH  12  13
ATOM     13  C   UNL     1      24.972  42.932  35.819  1.00  0.00    -0.003 C 
ATOM     14  C   UNL     1      23.806  43.910  35.677  1.00  0.00     0.004 C 
ENDBRANCH  12  13
ENDBRANCH  11  12
ENDBRANCH  10  11
ENDBRANCH   9  10
ENDBRANCH   1   9
TORSDOF 10
ENDMDL
MODEL 6
REMARK VINA RESULT:    -4.638      4.258      8.899
REMARK INTER + INTRA:          -7.829
REMARK INTER:                  -7.277
REMARK INTRA:                  -0.552
REMARK UNBOUND:                -0.479
REMARK SMILES CCCCCCCCCCCC(=O)[O-]
REMARK SMILES IDX 7 1 8 2 9 3 10 4 11 5 12 6 13 7 14 8 6 9 5 10 4 11 3 12 2 13
REMARK SMILES IDX 1 14
REMARK H PARENT
REMARK Flexibility Score: inf
ROOT
ATOM      1  C   UNL     1      25.049  33.402  29.896  1.00  0.00     0.000 C 
ENDROOT
BRANCH   1   2
ATOM      2  C   UNL     1      26.391  33.887  30.462  1.00  0.00     0.000 C 
BRANCH   2   3
ATOM      3  C   UNL     1      26.452  35.414  30.619  1.00  0.00     0.000 C 
BRANCH   3   4
ATOM      4  C   UNL     1      27.741  35.889  31.311  1.00  0.00     0.006 C 
BRANCH   4   5
ATOM      5  C   UNL     1      27.457  36.590  32.646  1.00  0.00     0.053 C 
BRANCH   5   6
ATOM      6  C   UNL     1      27.455  35.622  33.790  1.00  0.00     0.041 C 
ATOM      7  O   UNL     1      27.969  34.480  33.656  1.00  0.00    -0.550 OA
ATOM      8  O   UNL     1      26.915  35.994  35.014  1.00  0.00    -0.550 OA
ENDBRANCH   5   6
ENDBRANCH   4   5
ENDBRANCH   3   4
ENDBRANCH   2   3
ENDBRANCH   1   2
BRANCH   1   9
ATOM      9  C   UNL     1      25.263  32.396  28.758  1.00  0.00     0.000 C 
BRANCH   9  10
ATOM     10  C   UNL     1      23.919  31.867  28.233  1.00  0.00    -0.000 C 
BRANCH  10  11
ATOM     11  C   UNL     1      23.645  30.415  28.660  1.00  0.00    -0.000 C 
BRANCH  11  12
ATOM     12  C   UNL     1      22.302  30.260  29.396  1.00  0.00    -0.000 C 
BRANCH  12  13
ATOM     13  C   UNL     1      21.569  31.600  29.570  1.00  0.00    -0.003 C 
ATOM     14  C   UNL     1      20.741  31.661  30.853  1.00  0.00     0.004 C 
ENDBRANCH  12  13
ENDBRANCH  11  12
ENDBRANCH  10  11
ENDBRANCH   9  10
ENDBRANCH   1   9
TORSDOF 10
ENDMDL
MODEL 7
REMARK VINA RESULT:    -4.610      3.531      8.497
REMARK INTER + INTRA:          -7.783
REMARK INTER:                  -7.222
REMARK INTRA:                  -0.561
REMARK UNBOUND:                -0.479
REMARK SMILES CCCCCCCCCCCC(=O)[O-]
REMARK SMILES IDX 7 1 8 2 9 3 10 4 11 5 12 6 13 7 14 8 6 9 5 10 4 11 3 12 2 13
REMARK SMILES IDX 1 14
REMARK H PARENT
REMARK Flexibility Score: inf
ROOT
ATOM      1  C   UNL     1      28.146  34.350  29.905  1.00  0.00     0.000 C 
ENDROOT
BRANCH   1   2
ATOM      2  C   UNL     1      28.112  35.841  30.271  1.00  0.00     0.000 C 
BRANCH   2   3
ATOM      3  C   UNL     1      27.006  36.177  31.284  1.00  0.00     0.000 C 
BRANCH   3   4
ATOM      4  C   UNL     1      27.554  36.832  32.564  1.00  0.00     0.006 C 
BRANCH   4   5
ATOM      5  C   UNL     1      27.519  38.364  32.490  1.00  0.00     0.053 C 
BRANCH   5   6
ATOM      6  C   UNL     1      27.332  38.979  33.844  1.00  0.00     0.041 C 
ATOM      7  O   UNL     1      26.869  38.294  34.793  1.00  0.00    -0.550 OA
ATOM      8  O   UNL     1      27.701  40.300  34.064  1.00  0.00    -0.550 OA
ENDBRANCH   5   6
ENDBRANCH   4   5
ENDBRANCH   3   4
ENDBRANCH   2   3
ENDBRANCH   1   2
BRANCH   1   9
ATOM      9  C   UNL     1      26.991  33.593  30.573  1.00  0.00     0.000 C 
BRANCH   9  10
ATOM     10  C   UNL     1      26.046  32.993  29.521  1.00  0.00    -0.000 C 
BRANCH  10  11
ATOM     11  C   UNL     1      24.566  33.299  29.808  1.00  0.00    -0.000 C 
BRANCH  11  12
ATOM     12  C   UNL     1      23.615  32.577  28.836  1.00  0.00    -0.000 C 
BRANCH  12  13
ATOM     13  C   UNL     1      24.341  31.539  27.965  1.00  0.00    -0.003 C 
ATOM     14  C   UNL     1      24.117  31.758  26.469  1.00  0.00     0.004 C 
ENDBRANCH  12  13
ENDBRANCH  11  12
ENDBRANCH  10  11
ENDBRANCH   9  10
ENDBRANCH   1   9
TORSDOF 10
ENDMDL
MODEL 8
REMARK VINA RESULT:    -4.548      6.547      9.081
REMARK INTER + INTRA:          -7.686
REMARK INTER:                  -7.096
REMARK INTRA:                  -0.590
REMARK UNBOUND:                -0.479
REMARK SMILES CCCCCCCCCCCC(=O)[O-]
REMARK SMILES IDX 7 1 8 2 9 3 10 4 11 5 12 6 13 7 14 8 6 9 5 10 4 11 3 12 2 13
REMARK SMILES IDX 1 14
REMARK H PARENT
REMARK Flexibility Score: inf
ROOT
ATOM      1  C   UNL     1      21.928  44.636  35.829  1.00  0.00     0.000 C 
ENDROOT
BRANCH   1   2
ATOM      2  C   UNL     1      23.102  43.863  35.212  1.00  0.00     0.000 C 
BRANCH   2   3
ATOM      3  C   UNL     1      24.357  43.885  36.098  1.00  0.00     0.000 C 
BRANCH   3   4
ATOM      4  C   UNL     1      25.537  43.118  35.475  1.00  0.00     0.006 C 
BRANCH   4   5
ATOM      5  C   UNL     1      26.891  43.739  35.843  1.00  0.00     0.053 C 
BRANCH   5   6
ATOM      6  C   UNL     1      28.029  43.005  35.201  1.00  0.00     0.041 C 
ATOM      7  O   UNL     1      29.043  42.693  35.877  1.00  0.00    -0.550 OA
ATOM      8  O   UNL     1      27.952  42.638  33.864  1.00  0.00    -0.550 OA
ENDBRANCH   5   6
ENDBRANCH   4   5
ENDBRANCH   3   4
ENDBRANCH   2   3
ENDBRANCH   1   2
BRANCH   1   9
ATOM      9  C   UNL     1      22.343  46.068  36.192  1.00  0.00     0.000 C 
BRANCH   9  10
ATOM     10  C   UNL     1      21.765  47.077  35.188  1.00  0.00    -0.000 C 
BRANCH  10  11
ATOM     11  C   UNL     1      20.358  46.692  34.701  1.00  0.00    -0.000 C 
BRANCH  11  12
ATOM     12  C   UNL     1      19.849  47.615  33.579  1.00  0.00    -0.000 C 
BRANCH  12  13
ATOM     13  C   UNL     1      19.627  46.864  32.256  1.00  0.00    -0.003 C 
ATOM     14  C   UNL     1      20.213  45.453  32.269  1.00  0.00     0.004 C 
ENDBRANCH  12  13
ENDBRANCH  11  12
ENDBRANCH  10  11
ENDBRANCH   9  10
ENDBRANCH   1   9
TORSDOF 10
ENDMDL
MODEL 9
REMARK VINA RESULT:    -4.545      3.911      8.472
REMARK INTER + INTRA:          -7.682
REMARK INTER:                  -7.146
REMARK INTRA:                  -0.536
REMARK UNBOUND:                -0.479
REMARK SMILES CCCCCCCCCCCC(=O)[O-]
REMARK SMILES IDX 7 1 8 2 9 3 10 4 11 5 12 6 13 7 14 8 6 9 5 10 4 11 3 12 2 13
REMARK SMILES IDX 1 14
REMARK H PARENT
REMARK Flexibility Score: inf
ROOT
ATOM      1  C   UNL     1      27.509  33.478  30.245  1.00  0.00     0.000 C 
ENDROOT
BRANCH   1   2
ATOM      2  C   UNL     1      27.763  33.436  31.759  1.00  0.00     0.000 C 
BRANCH   2   3
ATOM      3  C   UNL     1      28.691  34.565  32.235  1.00  0.00     0.000 C 
BRANCH   3   4
ATOM      4  C   UNL     1      27.937  35.675  32.986  1.00  0.00     0.006 C 
BRANCH   4   5
ATOM      5  C   UNL     1      27.420  36.767  32.040  1.00  0.00     0.053 C 
BRANCH   5   6
ATOM      6  C   UNL     1      27.511  38.127  32.662  1.00  0.00     0.041 C 
ATOM      7  O   UNL     1      27.865  39.118  31.972  1.00  0.00    -0.550 OA
ATOM      8  O   UNL     1      27.172  38.304  33.998  1.00  0.00    -0.550 OA
ENDBRANCH   5   6
ENDBRANCH   4   5
ENDBRANCH   3   4
ENDBRANCH   2   3
ENDBRANCH   1   2
BRANCH   1   9
ATOM      9  C   UNL     1      26.170  34.157  29.931  1.00  0.00     0.000 C 
BRANCH   9  10
ATOM     10  C   UNL     1      25.016  33.145  29.983  1.00  0.00    -0.000 C 
BRANCH  10  11
ATOM     11  C   UNL     1      24.934  32.272  28.719  1.00  0.00    -0.000 C 
BRANCH  11  12
ATOM     12  C   UNL     1      23.586  32.413  27.990  1.00  0.00    -0.000 C 
BRANCH  12  13
ATOM     13  C   UNL     1      22.407  31.893  28.828  1.00  0.00    -0.003 C 
ATOM     14  C   UNL     1      22.571  30.430  29.239  1.00  0.00     0.004 C 
ENDBRANCH  12  13
ENDBRANCH  11  12
ENDBRANCH  10  11
ENDBRANCH   9  10
ENDBRANCH   1   9
TORSDOF 10
ENDMDL
