MODEL 1
REMARK VINA RESULT:    -6.382      0.000      0.000
REMARK INTER + INTRA:          -7.552
REMARK INTER:                  -7.687
REMARK INTRA:                   0.136
REMARK UNBOUND:                 0.136
REMARK SMILES O=c1c(O)c(-c2ccc(O)c(O)c2)oc2cc(O)cc(O)c12
REMARK SMILES IDX 5 1 3 2 2 3 1 4 22 5 20 6 19 7 17 8 16 9 15 10 14 11 6 12
REMARK SMILES IDX 7 13 8 14 9 15 13 16 11 17 10 18 12 20 4 22 21 24 18 26
REMARK H PARENT 10 19 12 21 4 23 21 25 18 27
REMARK Flexibility Score: inf
ROOT
ATOM      1  C   UNL     1      24.085   4.978  -0.499  1.00  0.00     0.180 A 
ATOM      2  C   UNL     1      25.239   4.299  -0.924  1.00  0.00     0.208 A 
ATOM      3  C   UNL     1      25.568   4.302  -2.290  1.00  0.00     0.238 A 
ATOM      4  O   UNL     1      26.573   3.647  -2.672  1.00  0.00    -0.285 OA
ATOM      5  C   UNL     1      24.747   4.998  -3.210  1.00  0.00     0.111 A 
ATOM      6  C   UNL     1      25.006   5.102  -4.609  1.00  0.00     0.134 A 
ATOM      7  C   UNL     1      24.056   5.704  -5.445  1.00  0.00     0.093 A 
ATOM      8  C   UNL     1      22.889   6.264  -4.921  1.00  0.00     0.123 A 
ATOM      9  C   UNL     1      22.655   6.219  -3.549  1.00  0.00     0.094 A 
ATOM     10  C   UNL     1      23.566   5.593  -2.694  1.00  0.00     0.146 A 
ATOM     11  O   UNL     1      23.300   5.564  -1.395  1.00  0.00    -0.452 OA
ENDROOT
BRANCH   1  12
ATOM     12  C   UNL     1      23.687   5.040   0.926  1.00  0.00     0.025 A 
ATOM     13  C   UNL     1      23.253   6.260   1.470  1.00  0.00     0.016 A 
ATOM     14  C   UNL     1      22.894   6.345   2.817  1.00  0.00     0.051 A 
ATOM     15  C   UNL     1      22.975   5.221   3.644  1.00  0.00     0.157 A 
ATOM     16  C   UNL     1      23.787   3.915   1.764  1.00  0.00     0.062 A 
ATOM     17  C   UNL     1      23.427   4.000   3.117  1.00  0.00     0.158 A 
BRANCH  15  18
ATOM     18  O   UNL     1      22.606   5.336   4.983  1.00  0.00    -0.504 OA
ATOM     19  H   UNL     1      23.140   5.890   5.643  1.00  0.00     0.293 HD
ENDBRANCH  15  18
BRANCH  17  20
ATOM     20  O   UNL     1      23.525   2.878   3.940  1.00  0.00    -0.504 OA
ATOM     21  H   UNL     1      23.238   2.906   4.912  1.00  0.00     0.293 HD
ENDBRANCH  17  20
ENDBRANCH   1  12
BRANCH   2  22
ATOM     22  O   UNL     1      26.024   3.600  -0.003  1.00  0.00    -0.502 OA
ATOM     23  H   UNL     1      26.701   2.900  -0.283  1.00  0.00     0.293 HD
ENDBRANCH   2  22
BRANCH   6  24
ATOM     24  O   UNL     1      26.183   4.658  -5.220  1.00  0.00    -0.507 OA
ATOM     25  H   UNL     1      26.948   4.212  -4.738  1.00  0.00     0.293 HD
ENDBRANCH   6  24
BRANCH   8  26
ATOM     26  O   UNL     1      21.957   6.874  -5.758  1.00  0.00    -0.508 OA
ATOM     27  H   UNL     1      22.237   7.549  -6.459  1.00  0.00     0.293 HD
ENDBRANCH   8  26
TORSDOF 6
ENDMDL
MODEL 2
REMARK VINA RESULT:    -6.357      1.529      6.845
REMARK INTER + INTRA:          -7.522
REMARK INTER:                  -7.312
REMARK INTRA:                  -0.210
REMARK UNBOUND:                 0.136
REMARK SMILES O=c1c(O)c(-c2ccc(O)c(O)c2)oc2cc(O)cc(O)c12
REMARK SMILES IDX 5 1 3 2 2 3 1 4 22 5 20 6 19 7 17 8 16 9 15 10 14 11 6 12
REMARK SMILES IDX 7 13 8 14 9 15 13 16 11 17 10 18 12 20 4 22 21 24 18 26
REMARK H PARENT 10 19 12 21 4 23 21 25 18 27
REMARK Flexibility Score: inf
ROOT
ATOM      1  C   UNL     1      24.072   5.265  -3.272  1.00  0.00     0.180 A 
ATOM      2  C   UNL     1      25.223   4.473  -3.124  1.00  0.00     0.208 A 
ATOM      3  C   UNL     1      25.610   4.067  -1.837  1.00  0.00     0.238 A 
ATOM      4  O   UNL     1      26.672   3.403  -1.705  1.00  0.00    -0.285 OA
ATOM      5  C   UNL     1      24.833   4.445  -0.715  1.00  0.00     0.111 A 
ATOM      6  C   UNL     1      25.109   4.057   0.629  1.00  0.00     0.134 A 
ATOM      7  C   UNL     1      24.347   4.598   1.674  1.00  0.00     0.093 A 
ATOM      8  C   UNL     1      23.279   5.460   1.415  1.00  0.00     0.123 A 
ATOM      9  C   UNL     1      22.966   5.798   0.101  1.00  0.00     0.094 A 
ATOM     10  C   UNL     1      23.729   5.304  -0.960  1.00  0.00     0.146 A 
ATOM     11  O   UNL     1      23.402   5.658  -2.196  1.00  0.00    -0.452 OA
ENDROOT
BRANCH   1  12
ATOM     12  C   UNL     1      23.587   5.710  -4.599  1.00  0.00     0.025 A 
ATOM     13  C   UNL     1      24.304   6.690  -5.304  1.00  0.00     0.016 A 
ATOM     14  C   UNL     1      23.853   7.139  -6.547  1.00  0.00     0.051 A 
ATOM     15  C   UNL     1      22.674   6.630  -7.098  1.00  0.00     0.157 A 
ATOM     16  C   UNL     1      22.390   5.213  -5.146  1.00  0.00     0.062 A 
ATOM     17  C   UNL     1      21.935   5.665  -6.394  1.00  0.00     0.158 A 
BRANCH  15  18
ATOM     18  O   UNL     1      22.250   7.096  -8.342  1.00  0.00    -0.504 OA
ATOM     19  H   UNL     1      22.851   7.647  -8.944  1.00  0.00     0.293 HD
ENDBRANCH  15  18
BRANCH  17  20
ATOM     20  O   UNL     1      20.751   5.163  -6.931  1.00  0.00    -0.504 OA
ATOM     21  H   UNL     1      19.845   5.506  -6.632  1.00  0.00     0.293 HD
ENDBRANCH  17  20
ENDBRANCH   1  12
BRANCH   2  22
ATOM     22  O   UNL     1      25.989   4.129  -4.242  1.00  0.00    -0.502 OA
ATOM     23  H   UNL     1      25.605   3.623  -5.031  1.00  0.00     0.293 HD
ENDBRANCH   2  22
BRANCH   6  24
ATOM     24  O   UNL     1      26.093   3.131   0.989  1.00  0.00    -0.507 OA
ATOM     25  H   UNL     1      26.706   2.663   0.339  1.00  0.00     0.293 HD
ENDBRANCH   6  24
BRANCH   8  26
ATOM     26  O   UNL     1      22.518   5.980   2.459  1.00  0.00    -0.508 OA
ATOM     27  H   UNL     1      21.578   5.651   2.645  1.00  0.00     0.293 HD
ENDBRANCH   8  26
TORSDOF 6
ENDMDL
MODEL 3
REMARK VINA RESULT:    -6.328      2.266      7.452
REMARK INTER + INTRA:          -7.487
REMARK INTER:                  -7.221
REMARK INTRA:                  -0.266
REMARK UNBOUND:                 0.136
REMARK SMILES O=c1c(O)c(-c2ccc(O)c(O)c2)oc2cc(O)cc(O)c12
REMARK SMILES IDX 5 1 3 2 2 3 1 4 22 5 20 6 19 7 17 8 16 9 15 10 14 11 6 12
REMARK SMILES IDX 7 13 8 14 9 15 13 16 11 17 10 18 12 20 4 22 21 24 18 26
REMARK H PARENT 10 19 12 21 4 23 21 25 18 27
REMARK Flexibility Score: inf
ROOT
ATOM      1  C   UNL     1      25.035   4.770   0.919  1.00  0.00     0.180 A 
ATOM      2  C   UNL     1      24.257   3.842   1.630  1.00  0.00     0.208 A 
ATOM      3  C   UNL     1      24.105   4.000   3.017  1.00  0.00     0.238 A 
ATOM      4  O   UNL     1      23.451   3.135   3.657  1.00  0.00    -0.285 OA
ATOM      5  C   UNL     1      24.721   5.093   3.673  1.00  0.00     0.111 A 
ATOM      6  C   UNL     1      24.601   5.374   5.066  1.00  0.00     0.134 A 
ATOM      7  C   UNL     1      25.360   6.408   5.630  1.00  0.00     0.093 A 
ATOM      8  C   UNL     1      26.183   7.212   4.838  1.00  0.00     0.123 A 
ATOM      9  C   UNL     1      26.261   6.982   3.467  1.00  0.00     0.094 A 
ATOM     10  C   UNL     1      25.544   5.936   2.880  1.00  0.00     0.146 A 
ATOM     11  O   UNL     1      25.655   5.746   1.572  1.00  0.00    -0.452 OA
ENDROOT
BRANCH   1  12
ATOM     12  C   UNL     1      25.221   4.683  -0.548  1.00  0.00     0.025 A 
ATOM     13  C   UNL     1      26.123   3.746  -1.077  1.00  0.00     0.016 A 
ATOM     14  C   UNL     1      26.329   3.662  -2.455  1.00  0.00     0.051 A 
ATOM     15  C   UNL     1      25.650   4.520  -3.326  1.00  0.00     0.157 A 
ATOM     16  C   UNL     1      24.554   5.559  -1.424  1.00  0.00     0.062 A 
ATOM     17  C   UNL     1      24.761   5.476  -2.809  1.00  0.00     0.158 A 
BRANCH  15  18
ATOM     18  O   UNL     1      25.874   4.410  -4.697  1.00  0.00    -0.504 OA
ATOM     19  H   UNL     1      25.153   4.095  -5.337  1.00  0.00     0.293 HD
ENDBRANCH  15  18
BRANCH  17  20
ATOM     20  O   UNL     1      24.091   6.344  -3.670  1.00  0.00    -0.504 OA
ATOM     21  H   UNL     1      24.150   6.244  -4.677  1.00  0.00     0.293 HD
ENDBRANCH  17  20
ENDBRANCH   1  12
BRANCH   2  22
ATOM     22  O   UNL     1      23.675   2.757   0.967  1.00  0.00    -0.502 OA
ATOM     23  H   UNL     1      22.729   2.448   1.154  1.00  0.00     0.293 HD
ENDBRANCH   2  22
BRANCH   6  24
ATOM     24  O   UNL     1      23.738   4.692   5.929  1.00  0.00    -0.507 OA
ATOM     25  H   UNL     1      22.795   4.979   6.144  1.00  0.00     0.293 HD
ENDBRANCH   6  24
BRANCH   8  26
ATOM     26  O   UNL     1      26.923   8.247   5.405  1.00  0.00    -0.508 OA
ATOM     27  H   UNL     1      27.236   8.210   6.367  1.00  0.00     0.293 HD
ENDBRANCH   8  26
TORSDOF 6
ENDMDL
MODEL 4
REMARK VINA RESULT:    -6.312      9.595     11.811
REMARK INTER + INTRA:          -7.468
REMARK INTER:                  -7.344
REMARK INTRA:                  -0.124
REMARK UNBOUND:                 0.136
REMARK SMILES O=c1c(O)c(-c2ccc(O)c(O)c2)oc2cc(O)cc(O)c12
REMARK SMILES IDX 5 1 3 2 2 3 1 4 22 5 20 6 19 7 17 8 16 9 15 10 14 11 6 12
REMARK SMILES IDX 7 13 8 14 9 15 13 16 11 17 10 18 12 20 4 22 21 24 18 26
REMARK H PARENT 10 19 12 21 4 23 21 25 18 27
REMARK Flexibility Score: inf
ROOT
ATOM      1  C   UNL     1      18.921   5.520   8.168  1.00  0.00     0.180 A 
ATOM      2  C   UNL     1      18.282   6.735   8.468  1.00  0.00     0.208 A 
ATOM      3  C   UNL     1      16.885   6.818   8.345  1.00  0.00     0.238 A 
ATOM      4  O   UNL     1      16.323   7.924   8.563  1.00  0.00    -0.285 OA
ATOM      5  C   UNL     1      16.145   5.682   7.939  1.00  0.00     0.111 A 
ATOM      6  C   UNL     1      14.724   5.641   7.820  1.00  0.00     0.134 A 
ATOM      7  C   UNL     1      14.108   4.502   7.283  1.00  0.00     0.093 A 
ATOM      8  C   UNL     1      14.858   3.380   6.924  1.00  0.00     0.123 A 
ATOM      9  C   UNL     1      16.240   3.389   7.092  1.00  0.00     0.094 A 
ATOM     10  C   UNL     1      16.887   4.523   7.590  1.00  0.00     0.146 A 
ATOM     11  O   UNL     1      18.206   4.493   7.725  1.00  0.00    -0.452 OA
ENDROOT
BRANCH   1  12
ATOM     12  C   UNL     1      20.386   5.348   8.298  1.00  0.00     0.025 A 
ATOM     13  C   UNL     1      21.246   6.105   7.485  1.00  0.00     0.016 A 
ATOM     14  C   UNL     1      22.630   5.943   7.577  1.00  0.00     0.051 A 
ATOM     15  C   UNL     1      23.177   5.015   8.468  1.00  0.00     0.157 A 
ATOM     16  C   UNL     1      20.937   4.401   9.179  1.00  0.00     0.062 A 
ATOM     17  C   UNL     1      22.327   4.237   9.271  1.00  0.00     0.158 A 
BRANCH  15  18
ATOM     18  O   UNL     1      24.562   4.878   8.539  1.00  0.00    -0.504 OA
ATOM     19  H   UNL     1      25.060   4.159   8.026  1.00  0.00     0.293 HD
ENDBRANCH  15  18
BRANCH  17  20
ATOM     20  O   UNL     1      22.865   3.299  10.152  1.00  0.00    -0.504 OA
ATOM     21  H   UNL     1      22.278   2.633  10.642  1.00  0.00     0.293 HD
ENDBRANCH  17  20
ENDBRANCH   1  12
BRANCH   2  22
ATOM     22  O   UNL     1      19.033   7.851   8.846  1.00  0.00    -0.502 OA
ATOM     23  H   UNL     1      19.022   8.221   9.789  1.00  0.00     0.293 HD
ENDBRANCH   2  22
BRANCH   6  24
ATOM     24  O   UNL     1      13.875   6.672   8.235  1.00  0.00    -0.507 OA
ATOM     25  H   UNL     1      14.100   7.349   8.948  1.00  0.00     0.293 HD
ENDBRANCH   6  24
BRANCH   8  26
ATOM     26  O   UNL     1      14.235   2.247   6.406  1.00  0.00    -0.508 OA
ATOM     27  H   UNL     1      13.726   2.276   5.531  1.00  0.00     0.293 HD
ENDBRANCH   8  26
TORSDOF 6
ENDMDL
MODEL 5
REMARK VINA RESULT:    -6.303      3.137      8.674
REMARK INTER + INTRA:          -7.458
REMARK INTER:                  -7.134
REMARK INTRA:                  -0.323
REMARK UNBOUND:                 0.136
REMARK SMILES O=c1c(O)c(-c2ccc(O)c(O)c2)oc2cc(O)cc(O)c12
REMARK SMILES IDX 5 1 3 2 2 3 1 4 22 5 20 6 19 7 17 8 16 9 15 10 14 11 6 12
REMARK SMILES IDX 7 13 8 14 9 15 13 16 11 17 10 18 12 20 4 22 21 24 18 26
REMARK H PARENT 10 19 12 21 4 23 21 25 18 27
REMARK Flexibility Score: inf
ROOT
ATOM      1  C   UNL     1      24.900   5.377   3.188  1.00  0.00     0.180 A 
ATOM      2  C   UNL     1      23.613   5.613   3.700  1.00  0.00     0.208 A 
ATOM      3  C   UNL     1      23.455   5.805   5.083  1.00  0.00     0.238 A 
ATOM      4  O   UNL     1      22.293   5.962   5.543  1.00  0.00    -0.285 OA
ATOM      5  C   UNL     1      24.587   5.775   5.932  1.00  0.00     0.111 A 
ATOM      6  C   UNL     1      24.549   5.997   7.341  1.00  0.00     0.134 A 
ATOM      7  C   UNL     1      25.712   5.814   8.101  1.00  0.00     0.093 A 
ATOM      8  C   UNL     1      26.924   5.481   7.493  1.00  0.00     0.123 A 
ATOM      9  C   UNL     1      26.983   5.320   6.111  1.00  0.00     0.094 A 
ATOM     10  C   UNL     1      25.834   5.460   5.330  1.00  0.00     0.146 A 
ATOM     11  O   UNL     1      25.932   5.288   4.018  1.00  0.00    -0.452 OA
ENDROOT
BRANCH   1  12
ATOM     12  C   UNL     1      25.149   5.190   1.740  1.00  0.00     0.025 A 
ATOM     13  C   UNL     1      25.299   3.892   1.226  1.00  0.00     0.016 A 
ATOM     14  C   UNL     1      25.556   3.694  -0.132  1.00  0.00     0.051 A 
ATOM     15  C   UNL     1      25.681   4.787  -0.996  1.00  0.00     0.157 A 
ATOM     16  C   UNL     1      25.295   6.289   0.874  1.00  0.00     0.062 A 
ATOM     17  C   UNL     1      25.554   6.091  -0.491  1.00  0.00     0.158 A 
BRANCH  15  18
ATOM     18  O   UNL     1      25.934   4.557  -2.347  1.00  0.00    -0.504 OA
ATOM     19  H   UNL     1      25.187   4.434  -3.021  1.00  0.00     0.293 HD
ENDBRANCH  15  18
BRANCH  17  20
ATOM     20  O   UNL     1      25.692   7.186  -1.343  1.00  0.00    -0.504 OA
ATOM     21  H   UNL     1      26.411   7.216  -2.057  1.00  0.00     0.293 HD
ENDBRANCH  17  20
ENDBRANCH   1  12
BRANCH   2  22
ATOM     22  O   UNL     1      22.506   5.617   2.848  1.00  0.00    -0.502 OA
ATOM     23  H   UNL     1      22.527   6.043   1.929  1.00  0.00     0.293 HD
ENDBRANCH   2  22
BRANCH   6  24
ATOM     24  O   UNL     1      23.411   6.422   8.034  1.00  0.00    -0.507 OA
ATOM     25  H   UNL     1      23.411   7.114   8.768  1.00  0.00     0.293 HD
ENDBRANCH   6  24
BRANCH   8  26
ATOM     26  O   UNL     1      28.079   5.316   8.254  1.00  0.00    -0.508 OA
ATOM     27  H   UNL     1      28.188   4.532   8.887  1.00  0.00     0.293 HD
ENDBRANCH   8  26
TORSDOF 6
ENDMDL
MODEL 6
REMARK VINA RESULT:    -6.286      2.988      4.547
REMARK INTER + INTRA:          -7.436
REMARK INTER:                  -7.181
REMARK INTRA:                  -0.256
REMARK UNBOUND:                 0.136
REMARK SMILES O=c1c(O)c(-c2ccc(O)c(O)c2)oc2cc(O)cc(O)c12
REMARK SMILES IDX 5 1 3 2 2 3 1 4 22 5 20 6 19 7 17 8 16 9 15 10 14 11 6 12
REMARK SMILES IDX 7 13 8 14 9 15 13 16 11 17 10 18 12 20 4 22 21 24 18 26
REMARK H PARENT 10 19 12 21 4 23 21 25 18 27
REMARK Flexibility Score: inf
ROOT
ATOM      1  C   UNL     1      24.764   5.202   3.386  1.00  0.00     0.180 A 
ATOM      2  C   UNL     1      24.170   4.021   2.909  1.00  0.00     0.208 A 
ATOM      3  C   UNL     1      24.090   3.811   1.522  1.00  0.00     0.238 A 
ATOM      4  O   UNL     1      23.508   2.777   1.100  1.00  0.00    -0.285 OA
ATOM      5  C   UNL     1      24.617   4.778   0.632  1.00  0.00     0.111 A 
ATOM      6  C   UNL     1      24.625   4.651  -0.789  1.00  0.00     0.134 A 
ATOM      7  C   UNL     1      25.055   5.727  -1.576  1.00  0.00     0.093 A 
ATOM      8  C   UNL     1      25.537   6.900  -0.991  1.00  0.00     0.123 A 
ATOM      9  C   UNL     1      25.587   7.011   0.397  1.00  0.00     0.094 A 
ATOM     10  C   UNL     1      25.132   5.968   1.208  1.00  0.00     0.146 A 
ATOM     11  O   UNL     1      25.189   6.119   2.525  1.00  0.00    -0.452 OA
ENDROOT
BRANCH   1  12
ATOM     12  C   UNL     1      24.908   5.482   4.833  1.00  0.00     0.025 A 
ATOM     13  C   UNL     1      23.788   5.896   5.572  1.00  0.00     0.016 A 
ATOM     14  C   UNL     1      23.906   6.185   6.933  1.00  0.00     0.051 A 
ATOM     15  C   UNL     1      25.144   6.080   7.575  1.00  0.00     0.157 A 
ATOM     16  C   UNL     1      26.156   5.396   5.475  1.00  0.00     0.062 A 
ATOM     17  C   UNL     1      26.277   5.687   6.842  1.00  0.00     0.158 A 
BRANCH  15  18
ATOM     18  O   UNL     1      25.231   6.373   8.934  1.00  0.00    -0.504 OA
ATOM     19  H   UNL     1      25.561   7.269   9.273  1.00  0.00     0.293 HD
ENDBRANCH  15  18
BRANCH  17  20
ATOM     20  O   UNL     1      27.517   5.595   7.471  1.00  0.00    -0.504 OA
ATOM     21  H   UNL     1      27.596   5.464   8.474  1.00  0.00     0.293 HD
ENDBRANCH  17  20
ENDBRANCH   1  12
BRANCH   2  22
ATOM     22  O   UNL     1      23.636   3.090   3.804  1.00  0.00    -0.502 OA
ATOM     23  H   UNL     1      22.956   2.393   3.524  1.00  0.00     0.293 HD
ENDBRANCH   2  22
BRANCH   6  24
ATOM     24  O   UNL     1      24.252   3.489  -1.472  1.00  0.00    -0.507 OA
ATOM     25  H   UNL     1      24.230   2.566  -1.065  1.00  0.00     0.293 HD
ENDBRANCH   6  24
BRANCH   8  26
ATOM     26  O   UNL     1      25.976   7.960  -1.781  1.00  0.00    -0.508 OA
ATOM     27  H   UNL     1      26.038   7.879  -2.789  1.00  0.00     0.293 HD
ENDBRANCH   8  26
TORSDOF 6
ENDMDL
MODEL 7
REMARK VINA RESULT:    -6.255      2.094      7.169
REMARK INTER + INTRA:          -7.399
REMARK INTER:                  -7.076
REMARK INTRA:                  -0.323
REMARK UNBOUND:                 0.136
REMARK SMILES O=c1c(O)c(-c2ccc(O)c(O)c2)oc2cc(O)cc(O)c12
REMARK SMILES IDX 5 1 3 2 2 3 1 4 22 5 20 6 19 7 17 8 16 9 15 10 14 11 6 12
REMARK SMILES IDX 7 13 8 14 9 15 13 16 11 17 10 18 12 20 4 22 21 24 18 26
REMARK H PARENT 10 19 12 21 4 23 21 25 18 27
REMARK Flexibility Score: inf
ROOT
ATOM      1  C   UNL     1      23.750   5.878  -2.749  1.00  0.00     0.180 A 
ATOM      2  C   UNL     1      23.076   6.546  -1.712  1.00  0.00     0.208 A 
ATOM      3  C   UNL     1      23.440   6.281  -0.381  1.00  0.00     0.238 A 
ATOM      4  O   UNL     1      22.797   6.842   0.545  1.00  0.00    -0.285 OA
ATOM      5  C   UNL     1      24.483   5.364  -0.105  1.00  0.00     0.111 A 
ATOM      6  C   UNL     1      24.962   5.051   1.202  1.00  0.00     0.134 A 
ATOM      7  C   UNL     1      25.909   4.031   1.364  1.00  0.00     0.093 A 
ATOM      8  C   UNL     1      26.442   3.361   0.261  1.00  0.00     0.123 A 
ATOM      9  C   UNL     1      26.024   3.701  -1.023  1.00  0.00     0.094 A 
ATOM     10  C   UNL     1      25.054   4.688  -1.216  1.00  0.00     0.146 A 
ATOM     11  O   UNL     1      24.677   4.975  -2.455  1.00  0.00    -0.452 OA
ENDROOT
BRANCH   1  12
ATOM     12  C   UNL     1      23.439   6.123  -4.176  1.00  0.00     0.025 A 
ATOM     13  C   UNL     1      24.117   7.142  -4.866  1.00  0.00     0.016 A 
ATOM     14  C   UNL     1      23.825   7.403  -6.206  1.00  0.00     0.051 A 
ATOM     15  C   UNL     1      22.844   6.664  -6.874  1.00  0.00     0.157 A 
ATOM     16  C   UNL     1      22.439   5.394  -4.844  1.00  0.00     0.062 A 
ATOM     17  C   UNL     1      22.144   5.657  -6.190  1.00  0.00     0.158 A 
BRANCH  15  18
ATOM     18  O   UNL     1      22.576   6.946  -8.212  1.00  0.00    -0.504 OA
ATOM     19  H   UNL     1      21.789   6.537  -8.702  1.00  0.00     0.293 HD
ENDBRANCH  15  18
BRANCH  17  20
ATOM     20  O   UNL     1      21.154   4.926  -6.845  1.00  0.00    -0.504 OA
ATOM     21  H   UNL     1      20.618   5.323  -7.609  1.00  0.00     0.293 HD
ENDBRANCH  17  20
ENDBRANCH   1  12
BRANCH   2  22
ATOM     22  O   UNL     1      22.034   7.431  -2.004  1.00  0.00    -0.502 OA
ATOM     23  H   UNL     1      21.249   7.573  -1.381  1.00  0.00     0.293 HD
ENDBRANCH   2  22
BRANCH   6  24
ATOM     24  O   UNL     1      24.563   5.723   2.361  1.00  0.00    -0.507 OA
ATOM     25  H   UNL     1      24.911   5.527   3.287  1.00  0.00     0.293 HD
ENDBRANCH   6  24
BRANCH   8  26
ATOM     26  O   UNL     1      27.395   2.360   0.431  1.00  0.00    -0.508 OA
ATOM     27  H   UNL     1      27.462   1.833   1.293  1.00  0.00     0.293 HD
ENDBRANCH   8  26
TORSDOF 6
ENDMDL
MODEL 8
REMARK VINA RESULT:    -6.086      1.937      2.838
REMARK INTER + INTRA:          -7.195
REMARK INTER:                  -6.867
REMARK INTRA:                  -0.329
REMARK UNBOUND:                 0.136
REMARK SMILES O=c1c(O)c(-c2ccc(O)c(O)c2)oc2cc(O)cc(O)c12
REMARK SMILES IDX 5 1 3 2 2 3 1 4 22 5 20 6 19 7 17 8 16 9 15 10 14 11 6 12
REMARK SMILES IDX 7 13 8 14 9 15 13 16 11 17 10 18 12 20 4 22 21 24 18 26
REMARK H PARENT 10 19 12 21 4 23 21 25 18 27
REMARK Flexibility Score: inf
ROOT
ATOM      1  C   UNL     1      24.068   5.687  -2.012  1.00  0.00     0.180 A 
ATOM      2  C   UNL     1      24.993   6.676  -2.388  1.00  0.00     0.208 A 
ATOM      3  C   UNL     1      24.917   7.226  -3.678  1.00  0.00     0.238 A 
ATOM      4  O   UNL     1      25.782   8.072  -4.027  1.00  0.00    -0.285 OA
ATOM      5  C   UNL     1      23.907   6.791  -4.570  1.00  0.00     0.111 A 
ATOM      6  C   UNL     1      23.712   7.307  -5.886  1.00  0.00     0.134 A 
ATOM      7  C   UNL     1      22.764   6.711  -6.728  1.00  0.00     0.093 A 
ATOM      8  C   UNL     1      21.960   5.661  -6.278  1.00  0.00     0.123 A 
ATOM      9  C   UNL     1      22.104   5.189  -4.976  1.00  0.00     0.094 A 
ATOM     10  C   UNL     1      23.065   5.739  -4.124  1.00  0.00     0.146 A 
ATOM     11  O   UNL     1      23.175   5.253  -2.894  1.00  0.00    -0.452 OA
ENDROOT
BRANCH   1  12
ATOM     12  C   UNL     1      24.069   5.079  -0.662  1.00  0.00     0.025 A 
ATOM     13  C   UNL     1      24.822   3.916  -0.428  1.00  0.00     0.016 A 
ATOM     14  C   UNL     1      24.820   3.315   0.832  1.00  0.00     0.051 A 
ATOM     15  C   UNL     1      24.058   3.854   1.873  1.00  0.00     0.157 A 
ATOM     16  C   UNL     1      23.288   5.608   0.381  1.00  0.00     0.062 A 
ATOM     17  C   UNL     1      23.285   5.004   1.647  1.00  0.00     0.158 A 
BRANCH  15  18
ATOM     18  O   UNL     1      24.079   3.233   3.121  1.00  0.00    -0.504 OA
ATOM     19  H   UNL     1      23.229   2.996   3.619  1.00  0.00     0.293 HD
ENDBRANCH  15  18
BRANCH  17  20
ATOM     20  O   UNL     1      22.511   5.539   2.676  1.00  0.00    -0.504 OA
ATOM     21  H   UNL     1      22.885   6.229   3.318  1.00  0.00     0.293 HD
ENDBRANCH  17  20
ENDBRANCH   1  12
BRANCH   2  22
ATOM     22  O   UNL     1      25.996   7.075  -1.499  1.00  0.00    -0.502 OA
ATOM     23  H   UNL     1      25.906   6.974  -0.495  1.00  0.00     0.293 HD
ENDBRANCH   2  22
BRANCH   6  24
ATOM     24  O   UNL     1      24.397   8.412  -6.401  1.00  0.00    -0.507 OA
ATOM     25  H   UNL     1      25.359   8.401  -6.704  1.00  0.00     0.293 HD
ENDBRANCH   6  24
BRANCH   8  26
ATOM     26  O   UNL     1      21.010   5.084  -7.117  1.00  0.00    -0.508 OA
ATOM     27  H   UNL     1      20.794   5.481  -8.024  1.00  0.00     0.293 HD
ENDBRANCH   8  26
TORSDOF 6
ENDMDL
MODEL 9
REMARK VINA RESULT:    -5.977      2.009      2.360
REMARK INTER + INTRA:          -7.064
REMARK INTER:                  -6.729
REMARK INTRA:                  -0.335
REMARK UNBOUND:                 0.136
REMARK SMILES O=c1c(O)c(-c2ccc(O)c(O)c2)oc2cc(O)cc(O)c12
REMARK SMILES IDX 5 1 3 2 2 3 1 4 22 5 20 6 19 7 17 8 16 9 15 10 14 11 6 12
REMARK SMILES IDX 7 13 8 14 9 15 13 16 11 17 10 18 12 20 4 22 21 24 18 26
REMARK H PARENT 10 19 12 21 4 23 21 25 18 27
REMARK Flexibility Score: inf
ROOT
ATOM      1  C   UNL     1      25.066   5.026   0.782  1.00  0.00     0.180 A 
ATOM      2  C   UNL     1      25.873   4.173   0.011  1.00  0.00     0.208 A 
ATOM      3  C   UNL     1      25.740   4.188  -1.387  1.00  0.00     0.238 A 
ATOM      4  O   UNL     1      26.427   3.383  -2.069  1.00  0.00    -0.285 OA
ATOM      5  C   UNL     1      24.813   5.067  -1.997  1.00  0.00     0.111 A 
ATOM      6  C   UNL     1      24.623   5.196  -3.405  1.00  0.00     0.134 A 
ATOM      7  C   UNL     1      23.586   6.003  -3.892  1.00  0.00     0.093 A 
ATOM      8  C   UNL     1      22.776   6.736  -3.022  1.00  0.00     0.123 A 
ATOM      9  C   UNL     1      22.991   6.662  -1.648  1.00  0.00     0.094 A 
ATOM     10  C   UNL     1      23.994   5.839  -1.130  1.00  0.00     0.146 A 
ATOM     11  O   UNL     1      24.159   5.790   0.185  1.00  0.00    -0.452 OA
ENDROOT
BRANCH   1  12
ATOM     12  C   UNL     1      25.167   5.084   2.259  1.00  0.00     0.025 A 
ATOM     13  C   UNL     1      24.320   4.283   3.042  1.00  0.00     0.016 A 
ATOM     14  C   UNL     1      24.384   4.338   4.435  1.00  0.00     0.051 A 
ATOM     15  C   UNL     1      25.281   5.202   5.070  1.00  0.00     0.157 A 
ATOM     16  C   UNL     1      26.055   5.968   2.898  1.00  0.00     0.062 A 
ATOM     17  C   UNL     1      26.119   6.025   4.298  1.00  0.00     0.158 A 
BRANCH  15  18
ATOM     18  O   UNL     1      25.324   5.233   6.462  1.00  0.00    -0.504 OA
ATOM     19  H   UNL     1      25.547   6.078   6.976  1.00  0.00     0.293 HD
ENDBRANCH  15  18
BRANCH  17  20
ATOM     20  O   UNL     1      27.006   6.900   4.924  1.00  0.00    -0.504 OA
ATOM     21  H   UNL     1      26.922   7.905   4.821  1.00  0.00     0.293 HD
ENDBRANCH  17  20
ENDBRANCH   1  12
BRANCH   2  22
ATOM     22  O   UNL     1      26.767   3.296   0.634  1.00  0.00    -0.502 OA
ATOM     23  H   UNL     1      27.700   3.126   0.279  1.00  0.00     0.293 HD
ENDBRANCH   2  22
BRANCH   6  24
ATOM     24  O   UNL     1      25.436   4.579  -4.361  1.00  0.00    -0.507 OA
ATOM     25  H   UNL     1      25.734   5.008  -5.224  1.00  0.00     0.293 HD
ENDBRANCH   6  24
BRANCH   8  26
ATOM     26  O   UNL     1      21.757   7.547  -3.515  1.00  0.00    -0.508 OA
ATOM     27  H   UNL     1      21.323   8.260  -2.941  1.00  0.00     0.293 HD
ENDBRANCH   8  26
TORSDOF 6
ENDMDL
