MODEL 1
REMARK VINA RESULT:    -3.406      0.000      0.000
REMARK INTER + INTRA:          -9.530
REMARK INTER:                  -6.393
REMARK INTRA:                  -3.137
REMARK UNBOUND:                -3.137
REMARK SMILES CCCCCCCCC=CCCCCCCCC(=O)[O-]
REMARK SMILES IDX 10 1 9 2 11 3 12 4 13 5 14 6 15 7 16 8 17 9 18 10 19 11
REMARK SMILES IDX 20 12 8 13 7 14 6 15 5 16 4 17 3 18 2 19 1 20
REMARK H PARENT
REMARK Flexibility Score: inf
ROOT
ATOM      1  C   UNL     1      51.462 -13.732 -41.820  1.00  0.00    -0.031 C 
ATOM      2  C   UNL     1      52.132 -12.565 -41.750  1.00  0.00    -0.031 C 
ENDROOT
BRANCH   1   3
ATOM      3  C   UNL     1      49.976 -13.868 -42.054  1.00  0.00     0.027 C 
BRANCH   3   4
ATOM      4  C   UNL     1      49.229 -14.157 -40.745  1.00  0.00     0.004 C 
BRANCH   4   5
ATOM      5  C   UNL     1      50.064 -15.008 -39.778  1.00  0.00     0.000 C 
BRANCH   5   6
ATOM      6  C   UNL     1      49.233 -15.428 -38.557  1.00  0.00     0.000 C 
BRANCH   6   7
ATOM      7  C   UNL     1      50.063 -15.483 -37.265  1.00  0.00     0.000 C 
BRANCH   7   8
ATOM      8  C   UNL     1      50.750 -16.844 -37.059  1.00  0.00     0.006 C 
BRANCH   8   9
ATOM      9  C   UNL     1      49.864 -18.013 -37.506  1.00  0.00     0.053 C 
BRANCH   9  10
ATOM     10  C   UNL     1      50.498 -18.800 -38.612  1.00  0.00     0.041 C 
ATOM     11  O   UNL     1      51.506 -18.349 -39.215  1.00  0.00    -0.550 OA
ATOM     12  O   UNL     1      49.960 -20.023 -38.992  1.00  0.00    -0.550 OA
ENDBRANCH   9  10
ENDBRANCH   8   9
ENDBRANCH   7   8
ENDBRANCH   6   7
ENDBRANCH   5   6
ENDBRANCH   4   5
ENDBRANCH   3   4
ENDBRANCH   1   3
BRANCH   2  13
ATOM     13  C   UNL     1      51.496 -11.202 -41.836  1.00  0.00     0.027 C 
BRANCH  13  14
ATOM     14  C   UNL     1      51.488 -10.511 -40.466  1.00  0.00     0.004 C 
BRANCH  14  15
ATOM     15  C   UNL     1      50.243 -10.899 -39.661  1.00  0.00     0.000 C 
BRANCH  15  16
ATOM     16  C   UNL     1      50.633 -11.584 -38.342  1.00  0.00     0.000 C 
BRANCH  16  17
ATOM     17  C   UNL     1      52.154 -11.704 -38.163  1.00  0.00    -0.000 C 
BRANCH  17  18
ATOM     18  C   UNL     1      52.596 -13.128 -37.790  1.00  0.00    -0.000 C 
BRANCH  18  19
ATOM     19  C   UNL     1      53.711 -13.615 -38.722  1.00  0.00    -0.003 C 
ATOM     20  C   UNL     1      53.652 -15.129 -38.908  1.00  0.00     0.004 C 
ENDBRANCH  18  19
ENDBRANCH  17  18
ENDBRANCH  16  17
ENDBRANCH  15  16
ENDBRANCH  14  15
ENDBRANCH  13  14
ENDBRANCH   2  13
TORSDOF 15
ENDMDL
MODEL 2
REMARK VINA RESULT:    -3.405      3.324      5.546
REMARK INTER + INTRA:          -9.528
REMARK INTER:                  -6.394
REMARK INTRA:                  -3.134
REMARK UNBOUND:                -3.137
REMARK SMILES CCCCCCCCC=CCCCCCCCC(=O)[O-]
REMARK SMILES IDX 10 1 9 2 11 3 12 4 13 5 14 6 15 7 16 8 17 9 18 10 19 11
REMARK SMILES IDX 20 12 8 13 7 14 6 15 5 16 4 17 3 18 2 19 1 20
REMARK H PARENT
REMARK Flexibility Score: inf
ROOT
ATOM      1  C   UNL     1      49.856 -14.378 -38.469  1.00  0.00    -0.031 C 
ATOM      2  C   UNL     1      49.416 -14.554 -39.730  1.00  0.00    -0.031 C 
ENDROOT
BRANCH   1   3
ATOM      3  C   UNL     1      51.304 -14.213 -38.070  1.00  0.00     0.027 C 
BRANCH   3   4
ATOM      4  C   UNL     1      51.902 -15.537 -37.576  1.00  0.00     0.004 C 
BRANCH   4   5
ATOM      5  C   UNL     1      53.124 -15.963 -38.403  1.00  0.00     0.000 C 
BRANCH   5   6
ATOM      6  C   UNL     1      53.602 -14.819 -39.307  1.00  0.00     0.000 C 
BRANCH   6   7
ATOM      7  C   UNL     1      55.087 -14.480 -39.099  1.00  0.00     0.000 C 
BRANCH   7   8
ATOM      8  C   UNL     1      55.329 -12.973 -38.901  1.00  0.00     0.006 C 
BRANCH   8   9
ATOM      9  C   UNL     1      54.418 -12.378 -37.820  1.00  0.00     0.053 C 
BRANCH   9  10
ATOM     10  C   UNL     1      55.206 -11.744 -36.715  1.00  0.00     0.041 C 
ATOM     11  O   UNL     1      56.181 -12.353 -36.201  1.00  0.00    -0.550 OA
ATOM     12  O   UNL     1      54.849 -10.490 -36.237  1.00  0.00    -0.550 OA
ENDBRANCH   9  10
ENDBRANCH   8   9
ENDBRANCH   7   8
ENDBRANCH   6   7
ENDBRANCH   5   6
ENDBRANCH   4   5
ENDBRANCH   3   4
ENDBRANCH   1   3
BRANCH   2  13
ATOM     13  C   UNL     1      50.303 -14.673 -40.942  1.00  0.00     0.027 C 
BRANCH  13  14
ATOM     14  C   UNL     1      50.459 -13.318 -41.645  1.00  0.00     0.004 C 
BRANCH  14  15
ATOM     15  C   UNL     1      51.938 -12.966 -41.838  1.00  0.00     0.000 C 
BRANCH  15  16
ATOM     16  C   UNL     1      52.363 -11.838 -40.886  1.00  0.00     0.000 C 
BRANCH  16  17
ATOM     17  C   UNL     1      51.279 -10.761 -40.720  1.00  0.00    -0.000 C 
BRANCH  17  18
ATOM     18  C   UNL     1      51.265 -10.146 -39.313  1.00  0.00    -0.000 C 
BRANCH  18  19
ATOM     19  C   UNL     1      50.122 -10.726 -38.473  1.00  0.00    -0.003 C 
ATOM     20  C   UNL     1      48.842 -10.849 -39.295  1.00  0.00     0.004 C 
ENDBRANCH  18  19
ENDBRANCH  17  18
ENDBRANCH  16  17
ENDBRANCH  15  16
ENDBRANCH  14  15
ENDBRANCH  13  14
ENDBRANCH   2  13
TORSDOF 15
ENDMDL
MODEL 3
REMARK VINA RESULT:    -3.385     13.642     15.704
REMARK INTER + INTRA:          -9.490
REMARK INTER:                  -6.486
REMARK INTRA:                  -3.004
REMARK UNBOUND:                -3.137
REMARK SMILES CCCCCCCCC=CCCCCCCCC(=O)[O-]
REMARK SMILES IDX 10 1 9 2 11 3 12 4 13 5 14 6 15 7 16 8 17 9 18 10 19 11
REMARK SMILES IDX 20 12 8 13 7 14 6 15 5 16 4 17 3 18 2 19 1 20
REMARK H PARENT
REMARK Flexibility Score: inf
ROOT
ATOM      1  C   UNL     1      49.997 -13.884 -24.173  1.00  0.00    -0.031 C 
ATOM      2  C   UNL     1      49.130 -13.479 -23.225  1.00  0.00    -0.031 C 
ENDROOT
BRANCH   1   3
ATOM      3  C   UNL     1      50.657 -15.242 -24.224  1.00  0.00     0.027 C 
BRANCH   3   4
ATOM      4  C   UNL     1      50.856 -15.713 -25.670  1.00  0.00     0.004 C 
BRANCH   4   5
ATOM      5  C   UNL     1      50.701 -17.235 -25.810  1.00  0.00     0.000 C 
BRANCH   5   6
ATOM      6  C   UNL     1      52.017 -17.954 -25.483  1.00  0.00     0.000 C 
BRANCH   6   7
ATOM      7  C   UNL     1      53.246 -17.227 -26.051  1.00  0.00     0.000 C 
BRANCH   7   8
ATOM      8  C   UNL     1      54.370 -17.063 -25.013  1.00  0.00     0.006 C 
BRANCH   8   9
ATOM      9  C   UNL     1      54.364 -15.670 -24.370  1.00  0.00     0.053 C 
BRANCH   9  10
ATOM     10  C   UNL     1      54.664 -14.594 -25.368  1.00  0.00     0.041 C 
ATOM     11  O   UNL     1      53.777 -13.759 -25.686  1.00  0.00    -0.550 OA
ATOM     12  O   UNL     1      55.916 -14.528 -25.965  1.00  0.00    -0.550 OA
ENDBRANCH   9  10
ENDBRANCH   8   9
ENDBRANCH   7   8
ENDBRANCH   6   7
ENDBRANCH   5   6
ENDBRANCH   4   5
ENDBRANCH   3   4
ENDBRANCH   1   3
BRANCH   2  13
ATOM     13  C   UNL     1      48.722 -14.296 -22.027  1.00  0.00     0.027 C 
BRANCH  13  14
ATOM     14  C   UNL     1      47.322 -14.894 -22.219  1.00  0.00     0.004 C 
BRANCH  14  15
ATOM     15  C   UNL     1      47.384 -16.423 -22.298  1.00  0.00     0.000 C 
BRANCH  15  16
ATOM     16  C   UNL     1      47.527 -16.893 -23.754  1.00  0.00     0.000 C 
BRANCH  16  17
ATOM     17  C   UNL     1      46.640 -16.097 -24.725  1.00  0.00    -0.000 C 
BRANCH  17  18
ATOM     18  C   UNL     1      47.129 -16.181 -26.178  1.00  0.00    -0.000 C 
BRANCH  18  19
ATOM     19  C   UNL     1      47.426 -14.785 -26.737  1.00  0.00    -0.003 C 
ATOM     20  C   UNL     1      46.661 -13.710 -25.971  1.00  0.00     0.004 C 
ENDBRANCH  18  19
ENDBRANCH  17  18
ENDBRANCH  16  17
ENDBRANCH  15  16
ENDBRANCH  14  15
ENDBRANCH  13  14
ENDBRANCH   2  13
TORSDOF 15
ENDMDL
MODEL 4
REMARK VINA RESULT:    -3.380     12.194     14.892
REMARK INTER + INTRA:          -9.481
REMARK INTER:                  -6.299
REMARK INTRA:                  -3.182
REMARK UNBOUND:                -3.137
REMARK SMILES CCCCCCCCC=CCCCCCCCC(=O)[O-]
REMARK SMILES IDX 10 1 9 2 11 3 12 4 13 5 14 6 15 7 16 8 17 9 18 10 19 11
REMARK SMILES IDX 20 12 8 13 7 14 6 15 5 16 4 17 3 18 2 19 1 20
REMARK H PARENT
REMARK Flexibility Score: inf
ROOT
ATOM      1  C   UNL     1      50.013 -18.676 -24.749  1.00  0.00    -0.031 C 
ATOM      2  C   UNL     1      48.854 -19.095 -25.294  1.00  0.00    -0.031 C 
ENDROOT
BRANCH   1   3
ATOM      3  C   UNL     1      50.866 -17.548 -25.281  1.00  0.00     0.027 C 
BRANCH   3   4
ATOM      4  C   UNL     1      51.812 -18.037 -26.386  1.00  0.00     0.004 C 
BRANCH   4   5
ATOM      5  C   UNL     1      51.568 -17.314 -27.719  1.00  0.00     0.000 C 
BRANCH   5   6
ATOM      6  C   UNL     1      52.709 -16.334 -28.029  1.00  0.00     0.000 C 
BRANCH   6   7
ATOM      7  C   UNL     1      52.234 -14.874 -28.096  1.00  0.00     0.000 C 
BRANCH   7   8
ATOM      8  C   UNL     1      52.072 -14.238 -26.704  1.00  0.00     0.006 C 
BRANCH   8   9
ATOM      9  C   UNL     1      53.411 -14.107 -25.968  1.00  0.00     0.053 C 
BRANCH   9  10
ATOM     10  C   UNL     1      53.439 -14.923 -24.713  1.00  0.00     0.041 C 
ATOM     11  O   UNL     1      54.303 -15.826 -24.561  1.00  0.00    -0.550 OA
ATOM     12  O   UNL     1      52.494 -14.702 -23.719  1.00  0.00    -0.550 OA
ENDBRANCH   9  10
ENDBRANCH   8   9
ENDBRANCH   7   8
ENDBRANCH   6   7
ENDBRANCH   5   6
ENDBRANCH   4   5
ENDBRANCH   3   4
ENDBRANCH   1   3
BRANCH   2  13
ATOM     13  C   UNL     1      48.251 -18.544 -26.560  1.00  0.00     0.027 C 
BRANCH  13  14
ATOM     14  C   UNL     1      47.514 -17.226 -26.289  1.00  0.00     0.004 C 
BRANCH  14  15
ATOM     15  C   UNL     1      48.080 -16.092 -27.151  1.00  0.00     0.000 C 
BRANCH  15  16
ATOM     16  C   UNL     1      48.444 -14.875 -26.287  1.00  0.00     0.000 C 
BRANCH  16  17
ATOM     17  C   UNL     1      47.921 -14.992 -24.847  1.00  0.00    -0.000 C 
BRANCH  17  18
ATOM     18  C   UNL     1      49.005 -14.699 -23.798  1.00  0.00    -0.000 C 
BRANCH  18  19
ATOM     19  C   UNL     1      48.960 -15.728 -22.663  1.00  0.00    -0.003 C 
ATOM     20  C   UNL     1      47.631 -16.480 -22.652  1.00  0.00     0.004 C 
ENDBRANCH  18  19
ENDBRANCH  17  18
ENDBRANCH  16  17
ENDBRANCH  15  16
ENDBRANCH  14  15
ENDBRANCH  13  14
ENDBRANCH   2  13
TORSDOF 15
ENDMDL
MODEL 5
REMARK VINA RESULT:    -3.379     12.655     14.738
REMARK INTER + INTRA:          -9.479
REMARK INTER:                  -6.236
REMARK INTRA:                  -3.243
REMARK UNBOUND:                -3.137
REMARK SMILES CCCCCCCCC=CCCCCCCCC(=O)[O-]
REMARK SMILES IDX 10 1 9 2 11 3 12 4 13 5 14 6 15 7 16 8 17 9 18 10 19 11
REMARK SMILES IDX 20 12 8 13 7 14 6 15 5 16 4 17 3 18 2 19 1 20
REMARK H PARENT
REMARK Flexibility Score: inf
ROOT
ATOM      1  C   UNL     1      49.919 -14.609 -26.530  1.00  0.00    -0.031 C 
ATOM      2  C   UNL     1      50.348 -13.868 -25.489  1.00  0.00    -0.031 C 
ENDROOT
BRANCH   1   3
ATOM      3  C   UNL     1      49.710 -16.105 -26.504  1.00  0.00     0.027 C 
BRANCH   3   4
ATOM      4  C   UNL     1      51.011 -16.856 -26.814  1.00  0.00     0.004 C 
BRANCH   4   5
ATOM      5  C   UNL     1      51.477 -17.719 -25.632  1.00  0.00     0.000 C 
BRANCH   5   6
ATOM      6  C   UNL     1      50.287 -18.414 -24.956  1.00  0.00     0.000 C 
BRANCH   6   7
ATOM      7  C   UNL     1      50.072 -19.849 -25.464  1.00  0.00     0.000 C 
BRANCH   7   8
ATOM      8  C   UNL     1      48.588 -20.178 -25.704  1.00  0.00     0.006 C 
BRANCH   8   9
ATOM      9  C   UNL     1      47.918 -19.171 -26.648  1.00  0.00     0.053 C 
BRANCH   9  10
ATOM     10  C   UNL     1      48.233 -19.461 -28.084  1.00  0.00     0.041 C 
ATOM     11  O   UNL     1      48.257 -20.648 -28.501  1.00  0.00    -0.550 OA
ATOM     12  O   UNL     1      48.522 -18.419 -28.956  1.00  0.00    -0.550 OA
ENDBRANCH   9  10
ENDBRANCH   8   9
ENDBRANCH   7   8
ENDBRANCH   6   7
ENDBRANCH   5   6
ENDBRANCH   4   5
ENDBRANCH   3   4
ENDBRANCH   1   3
BRANCH   2  13
ATOM     13  C   UNL     1      50.745 -14.422 -24.145  1.00  0.00     0.027 C 
BRANCH  13  14
ATOM     14  C   UNL     1      49.579 -14.346 -23.152  1.00  0.00     0.004 C 
BRANCH  14  15
ATOM     15  C   UNL     1      49.204 -15.740 -22.635  1.00  0.00     0.000 C 
BRANCH  15  16
ATOM     16  C   UNL     1      47.682 -15.945 -22.664  1.00  0.00     0.000 C 
BRANCH  16  17
ATOM     17  C   UNL     1      47.226 -16.843 -23.825  1.00  0.00    -0.000 C 
BRANCH  17  18
ATOM     18  C   UNL     1      46.479 -16.064 -24.917  1.00  0.00    -0.000 C 
BRANCH  18  19
ATOM     19  C   UNL     1      46.001 -14.706 -24.391  1.00  0.00    -0.003 C 
ATOM     20  C   UNL     1      46.539 -13.562 -25.246  1.00  0.00     0.004 C 
ENDBRANCH  18  19
ENDBRANCH  17  18
ENDBRANCH  16  17
ENDBRANCH  15  16
ENDBRANCH  14  15
ENDBRANCH  13  14
ENDBRANCH   2  13
TORSDOF 15
ENDMDL
MODEL 6
REMARK VINA RESULT:    -3.374     12.127     14.705
REMARK INTER + INTRA:          -9.470
REMARK INTER:                  -6.625
REMARK INTRA:                  -2.846
REMARK UNBOUND:                -3.137
REMARK SMILES CCCCCCCCC=CCCCCCCCC(=O)[O-]
REMARK SMILES IDX 10 1 9 2 11 3 12 4 13 5 14 6 15 7 16 8 17 9 18 10 19 11
REMARK SMILES IDX 20 12 8 13 7 14 6 15 5 16 4 17 3 18 2 19 1 20
REMARK H PARENT
REMARK Flexibility Score: inf
ROOT
ATOM      1  C   UNL     1      47.955 -17.330 -24.421  1.00  0.00    -0.031 C 
ATOM      2  C   UNL     1      47.277 -16.529 -23.576  1.00  0.00    -0.031 C 
ENDROOT
BRANCH   1   3
ATOM      3  C   UNL     1      49.348 -17.863 -24.183  1.00  0.00     0.027 C 
BRANCH   3   4
ATOM      4  C   UNL     1      49.737 -18.903 -25.242  1.00  0.00     0.004 C 
BRANCH   4   5
ATOM      5  C   UNL     1      48.616 -19.923 -25.490  1.00  0.00     0.000 C 
BRANCH   5   6
ATOM      6  C   UNL     1      48.167 -19.899 -26.958  1.00  0.00     0.000 C 
BRANCH   6   7
ATOM      7  C   UNL     1      48.958 -18.887 -27.803  1.00  0.00     0.000 C 
BRANCH   7   8
ATOM      8  C   UNL     1      48.049 -18.014 -28.686  1.00  0.00     0.006 C 
BRANCH   8   9
ATOM      9  C   UNL     1      47.060 -17.185 -27.857  1.00  0.00     0.053 C 
BRANCH   9  10
ATOM     10  C   UNL     1      45.643 -17.415 -28.287  1.00  0.00     0.041 C 
ATOM     11  O   UNL     1      44.953 -16.461 -28.732  1.00  0.00    -0.550 OA
ATOM     12  O   UNL     1      45.079 -18.679 -28.175  1.00  0.00    -0.550 OA
ENDBRANCH   9  10
ENDBRANCH   8   9
ENDBRANCH   7   8
ENDBRANCH   6   7
ENDBRANCH   5   6
ENDBRANCH   4   5
ENDBRANCH   3   4
ENDBRANCH   1   3
BRANCH   2  13
ATOM     13  C   UNL     1      47.824 -15.985 -22.281  1.00  0.00     0.027 C 
BRANCH  13  14
ATOM     14  C   UNL     1      48.376 -14.566 -22.470  1.00  0.00     0.004 C 
BRANCH  14  15
ATOM     15  C   UNL     1      49.909 -14.567 -22.469  1.00  0.00     0.000 C 
BRANCH  15  16
ATOM     16  C   UNL     1      50.459 -14.457 -23.899  1.00  0.00     0.000 C 
BRANCH  16  17
ATOM     17  C   UNL     1      49.548 -13.635 -24.824  1.00  0.00    -0.000 C 
BRANCH  17  18
ATOM     18  C   UNL     1      49.284 -14.333 -26.167  1.00  0.00    -0.000 C 
BRANCH  18  19
ATOM     19  C   UNL     1      50.429 -15.288 -26.522  1.00  0.00    -0.003 C 
ATOM     20  C   UNL     1      51.395 -14.647 -27.515  1.00  0.00     0.004 C 
ENDBRANCH  18  19
ENDBRANCH  17  18
ENDBRANCH  16  17
ENDBRANCH  15  16
ENDBRANCH  14  15
ENDBRANCH  13  14
ENDBRANCH   2  13
TORSDOF 15
ENDMDL
MODEL 7
REMARK VINA RESULT:    -3.370     11.839     14.454
REMARK INTER + INTRA:          -9.463
REMARK INTER:                  -6.545
REMARK INTRA:                  -2.918
REMARK UNBOUND:                -3.137
REMARK SMILES CCCCCCCCC=CCCCCCCCC(=O)[O-]
REMARK SMILES IDX 10 1 9 2 11 3 12 4 13 5 14 6 15 7 16 8 17 9 18 10 19 11
REMARK SMILES IDX 20 12 8 13 7 14 6 15 5 16 4 17 3 18 2 19 1 20
REMARK H PARENT
REMARK Flexibility Score: inf
ROOT
ATOM      1  C   UNL     1      50.705 -17.004 -26.500  1.00  0.00    -0.031 C 
ATOM      2  C   UNL     1      50.572 -15.664 -26.487  1.00  0.00    -0.031 C 
ENDROOT
BRANCH   1   3
ATOM      3  C   UNL     1      51.530 -17.805 -25.521  1.00  0.00     0.027 C 
BRANCH   3   4
ATOM      4  C   UNL     1      50.714 -18.951 -24.908  1.00  0.00     0.004 C 
BRANCH   4   5
ATOM      5  C   UNL     1      50.919 -20.274 -25.660  1.00  0.00     0.000 C 
BRANCH   5   6
ATOM      6  C   UNL     1      49.581 -20.835 -26.162  1.00  0.00     0.000 C 
BRANCH   6   7
ATOM      7  C   UNL     1      48.391 -19.925 -25.816  1.00  0.00     0.000 C 
BRANCH   7   8
ATOM      8  C   UNL     1      47.769 -19.264 -27.059  1.00  0.00     0.006 C 
BRANCH   8   9
ATOM      9  C   UNL     1      48.210 -19.948 -28.359  1.00  0.00     0.053 C 
BRANCH   9  10
ATOM     10  C   UNL     1      48.686 -18.956 -29.376  1.00  0.00     0.041 C 
ATOM     11  O   UNL     1      47.860 -18.361 -30.117  1.00  0.00    -0.550 OA
ATOM     12  O   UNL     1      50.045 -18.706 -29.521  1.00  0.00    -0.550 OA
ENDBRANCH   9  10
ENDBRANCH   8   9
ENDBRANCH   7   8
ENDBRANCH   6   7
ENDBRANCH   5   6
ENDBRANCH   4   5
ENDBRANCH   3   4
ENDBRANCH   1   3
BRANCH   2  13
ATOM     13  C   UNL     1      51.273 -14.739 -25.525  1.00  0.00     0.027 C 
BRANCH  13  14
ATOM     14  C   UNL     1      50.262 -13.971 -24.665  1.00  0.00     0.004 C 
BRANCH  14  15
ATOM     15  C   UNL     1      50.277 -14.474 -23.217  1.00  0.00     0.000 C 
BRANCH  15  16
ATOM     16  C   UNL     1      48.902 -15.027 -22.814  1.00  0.00     0.000 C 
BRANCH  16  17
ATOM     17  C   UNL     1      48.806 -16.553 -22.971  1.00  0.00    -0.000 C 
BRANCH  17  18
ATOM     18  C   UNL     1      47.552 -16.991 -23.742  1.00  0.00    -0.000 C 
BRANCH  18  19
ATOM     19  C   UNL     1      47.319 -16.092 -24.962  1.00  0.00    -0.003 C 
ATOM     20  C   UNL     1      45.892 -15.553 -24.986  1.00  0.00     0.004 C 
ENDBRANCH  18  19
ENDBRANCH  17  18
ENDBRANCH  16  17
ENDBRANCH  15  16
ENDBRANCH  14  15
ENDBRANCH  13  14
ENDBRANCH   2  13
TORSDOF 15
ENDMDL
MODEL 8
REMARK VINA RESULT:    -3.362     13.210     15.493
REMARK INTER + INTRA:          -9.447
REMARK INTER:                  -6.719
REMARK INTRA:                  -2.728
REMARK UNBOUND:                -3.137
REMARK SMILES CCCCCCCCC=CCCCCCCCC(=O)[O-]
REMARK SMILES IDX 10 1 9 2 11 3 12 4 13 5 14 6 15 7 16 8 17 9 18 10 19 11
REMARK SMILES IDX 20 12 8 13 7 14 6 15 5 16 4 17 3 18 2 19 1 20
REMARK H PARENT
REMARK Flexibility Score: inf
ROOT
ATOM      1  C   UNL     1      49.913 -17.338 -26.504  1.00  0.00    -0.031 C 
ATOM      2  C   UNL     1      48.608 -17.420 -26.179  1.00  0.00    -0.031 C 
ENDROOT
BRANCH   1   3
ATOM      3  C   UNL     1      51.055 -17.808 -25.634  1.00  0.00     0.027 C 
BRANCH   3   4
ATOM      4  C   UNL     1      52.402 -17.284 -26.151  1.00  0.00     0.004 C 
BRANCH   4   5
ATOM      5  C   UNL     1      52.242 -16.012 -26.997  1.00  0.00     0.000 C 
BRANCH   5   6
ATOM      6  C   UNL     1      53.596 -15.319 -27.208  1.00  0.00     0.000 C 
BRANCH   6   7
ATOM      7  C   UNL     1      53.747 -14.044 -26.362  1.00  0.00     0.000 C 
BRANCH   7   8
ATOM      8  C   UNL     1      54.066 -14.345 -24.887  1.00  0.00     0.006 C 
BRANCH   8   9
ATOM      9  C   UNL     1      55.522 -14.785 -24.689  1.00  0.00     0.053 C 
BRANCH   9  10
ATOM     10  C   UNL     1      55.648 -15.823 -23.615  1.00  0.00     0.041 C 
ATOM     11  O   UNL     1      55.107 -16.950 -23.756  1.00  0.00    -0.550 OA
ATOM     12  O   UNL     1      56.345 -15.535 -22.449  1.00  0.00    -0.550 OA
ENDBRANCH   9  10
ENDBRANCH   8   9
ENDBRANCH   7   8
ENDBRANCH   6   7
ENDBRANCH   5   6
ENDBRANCH   4   5
ENDBRANCH   3   4
ENDBRANCH   1   3
BRANCH   2  13
ATOM     13  C   UNL     1      48.079 -17.940 -24.867  1.00  0.00     0.027 C 
BRANCH  13  14
ATOM     14  C   UNL     1      47.503 -16.801 -24.016  1.00  0.00     0.004 C 
BRANCH  14  15
ATOM     15  C   UNL     1      48.382 -16.531 -22.790  1.00  0.00     0.000 C 
BRANCH  15  16
ATOM     16  C   UNL     1      48.643 -15.027 -22.620  1.00  0.00     0.000 C 
BRANCH  16  17
ATOM     17  C   UNL     1      50.130 -14.663 -22.755  1.00  0.00    -0.000 C 
BRANCH  17  18
ATOM     18  C   UNL     1      50.547 -14.405 -24.211  1.00  0.00    -0.000 C 
BRANCH  18  19
ATOM     19  C   UNL     1      49.623 -13.375 -24.870  1.00  0.00    -0.003 C 
ATOM     20  C   UNL     1      49.413 -13.688 -26.349  1.00  0.00     0.004 C 
ENDBRANCH  18  19
ENDBRANCH  17  18
ENDBRANCH  16  17
ENDBRANCH  15  16
ENDBRANCH  14  15
ENDBRANCH  13  14
ENDBRANCH   2  13
TORSDOF 15
ENDMDL
MODEL 9
REMARK VINA RESULT:    -3.340     12.716     15.184
REMARK INTER + INTRA:          -9.405
REMARK INTER:                  -6.767
REMARK INTRA:                  -2.638
REMARK UNBOUND:                -3.137
REMARK SMILES CCCCCCCCC=CCCCCCCCC(=O)[O-]
REMARK SMILES IDX 10 1 9 2 11 3 12 4 13 5 14 6 15 7 16 8 17 9 18 10 19 11
REMARK SMILES IDX 20 12 8 13 7 14 6 15 5 16 4 17 3 18 2 19 1 20
REMARK H PARENT
REMARK Flexibility Score: inf
ROOT
ATOM      1  C   UNL     1      54.537 -15.103 -25.053  1.00  0.00    -0.031 C 
ATOM      2  C   UNL     1      54.355 -16.421 -24.841  1.00  0.00    -0.031 C 
ENDROOT
BRANCH   1   3
ATOM      3  C   UNL     1      54.268 -14.388 -26.356  1.00  0.00     0.027 C 
BRANCH   3   4
ATOM      4  C   UNL     1      52.866 -13.766 -26.374  1.00  0.00     0.004 C 
BRANCH   4   5
ATOM      5  C   UNL     1      51.920 -14.499 -27.337  1.00  0.00     0.000 C 
BRANCH   5   6
ATOM      6  C   UNL     1      50.586 -14.827 -26.653  1.00  0.00     0.000 C 
BRANCH   6   7
ATOM      7  C   UNL     1      50.498 -14.264 -25.225  1.00  0.00     0.000 C 
BRANCH   7   8
ATOM      8  C   UNL     1      50.340 -15.364 -24.162  1.00  0.00     0.006 C 
BRANCH   8   9
ATOM      9  C   UNL     1      49.187 -15.072 -23.193  1.00  0.00     0.053 C 
BRANCH   9  10
ATOM     10  C   UNL     1      48.037 -16.010 -23.398  1.00  0.00     0.041 C 
ATOM     11  O   UNL     1      47.558 -16.648 -22.424  1.00  0.00    -0.550 OA
ATOM     12  O   UNL     1      47.510 -16.198 -24.669  1.00  0.00    -0.550 OA
ENDBRANCH   9  10
ENDBRANCH   8   9
ENDBRANCH   7   8
ENDBRANCH   6   7
ENDBRANCH   5   6
ENDBRANCH   4   5
ENDBRANCH   3   4
ENDBRANCH   1   3
BRANCH   2  13
ATOM     13  C   UNL     1      53.910 -17.407 -25.889  1.00  0.00     0.027 C 
BRANCH  13  14
ATOM     14  C   UNL     1      52.487 -17.906 -25.607  1.00  0.00     0.004 C 
BRANCH  14  15
ATOM     15  C   UNL     1      52.464 -19.427 -25.419  1.00  0.00     0.000 C 
BRANCH  15  16
ATOM     16  C   UNL     1      51.126 -19.886 -24.819  1.00  0.00     0.000 C 
BRANCH  16  17
ATOM     17  C   UNL     1      50.025 -18.820 -24.938  1.00  0.00    -0.000 C 
BRANCH  17  18
ATOM     18  C   UNL     1      48.637 -19.428 -25.192  1.00  0.00    -0.000 C 
BRANCH  18  19
ATOM     19  C   UNL     1      48.251 -19.312 -26.671  1.00  0.00    -0.003 C 
ATOM     20  C   UNL     1      48.924 -18.108 -27.324  1.00  0.00     0.004 C 
ENDBRANCH  18  19
ENDBRANCH  17  18
ENDBRANCH  16  17
ENDBRANCH  15  16
ENDBRANCH  14  15
ENDBRANCH  13  14
ENDBRANCH   2  13
TORSDOF 15
ENDMDL
