MODEL 1
REMARK VINA RESULT:    -2.998      0.000      0.000
REMARK INTER + INTRA:          -3.173
REMARK INTER:                  -3.173
REMARK INTRA:                   0.000
REMARK UNBOUND:                 0.000
REMARK SMILES O=c1ccc2cc(O)c(O)cc2o1
REMARK SMILES IDX 4 1 3 2 2 3 1 4 13 5 12 6 11 7 9 8 7 9 6 10 5 11 8 12 10 14
REMARK H PARENT 8 13 10 15
REMARK Flexibility Score: inf
ROOT
ATOM      1  C   UNL     1     -29.854 -24.387  44.707  1.00  0.00     0.019 A 
ATOM      2  C   UNL     1     -29.292 -25.060  45.792  1.00  0.00     0.094 A 
ATOM      3  C   UNL     1     -28.016 -25.615  45.660  1.00  0.00     0.336 A 
ATOM      4  O   UNL     1     -27.493 -26.226  46.629  1.00  0.00    -0.246 OA
ATOM      5  O   UNL     1     -27.348 -25.502  44.514  1.00  0.00    -0.423 OA
ATOM      6  C   UNL     1     -27.846 -24.870  43.454  1.00  0.00     0.142 A 
ATOM      7  C   UNL     1     -27.098 -24.784  42.277  1.00  0.00     0.098 A 
ATOM      8  C   UNL     1     -27.619 -24.117  41.157  1.00  0.00     0.161 A 
ATOM      9  C   UNL     1     -28.894 -23.535  41.217  1.00  0.00     0.158 A 
ATOM     10  C   UNL     1     -29.648 -23.619  42.396  1.00  0.00     0.062 A 
ATOM     11  C   UNL     1     -29.129 -24.284  43.515  1.00  0.00     0.022 A 
ENDROOT
BRANCH   9  12
ATOM     12  O   UNL     1     -29.403 -22.875  40.101  1.00  0.00    -0.504 OA
ATOM     13  H   UNL     1     -28.922 -22.085  39.686  1.00  0.00     0.293 HD
ENDBRANCH   9  12
BRANCH   8  14
ATOM     14  O   UNL     1     -26.875 -24.030  39.981  1.00  0.00    -0.504 OA
ATOM     15  H   UNL     1     -26.552 -24.858  39.495  1.00  0.00     0.293 HD
ENDBRANCH   8  14
TORSDOF 2
ENDMDL
MODEL 2
REMARK VINA RESULT:    -2.946     16.177     17.163
REMARK INTER + INTRA:          -3.118
REMARK INTER:                  -3.118
REMARK INTRA:                   0.000
REMARK UNBOUND:                 0.000
REMARK SMILES O=c1ccc2cc(O)c(O)cc2o1
REMARK SMILES IDX 4 1 3 2 2 3 1 4 13 5 12 6 11 7 9 8 7 9 6 10 5 11 8 12 10 14
REMARK H PARENT 8 13 10 15
REMARK Flexibility Score: inf
ROOT
ATOM      1  C   UNL     1     -45.467 -25.779  44.791  1.00  0.00     0.019 A 
ATOM      2  C   UNL     1     -44.772 -25.190  45.847  1.00  0.00     0.094 A 
ATOM      3  C   UNL     1     -44.245 -23.906  45.680  1.00  0.00     0.336 A 
ATOM      4  O   UNL     1     -43.615 -23.358  46.623  1.00  0.00    -0.246 OA
ATOM      5  O   UNL     1     -44.404 -23.257  44.529  1.00  0.00    -0.423 OA
ATOM      6  C   UNL     1     -45.058 -23.782  43.496  1.00  0.00     0.142 A 
ATOM      7  C   UNL     1     -45.193 -23.053  42.311  1.00  0.00     0.098 A 
ATOM      8  C   UNL     1     -45.883 -23.601  41.219  1.00  0.00     0.161 A 
ATOM      9  C   UNL     1     -46.440 -24.885  41.314  1.00  0.00     0.158 A 
ATOM     10  C   UNL     1     -46.307 -25.621  42.501  1.00  0.00     0.062 A 
ATOM     11  C   UNL     1     -45.618 -25.074  43.593  1.00  0.00     0.022 A 
ENDROOT
BRANCH   9  12
ATOM     12  O   UNL     1     -47.124 -25.422  40.226  1.00  0.00    -0.504 OA
ATOM     13  H   UNL     1     -48.128 -25.557  40.244  1.00  0.00     0.293 HD
ENDBRANCH   9  12
BRANCH   8  14
ATOM     14  O   UNL     1     -46.019 -22.876  40.037  1.00  0.00    -0.504 OA
ATOM     15  H   UNL     1     -46.803 -23.022  39.412  1.00  0.00     0.293 HD
ENDBRANCH   8  14
TORSDOF 2
ENDMDL
MODEL 3
REMARK VINA RESULT:    -2.854      1.421      5.067
REMARK INTER + INTRA:          -3.021
REMARK INTER:                  -3.021
REMARK INTRA:                   0.000
REMARK UNBOUND:                 0.000
REMARK SMILES O=c1ccc2cc(O)c(O)cc2o1
REMARK SMILES IDX 4 1 3 2 2 3 1 4 13 5 12 6 11 7 9 8 7 9 6 10 5 11 8 12 10 14
REMARK H PARENT 8 13 10 15
REMARK Flexibility Score: inf
ROOT
ATOM      1  C   UNL     1     -26.915 -24.953  41.066  1.00  0.00     0.019 A 
ATOM      2  C   UNL     1     -27.252 -24.398  39.832  1.00  0.00     0.094 A 
ATOM      3  C   UNL     1     -28.433 -23.659  39.720  1.00  0.00     0.336 A 
ATOM      4  O   UNL     1     -28.754 -23.149  38.614  1.00  0.00    -0.246 OA
ATOM      5  O   UNL     1     -29.225 -23.490  40.777  1.00  0.00    -0.423 OA
ATOM      6  C   UNL     1     -28.942 -24.003  41.972  1.00  0.00     0.142 A 
ATOM      7  C   UNL     1     -29.811 -23.792  43.046  1.00  0.00     0.098 A 
ATOM      8  C   UNL     1     -29.517 -24.331  44.308  1.00  0.00     0.161 A 
ATOM      9  C   UNL     1     -28.349 -25.083  44.495  1.00  0.00     0.158 A 
ATOM     10  C   UNL     1     -27.473 -25.297  43.421  1.00  0.00     0.062 A 
ATOM     11  C   UNL     1     -27.765 -24.760  42.159  1.00  0.00     0.022 A 
ENDROOT
BRANCH   9  12
ATOM     12  O   UNL     1     -28.064 -25.613  45.752  1.00  0.00    -0.504 OA
ATOM     13  H   UNL     1     -27.745 -26.569  45.865  1.00  0.00     0.293 HD
ENDBRANCH   9  12
BRANCH   8  14
ATOM     14  O   UNL     1     -30.383 -24.122  45.381  1.00  0.00    -0.504 OA
ATOM     15  H   UNL     1     -31.141 -23.452  45.328  1.00  0.00     0.293 HD
ENDBRANCH   8  14
TORSDOF 2
ENDMDL
MODEL 4
REMARK VINA RESULT:    -2.815      1.014      2.216
REMARK INTER + INTRA:          -2.980
REMARK INTER:                  -2.980
REMARK INTRA:                   0.000
REMARK UNBOUND:                 0.000
REMARK SMILES O=c1ccc2cc(O)c(O)cc2o1
REMARK SMILES IDX 4 1 3 2 2 3 1 4 13 5 12 6 11 7 9 8 7 9 6 10 5 11 8 12 10 14
REMARK H PARENT 8 13 10 15
REMARK Flexibility Score: inf
ROOT
ATOM      1  C   UNL     1     -26.943 -25.666  44.380  1.00  0.00     0.019 A 
ATOM      2  C   UNL     1     -27.532 -25.724  45.643  1.00  0.00     0.094 A 
ATOM      3  C   UNL     1     -28.765 -25.096  45.846  1.00  0.00     0.336 A 
ATOM      4  O   UNL     1     -29.312 -25.137  46.979  1.00  0.00    -0.246 OA
ATOM      5  O   UNL     1     -29.366 -24.452  44.848  1.00  0.00    -0.423 OA
ATOM      6  C   UNL     1     -28.839 -24.372  43.628  1.00  0.00     0.142 A 
ATOM      7  C   UNL     1     -29.516 -23.682  42.619  1.00  0.00     0.098 A 
ATOM      8  C   UNL     1     -28.965 -23.595  41.331  1.00  0.00     0.161 A 
ATOM      9  C   UNL     1     -27.731 -24.201  41.054  1.00  0.00     0.158 A 
ATOM     10  C   UNL     1     -27.048 -24.895  42.063  1.00  0.00     0.062 A 
ATOM     11  C   UNL     1     -27.597 -24.983  43.350  1.00  0.00     0.022 A 
ENDROOT
BRANCH   9  12
ATOM     12  O   UNL     1     -27.192 -24.111  39.772  1.00  0.00    -0.504 OA
ATOM     13  H   UNL     1     -26.930 -23.219  39.368  1.00  0.00     0.293 HD
ENDBRANCH   9  12
BRANCH   8  14
ATOM     14  O   UNL     1     -29.639 -22.908  40.323  1.00  0.00    -0.504 OA
ATOM     15  H   UNL     1     -30.315 -23.369  39.726  1.00  0.00     0.293 HD
ENDBRANCH   8  14
TORSDOF 2
ENDMDL
MODEL 5
REMARK VINA RESULT:    -2.773     16.368     17.849
REMARK INTER + INTRA:          -2.935
REMARK INTER:                  -2.935
REMARK INTRA:                   0.000
REMARK UNBOUND:                 0.000
REMARK SMILES O=c1ccc2cc(O)c(O)cc2o1
REMARK SMILES IDX 4 1 3 2 2 3 1 4 13 5 12 6 11 7 9 8 7 9 6 10 5 11 8 12 10 14
REMARK H PARENT 8 13 10 15
REMARK Flexibility Score: inf
ROOT
ATOM      1  C   UNL     1     -27.321 -40.301  43.351  1.00  0.00     0.019 A 
ATOM      2  C   UNL     1     -27.089 -40.841  42.087  1.00  0.00     0.094 A 
ATOM      3  C   UNL     1     -27.689 -42.058  41.748  1.00  0.00     0.336 A 
ATOM      4  O   UNL     1     -27.491 -42.561  40.611  1.00  0.00    -0.246 OA
ATOM      5  O   UNL     1     -28.469 -42.691  42.622  1.00  0.00    -0.423 OA
ATOM      6  C   UNL     1     -28.716 -42.212  43.839  1.00  0.00     0.142 A 
ATOM      7  C   UNL     1     -29.543 -42.921  44.714  1.00  0.00     0.098 A 
ATOM      8  C   UNL     1     -29.807 -42.419  45.998  1.00  0.00     0.161 A 
ATOM      9  C   UNL     1     -29.240 -41.204  46.407  1.00  0.00     0.158 A 
ATOM     10  C   UNL     1     -28.409 -40.488  45.532  1.00  0.00     0.062 A 
ATOM     11  C   UNL     1     -28.145 -40.988  44.249  1.00  0.00     0.022 A 
ENDROOT
BRANCH   9  12
ATOM     12  O   UNL     1     -29.508 -40.713  47.683  1.00  0.00    -0.504 OA
ATOM     13  H   UNL     1     -28.779 -40.623  48.381  1.00  0.00     0.293 HD
ENDBRANCH   9  12
BRANCH   8  14
ATOM     14  O   UNL     1     -30.632 -43.125  46.873  1.00  0.00    -0.504 OA
ATOM     15  H   UNL     1     -30.928 -44.073  46.674  1.00  0.00     0.293 HD
ENDBRANCH   8  14
TORSDOF 2
ENDMDL
MODEL 6
REMARK VINA RESULT:    -2.769     16.172     17.767
REMARK INTER + INTRA:          -2.931
REMARK INTER:                  -2.931
REMARK INTRA:                   0.000
REMARK UNBOUND:                 0.000
REMARK SMILES O=c1ccc2cc(O)c(O)cc2o1
REMARK SMILES IDX 4 1 3 2 2 3 1 4 13 5 12 6 11 7 9 8 7 9 6 10 5 11 8 12 10 14
REMARK H PARENT 8 13 10 15
REMARK Flexibility Score: inf
ROOT
ATOM      1  C   UNL     1     -46.740 -26.349  42.720  1.00  0.00     0.019 A 
ATOM      2  C   UNL     1     -46.988 -25.940  41.411  1.00  0.00     0.094 A 
ATOM      3  C   UNL     1     -46.442 -24.733  40.962  1.00  0.00     0.336 A 
ATOM      4  O   UNL     1     -46.655 -24.347  39.782  1.00  0.00    -0.246 OA
ATOM      5  O   UNL     1     -45.698 -23.987  41.775  1.00  0.00    -0.423 OA
ATOM      6  C   UNL     1     -45.437 -24.339  43.032  1.00  0.00     0.142 A 
ATOM      7  C   UNL     1     -44.649 -23.515  43.839  1.00  0.00     0.098 A 
ATOM      8  C   UNL     1     -44.371 -23.883  45.165  1.00  0.00     0.161 A 
ATOM      9  C   UNL     1     -44.884 -25.080  45.683  1.00  0.00     0.158 A 
ATOM     10  C   UNL     1     -45.676 -25.911  44.877  1.00  0.00     0.062 A 
ATOM     11  C   UNL     1     -45.954 -25.545  43.553  1.00  0.00     0.022 A 
ENDROOT
BRANCH   9  12
ATOM     12  O   UNL     1     -44.603 -25.438  47.000  1.00  0.00    -0.504 OA
ATOM     13  H   UNL     1     -44.963 -24.905  47.783  1.00  0.00     0.293 HD
ENDBRANCH   9  12
BRANCH   8  14
ATOM     14  O   UNL     1     -43.585 -23.062  45.972  1.00  0.00    -0.504 OA
ATOM     15  H   UNL     1     -43.948 -22.651  46.824  1.00  0.00     0.293 HD
ENDBRANCH   8  14
TORSDOF 2
ENDMDL
MODEL 7
REMARK VINA RESULT:    -2.767      1.110      4.605
REMARK INTER + INTRA:          -2.929
REMARK INTER:                  -2.929
REMARK INTRA:                   0.000
REMARK UNBOUND:                 0.000
REMARK SMILES O=c1ccc2cc(O)c(O)cc2o1
REMARK SMILES IDX 4 1 3 2 2 3 1 4 13 5 12 6 11 7 9 8 7 9 6 10 5 11 8 12 10 14
REMARK H PARENT 8 13 10 15
REMARK Flexibility Score: inf
ROOT
ATOM      1  C   UNL     1     -29.843 -23.632  43.091  1.00  0.00     0.019 A 
ATOM      2  C   UNL     1     -29.304 -23.384  41.829  1.00  0.00     0.094 A 
ATOM      3  C   UNL     1     -28.053 -23.919  41.508  1.00  0.00     0.336 A 
ATOM      4  O   UNL     1     -27.550 -23.705  40.374  1.00  0.00    -0.246 OA
ATOM      5  O   UNL     1     -27.387 -24.654  42.396  1.00  0.00    -0.423 OA
ATOM      6  C   UNL     1     -27.864 -24.915  43.611  1.00  0.00     0.142 A 
ATOM      7  C   UNL     1     -27.119 -25.694  44.501  1.00  0.00     0.098 A 
ATOM      8  C   UNL     1     -27.619 -25.972  45.783  1.00  0.00     0.161 A 
ATOM      9  C   UNL     1     -28.867 -25.468  46.175  1.00  0.00     0.158 A 
ATOM     10  C   UNL     1     -29.619 -24.687  45.285  1.00  0.00     0.062 A 
ATOM     11  C   UNL     1     -29.121 -24.408  44.004  1.00  0.00     0.022 A 
ENDROOT
BRANCH   9  12
ATOM     12  O   UNL     1     -29.355 -25.750  47.449  1.00  0.00    -0.504 OA
ATOM     13  H   UNL     1     -29.303 -25.071  48.200  1.00  0.00     0.293 HD
ENDBRANCH   9  12
BRANCH   8  14
ATOM     14  O   UNL     1     -26.878 -26.748  46.673  1.00  0.00    -0.504 OA
ATOM     15  H   UNL     1     -27.085 -26.762  47.664  1.00  0.00     0.293 HD
ENDBRANCH   8  14
TORSDOF 2
ENDMDL
MODEL 8
REMARK VINA RESULT:    -2.755     16.441     17.896
REMARK INTER + INTRA:          -2.916
REMARK INTER:                  -2.916
REMARK INTRA:                   0.000
REMARK UNBOUND:                 0.000
REMARK SMILES O=c1ccc2cc(O)c(O)cc2o1
REMARK SMILES IDX 4 1 3 2 2 3 1 4 13 5 12 6 11 7 9 8 7 9 6 10 5 11 8 12 10 14
REMARK H PARENT 8 13 10 15
REMARK Flexibility Score: inf
ROOT
ATOM      1  C   UNL     1     -45.297 -22.944  41.315  1.00  0.00     0.019 A 
ATOM      2  C   UNL     1     -45.926 -23.375  40.148  1.00  0.00     0.094 A 
ATOM      3  C   UNL     1     -46.549 -24.626  40.135  1.00  0.00     0.336 A 
ATOM      4  O   UNL     1     -47.122 -25.033  39.090  1.00  0.00    -0.246 OA
ATOM      5  O   UNL     1     -46.539 -25.395  41.222  1.00  0.00    -0.423 OA
ATOM      6  C   UNL     1     -45.950 -25.023  42.356  1.00  0.00     0.142 A 
ATOM      7  C   UNL     1     -45.971 -25.872  43.466  1.00  0.00     0.098 A 
ATOM      8  C   UNL     1     -45.352 -25.484  44.664  1.00  0.00     0.161 A 
ATOM      9  C   UNL     1     -44.709 -24.241  44.750  1.00  0.00     0.158 A 
ATOM     10  C   UNL     1     -44.684 -23.385  43.640  1.00  0.00     0.062 A 
ATOM     11  C   UNL     1     -45.302 -23.772  42.443  1.00  0.00     0.022 A 
ENDROOT
BRANCH   9  12
ATOM     12  O   UNL     1     -44.097 -23.864  45.944  1.00  0.00    -0.504 OA
ATOM     13  H   UNL     1     -44.460 -24.159  46.843  1.00  0.00     0.293 HD
ENDBRANCH   9  12
BRANCH   8  14
ATOM     14  O   UNL     1     -45.373 -26.330  45.772  1.00  0.00    -0.504 OA
ATOM     15  H   UNL     1     -46.187 -26.887  45.999  1.00  0.00     0.293 HD
ENDBRANCH   8  14
TORSDOF 2
ENDMDL
MODEL 9
REMARK VINA RESULT:    -2.700     23.856     25.082
REMARK INTER + INTRA:          -2.858
REMARK INTER:                  -2.858
REMARK INTRA:                   0.000
REMARK UNBOUND:                 0.000
REMARK SMILES O=c1ccc2cc(O)c(O)cc2o1
REMARK SMILES IDX 4 1 3 2 2 3 1 4 13 5 12 6 11 7 9 8 7 9 6 10 5 11 8 12 10 14
REMARK H PARENT 8 13 10 15
REMARK Flexibility Score: inf
ROOT
ATOM      1  C   UNL     1     -47.081 -38.143  46.446  1.00  0.00     0.019 A 
ATOM      2  C   UNL     1     -47.088 -38.677  45.159  1.00  0.00     0.094 A 
ATOM      3  C   UNL     1     -47.106 -40.066  45.000  1.00  0.00     0.336 A 
ATOM      4  O   UNL     1     -47.112 -40.567  43.845  1.00  0.00    -0.246 OA
ATOM      5  O   UNL     1     -47.115 -40.865  46.065  1.00  0.00    -0.423 OA
ATOM      6  C   UNL     1     -47.109 -40.398  47.311  1.00  0.00     0.142 A 
ATOM      7  C   UNL     1     -47.119 -41.285  48.391  1.00  0.00     0.098 A 
ATOM      8  C   UNL     1     -47.113 -40.797  49.706  1.00  0.00     0.161 A 
ATOM      9  C   UNL     1     -47.096 -39.414  49.941  1.00  0.00     0.158 A 
ATOM     10  C   UNL     1     -47.085 -38.519  48.861  1.00  0.00     0.062 A 
ATOM     11  C   UNL     1     -47.092 -39.006  47.547  1.00  0.00     0.022 A 
ENDROOT
BRANCH   9  12
ATOM     12  O   UNL     1     -47.091 -38.938  51.251  1.00  0.00    -0.504 OA
ATOM     13  H   UNL     1     -47.648 -39.374  51.976  1.00  0.00     0.293 HD
ENDBRANCH   9  12
BRANCH   8  14
ATOM     14  O   UNL     1     -47.124 -41.680  50.785  1.00  0.00    -0.504 OA
ATOM     15  H   UNL     1     -46.268 -41.968  51.243  1.00  0.00     0.293 HD
ENDBRANCH   8  14
TORSDOF 2
ENDMDL
