MODEL 1
REMARK VINA RESULT:    -5.003      0.000      0.000
REMARK INTER + INTRA:          -5.149
REMARK INTER:                  -5.149
REMARK INTRA:                   0.000
REMARK UNBOUND:                 0.000
REMARK SMILES O=c1ccc2ccc(O)cc2o1
REMARK SMILES IDX 6 1 7 2 8 3 10 4 11 5 5 6 4 7 3 8 2 9 1 10 12 11 9 12
REMARK H PARENT 9 13
REMARK Flexibility Score: inf
ROOT
ATOM      1  C   UNL     1     -98.234  81.921 206.495  1.00  0.00     0.016 A 
ATOM      2  C   UNL     1     -98.751  80.621 206.511  1.00  0.00     0.047 A 
ATOM      3  C   UNL     1     -98.472  79.761 207.585  1.00  0.00     0.119 A 
ATOM      4  C   UNL     1     -97.673  80.206 208.645  1.00  0.00     0.094 A 
ATOM      5  C   UNL     1     -97.151  81.504 208.637  1.00  0.00     0.142 A 
ATOM      6  C   UNL     1     -97.433  82.368 207.556  1.00  0.00     0.018 A 
ATOM      7  C   UNL     1     -96.899  83.659 207.576  1.00  0.00     0.019 A 
ATOM      8  C   UNL     1     -96.108  84.055 208.655  1.00  0.00     0.094 A 
ATOM      9  C   UNL     1     -95.870  83.146 209.691  1.00  0.00     0.336 A 
ATOM     10  O   UNL     1     -95.159  83.484 210.673  1.00  0.00    -0.246 OA
ATOM     11  O   UNL     1     -96.392  81.922 209.647  1.00  0.00    -0.423 OA
ENDROOT
BRANCH   3  12
ATOM     12  O   UNL     1     -98.984  78.467 207.607  1.00  0.00    -0.508 OA
ATOM     13  H   UNL     1     -99.118  77.936 206.753  1.00  0.00     0.293 HD
ENDBRANCH   3  12
TORSDOF 1
ENDMDL
MODEL 2
REMARK VINA RESULT:    -4.925      0.903      4.215
REMARK INTER + INTRA:          -5.069
REMARK INTER:                  -5.069
REMARK INTRA:                   0.000
REMARK UNBOUND:                 0.000
REMARK SMILES O=c1ccc2ccc(O)cc2o1
REMARK SMILES IDX 6 1 7 2 8 3 10 4 11 5 5 6 4 7 3 8 2 9 1 10 12 11 9 12
REMARK H PARENT 9 13
REMARK Flexibility Score: inf
ROOT
ATOM      1  C   UNL     1     -96.709  83.631 207.885  1.00  0.00     0.016 A 
ATOM      2  C   UNL     1     -96.065  83.972 209.080  1.00  0.00     0.047 A 
ATOM      3  C   UNL     1     -95.896  83.014 210.091  1.00  0.00     0.119 A 
ATOM      4  C   UNL     1     -96.374  81.712 209.905  1.00  0.00     0.094 A 
ATOM      5  C   UNL     1     -97.019  81.362 208.714  1.00  0.00     0.142 A 
ATOM      6  C   UNL     1     -97.188  82.327 207.697  1.00  0.00     0.018 A 
ATOM      7  C   UNL     1     -97.836  81.948 206.518  1.00  0.00     0.019 A 
ATOM      8  C   UNL     1     -98.294  80.638 206.380  1.00  0.00     0.094 A 
ATOM      9  C   UNL     1     -98.092  79.735 207.429  1.00  0.00     0.336 A 
ATOM     10  O   UNL     1     -98.499  78.548 207.324  1.00  0.00    -0.246 OA
ATOM     11  O   UNL     1     -97.472  80.122 208.541  1.00  0.00    -0.423 OA
ENDROOT
BRANCH   3  12
ATOM     12  O   UNL     1     -95.256  83.347 211.282  1.00  0.00    -0.508 OA
ATOM     13  H   UNL     1     -94.596  82.716 211.723  1.00  0.00     0.293 HD
ENDBRANCH   3  12
TORSDOF 1
ENDMDL
MODEL 3
REMARK VINA RESULT:    -4.889      2.429      2.849
REMARK INTER + INTRA:          -5.032
REMARK INTER:                  -5.032
REMARK INTRA:                   0.000
REMARK UNBOUND:                 0.000
REMARK SMILES O=c1ccc2ccc(O)cc2o1
REMARK SMILES IDX 6 1 7 2 8 3 10 4 11 5 5 6 4 7 3 8 2 9 1 10 12 11 9 12
REMARK H PARENT 9 13
REMARK Flexibility Score: inf
ROOT
ATOM      1  C   UNL     1     -95.715  80.793 206.995  1.00  0.00     0.016 A 
ATOM      2  C   UNL     1     -96.271  79.714 206.301  1.00  0.00     0.047 A 
ATOM      3  C   UNL     1     -97.542  79.828 205.716  1.00  0.00     0.119 A 
ATOM      4  C   UNL     1     -98.256  81.027 205.828  1.00  0.00     0.094 A 
ATOM      5  C   UNL     1     -97.707  82.111 206.521  1.00  0.00     0.142 A 
ATOM      6  C   UNL     1     -96.428  81.994 207.109  1.00  0.00     0.018 A 
ATOM      7  C   UNL     1     -95.906  83.095 207.795  1.00  0.00     0.019 A 
ATOM      8  C   UNL     1     -96.657  84.267 207.879  1.00  0.00     0.094 A 
ATOM      9  C   UNL     1     -97.917  84.311 207.273  1.00  0.00     0.336 A 
ATOM     10  O   UNL     1     -98.609  85.360 207.338  1.00  0.00    -0.246 OA
ATOM     11  O   UNL     1     -98.390  83.249 206.625  1.00  0.00    -0.423 OA
ENDROOT
BRANCH   3  12
ATOM     12  O   UNL     1     -98.102  78.758 205.023  1.00  0.00    -0.508 OA
ATOM     13  H   UNL     1     -98.380  78.844 204.052  1.00  0.00     0.293 HD
ENDBRANCH   3  12
TORSDOF 1
ENDMDL
MODEL 4
REMARK VINA RESULT:    -4.879      2.086      4.486
REMARK INTER + INTRA:          -5.021
REMARK INTER:                  -5.021
REMARK INTRA:                   0.000
REMARK UNBOUND:                 0.000
REMARK SMILES O=c1ccc2ccc(O)cc2o1
REMARK SMILES IDX 6 1 7 2 8 3 10 4 11 5 5 6 4 7 3 8 2 9 1 10 12 11 9 12
REMARK H PARENT 9 13
REMARK Flexibility Score: inf
ROOT
ATOM      1  C   UNL     1     -98.125  84.855 207.268  1.00  0.00     0.016 A 
ATOM      2  C   UNL     1     -97.902  86.052 207.956  1.00  0.00     0.047 A 
ATOM      3  C   UNL     1     -96.863  86.145 208.895  1.00  0.00     0.119 A 
ATOM      4  C   UNL     1     -96.046  85.036 209.145  1.00  0.00     0.094 A 
ATOM      5  C   UNL     1     -96.262  83.835 208.461  1.00  0.00     0.142 A 
ATOM      6  C   UNL     1     -97.308  83.743 207.516  1.00  0.00     0.018 A 
ATOM      7  C   UNL     1     -97.499  82.530 206.848  1.00  0.00     0.019 A 
ATOM      8  C   UNL     1     -96.659  81.453 207.131  1.00  0.00     0.094 A 
ATOM      9  C   UNL     1     -95.644  81.616 208.080  1.00  0.00     0.336 A 
ATOM     10  O   UNL     1     -94.875  80.656 208.350  1.00  0.00    -0.246 OA
ATOM     11  O   UNL     1     -95.483  82.782 208.701  1.00  0.00    -0.423 OA
ENDROOT
BRANCH   3  12
ATOM     12  O   UNL     1     -96.636  87.334 209.584  1.00  0.00    -0.508 OA
ATOM     13  H   UNL     1     -96.193  87.340 210.497  1.00  0.00     0.293 HD
ENDBRANCH   3  12
TORSDOF 1
ENDMDL
MODEL 5
REMARK VINA RESULT:    -4.879      2.176      2.862
REMARK INTER + INTRA:          -5.021
REMARK INTER:                  -5.021
REMARK INTRA:                   0.000
REMARK UNBOUND:                 0.000
REMARK SMILES O=c1ccc2ccc(O)cc2o1
REMARK SMILES IDX 6 1 7 2 8 3 10 4 11 5 5 6 4 7 3 8 2 9 1 10 12 11 9 12
REMARK H PARENT 9 13
REMARK Flexibility Score: inf
ROOT
ATOM      1  C   UNL     1     -98.904  84.984 206.688  1.00  0.00     0.016 A 
ATOM      2  C   UNL     1     -99.087  83.713 206.133  1.00  0.00     0.047 A 
ATOM      3  C   UNL     1     -98.244  82.653 206.499  1.00  0.00     0.119 A 
ATOM      4  C   UNL     1     -97.215  82.868 207.424  1.00  0.00     0.094 A 
ATOM      5  C   UNL     1     -97.024  84.136 207.983  1.00  0.00     0.142 A 
ATOM      6  C   UNL     1     -97.874  85.202 207.614  1.00  0.00     0.018 A 
ATOM      7  C   UNL     1     -97.660  86.457 208.190  1.00  0.00     0.019 A 
ATOM      8  C   UNL     1     -96.621  86.621 209.106  1.00  0.00     0.094 A 
ATOM      9  C   UNL     1     -95.818  85.520 209.425  1.00  0.00     0.336 A 
ATOM     10  O   UNL     1     -94.875  85.648 210.249  1.00  0.00    -0.246 OA
ATOM     11  O   UNL     1     -96.044  84.335 208.862  1.00  0.00    -0.423 OA
ENDROOT
BRANCH   3  12
ATOM     12  O   UNL     1     -98.420  81.386 205.951  1.00  0.00    -0.508 OA
ATOM     13  H   UNL     1     -98.157  81.182 204.993  1.00  0.00     0.293 HD
ENDBRANCH   3  12
TORSDOF 1
ENDMDL
MODEL 6
REMARK VINA RESULT:    -4.833      2.586      5.333
REMARK INTER + INTRA:          -4.974
REMARK INTER:                  -4.974
REMARK INTRA:                   0.000
REMARK UNBOUND:                 0.000
REMARK SMILES O=c1ccc2ccc(O)cc2o1
REMARK SMILES IDX 6 1 7 2 8 3 10 4 11 5 5 6 4 7 3 8 2 9 1 10 12 11 9 12
REMARK H PARENT 9 13
REMARK Flexibility Score: inf
ROOT
ATOM      1  C   UNL     1     -95.147  84.951 209.095  1.00  0.00     0.016 A 
ATOM      2  C   UNL     1     -95.588  86.209 209.520  1.00  0.00     0.047 A 
ATOM      3  C   UNL     1     -96.862  86.672 209.156  1.00  0.00     0.119 A 
ATOM      4  C   UNL     1     -97.695  85.872 208.365  1.00  0.00     0.094 A 
ATOM      5  C   UNL     1     -97.262  84.613 207.936  1.00  0.00     0.142 A 
ATOM      6  C   UNL     1     -95.980  84.149 208.303  1.00  0.00     0.018 A 
ATOM      7  C   UNL     1     -95.575  82.887 207.860  1.00  0.00     0.019 A 
ATOM      8  C   UNL     1     -96.441  82.127 207.074  1.00  0.00     0.094 A 
ATOM      9  C   UNL     1     -97.697  82.651 206.749  1.00  0.00     0.336 A 
ATOM     10  O   UNL     1     -98.493  81.981 206.040  1.00  0.00    -0.246 OA
ATOM     11  O   UNL     1     -98.058  83.856 207.184  1.00  0.00    -0.423 OA
ENDROOT
BRANCH   3  12
ATOM     12  O   UNL     1     -97.307  87.923 209.575  1.00  0.00    -0.508 OA
ATOM     13  H   UNL     1     -97.803  88.042 210.451  1.00  0.00     0.293 HD
ENDBRANCH   3  12
TORSDOF 1
ENDMDL
MODEL 7
REMARK VINA RESULT:    -4.811      3.300      4.011
REMARK INTER + INTRA:          -4.952
REMARK INTER:                  -4.952
REMARK INTRA:                   0.000
REMARK UNBOUND:                 0.000
REMARK SMILES O=c1ccc2ccc(O)cc2o1
REMARK SMILES IDX 6 1 7 2 8 3 10 4 11 5 5 6 4 7 3 8 2 9 1 10 12 11 9 12
REMARK H PARENT 9 13
REMARK Flexibility Score: inf
ROOT
ATOM      1  C   UNL     1     -98.327  83.213 206.495  1.00  0.00     0.016 A 
ATOM      2  C   UNL     1     -99.467  83.786 205.921  1.00  0.00     0.047 A 
ATOM      3  C   UNL     1     -99.823  85.109 206.223  1.00  0.00     0.119 A 
ATOM      4  C   UNL     1     -99.034  85.861 207.102  1.00  0.00     0.094 A 
ATOM      5  C   UNL     1     -97.892  85.296 207.681  1.00  0.00     0.142 A 
ATOM      6  C   UNL     1     -97.535  83.963 207.376  1.00  0.00     0.018 A 
ATOM      7  C   UNL     1     -96.389  83.427 207.970  1.00  0.00     0.019 A 
ATOM      8  C   UNL     1     -95.636  84.216 208.839  1.00  0.00     0.094 A 
ATOM      9  C   UNL     1     -96.049  85.527 209.096  1.00  0.00     0.336 A 
ATOM     10  O   UNL     1     -95.383  86.255 209.878  1.00  0.00    -0.246 OA
ATOM     11  O   UNL     1     -97.145  86.014 208.517  1.00  0.00    -0.423 OA
ENDROOT
BRANCH   3  12
ATOM     12  O   UNL     1    -100.956  85.685 205.655  1.00  0.00    -0.508 OA
ATOM     13  H   UNL     1    -101.632  85.129 205.144  1.00  0.00     0.293 HD
ENDBRANCH   3  12
TORSDOF 1
ENDMDL
MODEL 8
REMARK VINA RESULT:    -4.795      3.288      5.575
REMARK INTER + INTRA:          -4.935
REMARK INTER:                  -4.935
REMARK INTRA:                   0.000
REMARK UNBOUND:                 0.000
REMARK SMILES O=c1ccc2ccc(O)cc2o1
REMARK SMILES IDX 6 1 7 2 8 3 10 4 11 5 5 6 4 7 3 8 2 9 1 10 12 11 9 12
REMARK H PARENT 9 13
REMARK Flexibility Score: inf
ROOT
ATOM      1  C   UNL     1     -96.498  83.637 208.102  1.00  0.00     0.016 A 
ATOM      2  C   UNL     1     -95.931  84.645 208.889  1.00  0.00     0.047 A 
ATOM      3  C   UNL     1     -96.502  85.927 208.917  1.00  0.00     0.119 A 
ATOM      4  C   UNL     1     -97.643  86.199 208.153  1.00  0.00     0.094 A 
ATOM      5  C   UNL     1     -98.216  85.197 207.362  1.00  0.00     0.142 A 
ATOM      6  C   UNL     1     -97.641  83.908 207.336  1.00  0.00     0.018 A 
ATOM      7  C   UNL     1     -98.237  82.928 206.537  1.00  0.00     0.019 A 
ATOM      8  C   UNL     1     -99.372  83.248 205.794  1.00  0.00     0.094 A 
ATOM      9  C   UNL     1     -99.888  84.547 205.868  1.00  0.00     0.336 A 
ATOM     10  O   UNL     1    -100.912  84.856 205.205  1.00  0.00    -0.246 OA
ATOM     11  O   UNL     1     -99.302  85.461 206.637  1.00  0.00    -0.423 OA
ENDROOT
BRANCH   3  12
ATOM     12  O   UNL     1     -95.942  86.934 209.698  1.00  0.00    -0.508 OA
ATOM     13  H   UNL     1     -96.422  87.815 209.849  1.00  0.00     0.293 HD
ENDBRANCH   3  12
TORSDOF 1
ENDMDL
MODEL 9
REMARK VINA RESULT:    -4.746      2.590      3.984
REMARK INTER + INTRA:          -4.885
REMARK INTER:                  -4.885
REMARK INTRA:                   0.000
REMARK UNBOUND:                 0.000
REMARK SMILES O=c1ccc2ccc(O)cc2o1
REMARK SMILES IDX 6 1 7 2 8 3 10 4 11 5 5 6 4 7 3 8 2 9 1 10 12 11 9 12
REMARK H PARENT 9 13
REMARK Flexibility Score: inf
ROOT
ATOM      1  C   UNL     1     -97.408  83.195 207.296  1.00  0.00     0.016 A 
ATOM      2  C   UNL     1     -96.592  82.297 207.994  1.00  0.00     0.047 A 
ATOM      3  C   UNL     1     -95.797  82.746 209.060  1.00  0.00     0.119 A 
ATOM      4  C   UNL     1     -95.820  84.097 209.427  1.00  0.00     0.094 A 
ATOM      5  C   UNL     1     -96.632  85.001 208.734  1.00  0.00     0.142 A 
ATOM      6  C   UNL     1     -97.432  84.548 207.662  1.00  0.00     0.018 A 
ATOM      7  C   UNL     1     -98.233  85.475 206.989  1.00  0.00     0.019 A 
ATOM      8  C   UNL     1     -98.220  86.810 207.392  1.00  0.00     0.094 A 
ATOM      9  C   UNL     1     -97.403  87.187 208.463  1.00  0.00     0.336 A 
ATOM     10  O   UNL     1     -97.378  88.388 208.842  1.00  0.00    -0.246 OA
ATOM     11  O   UNL     1     -96.650  86.285 209.087  1.00  0.00    -0.423 OA
ENDROOT
BRANCH   3  12
ATOM     12  O   UNL     1     -94.983  81.858 209.759  1.00  0.00    -0.508 OA
ATOM     13  H   UNL     1     -94.152  82.174 210.246  1.00  0.00     0.293 HD
ENDBRANCH   3  12
TORSDOF 1
ENDMDL
