MODEL 1
REMARK VINA RESULT:    -3.317      0.000      0.000
REMARK INTER + INTRA:          -7.317
REMARK INTER:                  -5.643
REMARK INTRA:                  -1.673
REMARK UNBOUND:                -1.673
REMARK SMILES CCCCCCCCCCCCCC(=O)[O-]
REMARK SMILES IDX 8 1 9 2 10 3 11 4 12 5 13 6 14 7 15 8 16 9 7 10 6 11 5 12
REMARK SMILES IDX 4 13 3 14 2 15 1 16
REMARK H PARENT
REMARK Flexibility Score: inf
ROOT
ATOM      1  C   UNL     1       1.427  -7.052  -7.427  1.00  0.00     0.000 C 
ENDROOT
BRANCH   1   2
ATOM      2  C   UNL     1       1.429  -6.244  -8.740  1.00  0.00     0.000 C 
BRANCH   2   3
ATOM      3  C   UNL     1       1.778  -4.749  -8.590  1.00  0.00     0.000 C 
BRANCH   3   4
ATOM      4  C   UNL     1       2.498  -4.379  -7.282  1.00  0.00     0.000 C 
BRANCH   4   5
ATOM      5  C   UNL     1       3.541  -3.264  -7.471  1.00  0.00     0.006 C 
BRANCH   5   6
ATOM      6  C   UNL     1       3.234  -2.032  -6.610  1.00  0.00     0.053 C 
BRANCH   6   7
ATOM      7  C   UNL     1       2.221  -1.141  -7.262  1.00  0.00     0.041 C 
ATOM      8  O   UNL     1       1.044  -1.085  -6.816  1.00  0.00    -0.550 OA
ATOM      9  O   UNL     1       2.586  -0.345  -8.341  1.00  0.00    -0.550 OA
ENDBRANCH   6   7
ENDBRANCH   5   6
ENDBRANCH   4   5
ENDBRANCH   3   4
ENDBRANCH   2   3
ENDBRANCH   1   2
BRANCH   1  10
ATOM     10  C   UNL     1       2.539  -8.110  -7.316  1.00  0.00     0.000 C 
BRANCH  10  11
ATOM     11  C   UNL     1       3.000  -8.338  -5.866  1.00  0.00    -0.000 C 
BRANCH  11  12
ATOM     12  C   UNL     1       4.069  -7.327  -5.421  1.00  0.00    -0.000 C 
BRANCH  12  13
ATOM     13  C   UNL     1       5.065  -6.989  -6.542  1.00  0.00    -0.000 C 
BRANCH  13  14
ATOM     14  C   UNL     1       5.928  -5.777  -6.160  1.00  0.00    -0.000 C 
BRANCH  14  15
ATOM     15  C   UNL     1       5.590  -5.226  -4.767  1.00  0.00    -0.003 C 
ATOM     16  C   UNL     1       5.955  -3.750  -4.609  1.00  0.00     0.004 C 
ENDBRANCH  14  15
ENDBRANCH  13  14
ENDBRANCH  12  13
ENDBRANCH  11  12
ENDBRANCH  10  11
ENDBRANCH   1  10
TORSDOF 12
ENDMDL
MODEL 2
REMARK VINA RESULT:    -3.293      1.543      3.276
REMARK INTER + INTRA:          -7.276
REMARK INTER:                  -5.952
REMARK INTRA:                  -1.324
REMARK UNBOUND:                -1.673
REMARK SMILES CCCCCCCCCCCCCC(=O)[O-]
REMARK SMILES IDX 8 1 9 2 10 3 11 4 12 5 13 6 14 7 15 8 16 9 7 10 6 11 5 12
REMARK SMILES IDX 4 13 3 14 2 15 1 16
REMARK H PARENT
REMARK Flexibility Score: inf
ROOT
ATOM      1  C   UNL     1       4.274  -6.832  -5.492  1.00  0.00     0.000 C 
ENDROOT
BRANCH   1   2
ATOM      2  C   UNL     1       4.084  -6.186  -6.878  1.00  0.00     0.000 C 
BRANCH   2   3
ATOM      3  C   UNL     1       2.631  -5.811  -7.233  1.00  0.00     0.000 C 
BRANCH   3   4
ATOM      4  C   UNL     1       2.292  -4.316  -7.092  1.00  0.00     0.000 C 
BRANCH   4   5
ATOM      5  C   UNL     1       3.494  -3.403  -7.392  1.00  0.00     0.006 C 
BRANCH   5   6
ATOM      6  C   UNL     1       3.402  -2.065  -6.645  1.00  0.00     0.053 C 
BRANCH   6   7
ATOM      7  C   UNL     1       2.387  -1.155  -7.266  1.00  0.00     0.041 C 
ATOM      8  O   UNL     1       2.653  -0.541  -8.333  1.00  0.00    -0.550 OA
ATOM      9  O   UNL     1       1.134  -1.010  -6.682  1.00  0.00    -0.550 OA
ENDBRANCH   6   7
ENDBRANCH   5   6
ENDBRANCH   4   5
ENDBRANCH   3   4
ENDBRANCH   2   3
ENDBRANCH   1   2
BRANCH   1  10
ATOM     10  C   UNL     1       5.571  -6.436  -4.765  1.00  0.00     0.000 C 
BRANCH  10  11
ATOM     11  C   UNL     1       6.048  -5.019  -5.132  1.00  0.00    -0.000 C 
BRANCH  11  12
ATOM     12  C   UNL     1       5.705  -3.983  -4.049  1.00  0.00    -0.000 C 
BRANCH  12  13
ATOM     13  C   UNL     1       6.336  -2.610  -4.325  1.00  0.00    -0.000 C 
BRANCH  13  14
ATOM     14  C   UNL     1       7.166  -2.136  -3.122  1.00  0.00    -0.000 C 
BRANCH  14  15
ATOM     15  C   UNL     1       8.265  -3.137  -2.732  1.00  0.00    -0.003 C 
ATOM     16  C   UNL     1       9.531  -2.984  -3.575  1.00  0.00     0.004 C 
ENDBRANCH  14  15
ENDBRANCH  13  14
ENDBRANCH  12  13
ENDBRANCH  11  12
ENDBRANCH  10  11
ENDBRANCH   1  10
TORSDOF 12
ENDMDL
MODEL 3
REMARK VINA RESULT:    -3.265      2.677      5.679
REMARK INTER + INTRA:          -7.229
REMARK INTER:                  -5.958
REMARK INTRA:                  -1.272
REMARK UNBOUND:                -1.673
REMARK SMILES CCCCCCCCCCCCCC(=O)[O-]
REMARK SMILES IDX 8 1 9 2 10 3 11 4 12 5 13 6 14 7 15 8 16 9 7 10 6 11 5 12
REMARK SMILES IDX 4 13 3 14 2 15 1 16
REMARK H PARENT
REMARK Flexibility Score: inf
ROOT
ATOM      1  C   UNL     1       2.379  -4.494  -7.128  1.00  0.00     0.000 C 
ENDROOT
BRANCH   1   2
ATOM      2  C   UNL     1       2.885  -5.949  -7.133  1.00  0.00     0.000 C 
BRANCH   2   3
ATOM      3  C   UNL     1       4.401  -6.117  -6.899  1.00  0.00     0.000 C 
BRANCH   3   4
ATOM      4  C   UNL     1       4.858  -5.922  -5.443  1.00  0.00     0.000 C 
BRANCH   4   5
ATOM      5  C   UNL     1       5.560  -4.572  -5.215  1.00  0.00     0.006 C 
BRANCH   5   6
ATOM      6  C   UNL     1       5.993  -4.385  -3.755  1.00  0.00     0.053 C 
BRANCH   6   7
ATOM      7  C   UNL     1       6.159  -2.937  -3.409  1.00  0.00     0.041 C 
ATOM      8  O   UNL     1       7.042  -2.579  -2.585  1.00  0.00    -0.550 OA
ATOM      9  O   UNL     1       5.361  -1.979  -4.023  1.00  0.00    -0.550 OA
ENDBRANCH   6   7
ENDBRANCH   5   6
ENDBRANCH   4   5
ENDBRANCH   3   4
ENDBRANCH   2   3
ENDBRANCH   1   2
BRANCH   1  10
ATOM     10  C   UNL     1       2.698  -3.693  -8.403  1.00  0.00     0.000 C 
BRANCH  10  11
ATOM     11  C   UNL     1       3.461  -2.389  -8.109  1.00  0.00    -0.000 C 
BRANCH  11  12
ATOM     12  C   UNL     1       2.986  -1.706  -6.817  1.00  0.00    -0.000 C 
BRANCH  12  13
ATOM     13  C   UNL     1       1.826  -0.728  -7.058  1.00  0.00    -0.000 C 
BRANCH  13  14
ATOM     14  C   UNL     1       1.878  -0.157  -8.483  1.00  0.00    -0.000 C 
BRANCH  14  15
ATOM     15  C   UNL     1       0.549  -0.324  -9.235  1.00  0.00    -0.003 C 
ATOM     16  C   UNL     1      -0.311  -1.456  -8.673  1.00  0.00     0.004 C 
ENDBRANCH  14  15
ENDBRANCH  13  14
ENDBRANCH  12  13
ENDBRANCH  11  12
ENDBRANCH  10  11
ENDBRANCH   1  10
TORSDOF 12
ENDMDL
MODEL 4
REMARK VINA RESULT:    -3.200      1.572      2.535
REMARK INTER + INTRA:          -7.118
REMARK INTER:                  -5.563
REMARK INTRA:                  -1.555
REMARK UNBOUND:                -1.673
REMARK SMILES CCCCCCCCCCCCCC(=O)[O-]
REMARK SMILES IDX 8 1 9 2 10 3 11 4 12 5 13 6 14 7 15 8 16 9 7 10 6 11 5 12
REMARK SMILES IDX 4 13 3 14 2 15 1 16
REMARK H PARENT
REMARK Flexibility Score: inf
ROOT
ATOM      1  C   UNL     1       2.678  -5.571  -7.024  1.00  0.00     0.000 C 
ENDROOT
BRANCH   1   2
ATOM      2  C   UNL     1       2.273  -4.383  -7.917  1.00  0.00     0.000 C 
BRANCH   2   3
ATOM      3  C   UNL     1       3.446  -3.633  -8.583  1.00  0.00     0.000 C 
BRANCH   3   4
ATOM      4  C   UNL     1       3.582  -2.154  -8.181  1.00  0.00     0.000 C 
BRANCH   4   5
ATOM      5  C   UNL     1       2.784  -1.805  -6.913  1.00  0.00     0.006 C 
BRANCH   5   6
ATOM      6  C   UNL     1       1.919  -0.552  -7.102  1.00  0.00     0.053 C 
BRANCH   6   7
ATOM      7  C   UNL     1       1.012  -0.680  -8.288  1.00  0.00     0.041 C 
ATOM      8  O   UNL     1       1.121   0.115  -9.259  1.00  0.00    -0.550 OA
ATOM      9  O   UNL     1       0.069  -1.699  -8.335  1.00  0.00    -0.550 OA
ENDBRANCH   6   7
ENDBRANCH   5   6
ENDBRANCH   4   5
ENDBRANCH   3   4
ENDBRANCH   2   3
ENDBRANCH   1   2
BRANCH   1  10
ATOM     10  C   UNL     1       4.192  -5.837  -6.947  1.00  0.00     0.000 C 
BRANCH  10  11
ATOM     11  C   UNL     1       4.650  -6.255  -5.539  1.00  0.00    -0.000 C 
BRANCH  11  12
ATOM     12  C   UNL     1       5.524  -5.188  -4.861  1.00  0.00    -0.000 C 
BRANCH  12  13
ATOM     13  C   UNL     1       5.781  -3.973  -5.767  1.00  0.00    -0.000 C 
BRANCH  13  14
ATOM     14  C   UNL     1       5.802  -2.674  -4.947  1.00  0.00    -0.000 C 
BRANCH  14  15
ATOM     15  C   UNL     1       6.024  -2.924  -3.448  1.00  0.00    -0.003 C 
ATOM     16  C   UNL     1       7.295  -2.261  -2.919  1.00  0.00     0.004 C 
ENDBRANCH  14  15
ENDBRANCH  13  14
ENDBRANCH  12  13
ENDBRANCH  11  12
ENDBRANCH  10  11
ENDBRANCH   1  10
TORSDOF 12
ENDMDL
MODEL 5
REMARK VINA RESULT:    -3.106     14.126     15.877
REMARK INTER + INTRA:          -6.959
REMARK INTER:                  -5.251
REMARK INTRA:                  -1.707
REMARK UNBOUND:                -1.673
REMARK SMILES CCCCCCCCCCCCCC(=O)[O-]
REMARK SMILES IDX 8 1 9 2 10 3 11 4 12 5 13 6 14 7 15 8 16 9 7 10 6 11 5 12
REMARK SMILES IDX 4 13 3 14 2 15 1 16
REMARK H PARENT
REMARK Flexibility Score: inf
ROOT
ATOM      1  C   UNL     1       6.989   1.504   5.911  1.00  0.00     0.000 C 
ENDROOT
BRANCH   1   2
ATOM      2  C   UNL     1       7.467   1.086   7.316  1.00  0.00     0.000 C 
BRANCH   2   3
ATOM      3  C   UNL     1       6.526   1.480   8.473  1.00  0.00     0.000 C 
BRANCH   3   4
ATOM      4  C   UNL     1       5.505   2.580   8.133  1.00  0.00     0.000 C 
BRANCH   4   5
ATOM      5  C   UNL     1       5.945   3.971   8.620  1.00  0.00     0.006 C 
BRANCH   5   6
ATOM      6  C   UNL     1       6.486   4.839   7.476  1.00  0.00     0.053 C 
BRANCH   6   7
ATOM      7  C   UNL     1       5.389   5.299   6.565  1.00  0.00     0.041 C 
ATOM      8  O   UNL     1       4.683   6.295   6.873  1.00  0.00    -0.550 OA
ATOM      9  O   UNL     1       5.169   4.647   5.357  1.00  0.00    -0.550 OA
ENDBRANCH   6   7
ENDBRANCH   5   6
ENDBRANCH   4   5
ENDBRANCH   3   4
ENDBRANCH   2   3
ENDBRANCH   1   2
BRANCH   1  10
ATOM     10  C   UNL     1       8.056   2.196   5.044  1.00  0.00     0.000 C 
BRANCH  10  11
ATOM     11  C   UNL     1       9.312   2.583   5.845  1.00  0.00    -0.000 C 
BRANCH  11  12
ATOM     12  C   UNL     1      10.561   1.810   5.392  1.00  0.00    -0.000 C 
BRANCH  12  13
ATOM     13  C   UNL     1      10.268   0.838   4.238  1.00  0.00    -0.000 C 
BRANCH  13  14
ATOM     14  C   UNL     1      10.785  -0.571   4.565  1.00  0.00    -0.000 C 
BRANCH  14  15
ATOM     15  C   UNL     1       9.664  -1.523   5.008  1.00  0.00    -0.003 C 
ATOM     16  C   UNL     1       9.675  -1.792   6.512  1.00  0.00     0.004 C 
ENDBRANCH  14  15
ENDBRANCH  13  14
ENDBRANCH  12  13
ENDBRANCH  11  12
ENDBRANCH  10  11
ENDBRANCH   1  10
TORSDOF 12
ENDMDL
MODEL 6
REMARK VINA RESULT:    -3.106      1.923      4.257
REMARK INTER + INTRA:          -6.958
REMARK INTER:                  -5.555
REMARK INTRA:                  -1.403
REMARK UNBOUND:                -1.673
REMARK SMILES CCCCCCCCCCCCCC(=O)[O-]
REMARK SMILES IDX 8 1 9 2 10 3 11 4 12 5 13 6 14 7 15 8 16 9 7 10 6 11 5 12
REMARK SMILES IDX 4 13 3 14 2 15 1 16
REMARK H PARENT
REMARK Flexibility Score: inf
ROOT
ATOM      1  C   UNL     1       5.909  -5.074  -5.049  1.00  0.00     0.000 C 
ENDROOT
BRANCH   1   2
ATOM      2  C   UNL     1       4.939  -6.262  -5.198  1.00  0.00     0.000 C 
BRANCH   2   3
ATOM      3  C   UNL     1       3.847  -6.087  -6.273  1.00  0.00     0.000 C 
BRANCH   3   4
ATOM      4  C   UNL     1       4.046  -4.882  -7.210  1.00  0.00     0.000 C 
BRANCH   4   5
ATOM      5  C   UNL     1       2.821  -3.953  -7.253  1.00  0.00     0.006 C 
BRANCH   5   6
ATOM      6  C   UNL     1       3.185  -2.501  -6.915  1.00  0.00     0.053 C 
BRANCH   6   7
ATOM      7  C   UNL     1       2.164  -1.538  -7.440  1.00  0.00     0.041 C 
ATOM      8  O   UNL     1       1.353  -0.983  -6.654  1.00  0.00    -0.550 OA
ATOM      9  O   UNL     1       2.132  -1.229  -8.795  1.00  0.00    -0.550 OA
ENDBRANCH   6   7
ENDBRANCH   5   6
ENDBRANCH   4   5
ENDBRANCH   3   4
ENDBRANCH   2   3
ENDBRANCH   1   2
BRANCH   1  10
ATOM     10  C   UNL     1       5.941  -4.437  -3.648  1.00  0.00     0.000 C 
BRANCH  10  11
ATOM     11  C   UNL     1       5.937  -2.899  -3.696  1.00  0.00    -0.000 C 
BRANCH  11  12
ATOM     12  C   UNL     1       7.123  -2.283  -2.937  1.00  0.00    -0.000 C 
BRANCH  12  13
ATOM     13  C   UNL     1       8.379  -2.148  -3.812  1.00  0.00    -0.000 C 
BRANCH  13  14
ATOM     14  C   UNL     1       8.057  -1.415  -5.123  1.00  0.00    -0.000 C 
BRANCH  14  15
ATOM     15  C   UNL     1       8.372  -2.260  -6.366  1.00  0.00    -0.003 C 
ATOM     16  C   UNL     1       7.172  -2.407  -7.302  1.00  0.00     0.004 C 
ENDBRANCH  14  15
ENDBRANCH  13  14
ENDBRANCH  12  13
ENDBRANCH  11  12
ENDBRANCH  10  11
ENDBRANCH   1  10
TORSDOF 12
ENDMDL
MODEL 7
REMARK VINA RESULT:    -3.052      1.610      3.674
REMARK INTER + INTRA:          -6.866
REMARK INTER:                  -4.842
REMARK INTRA:                  -2.024
REMARK UNBOUND:                -1.673
REMARK SMILES CCCCCCCCCCCCCC(=O)[O-]
REMARK SMILES IDX 8 1 9 2 10 3 11 4 12 5 13 6 14 7 15 8 16 9 7 10 6 11 5 12
REMARK SMILES IDX 4 13 3 14 2 15 1 16
REMARK H PARENT
REMARK Flexibility Score: inf
ROOT
ATOM      1  C   UNL     1       3.910  -6.943  -5.852  1.00  0.00     0.000 C 
ENDROOT
BRANCH   1   2
ATOM      2  C   UNL     1       4.519  -5.926  -6.836  1.00  0.00     0.000 C 
BRANCH   2   3
ATOM      3  C   UNL     1       4.195  -4.448  -6.536  1.00  0.00     0.000 C 
BRANCH   3   4
ATOM      4  C   UNL     1       3.352  -3.737  -7.609  1.00  0.00     0.000 C 
BRANCH   4   5
ATOM      5  C   UNL     1       1.849  -3.730  -7.278  1.00  0.00     0.006 C 
BRANCH   5   6
ATOM      6  C   UNL     1       1.046  -2.866  -8.259  1.00  0.00     0.053 C 
BRANCH   6   7
ATOM      7  C   UNL     1       1.232  -1.405  -7.989  1.00  0.00     0.041 C 
ATOM      8  O   UNL     1       1.383  -0.597  -8.943  1.00  0.00    -0.550 OA
ATOM      9  O   UNL     1       1.204  -0.930  -6.683  1.00  0.00    -0.550 OA
ENDBRANCH   6   7
ENDBRANCH   5   6
ENDBRANCH   4   5
ENDBRANCH   3   4
ENDBRANCH   2   3
ENDBRANCH   1   2
BRANCH   1  10
ATOM     10  C   UNL     1       2.978  -7.986  -6.493  1.00  0.00     0.000 C 
BRANCH  10  11
ATOM     11  C   UNL     1       1.663  -7.372  -7.005  1.00  0.00    -0.000 C 
BRANCH  11  12
ATOM     12  C   UNL     1       1.321  -7.821  -8.435  1.00  0.00    -0.000 C 
BRANCH  12  13
ATOM     13  C   UNL     1       1.342  -6.658  -9.440  1.00  0.00    -0.000 C 
BRANCH  13  14
ATOM     14  C   UNL     1       2.734  -6.505 -10.071  1.00  0.00    -0.000 C 
BRANCH  14  15
ATOM     15  C   UNL     1       3.401  -7.857 -10.365  1.00  0.00    -0.003 C 
ATOM     16  C   UNL     1       4.864  -7.904  -9.922  1.00  0.00     0.004 C 
ENDBRANCH  14  15
ENDBRANCH  13  14
ENDBRANCH  12  13
ENDBRANCH  11  12
ENDBRANCH  10  11
ENDBRANCH   1  10
TORSDOF 12
ENDMDL
MODEL 8
REMARK VINA RESULT:    -3.035      1.385      3.596
REMARK INTER + INTRA:          -6.838
REMARK INTER:                  -5.227
REMARK INTRA:                  -1.610
REMARK UNBOUND:                -1.673
REMARK SMILES CCCCCCCCCCCCCC(=O)[O-]
REMARK SMILES IDX 8 1 9 2 10 3 11 4 12 5 13 6 14 7 15 8 16 9 7 10 6 11 5 12
REMARK SMILES IDX 4 13 3 14 2 15 1 16
REMARK H PARENT
REMARK Flexibility Score: inf
ROOT
ATOM      1  C   UNL     1       5.371  -6.508  -6.977  1.00  0.00     0.000 C 
ENDROOT
BRANCH   1   2
ATOM      2  C   UNL     1       4.933  -5.329  -7.867  1.00  0.00     0.000 C 
BRANCH   2   3
ATOM      3  C   UNL     1       4.079  -4.256  -7.160  1.00  0.00     0.000 C 
BRANCH   3   4
ATOM      4  C   UNL     1       3.067  -3.531  -8.064  1.00  0.00     0.000 C 
BRANCH   4   5
ATOM      5  C   UNL     1       1.655  -3.478  -7.456  1.00  0.00     0.006 C 
BRANCH   5   6
ATOM      6  C   UNL     1       0.772  -2.424  -8.136  1.00  0.00     0.053 C 
BRANCH   6   7
ATOM      7  C   UNL     1       1.218  -1.032  -7.804  1.00  0.00     0.041 C 
ATOM      8  O   UNL     1       1.416  -0.698  -6.606  1.00  0.00    -0.550 OA
ATOM      9  O   UNL     1       1.449  -0.114  -8.822  1.00  0.00    -0.550 OA
ENDBRANCH   6   7
ENDBRANCH   5   6
ENDBRANCH   4   5
ENDBRANCH   3   4
ENDBRANCH   2   3
ENDBRANCH   1   2
BRANCH   1  10
ATOM     10  C   UNL     1       4.754  -6.520  -5.567  1.00  0.00     0.000 C 
BRANCH  10  11
ATOM     11  C   UNL     1       4.005  -7.828  -5.258  1.00  0.00    -0.000 C 
BRANCH  11  12
ATOM     12  C   UNL     1       3.428  -8.490  -6.520  1.00  0.00    -0.000 C 
BRANCH  12  13
ATOM     13  C   UNL     1       1.898  -8.380  -6.598  1.00  0.00    -0.000 C 
BRANCH  13  14
ATOM     14  C   UNL     1       1.478  -7.098  -7.332  1.00  0.00    -0.000 C 
BRANCH  14  15
ATOM     15  C   UNL     1       1.842  -7.125  -8.824  1.00  0.00    -0.003 C 
ATOM     16  C   UNL     1       1.123  -8.235  -9.590  1.00  0.00     0.004 C 
ENDBRANCH  14  15
ENDBRANCH  13  14
ENDBRANCH  12  13
ENDBRANCH  11  12
ENDBRANCH  10  11
ENDBRANCH   1  10
TORSDOF 12
ENDMDL
MODEL 9
REMARK VINA RESULT:    -2.993      2.606      4.491
REMARK INTER + INTRA:          -6.766
REMARK INTER:                  -5.285
REMARK INTRA:                  -1.481
REMARK UNBOUND:                -1.673
REMARK SMILES CCCCCCCCCCCCCC(=O)[O-]
REMARK SMILES IDX 8 1 9 2 10 3 11 4 12 5 13 6 14 7 15 8 16 9 7 10 6 11 5 12
REMARK SMILES IDX 4 13 3 14 2 15 1 16
REMARK H PARENT
REMARK Flexibility Score: inf
ROOT
ATOM      1  C   UNL     1       3.727  -7.697  -6.670  1.00  0.00     0.000 C 
ENDROOT
BRANCH   1   2
ATOM      2  C   UNL     1       4.354  -7.616  -5.265  1.00  0.00     0.000 C 
BRANCH   2   3
ATOM      3  C   UNL     1       5.128  -6.316  -4.966  1.00  0.00     0.000 C 
BRANCH   3   4
ATOM      4  C   UNL     1       4.844  -5.154  -5.933  1.00  0.00     0.000 C 
BRANCH   4   5
ATOM      5  C   UNL     1       5.938  -4.072  -5.903  1.00  0.00     0.006 C 
BRANCH   5   6
ATOM      6  C   UNL     1       5.557  -2.890  -5.003  1.00  0.00     0.053 C 
BRANCH   6   7
ATOM      7  C   UNL     1       6.703  -2.462  -4.138  1.00  0.00     0.041 C 
ATOM      8  O   UNL     1       7.712  -1.909  -4.648  1.00  0.00    -0.550 OA
ATOM      9  O   UNL     1       6.640  -2.644  -2.761  1.00  0.00    -0.550 OA
ENDBRANCH   6   7
ENDBRANCH   5   6
ENDBRANCH   4   5
ENDBRANCH   3   4
ENDBRANCH   2   3
ENDBRANCH   1   2
BRANCH   1  10
ATOM     10  C   UNL     1       2.201  -7.893  -6.688  1.00  0.00     0.000 C 
BRANCH  10  11
ATOM     11  C   UNL     1       1.464  -6.750  -7.407  1.00  0.00    -0.000 C 
BRANCH  11  12
ATOM     12  C   UNL     1       2.212  -6.260  -8.657  1.00  0.00    -0.000 C 
BRANCH  12  13
ATOM     13  C   UNL     1       2.485  -4.749  -8.629  1.00  0.00    -0.000 C 
BRANCH  13  14
ATOM     14  C   UNL     1       1.819  -4.095  -7.408  1.00  0.00    -0.000 C 
BRANCH  14  15
ATOM     15  C   UNL     1       2.012  -2.572  -7.375  1.00  0.00    -0.003 C 
ATOM     16  C   UNL     1       3.358  -2.133  -7.951  1.00  0.00     0.004 C 
ENDBRANCH  14  15
ENDBRANCH  13  14
ENDBRANCH  12  13
ENDBRANCH  11  12
ENDBRANCH  10  11
ENDBRANCH   1  10
TORSDOF 12
ENDMDL
