MODEL 1
REMARK VINA RESULT:    71.312      0.000      0.000
REMARK INTER + INTRA:         102.444
REMARK INTER:                 102.579
REMARK INTRA:                  -0.136
REMARK UNBOUND:                -0.136
REMARK SMILES O=c1c(O[C@@H]2O[C@@H](CO)[C@@H](O)[C@H](O)[C@H]2O)c(-c2ccc(O)cc2)oc2cc(O)cc(O)c12
REMARK SMILES IDX 4 1 3 2 16 3 24 4 2 5 25 6 1 7 32 8 26 9 30 10 27 11 29 12
REMARK SMILES IDX 17 13 18 14 19 15 20 16 23 17 22 18 21 19 31 21 28 23 5 25
REMARK SMILES IDX 14 26 6 27 12 28 7 29 10 30 15 31 13 33 8 35 9 36 11 38
REMARK H PARENT 21 20 31 22 28 24 15 32 13 34 9 37 11 39
REMARK Flexibility Score: inf
ROOT
ATOM      1  O   UNL     1     -31.622  30.937 -16.634  1.00  0.00    -0.454 OA
ENDROOT
BRANCH   1   2
ATOM      2  C   UNL     1     -31.199  29.606 -16.522  1.00  0.00     0.214 A 
ATOM      3  C   UNL     1     -30.751  28.872 -17.646  1.00  0.00     0.180 A 
ATOM      4  O   UNL     1     -30.258  27.650 -17.459  1.00  0.00    -0.452 OA
ATOM      5  C   UNL     1     -31.254  28.959 -15.274  1.00  0.00     0.239 A 
ATOM      6  C   UNL     1     -30.228  27.033 -16.289  1.00  0.00     0.146 A 
ATOM      7  O   UNL     1     -31.722  29.589 -14.290  1.00  0.00    -0.285 OA
ATOM      8  C   UNL     1     -30.774  27.638 -15.132  1.00  0.00     0.111 A 
ATOM      9  C   UNL     1     -29.659  25.762 -16.222  1.00  0.00     0.094 A 
ATOM     10  C   UNL     1     -30.753  26.903 -13.904  1.00  0.00     0.134 A 
ATOM     11  C   UNL     1     -29.594  25.075 -15.010  1.00  0.00     0.123 A 
ATOM     12  C   UNL     1     -30.114  25.659 -13.856  1.00  0.00     0.093 A 
BRANCH   3  13
ATOM     13  C   UNL     1     -30.824  29.358 -19.051  1.00  0.00     0.021 A 
ATOM     14  C   UNL     1     -31.470  30.586 -19.302  1.00  0.00     0.016 A 
ATOM     15  C   UNL     1     -31.384  31.196 -20.551  1.00  0.00     0.047 A 
ATOM     16  C   UNL     1     -30.692  30.577 -21.589  1.00  0.00     0.115 A 
ATOM     17  C   UNL     1     -30.139  28.738 -20.114  1.00  0.00     0.016 A 
ATOM     18  C   UNL     1     -30.099  29.337 -21.379  1.00  0.00     0.047 A 
BRANCH  16  19
ATOM     19  O   UNL     1     -30.574  31.192 -22.834  1.00  0.00    -0.508 OA
ATOM     20  H   UNL     1     -31.041  30.812 -23.652  1.00  0.00     0.293 HD
ENDBRANCH  16  19
ENDBRANCH   3  13
BRANCH  10  21
ATOM     21  O   UNL     1     -31.371  27.333 -12.726  1.00  0.00    -0.507 OA
ATOM     22  H   UNL     1     -31.897  28.194 -12.643  1.00  0.00     0.293 HD
ENDBRANCH  10  21
BRANCH  11  23
ATOM     23  O   UNL     1     -29.045  23.794 -14.959  1.00  0.00    -0.508 OA
ATOM     24  H   UNL     1     -29.565  23.038 -14.496  1.00  0.00     0.293 HD
ENDBRANCH  11  23
ENDBRANCH   1   2
BRANCH   1  25
ATOM     25  C   UNL     1     -30.789  32.077 -16.379  1.00  0.00     0.339 C 
ATOM     26  C   UNL     1     -31.601  33.386 -16.482  1.00  0.00     0.214 C 
ATOM     27  O   UNL     1     -30.172  31.974 -15.105  1.00  0.00    -0.332 OA
ATOM     28  C   UNL     1     -30.847  34.611 -15.886  1.00  0.00     0.180 C 
ATOM     29  C   UNL     1     -29.162  32.967 -14.914  1.00  0.00     0.179 C 
ATOM     30  C   UNL     1     -29.353  34.295 -15.718  1.00  0.00     0.177 C 
BRANCH  26  31
ATOM     31  O   UNL     1     -31.977  33.625 -17.821  1.00  0.00    -0.384 OA
ATOM     32  H   UNL     1     -32.816  33.119 -17.991  1.00  0.00     0.211 HD
ENDBRANCH  26  31
BRANCH  28  33
ATOM     33  O   UNL     1     -31.409  34.955 -14.640  1.00  0.00    -0.387 OA
ATOM     34  H   UNL     1     -31.805  34.127 -14.263  1.00  0.00     0.211 HD
ENDBRANCH  28  33
BRANCH  29  35
ATOM     35  C   UNL     1     -27.761  32.355 -15.093  1.00  0.00     0.191 C 
BRANCH  35  36
ATOM     36  O   UNL     1     -27.628  31.757 -16.359  1.00  0.00    -0.394 OA
ATOM     37  H   UNL     1     -27.282  30.839 -16.236  1.00  0.00     0.210 HD
ENDBRANCH  35  36
ENDBRANCH  29  35
BRANCH  30  38
ATOM     38  O   UNL     1     -28.741  34.200 -16.982  1.00  0.00    -0.387 OA
ATOM     39  H   UNL     1     -29.217  33.485 -17.485  1.00  0.00     0.211 HD
ENDBRANCH  30  38
ENDBRANCH   1  25
TORSDOF 11
ENDMDL
