MODEL 1
REMARK VINA RESULT:    -5.556      0.000      0.000
REMARK INTER + INTRA:         -12.930
REMARK INTER:                 -10.754
REMARK INTRA:                  -2.176
REMARK UNBOUND:                -2.176
REMARK SMILES CCCCCCCCCCCCCCCCCC(=O)[O-]
REMARK SMILES IDX 10 1 11 2 12 3 13 4 14 5 15 6 16 7 17 8 18 9 19 10 20 11
REMARK SMILES IDX 9 12 8 13 7 14 6 15 5 16 4 17 3 18 2 19 1 20
REMARK H PARENT
REMARK Flexibility Score: inf
ROOT
ATOM      1  C   UNL     1     -27.509   0.197  22.238  1.00  0.00     0.000 C 
ENDROOT
BRANCH   1   2
ATOM      2  C   UNL     1     -27.369  -1.111  21.442  1.00  0.00     0.000 C 
BRANCH   2   3
ATOM      3  C   UNL     1     -28.170  -1.097  20.131  1.00  0.00     0.000 C 
BRANCH   3   4
ATOM      4  C   UNL     1     -28.990  -2.382  19.975  1.00  0.00     0.000 C 
BRANCH   4   5
ATOM      5  C   UNL     1     -29.007  -2.849  18.512  1.00  0.00     0.000 C 
BRANCH   5   6
ATOM      6  C   UNL     1     -28.240  -1.906  17.570  1.00  0.00     0.000 C 
BRANCH   6   7
ATOM      7  C   UNL     1     -28.037  -2.432  16.135  1.00  0.00     0.006 C 
BRANCH   7   8
ATOM      8  C   UNL     1     -28.518  -3.880  15.923  1.00  0.00     0.053 C 
BRANCH   8   9
ATOM      9  C   UNL     1     -29.606  -3.982  14.898  1.00  0.00     0.041 C 
ATOM     10  O   UNL     1     -30.480  -3.081  14.805  1.00  0.00    -0.550 OA
ATOM     11  O   UNL     1     -29.679  -5.095  14.069  1.00  0.00    -0.550 OA
ENDBRANCH   8   9
ENDBRANCH   7   8
ENDBRANCH   6   7
ENDBRANCH   5   6
ENDBRANCH   4   5
ENDBRANCH   3   4
ENDBRANCH   2   3
ENDBRANCH   1   2
BRANCH   1  12
ATOM     12  C   UNL     1     -26.829   0.126  23.616  1.00  0.00     0.000 C 
BRANCH  12  13
ATOM     13  C   UNL     1     -27.049  -1.227  24.312  1.00  0.00    -0.000 C 
BRANCH  13  14
ATOM     14  C   UNL     1     -27.953  -1.115  25.554  1.00  0.00    -0.000 C 
BRANCH  14  15
ATOM     15  C   UNL     1     -28.118   0.336  26.033  1.00  0.00    -0.000 C 
BRANCH  15  16
ATOM     16  C   UNL     1     -29.593   0.765  26.127  1.00  0.00    -0.000 C 
BRANCH  16  17
ATOM     17  C   UNL     1     -30.519  -0.153  25.302  1.00  0.00    -0.000 C 
BRANCH  17  18
ATOM     18  C   UNL     1     -30.757   0.342  23.865  1.00  0.00    -0.000 C 
BRANCH  18  19
ATOM     19  C   UNL     1     -31.193  -0.778  22.911  1.00  0.00    -0.003 C 
ATOM     20  C   UNL     1     -30.627  -2.125  23.350  1.00  0.00     0.004 C 
ENDBRANCH  18  19
ENDBRANCH  17  18
ENDBRANCH  16  17
ENDBRANCH  15  16
ENDBRANCH  14  15
ENDBRANCH  13  14
ENDBRANCH  12  13
ENDBRANCH   1  12
TORSDOF 16
ENDMDL
MODEL 2
REMARK VINA RESULT:    -5.545      1.364      3.122
REMARK INTER + INTRA:         -12.907
REMARK INTER:                 -10.664
REMARK INTRA:                  -2.243
REMARK UNBOUND:                -2.176
REMARK SMILES CCCCCCCCCCCCCCCCCC(=O)[O-]
REMARK SMILES IDX 10 1 11 2 12 3 13 4 14 5 15 6 16 7 17 8 18 9 19 10 20 11
REMARK SMILES IDX 9 12 8 13 7 14 6 15 5 16 4 17 3 18 2 19 1 20
REMARK H PARENT
REMARK Flexibility Score: inf
ROOT
ATOM      1  C   UNL     1     -29.735   0.913  22.583  1.00  0.00     0.000 C 
ENDROOT
BRANCH   1   2
ATOM      2  C   UNL     1     -29.310   0.042  21.389  1.00  0.00     0.000 C 
BRANCH   2   3
ATOM      3  C   UNL     1     -27.796  -0.222  21.357  1.00  0.00     0.000 C 
BRANCH   3   4
ATOM      4  C   UNL     1     -27.478  -1.493  20.562  1.00  0.00     0.000 C 
BRANCH   4   5
ATOM      5  C   UNL     1     -28.034  -1.403  19.134  1.00  0.00     0.000 C 
BRANCH   5   6
ATOM      6  C   UNL     1     -28.957  -2.578  18.772  1.00  0.00     0.000 C 
BRANCH   6   7
ATOM      7  C   UNL     1     -28.932  -3.001  17.290  1.00  0.00     0.006 C 
BRANCH   7   8
ATOM      8  C   UNL     1     -27.997  -2.151  16.410  1.00  0.00     0.053 C 
BRANCH   8   9
ATOM      9  C   UNL     1     -27.812  -2.728  15.039  1.00  0.00     0.041 C 
ATOM     10  O   UNL     1     -28.088  -3.936  14.814  1.00  0.00    -0.550 OA
ATOM     11  O   UNL     1     -27.293  -1.943  14.017  1.00  0.00    -0.550 OA
ENDBRANCH   8   9
ENDBRANCH   7   8
ENDBRANCH   6   7
ENDBRANCH   5   6
ENDBRANCH   4   5
ENDBRANCH   3   4
ENDBRANCH   2   3
ENDBRANCH   1   2
BRANCH   1  12
ATOM     12  C   UNL     1     -30.863   0.271  23.409  1.00  0.00     0.000 C 
BRANCH  12  13
ATOM     13  C   UNL     1     -31.147  -1.181  22.991  1.00  0.00    -0.000 C 
BRANCH  13  14
ATOM     14  C   UNL     1     -30.603  -2.206  24.003  1.00  0.00    -0.000 C 
BRANCH  14  15
ATOM     15  C   UNL     1     -29.142  -2.591  23.725  1.00  0.00    -0.000 C 
BRANCH  15  16
ATOM     16  C   UNL     1     -28.209  -2.272  24.907  1.00  0.00    -0.000 C 
BRANCH  16  17
ATOM     17  C   UNL     1     -27.362  -1.007  24.654  1.00  0.00    -0.000 C 
BRANCH  17  18
ATOM     18  C   UNL     1     -27.672   0.145  25.627  1.00  0.00    -0.000 C 
BRANCH  18  19
ATOM     19  C   UNL     1     -28.656  -0.257  26.734  1.00  0.00    -0.003 C 
ATOM     20  C   UNL     1     -29.771   0.775  26.878  1.00  0.00     0.004 C 
ENDBRANCH  18  19
ENDBRANCH  17  18
ENDBRANCH  16  17
ENDBRANCH  15  16
ENDBRANCH  14  15
ENDBRANCH  13  14
ENDBRANCH  12  13
ENDBRANCH   1  12
TORSDOF 16
ENDMDL
MODEL 3
REMARK VINA RESULT:    -5.476      1.588      2.586
REMARK INTER + INTRA:         -12.774
REMARK INTER:                 -10.446
REMARK INTRA:                  -2.328
REMARK UNBOUND:                -2.176
REMARK SMILES CCCCCCCCCCCCCCCCCC(=O)[O-]
REMARK SMILES IDX 10 1 11 2 12 3 13 4 14 5 15 6 16 7 17 8 18 9 19 10 20 11
REMARK SMILES IDX 9 12 8 13 7 14 6 15 5 16 4 17 3 18 2 19 1 20
REMARK H PARENT
REMARK Flexibility Score: inf
ROOT
ATOM      1  C   UNL     1     -28.647  -2.506  22.299  1.00  0.00     0.000 C 
ENDROOT
BRANCH   1   2
ATOM      2  C   UNL     1     -30.018  -1.934  21.906  1.00  0.00     0.000 C 
BRANCH   2   3
ATOM      3  C   UNL     1     -30.085  -1.512  20.430  1.00  0.00     0.000 C 
BRANCH   3   4
ATOM      4  C   UNL     1     -28.795  -0.804  20.003  1.00  0.00     0.000 C 
BRANCH   4   5
ATOM      5  C   UNL     1     -28.160  -1.501  18.790  1.00  0.00     0.000 C 
BRANCH   5   6
ATOM      6  C   UNL     1     -28.991  -2.688  18.276  1.00  0.00     0.000 C 
BRANCH   6   7
ATOM      7  C   UNL     1     -28.696  -3.118  16.825  1.00  0.00     0.006 C 
BRANCH   7   8
ATOM      8  C   UNL     1     -28.136  -1.989  15.938  1.00  0.00     0.053 C 
BRANCH   8   9
ATOM      9  C   UNL     1     -27.611  -2.492  14.628  1.00  0.00     0.041 C 
ATOM     10  O   UNL     1     -27.945  -3.629  14.202  1.00  0.00    -0.550 OA
ATOM     11  O   UNL     1     -26.719  -1.721  13.894  1.00  0.00    -0.550 OA
ENDBRANCH   8   9
ENDBRANCH   7   8
ENDBRANCH   6   7
ENDBRANCH   5   6
ENDBRANCH   4   5
ENDBRANCH   3   4
ENDBRANCH   2   3
ENDBRANCH   1   2
BRANCH   1  12
ATOM     12  C   UNL     1     -28.478  -2.642  23.822  1.00  0.00     0.000 C 
BRANCH  12  13
ATOM     13  C   UNL     1     -27.332  -1.773  24.367  1.00  0.00    -0.000 C 
BRANCH  13  14
ATOM     14  C   UNL     1     -26.780  -0.793  23.316  1.00  0.00    -0.000 C 
BRANCH  14  15
ATOM     15  C   UNL     1     -27.137   0.669  23.629  1.00  0.00    -0.000 C 
BRANCH  15  16
ATOM     16  C   UNL     1     -28.552   1.047  23.158  1.00  0.00    -0.000 C 
BRANCH  16  17
ATOM     17  C   UNL     1     -29.506   1.319  24.340  1.00  0.00    -0.000 C 
BRANCH  17  18
ATOM     18  C   UNL     1     -30.557   0.215  24.548  1.00  0.00    -0.000 C 
BRANCH  18  19
ATOM     19  C   UNL     1     -30.580  -0.324  25.986  1.00  0.00    -0.003 C 
ATOM     20  C   UNL     1     -29.431   0.255  26.808  1.00  0.00     0.004 C 
ENDBRANCH  18  19
ENDBRANCH  17  18
ENDBRANCH  16  17
ENDBRANCH  15  16
ENDBRANCH  14  15
ENDBRANCH  13  14
ENDBRANCH  12  13
ENDBRANCH   1  12
TORSDOF 16
ENDMDL
MODEL 4
REMARK VINA RESULT:    -5.412      1.152      2.027
REMARK INTER + INTRA:         -12.649
REMARK INTER:                 -10.735
REMARK INTRA:                  -1.915
REMARK UNBOUND:                -2.176
REMARK SMILES CCCCCCCCCCCCCCCCCC(=O)[O-]
REMARK SMILES IDX 10 1 11 2 12 3 13 4 14 5 15 6 16 7 17 8 18 9 19 10 20 11
REMARK SMILES IDX 9 12 8 13 7 14 6 15 5 16 4 17 3 18 2 19 1 20
REMARK H PARENT
REMARK Flexibility Score: inf
ROOT
ATOM      1  C   UNL     1     -27.474  -1.125  21.156  1.00  0.00     0.000 C 
ENDROOT
BRANCH   1   2
ATOM      2  C   UNL     1     -27.864  -1.409  19.696  1.00  0.00     0.000 C 
BRANCH   2   3
ATOM      3  C   UNL     1     -28.983  -2.455  19.572  1.00  0.00     0.000 C 
BRANCH   3   4
ATOM      4  C   UNL     1     -29.130  -2.933  18.124  1.00  0.00     0.000 C 
BRANCH   4   5
ATOM      5  C   UNL     1     -28.141  -2.206  17.201  1.00  0.00     0.000 C 
BRANCH   5   6
ATOM      6  C   UNL     1     -28.429  -2.437  15.708  1.00  0.00     0.000 C 
BRANCH   6   7
ATOM      7  C   UNL     1     -27.627  -3.579  15.053  1.00  0.00     0.006 C 
BRANCH   7   8
ATOM      8  C   UNL     1     -28.430  -4.401  14.026  1.00  0.00     0.053 C 
BRANCH   8   9
ATOM      9  C   UNL     1     -29.731  -4.899  14.577  1.00  0.00     0.041 C 
ATOM     10  O   UNL     1     -29.751  -5.626  15.605  1.00  0.00    -0.550 OA
ATOM     11  O   UNL     1     -30.922  -4.595  13.930  1.00  0.00    -0.550 OA
ENDBRANCH   8   9
ENDBRANCH   7   8
ENDBRANCH   6   7
ENDBRANCH   5   6
ENDBRANCH   4   5
ENDBRANCH   3   4
ENDBRANCH   2   3
ENDBRANCH   1   2
BRANCH   1  12
ATOM     12  C   UNL     1     -28.010   0.226  21.659  1.00  0.00     0.000 C 
BRANCH  12  13
ATOM     13  C   UNL     1     -27.405   0.632  23.013  1.00  0.00    -0.000 C 
BRANCH  13  14
ATOM     14  C   UNL     1     -26.755  -0.553  23.751  1.00  0.00    -0.000 C 
BRANCH  14  15
ATOM     15  C   UNL     1     -27.319  -0.746  25.167  1.00  0.00    -0.000 C 
BRANCH  15  16
ATOM     16  C   UNL     1     -28.775  -1.245  25.161  1.00  0.00    -0.000 C 
BRANCH  16  17
ATOM     17  C   UNL     1     -28.988  -2.407  24.168  1.00  0.00    -0.000 C 
BRANCH  17  18
ATOM     18  C   UNL     1     -30.231  -2.235  23.277  1.00  0.00    -0.000 C 
BRANCH  18  19
ATOM     19  C   UNL     1     -31.145  -1.093  23.742  1.00  0.00    -0.003 C 
ATOM     20  C   UNL     1     -31.531  -0.188  22.576  1.00  0.00     0.004 C 
ENDBRANCH  18  19
ENDBRANCH  17  18
ENDBRANCH  16  17
ENDBRANCH  15  16
ENDBRANCH  14  15
ENDBRANCH  13  14
ENDBRANCH  12  13
ENDBRANCH   1  12
TORSDOF 16
ENDMDL
MODEL 5
REMARK VINA RESULT:    -5.297      7.217     11.420
REMARK INTER + INTRA:         -12.428
REMARK INTER:                 -10.713
REMARK INTRA:                  -1.715
REMARK UNBOUND:                -2.176
REMARK SMILES CCCCCCCCCCCCCCCCCC(=O)[O-]
REMARK SMILES IDX 10 1 11 2 12 3 13 4 14 5 15 6 16 7 17 8 18 9 19 10 20 11
REMARK SMILES IDX 9 12 8 13 7 14 6 15 5 16 4 17 3 18 2 19 1 20
REMARK H PARENT
REMARK Flexibility Score: inf
ROOT
ATOM      1  C   UNL     1     -28.971  -0.086  26.663  1.00  0.00     0.000 C 
ENDROOT
BRANCH   1   2
ATOM      2  C   UNL     1     -28.675   0.265  28.130  1.00  0.00     0.000 C 
BRANCH   2   3
ATOM      3  C   UNL     1     -29.780   1.117  28.771  1.00  0.00     0.000 C 
BRANCH   3   4
ATOM      4  C   UNL     1     -29.495   1.360  30.257  1.00  0.00     0.000 C 
BRANCH   4   5
ATOM      5  C   UNL     1     -30.309   2.549  30.788  1.00  0.00     0.000 C 
BRANCH   5   6
ATOM      6  C   UNL     1     -30.398   2.580  32.322  1.00  0.00     0.000 C 
BRANCH   6   7
ATOM      7  C   UNL     1     -29.563   1.509  33.051  1.00  0.00     0.006 C 
BRANCH   7   8
ATOM      8  C   UNL     1     -28.497   2.085  34.004  1.00  0.00     0.053 C 
BRANCH   8   9
ATOM      9  C   UNL     1     -27.450   2.880  33.285  1.00  0.00     0.041 C 
ATOM     10  O   UNL     1     -27.467   4.138  33.326  1.00  0.00    -0.550 OA
ATOM     11  O   UNL     1     -26.477   2.232  32.535  1.00  0.00    -0.550 OA
ENDBRANCH   8   9
ENDBRANCH   7   8
ENDBRANCH   6   7
ENDBRANCH   5   6
ENDBRANCH   4   5
ENDBRANCH   3   4
ENDBRANCH   2   3
ENDBRANCH   1   2
BRANCH   1  12
ATOM     12  C   UNL     1     -27.776   0.195  25.735  1.00  0.00     0.000 C 
BRANCH  12  13
ATOM     13  C   UNL     1     -27.349  -1.045  24.933  1.00  0.00    -0.000 C 
BRANCH  13  14
ATOM     14  C   UNL     1     -26.823  -0.691  23.530  1.00  0.00    -0.000 C 
BRANCH  14  15
ATOM     15  C   UNL     1     -27.353   0.660  23.025  1.00  0.00    -0.000 C 
BRANCH  15  16
ATOM     16  C   UNL     1     -28.664   0.522  22.230  1.00  0.00    -0.000 C 
BRANCH  16  17
ATOM     17  C   UNL     1     -29.831   1.283  22.896  1.00  0.00    -0.000 C 
BRANCH  17  18
ATOM     18  C   UNL     1     -30.970   0.366  23.373  1.00  0.00    -0.000 C 
BRANCH  18  19
ATOM     19  C   UNL     1     -30.829  -1.075  22.866  1.00  0.00    -0.003 C 
ATOM     20  C   UNL     1     -30.856  -2.070  24.023  1.00  0.00     0.004 C 
ENDBRANCH  18  19
ENDBRANCH  17  18
ENDBRANCH  16  17
ENDBRANCH  15  16
ENDBRANCH  14  15
ENDBRANCH  13  14
ENDBRANCH  12  13
ENDBRANCH   1  12
TORSDOF 16
ENDMDL
MODEL 6
REMARK VINA RESULT:    -5.286      1.860      3.223
REMARK INTER + INTRA:         -12.406
REMARK INTER:                 -10.510
REMARK INTRA:                  -1.896
REMARK UNBOUND:                -2.176
REMARK SMILES CCCCCCCCCCCCCCCCCC(=O)[O-]
REMARK SMILES IDX 10 1 11 2 12 3 13 4 14 5 15 6 16 7 17 8 18 9 19 10 20 11
REMARK SMILES IDX 9 12 8 13 7 14 6 15 5 16 4 17 3 18 2 19 1 20
REMARK H PARENT
REMARK Flexibility Score: inf
ROOT
ATOM      1  C   UNL     1     -29.858  -2.109  21.931  1.00  0.00     0.000 C 
ENDROOT
BRANCH   1   2
ATOM      2  C   UNL     1     -30.032  -1.459  20.549  1.00  0.00     0.000 C 
BRANCH   2   3
ATOM      3  C   UNL     1     -28.754  -0.763  20.055  1.00  0.00     0.000 C 
BRANCH   3   4
ATOM      4  C   UNL     1     -28.114  -1.545  18.903  1.00  0.00     0.000 C 
BRANCH   4   5
ATOM      5  C   UNL     1     -29.096  -2.571  18.321  1.00  0.00     0.000 C 
BRANCH   5   6
ATOM      6  C   UNL     1     -28.614  -3.180  16.994  1.00  0.00     0.000 C 
BRANCH   6   7
ATOM      7  C   UNL     1     -28.195  -2.161  15.916  1.00  0.00     0.006 C 
BRANCH   7   8
ATOM      8  C   UNL     1     -27.895  -2.787  14.541  1.00  0.00     0.053 C 
BRANCH   8   9
ATOM      9  C   UNL     1     -26.436  -3.059  14.337  1.00  0.00     0.041 C 
ATOM     10  O   UNL     1     -26.020  -4.240  14.205  1.00  0.00    -0.550 OA
ATOM     11  O   UNL     1     -25.526  -2.009  14.332  1.00  0.00    -0.550 OA
ENDBRANCH   8   9
ENDBRANCH   7   8
ENDBRANCH   6   7
ENDBRANCH   5   6
ENDBRANCH   4   5
ENDBRANCH   3   4
ENDBRANCH   2   3
ENDBRANCH   1   2
BRANCH   1  12
ATOM     12  C   UNL     1     -30.886  -1.601  22.956  1.00  0.00     0.000 C 
BRANCH  12  13
ATOM     13  C   UNL     1     -30.306  -1.514  24.378  1.00  0.00    -0.000 C 
BRANCH  13  14
ATOM     14  C   UNL     1     -30.513  -0.129  25.018  1.00  0.00    -0.000 C 
BRANCH  14  15
ATOM     15  C   UNL     1     -29.334   0.822  24.761  1.00  0.00    -0.000 C 
BRANCH  15  16
ATOM     16  C   UNL     1     -29.289   1.330  23.309  1.00  0.00    -0.000 C 
BRANCH  16  17
ATOM     17  C   UNL     1     -27.850   1.381  22.754  1.00  0.00    -0.000 C 
BRANCH  17  18
ATOM     18  C   UNL     1     -26.835   0.600  23.605  1.00  0.00    -0.000 C 
BRANCH  18  19
ATOM     19  C   UNL     1     -26.668  -0.856  23.148  1.00  0.00    -0.003 C 
ATOM     20  C   UNL     1     -26.497  -1.791  24.342  1.00  0.00     0.004 C 
ENDBRANCH  18  19
ENDBRANCH  17  18
ENDBRANCH  16  17
ENDBRANCH  15  16
ENDBRANCH  14  15
ENDBRANCH  13  14
ENDBRANCH  12  13
ENDBRANCH   1  12
TORSDOF 16
ENDMDL
MODEL 7
REMARK VINA RESULT:    -5.247      1.824      2.167
REMARK INTER + INTRA:         -12.330
REMARK INTER:                 -10.330
REMARK INTRA:                  -2.000
REMARK UNBOUND:                -2.176
REMARK SMILES CCCCCCCCCCCCCCCCCC(=O)[O-]
REMARK SMILES IDX 10 1 11 2 12 3 13 4 14 5 15 6 16 7 17 8 18 9 19 10 20 11
REMARK SMILES IDX 9 12 8 13 7 14 6 15 5 16 4 17 3 18 2 19 1 20
REMARK H PARENT
REMARK Flexibility Score: inf
ROOT
ATOM      1  C   UNL     1     -27.994  -1.981  22.046  1.00  0.00     0.000 C 
ENDROOT
BRANCH   1   2
ATOM      2  C   UNL     1     -28.203  -0.902  20.971  1.00  0.00     0.000 C 
BRANCH   2   3
ATOM      3  C   UNL     1     -29.337  -1.249  19.994  1.00  0.00     0.000 C 
BRANCH   3   4
ATOM      4  C   UNL     1     -29.001  -2.507  19.186  1.00  0.00     0.000 C 
BRANCH   4   5
ATOM      5  C   UNL     1     -28.362  -2.141  17.839  1.00  0.00     0.000 C 
BRANCH   5   6
ATOM      6  C   UNL     1     -28.634  -3.182  16.741  1.00  0.00     0.000 C 
BRANCH   6   7
ATOM      7  C   UNL     1     -28.945  -2.601  15.347  1.00  0.00     0.006 C 
BRANCH   7   8
ATOM      8  C   UNL     1     -27.959  -3.042  14.249  1.00  0.00     0.053 C 
BRANCH   8   9
ATOM      9  C   UNL     1     -26.697  -2.234  14.249  1.00  0.00     0.041 C 
ATOM     10  O   UNL     1     -26.746  -0.977  14.291  1.00  0.00    -0.550 OA
ATOM     11  O   UNL     1     -25.464  -2.869  14.161  1.00  0.00    -0.550 OA
ENDBRANCH   8   9
ENDBRANCH   7   8
ENDBRANCH   6   7
ENDBRANCH   5   6
ENDBRANCH   4   5
ENDBRANCH   3   4
ENDBRANCH   2   3
ENDBRANCH   1   2
BRANCH   1  12
ATOM     12  C   UNL     1     -27.188  -1.465  23.251  1.00  0.00     0.000 C 
BRANCH  12  13
ATOM     13  C   UNL     1     -27.053   0.066  23.258  1.00  0.00    -0.000 C 
BRANCH  13  14
ATOM     14  C   UNL     1     -27.689   0.712  24.502  1.00  0.00    -0.000 C 
BRANCH  14  15
ATOM     15  C   UNL     1     -27.692  -0.228  25.718  1.00  0.00    -0.000 C 
BRANCH  15  16
ATOM     16  C   UNL     1     -29.096  -0.417  26.318  1.00  0.00    -0.000 C 
BRANCH  16  17
ATOM     17  C   UNL     1     -30.211  -0.074  25.308  1.00  0.00    -0.000 C 
BRANCH  17  18
ATOM     18  C   UNL     1     -30.843  -1.311  24.647  1.00  0.00    -0.000 C 
BRANCH  18  19
ATOM     19  C   UNL     1     -31.302  -1.049  23.205  1.00  0.00    -0.003 C 
ATOM     20  C   UNL     1     -31.417   0.447  22.929  1.00  0.00     0.004 C 
ENDBRANCH  18  19
ENDBRANCH  17  18
ENDBRANCH  16  17
ENDBRANCH  15  16
ENDBRANCH  14  15
ENDBRANCH  13  14
ENDBRANCH  12  13
ENDBRANCH   1  12
TORSDOF 16
ENDMDL
MODEL 8
REMARK VINA RESULT:    -5.201      7.424     11.939
REMARK INTER + INTRA:         -12.242
REMARK INTER:                 -10.476
REMARK INTRA:                  -1.765
REMARK UNBOUND:                -2.176
REMARK SMILES CCCCCCCCCCCCCCCCCC(=O)[O-]
REMARK SMILES IDX 10 1 11 2 12 3 13 4 14 5 15 6 16 7 17 8 18 9 19 10 20 11
REMARK SMILES IDX 9 12 8 13 7 14 6 15 5 16 4 17 3 18 2 19 1 20
REMARK H PARENT
REMARK Flexibility Score: inf
ROOT
ATOM      1  C   UNL     1     -28.657   0.390  28.454  1.00  0.00     0.000 C 
ENDROOT
BRANCH   1   2
ATOM      2  C   UNL     1     -29.892   1.196  28.887  1.00  0.00     0.000 C 
BRANCH   2   3
ATOM      3  C   UNL     1     -29.985   1.368  30.411  1.00  0.00     0.000 C 
BRANCH   3   4
ATOM      4  C   UNL     1     -30.456   2.779  30.777  1.00  0.00     0.000 C 
BRANCH   4   5
ATOM      5  C   UNL     1     -31.125   2.795  32.159  1.00  0.00     0.000 C 
BRANCH   5   6
ATOM      6  C   UNL     1     -30.745   1.583  33.025  1.00  0.00     0.000 C 
BRANCH   6   7
ATOM      7  C   UNL     1     -29.701   1.862  34.125  1.00  0.00     0.006 C 
BRANCH   7   8
ATOM      8  C   UNL     1     -28.254   1.529  33.716  1.00  0.00     0.053 C 
BRANCH   8   9
ATOM      9  C   UNL     1     -27.528   2.711  33.147  1.00  0.00     0.041 C 
ATOM     10  O   UNL     1     -26.504   2.546  32.434  1.00  0.00    -0.550 OA
ATOM     11  O   UNL     1     -27.959   3.998  33.440  1.00  0.00    -0.550 OA
ENDBRANCH   8   9
ENDBRANCH   7   8
ENDBRANCH   6   7
ENDBRANCH   5   6
ENDBRANCH   4   5
ENDBRANCH   3   4
ENDBRANCH   2   3
ENDBRANCH   1   2
BRANCH   1  12
ATOM     12  C   UNL     1     -28.721  -0.044  26.980  1.00  0.00     0.000 C 
BRANCH  12  13
ATOM     13  C   UNL     1     -29.688   0.820  26.154  1.00  0.00    -0.000 C 
BRANCH  13  14
ATOM     14  C   UNL     1     -30.729  -0.020  25.391  1.00  0.00    -0.000 C 
BRANCH  14  15
ATOM     15  C   UNL     1     -30.712   0.254  23.878  1.00  0.00    -0.000 C 
BRANCH  15  16
ATOM     16  C   UNL     1     -29.488   1.075  23.438  1.00  0.00    -0.000 C 
BRANCH  16  17
ATOM     17  C   UNL     1     -28.441   0.211  22.704  1.00  0.00    -0.000 C 
BRANCH  17  18
ATOM     18  C   UNL     1     -27.060   0.207  23.384  1.00  0.00    -0.000 C 
BRANCH  18  19
ATOM     19  C   UNL     1     -26.730  -1.132  24.057  1.00  0.00    -0.003 C 
ATOM     20  C   UNL     1     -27.888  -2.116  23.922  1.00  0.00     0.004 C 
ENDBRANCH  18  19
ENDBRANCH  17  18
ENDBRANCH  16  17
ENDBRANCH  15  16
ENDBRANCH  14  15
ENDBRANCH  13  14
ENDBRANCH  12  13
ENDBRANCH   1  12
TORSDOF 16
ENDMDL
MODEL 9
REMARK VINA RESULT:    -5.157      7.090     11.337
REMARK INTER + INTRA:         -12.157
REMARK INTER:                 -10.296
REMARK INTRA:                  -1.861
REMARK UNBOUND:                -2.176
REMARK SMILES CCCCCCCCCCCCCCCCCC(=O)[O-]
REMARK SMILES IDX 10 1 11 2 12 3 13 4 14 5 15 6 16 7 17 8 18 9 19 10 20 11
REMARK SMILES IDX 9 12 8 13 7 14 6 15 5 16 4 17 3 18 2 19 1 20
REMARK H PARENT
REMARK Flexibility Score: inf
ROOT
ATOM      1  C   UNL     1     -30.040   0.502  26.032  1.00  0.00     0.000 C 
ENDROOT
BRANCH   1   2
ATOM      2  C   UNL     1     -29.060  -0.342  26.862  1.00  0.00     0.000 C 
BRANCH   2   3
ATOM      3  C   UNL     1     -28.624   0.359  28.158  1.00  0.00     0.000 C 
BRANCH   3   4
ATOM      4  C   UNL     1     -29.767   1.197  28.741  1.00  0.00     0.000 C 
BRANCH   4   5
ATOM      5  C   UNL     1     -29.758   1.148  30.276  1.00  0.00     0.000 C 
BRANCH   5   6
ATOM      6  C   UNL     1     -30.259   2.450  30.922  1.00  0.00     0.000 C 
BRANCH   6   7
ATOM      7  C   UNL     1     -30.375   2.419  32.459  1.00  0.00     0.006 C 
BRANCH   7   8
ATOM      8  C   UNL     1     -29.244   3.168  33.189  1.00  0.00     0.053 C 
BRANCH   8   9
ATOM      9  C   UNL     1     -27.971   2.378  33.246  1.00  0.00     0.041 C 
ATOM     10  O   UNL     1     -28.005   1.126  33.375  1.00  0.00    -0.550 OA
ATOM     11  O   UNL     1     -26.745   3.029  33.196  1.00  0.00    -0.550 OA
ENDBRANCH   8   9
ENDBRANCH   7   8
ENDBRANCH   6   7
ENDBRANCH   5   6
ENDBRANCH   4   5
ENDBRANCH   3   4
ENDBRANCH   2   3
ENDBRANCH   1   2
BRANCH   1  12
ATOM     12  C   UNL     1     -30.705  -0.304  24.903  1.00  0.00     0.000 C 
BRANCH  12  13
ATOM     13  C   UNL     1     -30.716   0.455  23.566  1.00  0.00    -0.000 C 
BRANCH  13  14
ATOM     14  C   UNL     1     -30.457  -0.466  22.359  1.00  0.00    -0.000 C 
BRANCH  14  15
ATOM     15  C   UNL     1     -30.118  -1.905  22.779  1.00  0.00    -0.000 C 
BRANCH  15  16
ATOM     16  C   UNL     1     -28.632  -2.249  22.571  1.00  0.00    -0.000 C 
BRANCH  16  17
ATOM     17  C   UNL     1     -27.800  -2.032  23.852  1.00  0.00    -0.000 C 
BRANCH  17  18
ATOM     18  C   UNL     1     -26.572  -1.128  23.643  1.00  0.00    -0.000 C 
BRANCH  18  19
ATOM     19  C   UNL     1     -26.818   0.324  24.075  1.00  0.00    -0.003 C 
ATOM     20  C   UNL     1     -27.125   1.211  22.873  1.00  0.00     0.004 C 
ENDBRANCH  18  19
ENDBRANCH  17  18
ENDBRANCH  16  17
ENDBRANCH  15  16
ENDBRANCH  14  15
ENDBRANCH  13  14
ENDBRANCH  12  13
ENDBRANCH   1  12
TORSDOF 16
ENDMDL
