MODEL 1
REMARK VINA RESULT:    -6.623      0.000      0.000
REMARK INTER + INTRA:          -8.049
REMARK INTER:                  -7.785
REMARK INTRA:                  -0.265
REMARK UNBOUND:                -0.265
REMARK SMILES O=c1cc(-c2ccc(O)c(O)c2)oc2cc(O)cc(O)c12
REMARK SMILES IDX 4 1 3 2 2 3 1 4 21 5 19 6 18 7 16 8 15 9 14 10 13 11 5 12
REMARK SMILES IDX 6 13 7 14 8 15 12 16 10 17 9 18 11 20 20 22 17 24
REMARK H PARENT 9 19 11 21 20 23 17 25
REMARK Flexibility Score: inf
ROOT
ATOM      1  C   UNL     1      -7.431  28.170  55.966  1.00  0.00     0.138 A 
ATOM      2  C   UNL     1      -8.590  28.958  55.950  1.00  0.00     0.100 A 
ATOM      3  C   UNL     1      -8.679  30.074  56.783  1.00  0.00     0.197 A 
ATOM      4  O   UNL     1      -9.754  30.727  56.785  1.00  0.00    -0.289 OA
ATOM      5  C   UNL     1      -7.584  30.423  57.610  1.00  0.00     0.107 A 
ATOM      6  C   UNL     1      -7.547  31.558  58.476  1.00  0.00     0.134 A 
ATOM      7  C   UNL     1      -6.447  31.746  59.322  1.00  0.00     0.093 A 
ATOM      8  C   UNL     1      -5.357  30.873  59.291  1.00  0.00     0.123 A 
ATOM      9  C   UNL     1      -5.361  29.790  58.414  1.00  0.00     0.094 A 
ATOM     10  C   UNL     1      -6.459  29.555  57.583  1.00  0.00     0.146 A 
ATOM     11  O   UNL     1      -6.429  28.501  56.775  1.00  0.00    -0.456 OA
ENDROOT
BRANCH   1  12
ATOM     12  C   UNL     1      -7.281  26.974  55.098  1.00  0.00     0.021 A 
ATOM     13  C   UNL     1      -6.789  27.127  53.791  1.00  0.00     0.016 A 
ATOM     14  C   UNL     1      -6.632  26.018  52.957  1.00  0.00     0.051 A 
ATOM     15  C   UNL     1      -6.952  24.738  53.415  1.00  0.00     0.157 A 
ATOM     16  C   UNL     1      -7.589  25.680  55.561  1.00  0.00     0.062 A 
ATOM     17  C   UNL     1      -7.430  24.566  54.725  1.00  0.00     0.158 A 
BRANCH  15  18
ATOM     18  O   UNL     1      -6.785  23.649  52.559  1.00  0.00    -0.504 OA
ATOM     19  H   UNL     1      -6.795  23.751  51.551  1.00  0.00     0.293 HD
ENDBRANCH  15  18
BRANCH  17  20
ATOM     20  O   UNL     1      -7.740  23.289  55.191  1.00  0.00    -0.504 OA
ATOM     21  H   UNL     1      -8.462  22.725  54.757  1.00  0.00     0.293 HD
ENDBRANCH  17  20
ENDBRANCH   1  12
BRANCH   6  22
ATOM     22  O   UNL     1      -8.545  32.537  58.529  1.00  0.00    -0.507 OA
ATOM     23  H   UNL     1      -8.546  33.331  59.150  1.00  0.00     0.293 HD
ENDBRANCH   6  22
BRANCH   8  24
ATOM     24  O   UNL     1      -4.260  31.077  60.125  1.00  0.00    -0.508 OA
ATOM     25  H   UNL     1      -4.185  31.900  60.711  1.00  0.00     0.293 HD
ENDBRANCH   8  24
TORSDOF 5
ENDMDL
MODEL 2
REMARK VINA RESULT:    -5.826      1.201      2.773
REMARK INTER + INTRA:          -7.112
REMARK INTER:                  -6.850
REMARK INTRA:                  -0.263
REMARK UNBOUND:                -0.265
REMARK SMILES O=c1cc(-c2ccc(O)c(O)c2)oc2cc(O)cc(O)c12
REMARK SMILES IDX 4 1 3 2 2 3 1 4 21 5 19 6 18 7 16 8 15 9 14 10 13 11 5 12
REMARK SMILES IDX 6 13 7 14 8 15 12 16 10 17 9 18 11 20 20 22 17 24
REMARK H PARENT 9 19 11 21 20 23 17 25
REMARK Flexibility Score: inf
ROOT
ATOM      1  C   UNL     1      -7.202  28.165  56.045  1.00  0.00     0.138 A 
ATOM      2  C   UNL     1      -6.233  28.421  57.025  1.00  0.00     0.100 A 
ATOM      3  C   UNL     1      -6.369  29.532  57.858  1.00  0.00     0.197 A 
ATOM      4  O   UNL     1      -5.454  29.764  58.690  1.00  0.00    -0.289 OA
ATOM      5  C   UNL     1      -7.502  30.372  57.731  1.00  0.00     0.107 A 
ATOM      6  C   UNL     1      -7.764  31.514  58.547  1.00  0.00     0.134 A 
ATOM      7  C   UNL     1      -8.868  32.327  58.263  1.00  0.00     0.093 A 
ATOM      8  C   UNL     1      -9.752  32.006  57.229  1.00  0.00     0.123 A 
ATOM      9  C   UNL     1      -9.533  30.866  56.459  1.00  0.00     0.094 A 
ATOM     10  C   UNL     1      -8.421  30.055  56.695  1.00  0.00     0.146 A 
ATOM     11  O   UNL     1      -8.240  28.987  55.925  1.00  0.00    -0.456 OA
ENDROOT
BRANCH   1  12
ATOM     12  C   UNL     1      -7.109  26.996  55.134  1.00  0.00     0.021 A 
ATOM     13  C   UNL     1      -6.530  27.153  53.864  1.00  0.00     0.016 A 
ATOM     14  C   UNL     1      -6.424  26.068  52.992  1.00  0.00     0.051 A 
ATOM     15  C   UNL     1      -6.886  24.806  53.374  1.00  0.00     0.157 A 
ATOM     16  C   UNL     1      -7.560  25.719  55.521  1.00  0.00     0.062 A 
ATOM     17  C   UNL     1      -7.453  24.628  54.646  1.00  0.00     0.158 A 
BRANCH  15  18
ATOM     18  O   UNL     1      -6.767  23.741  52.480  1.00  0.00    -0.504 OA
ATOM     19  H   UNL     1      -7.442  23.581  51.742  1.00  0.00     0.293 HD
ENDBRANCH  15  18
BRANCH  17  20
ATOM     20  O   UNL     1      -7.904  23.368  55.038  1.00  0.00    -0.504 OA
ATOM     21  H   UNL     1      -8.608  22.867  54.507  1.00  0.00     0.293 HD
ENDBRANCH  17  20
ENDBRANCH   1  12
BRANCH   6  22
ATOM     22  O   UNL     1      -6.992  31.881  59.654  1.00  0.00    -0.507 OA
ATOM     23  H   UNL     1      -6.653  31.246  60.360  1.00  0.00     0.293 HD
ENDBRANCH   6  22
BRANCH   8  24
ATOM     24  O   UNL     1     -10.857  32.812  56.964  1.00  0.00    -0.508 OA
ATOM     25  H   UNL     1     -10.899  33.774  57.278  1.00  0.00     0.293 HD
ENDBRANCH   8  24
TORSDOF 5
ENDMDL
MODEL 3
REMARK VINA RESULT:    -5.823     11.079     13.186
REMARK INTER + INTRA:          -7.109
REMARK INTER:                  -6.827
REMARK INTRA:                  -0.282
REMARK UNBOUND:                -0.265
REMARK SMILES O=c1cc(-c2ccc(O)c(O)c2)oc2cc(O)cc(O)c12
REMARK SMILES IDX 4 1 3 2 2 3 1 4 21 5 19 6 18 7 16 8 15 9 14 10 13 11 5 12
REMARK SMILES IDX 6 13 7 14 8 15 12 16 10 17 9 18 11 20 20 22 17 24
REMARK H PARENT 9 19 11 21 20 23 17 25
REMARK Flexibility Score: inf
ROOT
ATOM      1  C   UNL     1       3.898  29.068  53.490  1.00  0.00     0.138 A 
ATOM      2  C   UNL     1       3.745  30.417  53.146  1.00  0.00     0.100 A 
ATOM      3  C   UNL     1       3.938  30.819  51.823  1.00  0.00     0.197 A 
ATOM      4  O   UNL     1       3.848  32.046  51.558  1.00  0.00    -0.289 OA
ATOM      5  C   UNL     1       4.250  29.856  50.834  1.00  0.00     0.107 A 
ATOM      6  C   UNL     1       4.435  30.144  49.447  1.00  0.00     0.134 A 
ATOM      7  C   UNL     1       4.839  29.123  48.579  1.00  0.00     0.093 A 
ATOM      8  C   UNL     1       5.008  27.813  49.035  1.00  0.00     0.123 A 
ATOM      9  C   UNL     1       4.781  27.512  50.376  1.00  0.00     0.094 A 
ATOM     10  C   UNL     1       4.411  28.515  51.275  1.00  0.00     0.146 A 
ATOM     11  O   UNL     1       4.223  28.187  52.548  1.00  0.00    -0.456 OA
ENDROOT
BRANCH   1  12
ATOM     12  C   UNL     1       3.702  28.584  54.881  1.00  0.00     0.021 A 
ATOM     13  C   UNL     1       2.479  28.825  55.530  1.00  0.00     0.016 A 
ATOM     14  C   UNL     1       2.266  28.374  56.834  1.00  0.00     0.051 A 
ATOM     15  C   UNL     1       3.264  27.668  57.510  1.00  0.00     0.157 A 
ATOM     16  C   UNL     1       4.700  27.858  55.560  1.00  0.00     0.062 A 
ATOM     17  C   UNL     1       4.486  27.404  56.870  1.00  0.00     0.158 A 
BRANCH  15  18
ATOM     18  O   UNL     1       3.022  27.231  58.813  1.00  0.00    -0.504 OA
ATOM     19  H   UNL     1       2.286  26.570  59.031  1.00  0.00     0.293 HD
ENDBRANCH  15  18
BRANCH  17  20
ATOM     20  O   UNL     1       5.481  26.689  57.535  1.00  0.00    -0.504 OA
ATOM     21  H   UNL     1       5.271  26.110  58.340  1.00  0.00     0.293 HD
ENDBRANCH  17  20
ENDBRANCH   1  12
BRANCH   6  22
ATOM     22  O   UNL     1       4.216  31.399  48.871  1.00  0.00    -0.507 OA
ATOM     23  H   UNL     1       3.469  32.029  49.120  1.00  0.00     0.293 HD
ENDBRANCH   6  22
BRANCH   8  24
ATOM     24  O   UNL     1       5.395  26.801  48.159  1.00  0.00    -0.508 OA
ATOM     25  H   UNL     1       4.780  26.469  47.426  1.00  0.00     0.293 HD
ENDBRANCH   8  24
TORSDOF 5
ENDMDL
MODEL 4
REMARK VINA RESULT:    -5.785     10.217     11.678
REMARK INTER + INTRA:          -7.064
REMARK INTER:                  -6.793
REMARK INTRA:                  -0.271
REMARK UNBOUND:                -0.265
REMARK SMILES O=c1cc(-c2ccc(O)c(O)c2)oc2cc(O)cc(O)c12
REMARK SMILES IDX 4 1 3 2 2 3 1 4 21 5 19 6 18 7 16 8 15 9 14 10 13 11 5 12
REMARK SMILES IDX 6 13 7 14 8 15 12 16 10 17 9 18 11 20 20 22 17 24
REMARK H PARENT 9 19 11 21 20 23 17 25
REMARK Flexibility Score: inf
ROOT
ATOM      1  C   UNL     1       3.808  28.864  53.681  1.00  0.00     0.138 A 
ATOM      2  C   UNL     1       4.671  28.263  54.607  1.00  0.00     0.100 A 
ATOM      3  C   UNL     1       4.227  28.016  55.908  1.00  0.00     0.197 A 
ATOM      4  O   UNL     1       5.044  27.527  56.729  1.00  0.00    -0.289 OA
ATOM      5  C   UNL     1       2.898  28.341  56.270  1.00  0.00     0.107 A 
ATOM      6  C   UNL     1       2.324  28.104  57.556  1.00  0.00     0.134 A 
ATOM      7  C   UNL     1       1.028  28.559  57.828  1.00  0.00     0.093 A 
ATOM      8  C   UNL     1       0.264  29.189  56.842  1.00  0.00     0.123 A 
ATOM      9  C   UNL     1       0.796  29.380  55.569  1.00  0.00     0.094 A 
ATOM     10  C   UNL     1       2.099  28.970  55.277  1.00  0.00     0.146 A 
ATOM     11  O   UNL     1       2.574  29.188  54.056  1.00  0.00    -0.456 OA
ENDROOT
BRANCH   1  12
ATOM     12  C   UNL     1       4.226  29.145  52.285  1.00  0.00     0.021 A 
ATOM     13  C   UNL     1       4.121  30.453  51.782  1.00  0.00     0.016 A 
ATOM     14  C   UNL     1       4.514  30.746  50.475  1.00  0.00     0.051 A 
ATOM     15  C   UNL     1       5.028  29.744  49.650  1.00  0.00     0.157 A 
ATOM     16  C   UNL     1       4.758  28.140  51.454  1.00  0.00     0.062 A 
ATOM     17  C   UNL     1       5.155  28.434  50.141  1.00  0.00     0.158 A 
BRANCH  15  18
ATOM     18  O   UNL     1       5.411  30.067  48.348  1.00  0.00    -0.504 OA
ATOM     19  H   UNL     1       5.384  31.018  47.999  1.00  0.00     0.293 HD
ENDBRANCH  15  18
BRANCH  17  20
ATOM     20  O   UNL     1       5.679  27.431  49.326  1.00  0.00    -0.504 OA
ATOM     21  H   UNL     1       6.586  27.525  48.884  1.00  0.00     0.293 HD
ENDBRANCH  17  20
ENDBRANCH   1  12
BRANCH   6  22
ATOM     22  O   UNL     1       2.968  27.413  58.587  1.00  0.00    -0.507 OA
ATOM     23  H   UNL     1       3.958  27.227  58.630  1.00  0.00     0.293 HD
ENDBRANCH   6  22
BRANCH   8  24
ATOM     24  O   UNL     1      -1.031  29.625  57.117  1.00  0.00    -0.508 OA
ATOM     25  H   UNL     1      -1.519  29.338  57.957  1.00  0.00     0.293 HD
ENDBRANCH   8  24
TORSDOF 5
ENDMDL
MODEL 5
REMARK VINA RESULT:    -5.716      1.709      6.917
REMARK INTER + INTRA:          -6.983
REMARK INTER:                  -6.694
REMARK INTRA:                  -0.289
REMARK UNBOUND:                -0.265
REMARK SMILES O=c1cc(-c2ccc(O)c(O)c2)oc2cc(O)cc(O)c12
REMARK SMILES IDX 4 1 3 2 2 3 1 4 21 5 19 6 18 7 16 8 15 9 14 10 13 11 5 12
REMARK SMILES IDX 6 13 7 14 8 15 12 16 10 17 9 18 11 20 20 22 17 24
REMARK H PARENT 9 19 11 21 20 23 17 25
REMARK Flexibility Score: inf
ROOT
ATOM      1  C   UNL     1      -7.819  28.229  56.355  1.00  0.00     0.138 A 
ATOM      2  C   UNL     1      -9.212  28.285  56.217  1.00  0.00     0.100 A 
ATOM      3  C   UNL     1      -9.858  27.388  55.364  1.00  0.00     0.197 A 
ATOM      4  O   UNL     1     -11.103  27.501  55.220  1.00  0.00    -0.289 OA
ATOM      5  C   UNL     1      -9.106  26.407  54.675  1.00  0.00     0.107 A 
ATOM      6  C   UNL     1      -9.660  25.418  53.806  1.00  0.00     0.134 A 
ATOM      7  C   UNL     1      -8.806  24.562  53.101  1.00  0.00     0.093 A 
ATOM      8  C   UNL     1      -7.421  24.619  53.279  1.00  0.00     0.123 A 
ATOM      9  C   UNL     1      -6.874  25.546  54.163  1.00  0.00     0.094 A 
ATOM     10  C   UNL     1      -7.696  26.438  54.853  1.00  0.00     0.146 A 
ATOM     11  O   UNL     1      -7.132  27.318  55.673  1.00  0.00    -0.456 OA
ENDROOT
BRANCH   1  12
ATOM     12  C   UNL     1      -7.080  29.156  57.251  1.00  0.00     0.021 A 
ATOM     13  C   UNL     1      -5.859  28.747  57.812  1.00  0.00     0.016 A 
ATOM     14  C   UNL     1      -5.141  29.602  58.651  1.00  0.00     0.051 A 
ATOM     15  C   UNL     1      -5.623  30.881  58.937  1.00  0.00     0.157 A 
ATOM     16  C   UNL     1      -7.556  30.452  57.530  1.00  0.00     0.062 A 
ATOM     17  C   UNL     1      -6.834  31.311  58.372  1.00  0.00     0.158 A 
BRANCH  15  18
ATOM     18  O   UNL     1      -4.884  31.712  59.780  1.00  0.00    -0.504 OA
ATOM     19  H   UNL     1      -4.205  31.345  60.436  1.00  0.00     0.293 HD
ENDBRANCH  15  18
BRANCH  17  20
ATOM     20  O   UNL     1      -7.315  32.592  58.644  1.00  0.00    -0.504 OA
ATOM     21  H   UNL     1      -6.795  33.421  58.381  1.00  0.00     0.293 HD
ENDBRANCH  17  20
ENDBRANCH   1  12
BRANCH   6  22
ATOM     22  O   UNL     1     -11.031  25.221  53.616  1.00  0.00    -0.507 OA
ATOM     23  H   UNL     1     -11.439  24.573  52.960  1.00  0.00     0.293 HD
ENDBRANCH   6  22
BRANCH   8  24
ATOM     24  O   UNL     1      -6.579  23.752  52.585  1.00  0.00    -0.508 OA
ATOM     25  H   UNL     1      -6.146  22.956  53.039  1.00  0.00     0.293 HD
ENDBRANCH   8  24
TORSDOF 5
ENDMDL
MODEL 6
REMARK VINA RESULT:    -5.628      1.473      2.869
REMARK INTER + INTRA:          -6.880
REMARK INTER:                  -6.584
REMARK INTRA:                  -0.296
REMARK UNBOUND:                -0.265
REMARK SMILES O=c1cc(-c2ccc(O)c(O)c2)oc2cc(O)cc(O)c12
REMARK SMILES IDX 4 1 3 2 2 3 1 4 21 5 19 6 18 7 16 8 15 9 14 10 13 11 5 12
REMARK SMILES IDX 6 13 7 14 8 15 12 16 10 17 9 18 11 20 20 22 17 24
REMARK H PARENT 9 19 11 21 20 23 17 25
REMARK Flexibility Score: inf
ROOT
ATOM      1  C   UNL     1      -7.567  27.879  56.485  1.00  0.00     0.138 A 
ATOM      2  C   UNL     1      -6.295  27.788  57.067  1.00  0.00     0.100 A 
ATOM      3  C   UNL     1      -5.795  28.861  57.807  1.00  0.00     0.197 A 
ATOM      4  O   UNL     1      -4.629  28.769  58.269  1.00  0.00    -0.289 OA
ATOM      5  C   UNL     1      -6.590  30.017  57.994  1.00  0.00     0.107 A 
ATOM      6  C   UNL     1      -6.199  31.159  58.757  1.00  0.00     0.134 A 
ATOM      7  C   UNL     1      -7.030  32.286  58.789  1.00  0.00     0.093 A 
ATOM      8  C   UNL     1      -8.264  32.290  58.135  1.00  0.00     0.123 A 
ATOM      9  C   UNL     1      -8.678  31.162  57.429  1.00  0.00     0.094 A 
ATOM     10  C   UNL     1      -7.856  30.035  57.348  1.00  0.00     0.146 A 
ATOM     11  O   UNL     1      -8.281  28.988  56.650  1.00  0.00    -0.456 OA
ENDROOT
BRANCH   1  12
ATOM     12  C   UNL     1      -8.150  26.767  55.692  1.00  0.00     0.021 A 
ATOM     13  C   UNL     1      -9.325  26.987  54.954  1.00  0.00     0.016 A 
ATOM     14  C   UNL     1      -9.889  25.961  54.194  1.00  0.00     0.051 A 
ATOM     15  C   UNL     1      -9.288  24.701  54.149  1.00  0.00     0.157 A 
ATOM     16  C   UNL     1      -7.539  25.500  55.633  1.00  0.00     0.062 A 
ATOM     17  C   UNL     1      -8.104  24.469  54.869  1.00  0.00     0.158 A 
BRANCH  15  18
ATOM     18  O   UNL     1      -9.876  23.695  53.381  1.00  0.00    -0.504 OA
ATOM     19  H   UNL     1     -10.880  23.623  53.267  1.00  0.00     0.293 HD
ENDBRANCH  15  18
BRANCH  17  20
ATOM     20  O   UNL     1      -7.492  23.217  54.818  1.00  0.00    -0.504 OA
ATOM     21  H   UNL     1      -7.713  22.490  55.490  1.00  0.00     0.293 HD
ENDBRANCH  17  20
ENDBRANCH   1  12
BRANCH   6  22
ATOM     22  O   UNL     1      -5.025  31.232  59.514  1.00  0.00    -0.507 OA
ATOM     23  H   UNL     1      -4.768  30.590  60.248  1.00  0.00     0.293 HD
ENDBRANCH   6  22
BRANCH   8  24
ATOM     24  O   UNL     1      -9.091  33.410  58.185  1.00  0.00    -0.508 OA
ATOM     25  H   UNL     1      -8.752  34.305  58.516  1.00  0.00     0.293 HD
ENDBRANCH   8  24
TORSDOF 5
ENDMDL
MODEL 7
REMARK VINA RESULT:    -5.564      3.719      6.659
REMARK INTER + INTRA:          -6.804
REMARK INTER:                  -6.541
REMARK INTRA:                  -0.263
REMARK UNBOUND:                -0.265
REMARK SMILES O=c1cc(-c2ccc(O)c(O)c2)oc2cc(O)cc(O)c12
REMARK SMILES IDX 4 1 3 2 2 3 1 4 21 5 19 6 18 7 16 8 15 9 14 10 13 11 5 12
REMARK SMILES IDX 6 13 7 14 8 15 12 16 10 17 9 18 11 20 20 22 17 24
REMARK H PARENT 9 19 11 21 20 23 17 25
REMARK Flexibility Score: inf
ROOT
ATOM      1  C   UNL     1      -8.578  32.603  58.117  1.00  0.00     0.138 A 
ATOM      2  C   UNL     1      -8.387  33.753  57.340  1.00  0.00     0.100 A 
ATOM      3  C   UNL     1      -9.399  34.712  57.265  1.00  0.00     0.197 A 
ATOM      4  O   UNL     1      -9.219  35.706  56.515  1.00  0.00    -0.289 OA
ATOM      5  C   UNL     1     -10.595  34.532  58.002  1.00  0.00     0.107 A 
ATOM      6  C   UNL     1     -11.681  35.458  58.029  1.00  0.00     0.134 A 
ATOM      7  C   UNL     1     -12.855  35.125  58.716  1.00  0.00     0.093 A 
ATOM      8  C   UNL     1     -12.959  33.926  59.426  1.00  0.00     0.123 A 
ATOM      9  C   UNL     1     -11.885  33.038  59.447  1.00  0.00     0.094 A 
ATOM     10  C   UNL     1     -10.714  33.325  58.742  1.00  0.00     0.146 A 
ATOM     11  O   UNL     1      -9.722  32.443  58.774  1.00  0.00    -0.456 OA
ENDROOT
BRANCH   1  12
ATOM     12  C   UNL     1      -7.534  31.553  58.236  1.00  0.00     0.021 A 
ATOM     13  C   UNL     1      -7.609  30.409  57.423  1.00  0.00     0.016 A 
ATOM     14  C   UNL     1      -6.636  29.411  57.510  1.00  0.00     0.051 A 
ATOM     15  C   UNL     1      -5.568  29.540  58.401  1.00  0.00     0.157 A 
ATOM     16  C   UNL     1      -6.448  31.687  59.122  1.00  0.00     0.062 A 
ATOM     17  C   UNL     1      -5.470  30.685  59.209  1.00  0.00     0.158 A 
BRANCH  15  18
ATOM     18  O   UNL     1      -4.612  28.526  58.466  1.00  0.00    -0.504 OA
ATOM     19  H   UNL     1      -4.713  27.732  59.087  1.00  0.00     0.293 HD
ENDBRANCH  15  18
BRANCH  17  20
ATOM     20  O   UNL     1      -4.399  30.825  60.092  1.00  0.00    -0.504 OA
ATOM     21  H   UNL     1      -3.804  31.646  60.079  1.00  0.00     0.293 HD
ENDBRANCH  17  20
ENDBRANCH   1  12
BRANCH   6  22
ATOM     22  O   UNL     1     -11.654  36.718  57.422  1.00  0.00    -0.507 OA
ATOM     23  H   UNL     1     -10.829  37.286  57.304  1.00  0.00     0.293 HD
ENDBRANCH   6  22
BRANCH   8  24
ATOM     24  O   UNL     1     -14.125  33.610  60.120  1.00  0.00    -0.508 OA
ATOM     25  H   UNL     1     -14.242  33.850  61.097  1.00  0.00     0.293 HD
ENDBRANCH   8  24
TORSDOF 5
ENDMDL
MODEL 8
REMARK VINA RESULT:    -5.370      3.770      6.615
REMARK INTER + INTRA:          -6.576
REMARK INTER:                  -6.311
REMARK INTRA:                  -0.265
REMARK UNBOUND:                -0.265
REMARK SMILES O=c1cc(-c2ccc(O)c(O)c2)oc2cc(O)cc(O)c12
REMARK SMILES IDX 4 1 3 2 2 3 1 4 21 5 19 6 18 7 16 8 15 9 14 10 13 11 5 12
REMARK SMILES IDX 6 13 7 14 8 15 12 16 10 17 9 18 11 20 20 22 17 24
REMARK H PARENT 9 19 11 21 20 23 17 25
REMARK Flexibility Score: inf
ROOT
ATOM      1  C   UNL     1      -8.813  32.463  58.356  1.00  0.00     0.138 A 
ATOM      2  C   UNL     1      -9.995  32.250  59.077  1.00  0.00     0.100 A 
ATOM      3  C   UNL     1     -11.024  33.192  59.013  1.00  0.00     0.197 A 
ATOM      4  O   UNL     1     -12.049  32.999  59.715  1.00  0.00    -0.289 OA
ATOM      5  C   UNL     1     -10.878  34.336  58.192  1.00  0.00     0.107 A 
ATOM      6  C   UNL     1     -11.872  35.347  58.021  1.00  0.00     0.134 A 
ATOM      7  C   UNL     1     -11.576  36.485  57.260  1.00  0.00     0.093 A 
ATOM      8  C   UNL     1     -10.344  36.620  56.615  1.00  0.00     0.123 A 
ATOM      9  C   UNL     1      -9.386  35.616  56.735  1.00  0.00     0.094 A 
ATOM     10  C   UNL     1      -9.637  34.486  57.516  1.00  0.00     0.146 A 
ATOM     11  O   UNL     1      -8.689  33.561  57.617  1.00  0.00    -0.456 OA
ENDROOT
BRANCH   1  12
ATOM     12  C   UNL     1      -7.689  31.492  58.385  1.00  0.00     0.021 A 
ATOM     13  C   UNL     1      -7.697  30.400  57.502  1.00  0.00     0.016 A 
ATOM     14  C   UNL     1      -6.649  29.477  57.503  1.00  0.00     0.051 A 
ATOM     15  C   UNL     1      -5.572  29.632  58.378  1.00  0.00     0.157 A 
ATOM     16  C   UNL     1      -6.594  31.653  59.256  1.00  0.00     0.062 A 
ATOM     17  C   UNL     1      -5.541  30.727  59.257  1.00  0.00     0.158 A 
BRANCH  15  18
ATOM     18  O   UNL     1      -4.540  28.693  58.358  1.00  0.00    -0.504 OA
ATOM     19  H   UNL     1      -4.654  27.760  58.737  1.00  0.00     0.293 HD
ENDBRANCH  15  18
BRANCH  17  20
ATOM     20  O   UNL     1      -4.461  30.894  60.125  1.00  0.00    -0.504 OA
ATOM     21  H   UNL     1      -4.583  30.891  61.131  1.00  0.00     0.293 HD
ENDBRANCH  17  20
ENDBRANCH   1  12
BRANCH   6  22
ATOM     22  O   UNL     1     -13.163  35.275  58.553  1.00  0.00    -0.507 OA
ATOM     23  H   UNL     1     -14.014  35.414  58.031  1.00  0.00     0.293 HD
ENDBRANCH   6  22
BRANCH   8  24
ATOM     24  O   UNL     1     -10.064  37.748  55.847  1.00  0.00    -0.508 OA
ATOM     25  H   UNL     1      -9.296  38.368  56.075  1.00  0.00     0.293 HD
ENDBRANCH   8  24
TORSDOF 5
ENDMDL
MODEL 9
REMARK VINA RESULT:    -5.364     11.057     12.821
REMARK INTER + INTRA:          -6.569
REMARK INTER:                  -6.296
REMARK INTRA:                  -0.273
REMARK UNBOUND:                -0.265
REMARK SMILES O=c1cc(-c2ccc(O)c(O)c2)oc2cc(O)cc(O)c12
REMARK SMILES IDX 4 1 3 2 2 3 1 4 21 5 19 6 18 7 16 8 15 9 14 10 13 11 5 12
REMARK SMILES IDX 6 13 7 14 8 15 12 16 10 17 9 18 11 20 20 22 17 24
REMARK H PARENT 9 19 11 21 20 23 17 25
REMARK Flexibility Score: inf
ROOT
ATOM      1  C   UNL     1       3.853  29.220  53.482  1.00  0.00     0.138 A 
ATOM      2  C   UNL     1       4.313  28.424  52.424  1.00  0.00     0.100 A 
ATOM      3  C   UNL     1       4.472  28.984  51.155  1.00  0.00     0.197 A 
ATOM      4  O   UNL     1       4.833  28.230  50.216  1.00  0.00    -0.289 OA
ATOM      5  C   UNL     1       4.202  30.360  50.956  1.00  0.00     0.107 A 
ATOM      6  C   UNL     1       4.360  31.048  49.715  1.00  0.00     0.134 A 
ATOM      7  C   UNL     1       3.967  32.388  49.614  1.00  0.00     0.093 A 
ATOM      8  C   UNL     1       3.477  33.081  50.724  1.00  0.00     0.123 A 
ATOM      9  C   UNL     1       3.366  32.432  51.951  1.00  0.00     0.094 A 
ATOM     10  C   UNL     1       3.716  31.086  52.076  1.00  0.00     0.146 A 
ATOM     11  O   UNL     1       3.577  30.501  53.261  1.00  0.00    -0.456 OA
ENDROOT
BRANCH   1  12
ATOM     12  C   UNL     1       3.670  28.677  54.852  1.00  0.00     0.021 A 
ATOM     13  C   UNL     1       2.443  28.864  55.511  1.00  0.00     0.016 A 
ATOM     14  C   UNL     1       2.242  28.357  56.796  1.00  0.00     0.051 A 
ATOM     15  C   UNL     1       3.257  27.648  57.443  1.00  0.00     0.157 A 
ATOM     16  C   UNL     1       4.685  27.948  55.502  1.00  0.00     0.062 A 
ATOM     17  C   UNL     1       4.483  27.438  56.793  1.00  0.00     0.158 A 
BRANCH  15  18
ATOM     18  O   UNL     1       3.027  27.155  58.728  1.00  0.00    -0.504 OA
ATOM     19  H   UNL     1       2.317  26.457  58.917  1.00  0.00     0.293 HD
ENDBRANCH  15  18
BRANCH  17  20
ATOM     20  O   UNL     1       5.496  26.720  57.429  1.00  0.00    -0.504 OA
ATOM     21  H   UNL     1       5.701  25.758  57.182  1.00  0.00     0.293 HD
ENDBRANCH  17  20
ENDBRANCH   1  12
BRANCH   6  22
ATOM     22  O   UNL     1       4.915  30.476  48.565  1.00  0.00    -0.507 OA
ATOM     23  H   UNL     1       4.483  29.752  48.012  1.00  0.00     0.293 HD
ENDBRANCH   6  22
BRANCH   8  24
ATOM     24  O   UNL     1       3.103  34.419  50.617  1.00  0.00    -0.508 OA
ATOM     25  H   UNL     1       2.217  34.691  50.209  1.00  0.00     0.293 HD
ENDBRANCH   8  24
TORSDOF 5
ENDMDL
