MODEL 1
REMARK VINA RESULT:    -4.362      0.000      0.000
REMARK INTER + INTRA:          -4.804
REMARK INTER:                  -4.617
REMARK INTRA:                  -0.187
REMARK UNBOUND:                -0.187
REMARK SMILES CC1=CC[C@H](C(C)C)C=C1
REMARK SMILES IDX 1 1 2 2 3 3 4 4 5 5 9 6 10 7 6 8 7 9 8 10
REMARK H PARENT
REMARK Flexibility Score: inf
ROOT
ATOM      1  C   UNL     1     131.846 134.716 136.317  1.00  0.00     0.044 C 
ATOM      2  C   UNL     1     132.423 136.048 135.942  1.00  0.00    -0.055 C 
ATOM      3  C   UNL     1     131.967 136.703 134.862  1.00  0.00    -0.023 C 
ATOM      4  C   UNL     1     132.591 138.006 134.439  1.00  0.00     0.035 C 
ATOM      5  C   UNL     1     133.006 138.842 135.672  1.00  0.00     0.018 C 
ATOM      6  C   UNL     1     133.757 137.975 136.666  1.00  0.00    -0.023 C 
ATOM      7  C   UNL     1     133.437 136.685 136.816  1.00  0.00    -0.001 C 
ENDROOT
BRANCH   5   8
ATOM      8  C   UNL     1     133.773 140.137 135.274  1.00  0.00    -0.010 C 
ATOM      9  C   UNL     1     134.652 140.645 136.428  1.00  0.00     0.008 C 
ATOM     10  C   UNL     1     134.616 139.987 133.994  1.00  0.00     0.008 C 
ENDBRANCH   5   8
TORSDOF 1
ENDMDL
MODEL 2
REMARK VINA RESULT:    -4.347      4.089      5.752
REMARK INTER + INTRA:          -4.788
REMARK INTER:                  -4.601
REMARK INTRA:                  -0.187
REMARK UNBOUND:                -0.187
REMARK SMILES CC1=CC[C@H](C(C)C)C=C1
REMARK SMILES IDX 1 1 2 2 3 3 4 4 5 5 9 6 10 7 6 8 7 9 8 10
REMARK H PARENT
REMARK Flexibility Score: inf
ROOT
ATOM      1  C   UNL     1     137.867 131.870 136.367  1.00  0.00     0.044 C 
ATOM      2  C   UNL     1     136.539 132.452 135.985  1.00  0.00    -0.055 C 
ATOM      3  C   UNL     1     135.904 132.020 134.883  1.00  0.00    -0.023 C 
ATOM      4  C   UNL     1     134.605 132.650 134.455  1.00  0.00     0.035 C 
ATOM      5  C   UNL     1     133.748 133.032 135.684  1.00  0.00     0.018 C 
ATOM      6  C   UNL     1     134.596 133.761 136.709  1.00  0.00    -0.023 C 
ATOM      7  C   UNL     1     135.885 133.441 136.872  1.00  0.00    -0.001 C 
ENDROOT
BRANCH   5   8
ATOM      8  C   UNL     1     132.456 133.804 135.283  1.00  0.00    -0.010 C 
ATOM      9  C   UNL     1     131.946 134.679 136.439  1.00  0.00     0.008 C 
ATOM     10  C   UNL     1     132.615 134.653 134.008  1.00  0.00     0.008 C 
ENDBRANCH   5   8
TORSDOF 1
ENDMDL
MODEL 3
REMARK VINA RESULT:    -4.337      6.696      8.178
REMARK INTER + INTRA:          -4.777
REMARK INTER:                  -4.592
REMARK INTRA:                  -0.186
REMARK UNBOUND:                -0.187
REMARK SMILES CC1=CC[C@H](C(C)C)C=C1
REMARK SMILES IDX 1 1 2 2 3 3 4 4 5 5 9 6 10 7 6 8 7 9 8 10
REMARK H PARENT
REMARK Flexibility Score: inf
ROOT
ATOM      1  C   UNL     1     140.747 137.851 136.333  1.00  0.00     0.044 C 
ATOM      2  C   UNL     1     140.171 136.524 135.940  1.00  0.00    -0.055 C 
ATOM      3  C   UNL     1     140.649 135.870 134.868  1.00  0.00    -0.023 C 
ATOM      4  C   UNL     1     140.027 134.571 134.426  1.00  0.00     0.035 C 
ATOM      5  C   UNL     1     139.577 133.734 135.645  1.00  0.00     0.018 C 
ATOM      6  C   UNL     1     138.808 134.603 136.624  1.00  0.00    -0.023 C 
ATOM      7  C   UNL     1     139.132 135.890 136.786  1.00  0.00    -0.001 C 
ENDROOT
BRANCH   5   8
ATOM      8  C   UNL     1     138.812 132.445 135.224  1.00  0.00    -0.010 C 
ATOM      9  C   UNL     1     137.946 131.907 136.374  1.00  0.00     0.008 C 
ATOM     10  C   UNL     1     137.958 132.621 133.955  1.00  0.00     0.008 C 
ENDBRANCH   5   8
TORSDOF 1
ENDMDL
MODEL 4
REMARK VINA RESULT:    -4.310      4.188      5.836
REMARK INTER + INTRA:          -4.749
REMARK INTER:                  -4.562
REMARK INTRA:                  -0.187
REMARK UNBOUND:                -0.187
REMARK SMILES CC1=CC[C@H](C(C)C)C=C1
REMARK SMILES IDX 1 1 2 2 3 3 4 4 5 5 9 6 10 7 6 8 7 9 8 10
REMARK H PARENT
REMARK Flexibility Score: inf
ROOT
ATOM      1  C   UNL     1     134.820 140.696 136.385  1.00  0.00     0.044 C 
ATOM      2  C   UNL     1     136.143 140.122 135.973  1.00  0.00    -0.055 C 
ATOM      3  C   UNL     1     136.748 140.554 134.855  1.00  0.00    -0.023 C 
ATOM      4  C   UNL     1     138.041 139.932 134.397  1.00  0.00     0.035 C 
ATOM      5  C   UNL     1     138.930 139.561 135.606  1.00  0.00     0.018 C 
ATOM      6  C   UNL     1     138.112 138.830 136.654  1.00  0.00    -0.023 C 
ATOM      7  C   UNL     1     136.826 139.141 136.847  1.00  0.00    -0.001 C 
ENDROOT
BRANCH   5   8
ATOM      8  C   UNL     1     140.217 138.796 135.177  1.00  0.00    -0.010 C 
ATOM      9  C   UNL     1     140.770 137.942 136.329  1.00  0.00     0.008 C 
ATOM     10  C   UNL     1     140.030 137.930 133.918  1.00  0.00     0.008 C 
ENDBRANCH   5   8
TORSDOF 1
ENDMDL
MODEL 5
REMARK VINA RESULT:    -4.139      3.894      5.696
REMARK INTER + INTRA:          -4.568
REMARK INTER:                  -4.434
REMARK INTRA:                  -0.134
REMARK UNBOUND:                -0.187
REMARK SMILES CC1=CC[C@H](C(C)C)C=C1
REMARK SMILES IDX 1 1 2 2 3 3 4 4 5 5 9 6 10 7 6 8 7 9 8 10
REMARK H PARENT
REMARK Flexibility Score: inf
ROOT
ATOM      1  C   UNL     1     140.865 137.880 136.392  1.00  0.00     0.044 C 
ATOM      2  C   UNL     1     139.600 138.663 136.201  1.00  0.00    -0.055 C 
ATOM      3  C   UNL     1     139.387 139.333 135.057  1.00  0.00    -0.023 C 
ATOM      4  C   UNL     1     138.152 140.180 134.886  1.00  0.00     0.035 C 
ATOM      5  C   UNL     1     136.937 139.524 135.581  1.00  0.00     0.018 C 
ATOM      6  C   UNL     1     137.311 139.073 136.980  1.00  0.00    -0.023 C 
ATOM      7  C   UNL     1     138.545 138.626 137.240  1.00  0.00    -0.001 C 
ENDROOT
BRANCH   5   8
ATOM      8  C   UNL     1     135.673 140.433 135.537  1.00  0.00    -0.010 C 
ATOM      9  C   UNL     1     134.729 140.024 134.396  1.00  0.00     0.008 C 
ATOM     10  C   UNL     1     134.903 140.483 136.869  1.00  0.00     0.008 C 
ENDBRANCH   5   8
TORSDOF 1
ENDMDL
MODEL 6
REMARK VINA RESULT:    -4.133      6.568      7.011
REMARK INTER + INTRA:          -4.561
REMARK INTER:                  -4.424
REMARK INTRA:                  -0.137
REMARK UNBOUND:                -0.187
REMARK SMILES CC1=CC[C@H](C(C)C)C=C1
REMARK SMILES IDX 1 1 2 2 3 3 4 4 5 5 9 6 10 7 6 8 7 9 8 10
REMARK H PARENT
REMARK Flexibility Score: inf
ROOT
ATOM      1  C   UNL     1     137.871 131.896 136.651  1.00  0.00     0.044 C 
ATOM      2  C   UNL     1     138.661 133.142 136.383  1.00  0.00    -0.055 C 
ATOM      3  C   UNL     1     139.363 133.266 135.245  1.00  0.00    -0.023 C 
ATOM      4  C   UNL     1     140.215 134.484 135.002  1.00  0.00     0.035 C 
ATOM      5  C   UNL     1     139.542 135.750 135.581  1.00  0.00     0.018 C 
ATOM      6  C   UNL     1     139.052 135.485 136.992  1.00  0.00    -0.023 C 
ATOM      7  C   UNL     1     138.597 134.275 137.335  1.00  0.00    -0.001 C 
ENDROOT
BRANCH   5   8
ATOM      8  C   UNL     1     140.454 137.007 135.464  1.00  0.00    -0.010 C 
ATOM      9  C   UNL     1     139.969 137.947 134.349  1.00  0.00     0.008 C 
ATOM     10  C   UNL     1     140.605 137.784 136.784  1.00  0.00     0.008 C 
ENDBRANCH   5   8
TORSDOF 1
ENDMDL
MODEL 7
REMARK VINA RESULT:    -4.132      0.993      4.301
REMARK INTER + INTRA:          -4.561
REMARK INTER:                  -4.427
REMARK INTRA:                  -0.134
REMARK UNBOUND:                -0.187
REMARK SMILES CC1=CC[C@H](C(C)C)C=C1
REMARK SMILES IDX 1 1 2 2 3 3 4 4 5 5 9 6 10 7 6 8 7 9 8 10
REMARK H PARENT
REMARK Flexibility Score: inf
ROOT
ATOM      1  C   UNL     1     134.779 140.904 136.421  1.00  0.00     0.044 C 
ATOM      2  C   UNL     1     133.993 139.639 136.239  1.00  0.00    -0.055 C 
ATOM      3  C   UNL     1     133.319 139.420 135.099  1.00  0.00    -0.023 C 
ATOM      4  C   UNL     1     132.470 138.186 134.938  1.00  0.00     0.035 C 
ATOM      5  C   UNL     1     133.127 136.974 135.636  1.00  0.00     0.018 C 
ATOM      6  C   UNL     1     133.583 137.355 137.032  1.00  0.00    -0.023 C 
ATOM      7  C   UNL     1     134.033 138.589 137.284  1.00  0.00    -0.001 C 
ENDROOT
BRANCH   5   8
ATOM      8  C   UNL     1     132.215 135.711 135.602  1.00  0.00    -0.010 C 
ATOM      9  C   UNL     1     132.607 134.769 134.453  1.00  0.00     0.008 C 
ATOM     10  C   UNL     1     132.184 134.937 136.933  1.00  0.00     0.008 C 
ENDBRANCH   5   8
TORSDOF 1
ENDMDL
MODEL 8
REMARK VINA RESULT:    -4.095      4.248      5.986
REMARK INTER + INTRA:          -4.521
REMARK INTER:                  -4.384
REMARK INTRA:                  -0.137
REMARK UNBOUND:                -0.187
REMARK SMILES CC1=CC[C@H](C(C)C)C=C1
REMARK SMILES IDX 1 1 2 2 3 3 4 4 5 5 9 6 10 7 6 8 7 9 8 10
REMARK H PARENT
REMARK Flexibility Score: inf
ROOT
ATOM      1  C   UNL     1     131.941 134.814 136.555  1.00  0.00     0.044 C 
ATOM      2  C   UNL     1     133.183 134.013 136.297  1.00  0.00    -0.055 C 
ATOM      3  C   UNL     1     133.333 133.355 135.136  1.00  0.00    -0.023 C 
ATOM      4  C   UNL     1     134.544 132.491 134.899  1.00  0.00     0.035 C 
ATOM      5  C   UNL     1     135.800 133.119 135.545  1.00  0.00     0.018 C 
ATOM      6  C   UNL     1     135.498 133.557 136.965  1.00  0.00    -0.023 C 
ATOM      7  C   UNL     1     134.285 134.020 137.287  1.00  0.00    -0.001 C 
ENDROOT
BRANCH   5   8
ATOM      8  C   UNL     1     137.046 132.191 135.432  1.00  0.00    -0.010 C 
ATOM      9  C   UNL     1     138.027 132.698 134.364  1.00  0.00     0.008 C 
ATOM     10  C   UNL     1     137.781 131.980 136.769  1.00  0.00     0.008 C 
ENDBRANCH   5   8
TORSDOF 1
ENDMDL
MODEL 9
REMARK VINA RESULT:    -4.034      1.755      2.458
REMARK INTER + INTRA:          -4.457
REMARK INTER:                  -4.266
REMARK INTRA:                  -0.192
REMARK UNBOUND:                -0.187
REMARK SMILES CC1=CC[C@H](C(C)C)C=C1
REMARK SMILES IDX 1 1 2 2 3 3 4 4 5 5 9 6 10 7 6 8 7 9 8 10
REMARK H PARENT
REMARK Flexibility Score: inf
ROOT
ATOM      1  C   UNL     1     131.591 136.888 132.791  1.00  0.00     0.044 C 
ATOM      2  C   UNL     1     132.567 137.735 133.553  1.00  0.00    -0.055 C 
ATOM      3  C   UNL     1     133.607 138.302 132.921  1.00  0.00    -0.023 C 
ATOM      4  C   UNL     1     134.630 139.094 133.692  1.00  0.00     0.035 C 
ATOM      5  C   UNL     1     133.961 139.884 134.840  1.00  0.00     0.018 C 
ATOM      6  C   UNL     1     133.016 138.985 135.615  1.00  0.00    -0.023 C 
ATOM      7  C   UNL     1     132.334 138.020 134.988  1.00  0.00    -0.001 C 
ENDROOT
BRANCH   5   8
ATOM      8  C   UNL     1     135.005 140.611 135.740  1.00  0.00    -0.010 C 
ATOM      9  C   UNL     1     134.900 140.149 137.202  1.00  0.00     0.008 C 
ATOM     10  C   UNL     1     136.455 140.468 135.242  1.00  0.00     0.008 C 
ENDBRANCH   5   8
TORSDOF 1
ENDMDL
