MODEL 1
REMARK VINA RESULT:    -7.138      0.000      0.000
REMARK INTER + INTRA:         -11.081
REMARK INTER:                  -9.433
REMARK INTRA:                  -1.648
REMARK UNBOUND:                -1.648
REMARK SMILES CC[C@H](C=C[C@@H](C)[C@H]1CC[C@@H]2[C@@H]3CC=C4C[C@H](O)CC[C@@]4(C)[C@H]3CC[C@@]21C)C(C)C
REMARK SMILES IDX 6 1 7 2 5 3 4 4 3 5 2 6 1 7 28 8 29 9 30 10 8 11 9 12 26 13
REMARK SMILES IDX 10 14 11 15 25 16 27 17 12 18 24 19 23 20 13 21 21 22 14 23
REMARK SMILES IDX 15 24 20 25 22 26 16 27 19 28 17 29 18 30
REMARK H PARENT 18 31
REMARK Flexibility Score: inf
ROOT
ATOM      1  C   UNL     1      48.508  -0.385  22.508  1.00  0.00     0.012 C 
ATOM      2  C   UNL     1      49.321  -1.644  22.136  1.00  0.00     0.012 C 
ENDROOT
BRANCH   1   3
ATOM      3  C   UNL     1      46.996  -0.526  22.376  1.00  0.00    -0.028 C 
ATOM      4  C   UNL     1      46.122  -0.403  23.399  1.00  0.00    -0.027 C 
BRANCH   4   5
ATOM      5  C   UNL     1      44.605  -0.327  23.250  1.00  0.00     0.014 C 
BRANCH   5   6
ATOM      6  C   UNL     1      43.788  -0.318  24.577  1.00  0.00     0.004 C 
ATOM      7  C   UNL     1      44.448  -1.001  25.778  1.00  0.00     0.004 C 
ENDBRANCH   5   6
BRANCH   5   8
ATOM      8  C   UNL     1      44.206   0.762  22.201  1.00  0.00    -0.011 C 
ATOM      9  C   UNL     1      42.969   0.372  21.375  1.00  0.00     0.008 C 
ATOM     10  C   UNL     1      44.046   2.179  22.778  1.00  0.00     0.008 C 
ENDBRANCH   5   8
ENDBRANCH   4   5
ENDBRANCH   1   3
BRANCH   1  11
ATOM     11  C   UNL     1      49.051   0.981  21.948  1.00  0.00     0.002 C 
ATOM     12  C   UNL     1      48.346   1.331  20.626  1.00  0.00     0.005 C 
ATOM     13  C   UNL     1      48.932   2.286  22.819  1.00  0.00    -0.026 C 
ATOM     14  C   UNL     1      47.291   2.384  20.945  1.00  0.00     0.005 C 
ATOM     15  C   UNL     1      47.596   2.934  22.354  1.00  0.00    -0.001 C 
ATOM     16  C   UNL     1      50.163   3.244  22.565  1.00  0.00     0.007 C 
ATOM     17  C   UNL     1      48.904   2.027  24.344  1.00  0.00     0.012 C 
ATOM     18  C   UNL     1      47.645   4.479  22.452  1.00  0.00     0.000 C 
ATOM     19  C   UNL     1      49.992   4.244  21.410  1.00  0.00     0.005 C 
ATOM     20  C   UNL     1      48.709   5.119  21.530  1.00  0.00     0.003 C 
ATOM     21  C   UNL     1      46.299   5.154  22.176  1.00  0.00     0.031 C 
ATOM     22  C   UNL     1      48.929   6.637  21.905  1.00  0.00    -0.008 C 
ATOM     23  C   UNL     1      46.422   6.637  22.406  1.00  0.00    -0.027 C 
ATOM     24  C   UNL     1      47.593   7.315  22.286  1.00  0.00    -0.065 C 
ATOM     25  C   UNL     1      49.902   6.798  23.118  1.00  0.00     0.014 C 
ATOM     26  C   UNL     1      49.512   7.356  20.659  1.00  0.00     0.016 C 
ATOM     27  C   UNL     1      47.657   8.740  22.793  1.00  0.00     0.063 C 
ATOM     28  C   UNL     1      49.977   8.238  23.664  1.00  0.00     0.033 C 
ATOM     29  C   UNL     1      48.588   8.792  24.014  1.00  0.00     0.118 C 
BRANCH  29  30
ATOM     30  O   UNL     1      48.721  10.120  24.451  1.00  0.00    -0.393 OA
ATOM     31  H   UNL     1      49.585  10.175  24.935  1.00  0.00     0.210 HD
ENDBRANCH  29  30
ENDBRANCH   1  11
TORSDOF 6
ENDMDL
MODEL 2
REMARK VINA RESULT:    -6.886      3.095      6.471
REMARK INTER + INTRA:         -10.748
REMARK INTER:                  -9.390
REMARK INTRA:                  -1.358
REMARK UNBOUND:                -1.648
REMARK SMILES CC[C@H](C=C[C@@H](C)[C@H]1CC[C@@H]2[C@@H]3CC=C4C[C@H](O)CC[C@@]4(C)[C@H]3CC[C@@]21C)C(C)C
REMARK SMILES IDX 6 1 7 2 5 3 4 4 3 5 2 6 1 7 28 8 29 9 30 10 8 11 9 12 26 13
REMARK SMILES IDX 10 14 11 15 25 16 27 17 12 18 24 19 23 20 13 21 21 22 14 23
REMARK SMILES IDX 15 24 20 25 22 26 16 27 19 28 17 29 18 30
REMARK H PARENT 18 31
REMARK Flexibility Score: inf
ROOT
ATOM      1  C   UNL     1      49.055   3.312  21.317  1.00  0.00     0.012 C 
ATOM      2  C   UNL     1      48.426   1.992  21.816  1.00  0.00     0.012 C 
ENDROOT
BRANCH   1   3
ATOM      3  C   UNL     1      50.496   3.201  20.832  1.00  0.00    -0.028 C 
ATOM      4  C   UNL     1      50.885   3.346  19.546  1.00  0.00    -0.027 C 
BRANCH   4   5
ATOM      5  C   UNL     1      52.334   3.452  19.077  1.00  0.00     0.014 C 
BRANCH   5   6
ATOM      6  C   UNL     1      52.854   4.892  18.790  1.00  0.00     0.004 C 
ATOM      7  C   UNL     1      51.817   5.892  18.272  1.00  0.00     0.004 C 
ENDBRANCH   5   6
BRANCH   5   8
ATOM      8  C   UNL     1      53.268   2.556  19.957  1.00  0.00    -0.011 C 
ATOM      9  C   UNL     1      53.312   1.094  19.483  1.00  0.00     0.008 C 
ATOM     10  C   UNL     1      54.690   3.108  20.146  1.00  0.00     0.008 C 
ENDBRANCH   5   8
ENDBRANCH   4   5
ENDBRANCH   1   3
BRANCH   1  11
ATOM     11  C   UNL     1      48.802   4.581  22.212  1.00  0.00     0.002 C 
ATOM     12  C   UNL     1      50.081   5.431  22.301  1.00  0.00     0.005 C 
ATOM     13  C   UNL     1      47.673   5.602  21.818  1.00  0.00    -0.026 C 
ATOM     14  C   UNL     1      49.904   6.609  21.348  1.00  0.00     0.005 C 
ATOM     15  C   UNL     1      48.411   6.677  20.969  1.00  0.00    -0.001 C 
ATOM     16  C   UNL     1      47.010   6.231  23.107  1.00  0.00     0.007 C 
ATOM     17  C   UNL     1      46.512   4.978  21.006  1.00  0.00     0.012 C 
ATOM     18  C   UNL     1      47.764   8.076  21.130  1.00  0.00     0.000 C 
ATOM     19  C   UNL     1      47.689   7.502  23.643  1.00  0.00     0.005 C 
ATOM     20  C   UNL     1      47.840   8.625  22.574  1.00  0.00     0.003 C 
ATOM     21  C   UNL     1      48.340   9.132  20.183  1.00  0.00     0.031 C 
ATOM     22  C   UNL     1      46.899   9.882  22.742  1.00  0.00    -0.008 C 
ATOM     23  C   UNL     1      47.574  10.418  20.335  1.00  0.00    -0.027 C 
ATOM     24  C   UNL     1      46.925  10.769  21.476  1.00  0.00    -0.065 C 
ATOM     25  C   UNL     1      45.413   9.463  22.992  1.00  0.00     0.014 C 
ATOM     26  C   UNL     1      47.424  10.715  23.941  1.00  0.00     0.016 C 
ATOM     27  C   UNL     1      45.975  11.946  21.433  1.00  0.00     0.063 C 
ATOM     28  C   UNL     1      44.420  10.642  22.941  1.00  0.00     0.033 C 
ATOM     29  C   UNL     1      44.540  11.436  21.632  1.00  0.00     0.118 C 
BRANCH  29  30
ATOM     30  O   UNL     1      43.652  12.522  21.672  1.00  0.00    -0.393 OA
ATOM     31  H   UNL     1      43.314  12.580  22.603  1.00  0.00     0.210 HD
ENDBRANCH  29  30
ENDBRANCH   1  11
TORSDOF 6
ENDMDL
MODEL 3
REMARK VINA RESULT:    -6.855      3.545      8.476
REMARK INTER + INTRA:         -10.707
REMARK INTER:                  -9.390
REMARK INTRA:                  -1.316
REMARK UNBOUND:                -1.648
REMARK SMILES CC[C@H](C=C[C@@H](C)[C@H]1CC[C@@H]2[C@@H]3CC=C4C[C@H](O)CC[C@@]4(C)[C@H]3CC[C@@]21C)C(C)C
REMARK SMILES IDX 6 1 7 2 5 3 4 4 3 5 2 6 1 7 28 8 29 9 30 10 8 11 9 12 26 13
REMARK SMILES IDX 10 14 11 15 25 16 27 17 12 18 24 19 23 20 13 21 21 22 14 23
REMARK SMILES IDX 15 24 20 25 22 26 16 27 19 28 17 29 18 30
REMARK H PARENT 18 31
REMARK Flexibility Score: inf
ROOT
ATOM      1  C   UNL     1      49.317   6.514  22.206  1.00  0.00     0.012 C 
ATOM      2  C   UNL     1      48.652   7.508  23.183  1.00  0.00     0.012 C 
ENDROOT
BRANCH   1   3
ATOM      3  C   UNL     1      49.558   7.050  20.800  1.00  0.00    -0.028 C 
ATOM      4  C   UNL     1      50.755   7.466  20.332  1.00  0.00    -0.027 C 
BRANCH   4   5
ATOM      5  C   UNL     1      51.058   7.800  18.874  1.00  0.00     0.014 C 
BRANCH   5   6
ATOM      6  C   UNL     1      51.643   6.638  18.016  1.00  0.00     0.004 C 
ATOM      7  C   UNL     1      52.362   5.528  18.786  1.00  0.00     0.004 C 
ENDBRANCH   5   6
BRANCH   5   8
ATOM      8  C   UNL     1      49.871   8.589  18.229  1.00  0.00    -0.011 C 
ATOM      9  C   UNL     1      49.889  10.086  18.579  1.00  0.00     0.008 C 
ATOM     10  C   UNL     1      49.720   8.390  16.712  1.00  0.00     0.008 C 
ENDBRANCH   5   8
ENDBRANCH   4   5
ENDBRANCH   1   3
BRANCH   1  11
ATOM     11  C   UNL     1      48.750   5.046  22.218  1.00  0.00     0.002 C 
ATOM     12  C   UNL     1      48.737   4.471  20.792  1.00  0.00     0.005 C 
ATOM     13  C   UNL     1      49.458   3.942  23.086  1.00  0.00    -0.026 C 
ATOM     14  C   UNL     1      49.938   3.538  20.674  1.00  0.00     0.005 C 
ATOM     15  C   UNL     1      50.454   3.264  22.101  1.00  0.00    -0.001 C 
ATOM     16  C   UNL     1      48.402   2.910  23.651  1.00  0.00     0.007 C 
ATOM     17  C   UNL     1      50.212   4.495  24.319  1.00  0.00     0.012 C 
ATOM     18  C   UNL     1      50.662   1.767  22.440  1.00  0.00     0.000 C 
ATOM     19  C   UNL     1      48.102   1.711  22.738  1.00  0.00     0.005 C 
ATOM     20  C   UNL     1      49.374   0.921  22.307  1.00  0.00     0.003 C 
ATOM     21  C   UNL     1      51.764   1.098  21.613  1.00  0.00     0.031 C 
ATOM     22  C   UNL     1      49.572  -0.501  22.964  1.00  0.00    -0.008 C 
ATOM     23  C   UNL     1      51.968  -0.314  22.093  1.00  0.00    -0.027 C 
ATOM     24  C   UNL     1      50.994  -1.044  22.697  1.00  0.00    -0.065 C 
ATOM     25  C   UNL     1      49.367  -0.456  24.514  1.00  0.00     0.014 C 
ATOM     26  C   UNL     1      48.543  -1.470  22.322  1.00  0.00     0.016 C 
ATOM     27  C   UNL     1      51.380  -2.343  23.371  1.00  0.00     0.063 C 
ATOM     28  C   UNL     1      49.765  -1.764  25.228  1.00  0.00     0.033 C 
ATOM     29  C   UNL     1      51.201  -2.189  24.889  1.00  0.00     0.118 C 
BRANCH  29  30
ATOM     30  O   UNL     1      51.479  -3.409  25.525  1.00  0.00    -0.393 OA
ATOM     31  H   UNL     1      50.875  -3.467  26.309  1.00  0.00     0.210 HD
ENDBRANCH  29  30
ENDBRANCH   1  11
TORSDOF 6
ENDMDL
MODEL 4
REMARK VINA RESULT:    -6.705      3.568      6.155
REMARK INTER + INTRA:         -10.508
REMARK INTER:                  -8.729
REMARK INTRA:                  -1.779
REMARK UNBOUND:                -1.648
REMARK SMILES CC[C@H](C=C[C@@H](C)[C@H]1CC[C@@H]2[C@@H]3CC=C4C[C@H](O)CC[C@@]4(C)[C@H]3CC[C@@]21C)C(C)C
REMARK SMILES IDX 6 1 7 2 5 3 4 4 3 5 2 6 1 7 28 8 29 9 30 10 8 11 9 12 26 13
REMARK SMILES IDX 10 14 11 15 25 16 27 17 12 18 24 19 23 20 13 21 21 22 14 23
REMARK SMILES IDX 15 24 20 25 22 26 16 27 19 28 17 29 18 30
REMARK H PARENT 18 31
REMARK Flexibility Score: inf
ROOT
ATOM      1  C   UNL     1      49.119   4.894  26.051  1.00  0.00     0.012 C 
ATOM      2  C   UNL     1      49.634   4.310  27.385  1.00  0.00     0.012 C 
ENDROOT
BRANCH   1   3
ATOM      3  C   UNL     1      49.885   4.451  24.810  1.00  0.00    -0.028 C 
ATOM      4  C   UNL     1      49.339   3.789  23.767  1.00  0.00    -0.027 C 
BRANCH   4   5
ATOM      5  C   UNL     1      50.034   3.531  22.433  1.00  0.00     0.014 C 
BRANCH   5   6
ATOM      6  C   UNL     1      50.410   2.048  22.136  1.00  0.00     0.004 C 
ATOM      7  C   UNL     1      51.855   1.646  22.441  1.00  0.00     0.004 C 
ENDBRANCH   5   6
BRANCH   5   8
ATOM      8  C   UNL     1      49.309   4.292  21.274  1.00  0.00    -0.011 C 
ATOM      9  C   UNL     1      47.786   4.372  21.474  1.00  0.00     0.008 C 
ATOM     10  C   UNL     1      49.888   5.681  20.960  1.00  0.00     0.008 C 
ENDBRANCH   5   8
ENDBRANCH   4   5
ENDBRANCH   1   3
BRANCH   1  11
ATOM     11  C   UNL     1      48.782   6.431  26.052  1.00  0.00     0.002 C 
ATOM     12  C   UNL     1      50.026   7.247  25.662  1.00  0.00     0.005 C 
ATOM     13  C   UNL     1      47.638   6.981  25.123  1.00  0.00    -0.026 C 
ATOM     14  C   UNL     1      49.853   7.658  24.203  1.00  0.00     0.005 C 
ATOM     15  C   UNL     1      48.377   7.416  23.825  1.00  0.00    -0.001 C 
ATOM     16  C   UNL     1      46.895   8.196  25.808  1.00  0.00     0.007 C 
ATOM     17  C   UNL     1      46.538   5.943  24.795  1.00  0.00     0.012 C 
ATOM     18  C   UNL     1      47.676   8.619  23.144  1.00  0.00     0.000 C 
ATOM     19  C   UNL     1      47.506   9.580  25.531  1.00  0.00     0.005 C 
ATOM     20  C   UNL     1      47.667   9.897  24.014  1.00  0.00     0.003 C 
ATOM     21  C   UNL     1      48.260   8.973  21.774  1.00  0.00     0.031 C 
ATOM     22  C   UNL     1      46.677  10.971  23.415  1.00  0.00    -0.008 C 
ATOM     23  C   UNL     1      47.444  10.072  21.148  1.00  0.00    -0.027 C 
ATOM     24  C   UNL     1      46.731  10.976  21.870  1.00  0.00    -0.065 C 
ATOM     25  C   UNL     1      45.196  10.691  23.833  1.00  0.00     0.014 C 
ATOM     26  C   UNL     1      47.117  12.367  23.930  1.00  0.00     0.016 C 
ATOM     27  C   UNL     1      45.744  11.864  21.142  1.00  0.00     0.063 C 
ATOM     28  C   UNL     1      44.167  11.573  23.097  1.00  0.00     0.033 C 
ATOM     29  C   UNL     1      44.320  11.482  21.571  1.00  0.00     0.118 C 
BRANCH  29  30
ATOM     30  O   UNL     1      43.395  12.347  20.966  1.00  0.00    -0.393 OA
ATOM     31  H   UNL     1      42.514  11.893  21.004  1.00  0.00     0.210 HD
ENDBRANCH  29  30
ENDBRANCH   1  11
TORSDOF 6
ENDMDL
MODEL 5
REMARK VINA RESULT:    -6.693      3.710      7.716
REMARK INTER + INTRA:         -10.493
REMARK INTER:                  -9.069
REMARK INTRA:                  -1.424
REMARK UNBOUND:                -1.648
REMARK SMILES CC[C@H](C=C[C@@H](C)[C@H]1CC[C@@H]2[C@@H]3CC=C4C[C@H](O)CC[C@@]4(C)[C@H]3CC[C@@]21C)C(C)C
REMARK SMILES IDX 6 1 7 2 5 3 4 4 3 5 2 6 1 7 28 8 29 9 30 10 8 11 9 12 26 13
REMARK SMILES IDX 10 14 11 15 25 16 27 17 12 18 24 19 23 20 13 21 21 22 14 23
REMARK SMILES IDX 15 24 20 25 22 26 16 27 19 28 17 29 18 30
REMARK H PARENT 18 31
REMARK Flexibility Score: inf
ROOT
ATOM      1  C   UNL     1      47.808   7.762  26.577  1.00  0.00     0.012 C 
ATOM      2  C   UNL     1      47.617   7.695  28.109  1.00  0.00     0.012 C 
ENDROOT
BRANCH   1   3
ATOM      3  C   UNL     1      46.966   8.813  25.864  1.00  0.00    -0.028 C 
ATOM      4  C   UNL     1      47.468   9.817  25.112  1.00  0.00    -0.027 C 
BRANCH   4   5
ATOM      5  C   UNL     1      46.642  10.742  24.222  1.00  0.00     0.014 C 
BRANCH   5   6
ATOM      6  C   UNL     1      47.196  10.981  22.786  1.00  0.00     0.004 C 
ATOM      7  C   UNL     1      46.957  12.372  22.194  1.00  0.00     0.004 C 
ENDBRANCH   5   6
BRANCH   5   8
ATOM      8  C   UNL     1      45.122  10.384  24.312  1.00  0.00    -0.011 C 
ATOM      9  C   UNL     1      44.241  11.599  24.645  1.00  0.00     0.008 C 
ATOM     10  C   UNL     1      44.568   9.632  23.090  1.00  0.00     0.008 C 
ENDBRANCH   5   8
ENDBRANCH   4   5
ENDBRANCH   1   3
BRANCH   1  11
ATOM     11  C   UNL     1      47.842   6.382  25.822  1.00  0.00     0.002 C 
ATOM     12  C   UNL     1      46.736   6.334  24.754  1.00  0.00     0.005 C 
ATOM     13  C   UNL     1      49.146   5.938  25.063  1.00  0.00    -0.026 C 
ATOM     14  C   UNL     1      47.402   6.590  23.406  1.00  0.00     0.005 C 
ATOM     15  C   UNL     1      48.923   6.428  23.603  1.00  0.00    -0.001 C 
ATOM     16  C   UNL     1      49.328   4.369  25.130  1.00  0.00     0.007 C 
ATOM     17  C   UNL     1      50.449   6.541  25.641  1.00  0.00     0.012 C 
ATOM     18  C   UNL     1      49.615   5.498  22.576  1.00  0.00     0.000 C 
ATOM     19  C   UNL     1      48.647   3.579  24.001  1.00  0.00     0.005 C 
ATOM     20  C   UNL     1      49.052   4.057  22.575  1.00  0.00     0.003 C 
ATOM     21  C   UNL     1      49.575   6.031  21.141  1.00  0.00     0.031 C 
ATOM     22  C   UNL     1      49.994   3.092  21.754  1.00  0.00    -0.008 C 
ATOM     23  C   UNL     1      50.367   5.119  20.243  1.00  0.00    -0.027 C 
ATOM     24  C   UNL     1      50.561   3.800  20.503  1.00  0.00    -0.065 C 
ATOM     25  C   UNL     1      51.208   2.603  22.610  1.00  0.00     0.014 C 
ATOM     26  C   UNL     1      49.147   1.876  21.294  1.00  0.00     0.016 C 
ATOM     27  C   UNL     1      51.584   3.045  19.681  1.00  0.00     0.063 C 
ATOM     28  C   UNL     1      52.273   1.842  21.795  1.00  0.00     0.033 C 
ATOM     29  C   UNL     1      52.761   2.655  20.587  1.00  0.00     0.118 C 
BRANCH  29  30
ATOM     30  O   UNL     1      53.684   1.887  19.860  1.00  0.00    -0.393 OA
ATOM     31  H   UNL     1      54.374   2.514  19.522  1.00  0.00     0.210 HD
ENDBRANCH  29  30
ENDBRANCH   1  11
TORSDOF 6
ENDMDL
MODEL 6
REMARK VINA RESULT:    -6.635      1.828      4.250
REMARK INTER + INTRA:         -10.416
REMARK INTER:                  -9.003
REMARK INTRA:                  -1.413
REMARK UNBOUND:                -1.648
REMARK SMILES CC[C@H](C=C[C@@H](C)[C@H]1CC[C@@H]2[C@@H]3CC=C4C[C@H](O)CC[C@@]4(C)[C@H]3CC[C@@]21C)C(C)C
REMARK SMILES IDX 6 1 7 2 5 3 4 4 3 5 2 6 1 7 28 8 29 9 30 10 8 11 9 12 26 13
REMARK SMILES IDX 10 14 11 15 25 16 27 17 12 18 24 19 23 20 13 21 21 22 14 23
REMARK SMILES IDX 15 24 20 25 22 26 16 27 19 28 17 29 18 30
REMARK H PARENT 18 31
REMARK Flexibility Score: inf
ROOT
ATOM      1  C   UNL     1      44.961   0.789  22.560  1.00  0.00     0.012 C 
ATOM      2  C   UNL     1      43.500   0.341  22.781  1.00  0.00     0.012 C 
ENDROOT
BRANCH   1   3
ATOM      3  C   UNL     1      46.020  -0.142  23.139  1.00  0.00    -0.028 C 
ATOM      4  C   UNL     1      46.983  -0.753  22.415  1.00  0.00    -0.027 C 
BRANCH   4   5
ATOM      5  C   UNL     1      48.172  -1.509  23.001  1.00  0.00     0.014 C 
BRANCH   5   6
ATOM      6  C   UNL     1      47.902  -2.984  23.425  1.00  0.00     0.004 C 
ATOM      7  C   UNL     1      47.984  -3.280  24.925  1.00  0.00     0.004 C 
ENDBRANCH   5   6
BRANCH   5   8
ATOM      8  C   UNL     1      49.456  -1.276  22.138  1.00  0.00    -0.011 C 
ATOM      9  C   UNL     1      49.909   0.193  22.126  1.00  0.00     0.008 C 
ATOM     10  C   UNL     1      50.635  -2.202  22.481  1.00  0.00     0.008 C 
ENDBRANCH   5   8
ENDBRANCH   4   5
ENDBRANCH   1   3
BRANCH   1  11
ATOM     11  C   UNL     1      45.267   2.310  22.822  1.00  0.00     0.002 C 
ATOM     12  C   UNL     1      46.243   2.459  24.001  1.00  0.00     0.005 C 
ATOM     13  C   UNL     1      45.889   3.191  21.677  1.00  0.00    -0.026 C 
ATOM     14  C   UNL     1      47.621   2.736  23.411  1.00  0.00     0.005 C 
ATOM     15  C   UNL     1      47.423   3.115  21.929  1.00  0.00    -0.001 C 
ATOM     16  C   UNL     1      45.357   4.677  21.761  1.00  0.00     0.007 C 
ATOM     17  C   UNL     1      45.551   2.700  20.249  1.00  0.00     0.012 C 
ATOM     18  C   UNL     1      48.139   4.417  21.490  1.00  0.00     0.000 C 
ATOM     19  C   UNL     1      46.179   5.620  22.655  1.00  0.00     0.005 C 
ATOM     20  C   UNL     1      47.692   5.663  22.289  1.00  0.00     0.003 C 
ATOM     21  C   UNL     1      49.666   4.327  21.551  1.00  0.00     0.031 C 
ATOM     22  C   UNL     1      48.207   6.984  21.593  1.00  0.00    -0.008 C 
ATOM     23  C   UNL     1      50.268   5.592  21.000  1.00  0.00    -0.027 C 
ATOM     24  C   UNL     1      49.627   6.790  21.014  1.00  0.00    -0.065 C 
ATOM     25  C   UNL     1      47.274   7.420  20.416  1.00  0.00     0.014 C 
ATOM     26  C   UNL     1      48.259   8.101  22.669  1.00  0.00     0.016 C 
ATOM     27  C   UNL     1      50.209   7.929  20.204  1.00  0.00     0.063 C 
ATOM     28  C   UNL     1      47.848   8.570  19.565  1.00  0.00     0.033 C 
ATOM     29  C   UNL     1      49.257   8.250  19.043  1.00  0.00     0.118 C 
BRANCH  29  30
ATOM     30  O   UNL     1      49.741   9.355  18.325  1.00  0.00    -0.393 OA
ATOM     31  H   UNL     1      49.644   9.135  17.363  1.00  0.00     0.210 HD
ENDBRANCH  29  30
ENDBRANCH   1  11
TORSDOF 6
ENDMDL
MODEL 7
REMARK VINA RESULT:    -6.517      4.221      9.859
REMARK INTER + INTRA:         -10.260
REMARK INTER:                  -9.476
REMARK INTRA:                  -0.784
REMARK UNBOUND:                -1.648
REMARK SMILES CC[C@H](C=C[C@@H](C)[C@H]1CC[C@@H]2[C@@H]3CC=C4C[C@H](O)CC[C@@]4(C)[C@H]3CC[C@@]21C)C(C)C
REMARK SMILES IDX 6 1 7 2 5 3 4 4 3 5 2 6 1 7 28 8 29 9 30 10 8 11 9 12 26 13
REMARK SMILES IDX 10 14 11 15 25 16 27 17 12 18 24 19 23 20 13 21 21 22 14 23
REMARK SMILES IDX 15 24 20 25 22 26 16 27 19 28 17 29 18 30
REMARK H PARENT 18 31
REMARK Flexibility Score: inf
ROOT
ATOM      1  C   UNL     1      47.168  11.121  20.905  1.00  0.00     0.012 C 
ATOM      2  C   UNL     1      45.799  11.830  21.015  1.00  0.00     0.012 C 
ENDROOT
BRANCH   1   3
ATOM      3  C   UNL     1      48.107  11.683  19.845  1.00  0.00    -0.028 C 
ATOM      4  C   UNL     1      48.108  12.967  19.424  1.00  0.00    -0.027 C 
BRANCH   4   5
ATOM      5  C   UNL     1      49.173  13.594  18.529  1.00  0.00     0.014 C 
BRANCH   5   6
ATOM      6  C   UNL     1      48.886  13.557  16.998  1.00  0.00     0.004 C 
ATOM      7  C   UNL     1      49.898  12.790  16.142  1.00  0.00     0.004 C 
ENDBRANCH   5   6
BRANCH   5   8
ATOM      8  C   UNL     1      49.631  14.977  19.099  1.00  0.00    -0.011 C 
ATOM      9  C   UNL     1      49.971  15.994  17.998  1.00  0.00     0.008 C 
ATOM     10  C   UNL     1      48.670  15.595  20.129  1.00  0.00     0.008 C 
ENDBRANCH   5   8
ENDBRANCH   4   5
ENDBRANCH   1   3
BRANCH   1  11
ATOM     11  C   UNL     1      47.138   9.548  20.931  1.00  0.00     0.002 C 
ATOM     12  C   UNL     1      48.366   8.982  20.198  1.00  0.00     0.005 C 
ATOM     13  C   UNL     1      47.112   8.789  22.308  1.00  0.00    -0.026 C 
ATOM     14  C   UNL     1      49.362   8.543  21.265  1.00  0.00     0.005 C 
ATOM     15  C   UNL     1      48.610   8.499  22.611  1.00  0.00    -0.001 C 
ATOM     16  C   UNL     1      46.270   7.456  22.198  1.00  0.00     0.007 C 
ATOM     17  C   UNL     1      46.474   9.598  23.463  1.00  0.00     0.012 C 
ATOM     18  C   UNL     1      48.787   7.183  23.411  1.00  0.00     0.000 C 
ATOM     19  C   UNL     1      47.061   6.213  21.759  1.00  0.00     0.005 C 
ATOM     20  C   UNL     1      48.313   5.928  22.641  1.00  0.00     0.003 C 
ATOM     21  C   UNL     1      50.222   6.943  23.887  1.00  0.00     0.031 C 
ATOM     22  C   UNL     1      48.220   4.685  23.610  1.00  0.00    -0.008 C 
ATOM     23  C   UNL     1      50.268   5.708  24.745  1.00  0.00    -0.027 C 
ATOM     24  C   UNL     1      49.380   4.687  24.631  1.00  0.00    -0.065 C 
ATOM     25  C   UNL     1      46.881   4.680  24.417  1.00  0.00     0.014 C 
ATOM     26  C   UNL     1      48.322   3.399  22.746  1.00  0.00     0.016 C 
ATOM     27  C   UNL     1      49.357   3.626  25.711  1.00  0.00     0.063 C 
ATOM     28  C   UNL     1      46.835   3.616  25.533  1.00  0.00     0.033 C 
ATOM     29  C   UNL     1      48.035   3.731  26.485  1.00  0.00     0.118 C 
BRANCH  29  30
ATOM     30  O   UNL     1      47.962   2.705  27.440  1.00  0.00    -0.393 OA
ATOM     31  H   UNL     1      47.646   3.122  28.283  1.00  0.00     0.210 HD
ENDBRANCH  29  30
ENDBRANCH   1  11
TORSDOF 6
ENDMDL
MODEL 8
REMARK VINA RESULT:    -6.490      3.041      7.783
REMARK INTER + INTRA:         -10.225
REMARK INTER:                  -8.334
REMARK INTRA:                  -1.891
REMARK UNBOUND:                -1.648
REMARK SMILES CC[C@H](C=C[C@@H](C)[C@H]1CC[C@@H]2[C@@H]3CC=C4C[C@H](O)CC[C@@]4(C)[C@H]3CC[C@@]21C)C(C)C
REMARK SMILES IDX 6 1 7 2 5 3 4 4 3 5 2 6 1 7 28 8 29 9 30 10 8 11 9 12 26 13
REMARK SMILES IDX 10 14 11 15 25 16 27 17 12 18 24 19 23 20 13 21 21 22 14 23
REMARK SMILES IDX 15 24 20 25 22 26 16 27 19 28 17 29 18 30
REMARK H PARENT 18 31
REMARK Flexibility Score: inf
ROOT
ATOM      1  C   UNL     1      45.071   4.007  22.016  1.00  0.00     0.012 C 
ATOM      2  C   UNL     1      43.615   4.395  21.675  1.00  0.00     0.012 C 
ENDROOT
BRANCH   1   3
ATOM      3  C   UNL     1      46.143   4.854  21.342  1.00  0.00    -0.028 C 
ATOM      4  C   UNL     1      47.128   5.508  21.997  1.00  0.00    -0.027 C 
BRANCH   4   5
ATOM      5  C   UNL     1      48.327   6.178  21.331  1.00  0.00     0.014 C 
BRANCH   5   6
ATOM      6  C   UNL     1      48.346   7.736  21.369  1.00  0.00     0.004 C 
ATOM      7  C   UNL     1      49.566   8.410  20.735  1.00  0.00     0.004 C 
ENDBRANCH   5   6
BRANCH   5   8
ATOM      8  C   UNL     1      49.659   5.473  21.750  1.00  0.00    -0.011 C 
ATOM      9  C   UNL     1      49.622   4.937  23.191  1.00  0.00     0.008 C 
ATOM     10  C   UNL     1      50.139   4.383  20.779  1.00  0.00     0.008 C 
ENDBRANCH   5   8
ENDBRANCH   4   5
ENDBRANCH   1   3
BRANCH   1  11
ATOM     11  C   UNL     1      45.400   2.469  22.000  1.00  0.00     0.002 C 
ATOM     12  C   UNL     1      45.881   2.044  20.602  1.00  0.00     0.005 C 
ATOM     13  C   UNL     1      46.480   1.890  22.986  1.00  0.00    -0.026 C 
ATOM     14  C   UNL     1      47.400   1.921  20.669  1.00  0.00     0.005 C 
ATOM     15  C   UNL     1      47.799   1.908  22.159  1.00  0.00    -0.001 C 
ATOM     16  C   UNL     1      46.097   0.425  23.440  1.00  0.00     0.007 C 
ATOM     17  C   UNL     1      46.649   2.707  24.289  1.00  0.00     0.012 C 
ATOM     18  C   UNL     1      48.746   0.752  22.568  1.00  0.00     0.000 C 
ATOM     19  C   UNL     1      46.617  -0.702  22.533  1.00  0.00     0.005 C 
ATOM     20  C   UNL     1      48.155  -0.651  22.296  1.00  0.00     0.003 C 
ATOM     21  C   UNL     1      50.127   0.829  21.912  1.00  0.00     0.031 C 
ATOM     22  C   UNL     1      49.012  -1.765  23.016  1.00  0.00    -0.008 C 
ATOM     23  C   UNL     1      51.006  -0.265  22.457  1.00  0.00    -0.027 C 
ATOM     24  C   UNL     1      50.521  -1.433  22.952  1.00  0.00    -0.065 C 
ATOM     25  C   UNL     1      48.625  -1.908  24.524  1.00  0.00     0.014 C 
ATOM     26  C   UNL     1      48.769  -3.107  22.276  1.00  0.00     0.016 C 
ATOM     27  C   UNL     1      51.465  -2.343  23.710  1.00  0.00     0.063 C 
ATOM     28  C   UNL     1      49.578  -2.820  25.324  1.00  0.00     0.033 C 
ATOM     29  C   UNL     1      51.043  -2.379  25.186  1.00  0.00     0.118 C 
BRANCH  29  30
ATOM     30  O   UNL     1      51.859  -3.278  25.890  1.00  0.00    -0.393 OA
ATOM     31  H   UNL     1      52.463  -2.732  26.457  1.00  0.00     0.210 HD
ENDBRANCH  29  30
ENDBRANCH   1  11
TORSDOF 6
ENDMDL
MODEL 9
REMARK VINA RESULT:    -6.227      1.715      2.786
REMARK INTER + INTRA:          -9.877
REMARK INTER:                  -8.060
REMARK INTRA:                  -1.817
REMARK UNBOUND:                -1.648
REMARK SMILES CC[C@H](C=C[C@@H](C)[C@H]1CC[C@@H]2[C@@H]3CC=C4C[C@H](O)CC[C@@]4(C)[C@H]3CC[C@@]21C)C(C)C
REMARK SMILES IDX 6 1 7 2 5 3 4 4 3 5 2 6 1 7 28 8 29 9 30 10 8 11 9 12 26 13
REMARK SMILES IDX 10 14 11 15 25 16 27 17 12 18 24 19 23 20 13 21 21 22 14 23
REMARK SMILES IDX 15 24 20 25 22 26 16 27 19 28 17 29 18 30
REMARK H PARENT 18 31
REMARK Flexibility Score: inf
ROOT
ATOM      1  C   UNL     1      47.929   2.032  22.737  1.00  0.00     0.012 C 
ATOM      2  C   UNL     1      49.024   0.981  22.449  1.00  0.00     0.012 C 
ENDROOT
BRANCH   1   3
ATOM      3  C   UNL     1      46.498   1.556  22.520  1.00  0.00    -0.028 C 
ATOM      4  C   UNL     1      45.502   1.679  23.424  1.00  0.00    -0.027 C 
BRANCH   4   5
ATOM      5  C   UNL     1      44.027   1.407  23.145  1.00  0.00     0.014 C 
BRANCH   5   6
ATOM      6  C   UNL     1      43.014   2.382  23.816  1.00  0.00     0.004 C 
ATOM      7  C   UNL     1      43.590   3.707  24.323  1.00  0.00     0.004 C 
ENDBRANCH   5   6
BRANCH   5   8
ATOM      8  C   UNL     1      43.794   1.129  21.623  1.00  0.00    -0.011 C 
ATOM      9  C   UNL     1      42.875  -0.077  21.371  1.00  0.00     0.008 C 
ATOM     10  C   UNL     1      43.321   2.349  20.815  1.00  0.00     0.008 C 
ENDBRANCH   5   8
ENDBRANCH   4   5
ENDBRANCH   1   3
BRANCH   1  11
ATOM     11  C   UNL     1      48.191   3.477  22.172  1.00  0.00     0.002 C 
ATOM     12  C   UNL     1      47.396   3.691  20.873  1.00  0.00     0.005 C 
ATOM     13  C   UNL     1      47.854   4.735  23.056  1.00  0.00    -0.026 C 
ATOM     14  C   UNL     1      46.171   4.528  21.229  1.00  0.00     0.005 C 
ATOM     15  C   UNL     1      46.408   5.121  22.633  1.00  0.00    -0.001 C 
ATOM     16  C   UNL     1      48.877   5.907  22.775  1.00  0.00     0.007 C 
ATOM     17  C   UNL     1      47.919   4.471  24.580  1.00  0.00     0.012 C 
ATOM     18  C   UNL     1      46.169   6.648  22.741  1.00  0.00     0.000 C 
ATOM     19  C   UNL     1      48.489   6.859  21.633  1.00  0.00     0.005 C 
ATOM     20  C   UNL     1      47.068   7.478  21.795  1.00  0.00     0.003 C 
ATOM     21  C   UNL     1      44.714   7.060  22.507  1.00  0.00     0.031 C 
ATOM     22  C   UNL     1      47.010   9.010  22.174  1.00  0.00    -0.008 C 
ATOM     23  C   UNL     1      44.563   8.539  22.744  1.00  0.00    -0.027 C 
ATOM     24  C   UNL     1      45.583   9.425  22.597  1.00  0.00    -0.065 C 
ATOM     25  C   UNL     1      47.970   9.348  23.362  1.00  0.00     0.014 C 
ATOM     26  C   UNL     1      47.413   9.829  20.919  1.00  0.00     0.016 C 
ATOM     27  C   UNL     1      45.393  10.835  23.113  1.00  0.00     0.063 C 
ATOM     28  C   UNL     1      47.790  10.776  23.917  1.00  0.00     0.033 C 
ATOM     29  C   UNL     1      46.332  11.059  24.308  1.00  0.00     0.118 C 
BRANCH  29  30
ATOM     30  O   UNL     1      46.226  12.386  24.751  1.00  0.00    -0.393 OA
ATOM     31  H   UNL     1      45.646  12.373  25.556  1.00  0.00     0.210 HD
ENDBRANCH  29  30
ENDBRANCH   1  11
TORSDOF 6
ENDMDL
