MODEL 1
REMARK VINA RESULT:    -3.411      0.000      0.000
REMARK INTER + INTRA:         -11.488
REMARK INTER:                  -7.797
REMARK INTRA:                  -3.690
REMARK UNBOUND:                -3.690
REMARK SMILES CCCCCCCCCCCCCCCCCCCCCCCC(=O)[O-]
REMARK SMILES IDX 13 1 14 2 15 3 16 4 17 5 18 6 19 7 20 8 21 9 22 10 23 11
REMARK SMILES IDX 24 12 25 13 26 14 12 15 11 16 10 17 9 18 8 19 7 20 6 21 5 22
REMARK SMILES IDX 4 23 3 24 2 25 1 26
REMARK H PARENT
REMARK Flexibility Score: inf
ROOT
ATOM      1  C   UNL     1       8.991   8.476  31.919  1.00  0.00     0.000 C 
ENDROOT
BRANCH   1   2
ATOM      2  C   UNL     1       8.374   7.720  30.731  1.00  0.00     0.000 C 
BRANCH   2   3
ATOM      3  C   UNL     1       7.989   6.272  31.088  1.00  0.00     0.000 C 
BRANCH   3   4
ATOM      4  C   UNL     1       8.928   5.196  30.510  1.00  0.00     0.000 C 
BRANCH   4   5
ATOM      5  C   UNL     1       9.643   5.650  29.225  1.00  0.00     0.000 C 
BRANCH   5   6
ATOM      6  C   UNL     1      11.164   5.816  29.433  1.00  0.00     0.000 C 
BRANCH   6   7
ATOM      7  C   UNL     1      11.916   4.485  29.632  1.00  0.00     0.000 C 
BRANCH   7   8
ATOM      8  C   UNL     1      13.138   4.283  28.721  1.00  0.00     0.000 C 
BRANCH   8   9
ATOM      9  C   UNL     1      14.384   5.035  29.220  1.00  0.00     0.000 C 
BRANCH   9  10
ATOM     10  C   UNL     1      15.049   5.875  28.119  1.00  0.00     0.006 C 
BRANCH  10  11
ATOM     11  C   UNL     1      14.032   6.583  27.216  1.00  0.00     0.053 C 
BRANCH  11  12
ATOM     12  C   UNL     1      14.249   6.205  25.785  1.00  0.00     0.041 C 
ATOM     13  O   UNL     1      13.715   6.878  24.864  1.00  0.00    -0.550 OA
ATOM     14  O   UNL     1      15.086   5.143  25.465  1.00  0.00    -0.550 OA
ENDBRANCH  11  12
ENDBRANCH  10  11
ENDBRANCH   9  10
ENDBRANCH   8   9
ENDBRANCH   7   8
ENDBRANCH   6   7
ENDBRANCH   5   6
ENDBRANCH   4   5
ENDBRANCH   3   4
ENDBRANCH   2   3
ENDBRANCH   1   2
BRANCH   1  15
ATOM     15  C   UNL     1      10.509   8.262  32.041  1.00  0.00     0.000 C 
BRANCH  15  16
ATOM     16  C   UNL     1      10.898   7.479  33.307  1.00  0.00     0.000 C 
BRANCH  16  17
ATOM     17  C   UNL     1      11.896   6.347  33.009  1.00  0.00     0.000 C 
BRANCH  17  18
ATOM     18  C   UNL     1      11.326   4.959  33.345  1.00  0.00    -0.000 C 
BRANCH  18  19
ATOM     19  C   UNL     1      10.105   5.074  34.271  1.00  0.00    -0.000 C 
BRANCH  19  20
ATOM     20  C   UNL     1       9.002   4.047  33.945  1.00  0.00    -0.000 C 
BRANCH  20  21
ATOM     21  C   UNL     1       9.467   2.819  33.139  1.00  0.00    -0.000 C 
BRANCH  21  22
ATOM     22  C   UNL     1       8.365   1.765  32.953  1.00  0.00    -0.000 C 
BRANCH  22  23
ATOM     23  C   UNL     1       8.693   0.825  31.785  1.00  0.00    -0.000 C 
BRANCH  23  24
ATOM     24  C   UNL     1       8.644   1.530  30.420  1.00  0.00    -0.000 C 
BRANCH  24  25
ATOM     25  C   UNL     1       9.944   1.380  29.601  1.00  0.00    -0.003 C 
ATOM     26  C   UNL     1      10.028   0.032  28.884  1.00  0.00     0.004 C 
ENDBRANCH  24  25
ENDBRANCH  23  24
ENDBRANCH  22  23
ENDBRANCH  21  22
ENDBRANCH  20  21
ENDBRANCH  19  20
ENDBRANCH  18  19
ENDBRANCH  17  18
ENDBRANCH  16  17
ENDBRANCH  15  16
ENDBRANCH   1  15
TORSDOF 22
ENDMDL
MODEL 2
REMARK VINA RESULT:    -3.393      2.409      3.141
REMARK INTER + INTRA:         -11.447
REMARK INTER:                  -7.216
REMARK INTRA:                  -4.231
REMARK UNBOUND:                -3.690
REMARK SMILES CCCCCCCCCCCCCCCCCCCCCCCC(=O)[O-]
REMARK SMILES IDX 13 1 14 2 15 3 16 4 17 5 18 6 19 7 20 8 21 9 22 10 23 11
REMARK SMILES IDX 24 12 25 13 26 14 12 15 11 16 10 17 9 18 8 19 7 20 6 21 5 22
REMARK SMILES IDX 4 23 3 24 2 25 1 26
REMARK H PARENT
REMARK Flexibility Score: inf
ROOT
ATOM      1  C   UNL     1      10.173   8.347  32.585  1.00  0.00     0.000 C 
ENDROOT
BRANCH   1   2
ATOM      2  C   UNL     1      10.464   8.143  31.089  1.00  0.00     0.000 C 
BRANCH   2   3
ATOM      3  C   UNL     1       9.181   7.964  30.257  1.00  0.00     0.000 C 
BRANCH   3   4
ATOM      4  C   UNL     1       7.971   7.428  31.046  1.00  0.00     0.000 C 
BRANCH   4   5
ATOM      5  C   UNL     1       7.968   5.894  31.171  1.00  0.00     0.000 C 
BRANCH   5   6
ATOM      6  C   UNL     1       8.658   5.210  29.971  1.00  0.00     0.000 C 
BRANCH   6   7
ATOM      7  C   UNL     1       9.994   4.528  30.324  1.00  0.00     0.000 C 
BRANCH   7   8
ATOM      8  C   UNL     1      11.150   4.812  29.350  1.00  0.00     0.000 C 
BRANCH   8   9
ATOM      9  C   UNL     1      12.448   4.083  29.738  1.00  0.00     0.000 C 
BRANCH   9  10
ATOM     10  C   UNL     1      12.331   3.336  31.075  1.00  0.00     0.006 C 
BRANCH  10  11
ATOM     11  C   UNL     1      13.590   2.530  31.418  1.00  0.00     0.053 C 
BRANCH  11  12
ATOM     12  C   UNL     1      14.791   3.422  31.443  1.00  0.00     0.041 C 
ATOM     13  O   UNL     1      15.749   3.218  30.649  1.00  0.00    -0.550 OA
ATOM     14  O   UNL     1      14.831   4.512  32.304  1.00  0.00    -0.550 OA
ENDBRANCH  11  12
ENDBRANCH  10  11
ENDBRANCH   9  10
ENDBRANCH   8   9
ENDBRANCH   7   8
ENDBRANCH   6   7
ENDBRANCH   5   6
ENDBRANCH   4   5
ENDBRANCH   3   4
ENDBRANCH   2   3
ENDBRANCH   1   2
BRANCH   1  15
ATOM     15  C   UNL     1      11.271   7.767  33.492  1.00  0.00     0.000 C 
BRANCH  15  16
ATOM     16  C   UNL     1      11.848   6.445  32.956  1.00  0.00     0.000 C 
BRANCH  16  17
ATOM     17  C   UNL     1      11.865   5.339  34.026  1.00  0.00     0.000 C 
BRANCH  17  18
ATOM     18  C   UNL     1      10.546   5.262  34.811  1.00  0.00    -0.000 C 
BRANCH  18  19
ATOM     19  C   UNL     1       9.567   4.279  34.150  1.00  0.00    -0.000 C 
BRANCH  19  20
ATOM     20  C   UNL     1       9.788   2.819  34.593  1.00  0.00    -0.000 C 
BRANCH  20  21
ATOM     21  C   UNL     1       9.631   1.765  33.480  1.00  0.00    -0.000 C 
BRANCH  21  22
ATOM     22  C   UNL     1       8.632   2.181  32.390  1.00  0.00    -0.000 C 
BRANCH  22  23
ATOM     23  C   UNL     1       8.335   1.012  31.440  1.00  0.00    -0.000 C 
BRANCH  23  24
ATOM     24  C   UNL     1       8.623   1.352  29.968  1.00  0.00    -0.000 C 
BRANCH  24  25
ATOM     25  C   UNL     1      10.014   0.885  29.488  1.00  0.00    -0.003 C 
ATOM     26  C   UNL     1       9.925  -0.165  28.381  1.00  0.00     0.004 C 
ENDBRANCH  24  25
ENDBRANCH  23  24
ENDBRANCH  22  23
ENDBRANCH  21  22
ENDBRANCH  20  21
ENDBRANCH  19  20
ENDBRANCH  18  19
ENDBRANCH  17  18
ENDBRANCH  16  17
ENDBRANCH  15  16
ENDBRANCH   1  15
TORSDOF 22
ENDMDL
MODEL 3
REMARK VINA RESULT:    -3.390      1.442      3.088
REMARK INTER + INTRA:         -11.440
REMARK INTER:                  -6.693
REMARK INTRA:                  -4.747
REMARK UNBOUND:                -3.690
REMARK SMILES CCCCCCCCCCCCCCCCCCCCCCCC(=O)[O-]
REMARK SMILES IDX 13 1 14 2 15 3 16 4 17 5 18 6 19 7 20 8 21 9 22 10 23 11
REMARK SMILES IDX 24 12 25 13 26 14 12 15 11 16 10 17 9 18 8 19 7 20 6 21 5 22
REMARK SMILES IDX 4 23 3 24 2 25 1 26
REMARK H PARENT
REMARK Flexibility Score: inf
ROOT
ATOM      1  C   UNL     1      11.458   5.988  32.903  1.00  0.00     0.000 C 
ENDROOT
BRANCH   1   2
ATOM      2  C   UNL     1      11.302   7.482  33.230  1.00  0.00     0.000 C 
BRANCH   2   3
ATOM      3  C   UNL     1      10.651   8.273  32.080  1.00  0.00     0.000 C 
BRANCH   3   4
ATOM      4  C   UNL     1       9.123   8.435  32.194  1.00  0.00     0.000 C 
BRANCH   4   5
ATOM      5  C   UNL     1       8.356   7.679  31.095  1.00  0.00     0.000 C 
BRANCH   5   6
ATOM      6  C   UNL     1       9.271   7.269  29.922  1.00  0.00     0.000 C 
BRANCH   6   7
ATOM      7  C   UNL     1       9.143   5.788  29.518  1.00  0.00     0.000 C 
BRANCH   7   8
ATOM      8  C   UNL     1      10.475   5.060  29.273  1.00  0.00     0.000 C 
BRANCH   8   9
ATOM      9  C   UNL     1      11.693   5.996  29.371  1.00  0.00     0.000 C 
BRANCH   9  10
ATOM     10  C   UNL     1      13.001   5.312  28.947  1.00  0.00     0.006 C 
BRANCH  10  11
ATOM     11  C   UNL     1      13.177   5.259  27.425  1.00  0.00     0.053 C 
BRANCH  11  12
ATOM     12  C   UNL     1      14.136   6.314  26.971  1.00  0.00     0.041 C 
ATOM     13  O   UNL     1      14.003   6.845  25.836  1.00  0.00    -0.550 OA
ATOM     14  O   UNL     1      15.142   6.754  27.823  1.00  0.00    -0.550 OA
ENDBRANCH  11  12
ENDBRANCH  10  11
ENDBRANCH   9  10
ENDBRANCH   8   9
ENDBRANCH   7   8
ENDBRANCH   6   7
ENDBRANCH   5   6
ENDBRANCH   4   5
ENDBRANCH   3   4
ENDBRANCH   2   3
ENDBRANCH   1   2
BRANCH   1  15
ATOM     15  C   UNL     1      11.203   5.080  34.118  1.00  0.00     0.000 C 
BRANCH  15  16
ATOM     16  C   UNL     1       9.713   4.739  34.301  1.00  0.00     0.000 C 
BRANCH  16  17
ATOM     17  C   UNL     1       8.984   4.564  32.958  1.00  0.00     0.000 C 
BRANCH  17  18
ATOM     18  C   UNL     1       8.522   3.116  32.727  1.00  0.00    -0.000 C 
BRANCH  18  19
ATOM     19  C   UNL     1       9.554   2.333  31.900  1.00  0.00    -0.000 C 
BRANCH  19  20
ATOM     20  C   UNL     1      10.460   1.432  32.764  1.00  0.00    -0.000 C 
BRANCH  20  21
ATOM     21  C   UNL     1      11.971   1.707  32.637  1.00  0.00    -0.000 C 
BRANCH  21  22
ATOM     22  C   UNL     1      12.317   2.659  31.482  1.00  0.00    -0.000 C 
BRANCH  22  23
ATOM     23  C   UNL     1      12.927   1.892  30.300  1.00  0.00    -0.000 C 
BRANCH  23  24
ATOM     24  C   UNL     1      11.914   1.629  29.174  1.00  0.00    -0.000 C 
BRANCH  24  25
ATOM     25  C   UNL     1      11.323   0.202  29.197  1.00  0.00    -0.003 C 
ATOM     26  C   UNL     1       9.857   0.173  28.765  1.00  0.00     0.004 C 
ENDBRANCH  24  25
ENDBRANCH  23  24
ENDBRANCH  22  23
ENDBRANCH  21  22
ENDBRANCH  20  21
ENDBRANCH  19  20
ENDBRANCH  18  19
ENDBRANCH  17  18
ENDBRANCH  16  17
ENDBRANCH  15  16
ENDBRANCH   1  15
TORSDOF 22
ENDMDL
MODEL 4
REMARK VINA RESULT:    -3.283      1.226      4.471
REMARK INTER + INTRA:         -11.195
REMARK INTER:                  -7.341
REMARK INTRA:                  -3.853
REMARK UNBOUND:                -3.690
REMARK SMILES CCCCCCCCCCCCCCCCCCCCCCCC(=O)[O-]
REMARK SMILES IDX 13 1 14 2 15 3 16 4 17 5 18 6 19 7 20 8 21 9 22 10 23 11
REMARK SMILES IDX 24 12 25 13 26 14 12 15 11 16 10 17 9 18 8 19 7 20 6 21 5 22
REMARK SMILES IDX 4 23 3 24 2 25 1 26
REMARK H PARENT
REMARK Flexibility Score: inf
ROOT
ATOM      1  C   UNL     1       9.536   1.995  31.767  1.00  0.00     0.000 C 
ENDROOT
BRANCH   1   2
ATOM      2  C   UNL     1       8.827   1.375  30.551  1.00  0.00     0.000 C 
BRANCH   2   3
ATOM      3  C   UNL     1       9.795   1.084  29.388  1.00  0.00     0.000 C 
BRANCH   3   4
ATOM      4  C   UNL     1      11.215   1.651  29.576  1.00  0.00     0.000 C 
BRANCH   4   5
ATOM      5  C   UNL     1      11.968   1.836  28.246  1.00  0.00     0.000 C 
BRANCH   5   6
ATOM      6  C   UNL     1      12.761   3.160  28.205  1.00  0.00     0.000 C 
BRANCH   6   7
ATOM      7  C   UNL     1      11.907   4.409  28.497  1.00  0.00     0.000 C 
BRANCH   7   8
ATOM      8  C   UNL     1      12.704   5.690  28.792  1.00  0.00     0.000 C 
BRANCH   8   9
ATOM      9  C   UNL     1      14.226   5.464  28.773  1.00  0.00     0.000 C 
BRANCH   9  10
ATOM     10  C   UNL     1      14.951   6.396  27.791  1.00  0.00     0.006 C 
BRANCH  10  11
ATOM     11  C   UNL     1      14.119   6.705  26.541  1.00  0.00     0.053 C 
BRANCH  11  12
ATOM     12  C   UNL     1      14.258   5.608  25.534  1.00  0.00     0.041 C 
ATOM     13  O   UNL     1      15.347   4.984  25.423  1.00  0.00    -0.550 OA
ATOM     14  O   UNL     1      13.168   5.233  24.758  1.00  0.00    -0.550 OA
ENDBRANCH  11  12
ENDBRANCH  10  11
ENDBRANCH   9  10
ENDBRANCH   8   9
ENDBRANCH   7   8
ENDBRANCH   6   7
ENDBRANCH   5   6
ENDBRANCH   4   5
ENDBRANCH   3   4
ENDBRANCH   2   3
ENDBRANCH   1   2
BRANCH   1  15
ATOM     15  C   UNL     1       9.051   3.420  32.079  1.00  0.00     0.000 C 
BRANCH  15  16
ATOM     16  C   UNL     1       9.259   4.389  30.902  1.00  0.00     0.000 C 
BRANCH  16  17
ATOM     17  C   UNL     1       8.313   5.601  30.969  1.00  0.00     0.000 C 
BRANCH  17  18
ATOM     18  C   UNL     1       8.638   6.658  29.901  1.00  0.00    -0.000 C 
BRANCH  18  19
ATOM     19  C   UNL     1       8.892   8.031  30.544  1.00  0.00    -0.000 C 
BRANCH  19  20
ATOM     20  C   UNL     1      10.217   8.092  31.330  1.00  0.00    -0.000 C 
BRANCH  20  21
ATOM     21  C   UNL     1      10.068   8.278  32.852  1.00  0.00    -0.000 C 
BRANCH  21  22
ATOM     22  C   UNL     1      10.737   7.159  33.666  1.00  0.00    -0.000 C 
BRANCH  22  23
ATOM     23  C   UNL     1      11.699   6.343  32.792  1.00  0.00    -0.000 C 
BRANCH  23  24
ATOM     24  C   UNL     1      12.604   5.409  33.613  1.00  0.00    -0.000 C 
BRANCH  24  25
ATOM     25  C   UNL     1      12.490   3.924  33.205  1.00  0.00    -0.003 C 
ATOM     26  C   UNL     1      13.247   3.616  31.914  1.00  0.00     0.004 C 
ENDBRANCH  24  25
ENDBRANCH  23  24
ENDBRANCH  22  23
ENDBRANCH  21  22
ENDBRANCH  20  21
ENDBRANCH  19  20
ENDBRANCH  18  19
ENDBRANCH  17  18
ENDBRANCH  16  17
ENDBRANCH  15  16
ENDBRANCH   1  15
TORSDOF 22
ENDMDL
MODEL 5
REMARK VINA RESULT:    -3.282      2.344      5.195
REMARK INTER + INTRA:         -11.193
REMARK INTER:                  -7.077
REMARK INTRA:                  -4.116
REMARK UNBOUND:                -3.690
REMARK SMILES CCCCCCCCCCCCCCCCCCCCCCCC(=O)[O-]
REMARK SMILES IDX 13 1 14 2 15 3 16 4 17 5 18 6 19 7 20 8 21 9 22 10 23 11
REMARK SMILES IDX 24 12 25 13 26 14 12 15 11 16 10 17 9 18 8 19 7 20 6 21 5 22
REMARK SMILES IDX 4 23 3 24 2 25 1 26
REMARK H PARENT
REMARK Flexibility Score: inf
ROOT
ATOM      1  C   UNL     1       8.272   5.815  31.246  1.00  0.00     0.000 C 
ENDROOT
BRANCH   1   2
ATOM      2  C   UNL     1       8.820   4.494  31.809  1.00  0.00     0.000 C 
BRANCH   2   3
ATOM      3  C   UNL     1       8.353   4.228  33.252  1.00  0.00     0.000 C 
BRANCH   3   4
ATOM      4  C   UNL     1       8.188   2.739  33.611  1.00  0.00     0.000 C 
BRANCH   4   5
ATOM      5  C   UNL     1       9.479   1.926  33.408  1.00  0.00     0.000 C 
BRANCH   5   6
ATOM      6  C   UNL     1       9.272   0.734  32.449  1.00  0.00     0.000 C 
BRANCH   6   7
ATOM      7  C   UNL     1       8.384   1.058  31.232  1.00  0.00     0.000 C 
BRANCH   7   8
ATOM      8  C   UNL     1       9.117   1.093  29.880  1.00  0.00     0.000 C 
BRANCH   8   9
ATOM      9  C   UNL     1      10.502   0.426  29.936  1.00  0.00     0.000 C 
BRANCH   9  10
ATOM     10  C   UNL     1      10.633  -0.750  28.957  1.00  0.00     0.006 C 
BRANCH  10  11
ATOM     11  C   UNL     1       9.864  -0.523  27.649  1.00  0.00     0.053 C 
BRANCH  11  12
ATOM     12  C   UNL     1      10.787  -0.620  26.476  1.00  0.00     0.041 C 
ATOM     13  O   UNL     1      10.693   0.203  25.526  1.00  0.00    -0.550 OA
ATOM     14  O   UNL     1      11.788  -1.583  26.455  1.00  0.00    -0.550 OA
ENDBRANCH  11  12
ENDBRANCH  10  11
ENDBRANCH   9  10
ENDBRANCH   8   9
ENDBRANCH   7   8
ENDBRANCH   6   7
ENDBRANCH   5   6
ENDBRANCH   4   5
ENDBRANCH   3   4
ENDBRANCH   2   3
ENDBRANCH   1   2
BRANCH   1  15
ATOM     15  C   UNL     1       9.148   6.396  30.124  1.00  0.00     0.000 C 
BRANCH  15  16
ATOM     16  C   UNL     1       9.863   7.694  30.540  1.00  0.00     0.000 C 
BRANCH  16  17
ATOM     17  C   UNL     1       9.429   8.178  31.935  1.00  0.00     0.000 C 
BRANCH  17  18
ATOM     18  C   UNL     1      10.613   8.298  32.908  1.00  0.00    -0.000 C 
BRANCH  18  19
ATOM     19  C   UNL     1      10.841   6.980  33.664  1.00  0.00    -0.000 C 
BRANCH  19  20
ATOM     20  C   UNL     1      12.071   6.200  33.158  1.00  0.00    -0.000 C 
BRANCH  20  21
ATOM     21  C   UNL     1      12.086   4.700  33.509  1.00  0.00    -0.000 C 
BRANCH  21  22
ATOM     22  C   UNL     1      12.497   3.807  32.328  1.00  0.00    -0.000 C 
BRANCH  22  23
ATOM     23  C   UNL     1      12.491   4.597  31.012  1.00  0.00    -0.000 C 
BRANCH  23  24
ATOM     24  C   UNL     1      11.850   3.818  29.852  1.00  0.00    -0.000 C 
BRANCH  24  25
ATOM     25  C   UNL     1      11.988   4.523  28.485  1.00  0.00    -0.003 C 
ATOM     26  C   UNL     1      12.898   5.749  28.552  1.00  0.00     0.004 C 
ENDBRANCH  24  25
ENDBRANCH  23  24
ENDBRANCH  22  23
ENDBRANCH  21  22
ENDBRANCH  20  21
ENDBRANCH  19  20
ENDBRANCH  18  19
ENDBRANCH  17  18
ENDBRANCH  16  17
ENDBRANCH  15  16
ENDBRANCH   1  15
TORSDOF 22
ENDMDL
MODEL 6
REMARK VINA RESULT:    -3.276      1.607      4.588
REMARK INTER + INTRA:         -11.180
REMARK INTER:                  -7.542
REMARK INTRA:                  -3.638
REMARK UNBOUND:                -3.690
REMARK SMILES CCCCCCCCCCCCCCCCCCCCCCCC(=O)[O-]
REMARK SMILES IDX 13 1 14 2 15 3 16 4 17 5 18 6 19 7 20 8 21 9 22 10 23 11
REMARK SMILES IDX 24 12 25 13 26 14 12 15 11 16 10 17 9 18 8 19 7 20 6 21 5 22
REMARK SMILES IDX 4 23 3 24 2 25 1 26
REMARK H PARENT
REMARK Flexibility Score: inf
ROOT
ATOM      1  C   UNL     1       8.628   4.887  31.528  1.00  0.00     0.000 C 
ENDROOT
BRANCH   1   2
ATOM      2  C   UNL     1       8.038   4.476  32.887  1.00  0.00     0.000 C 
BRANCH   2   3
ATOM      3  C   UNL     1       8.130   2.959  33.136  1.00  0.00     0.000 C 
BRANCH   3   4
ATOM      4  C   UNL     1       9.318   2.264  32.446  1.00  0.00     0.000 C 
BRANCH   4   5
ATOM      5  C   UNL     1       8.886   1.095  31.542  1.00  0.00     0.000 C 
BRANCH   5   6
ATOM      6  C   UNL     1       8.909   1.475  30.046  1.00  0.00     0.000 C 
BRANCH   6   7
ATOM      7  C   UNL     1      10.264   1.220  29.358  1.00  0.00     0.000 C 
BRANCH   7   8
ATOM      8  C   UNL     1      11.425   2.097  29.857  1.00  0.00     0.000 C 
BRANCH   8   9
ATOM      9  C   UNL     1      11.272   3.574  29.455  1.00  0.00     0.000 C 
BRANCH   9  10
ATOM     10  C   UNL     1      12.548   4.392  29.707  1.00  0.00     0.006 C 
BRANCH  10  11
ATOM     11  C   UNL     1      12.598   5.684  28.882  1.00  0.00     0.053 C 
BRANCH  11  12
ATOM     12  C   UNL     1      13.699   5.616  27.871  1.00  0.00     0.041 C 
ATOM     13  O   UNL     1      13.624   4.809  26.906  1.00  0.00    -0.550 OA
ATOM     14  O   UNL     1      14.780   6.485  27.960  1.00  0.00    -0.550 OA
ENDBRANCH  11  12
ENDBRANCH  10  11
ENDBRANCH   9  10
ENDBRANCH   8   9
ENDBRANCH   7   8
ENDBRANCH   6   7
ENDBRANCH   5   6
ENDBRANCH   4   5
ENDBRANCH   3   4
ENDBRANCH   2   3
ENDBRANCH   1   2
BRANCH   1  15
ATOM     15  C   UNL     1       8.315   6.346  31.157  1.00  0.00     0.000 C 
BRANCH  15  16
ATOM     16  C   UNL     1       9.342   6.944  30.180  1.00  0.00     0.000 C 
BRANCH  16  17
ATOM     17  C   UNL     1      10.390   7.815  30.896  1.00  0.00     0.000 C 
BRANCH  17  18
ATOM     18  C   UNL     1       9.953   8.210  32.316  1.00  0.00    -0.000 C 
BRANCH  18  19
ATOM     19  C   UNL     1      10.975   7.735  33.360  1.00  0.00    -0.000 C 
BRANCH  19  20
ATOM     20  C   UNL     1      11.735   6.466  32.926  1.00  0.00    -0.000 C 
BRANCH  20  21
ATOM     21  C   UNL     1      12.360   5.651  34.075  1.00  0.00    -0.000 C 
BRANCH  21  22
ATOM     22  C   UNL     1      11.654   4.308  34.317  1.00  0.00    -0.000 C 
BRANCH  22  23
ATOM     23  C   UNL     1      11.023   4.261  35.716  1.00  0.00    -0.000 C 
BRANCH  23  24
ATOM     24  C   UNL     1       9.822   5.209  35.860  1.00  0.00    -0.000 C 
BRANCH  24  25
ATOM     25  C   UNL     1       9.221   5.233  37.282  1.00  0.00    -0.003 C 
ATOM     26  C   UNL     1      10.236   4.821  38.349  1.00  0.00     0.004 C 
ENDBRANCH  24  25
ENDBRANCH  23  24
ENDBRANCH  22  23
ENDBRANCH  21  22
ENDBRANCH  20  21
ENDBRANCH  19  20
ENDBRANCH  18  19
ENDBRANCH  17  18
ENDBRANCH  16  17
ENDBRANCH  15  16
ENDBRANCH   1  15
TORSDOF 22
ENDMDL
MODEL 7
REMARK VINA RESULT:    -3.259      2.188      4.903
REMARK INTER + INTRA:         -11.141
REMARK INTER:                  -6.410
REMARK INTRA:                  -4.731
REMARK UNBOUND:                -3.690
REMARK SMILES CCCCCCCCCCCCCCCCCCCCCCCC(=O)[O-]
REMARK SMILES IDX 13 1 14 2 15 3 16 4 17 5 18 6 19 7 20 8 21 9 22 10 23 11
REMARK SMILES IDX 24 12 25 13 26 14 12 15 11 16 10 17 9 18 8 19 7 20 6 21 5 22
REMARK SMILES IDX 4 23 3 24 2 25 1 26
REMARK H PARENT
REMARK Flexibility Score: inf
ROOT
ATOM      1  C   UNL     1       9.281   4.642  31.216  1.00  0.00     0.000 C 
ENDROOT
BRANCH   1   2
ATOM      2  C   UNL     1       8.644   5.090  29.891  1.00  0.00     0.000 C 
BRANCH   2   3
ATOM      3  C   UNL     1       9.142   6.474  29.434  1.00  0.00     0.000 C 
BRANCH   3   4
ATOM      4  C   UNL     1      10.494   6.902  30.035  1.00  0.00     0.000 C 
BRANCH   4   5
ATOM      5  C   UNL     1      10.430   8.266  30.746  1.00  0.00     0.000 C 
BRANCH   5   6
ATOM      6  C   UNL     1       9.944   8.139  32.206  1.00  0.00     0.000 C 
BRANCH   6   7
ATOM      7  C   UNL     1      11.069   7.829  33.213  1.00  0.00     0.000 C 
BRANCH   7   8
ATOM      8  C   UNL     1      10.769   6.683  34.194  1.00  0.00     0.000 C 
BRANCH   8   9
ATOM      9  C   UNL     1      11.706   5.477  34.006  1.00  0.00     0.000 C 
BRANCH   9  10
ATOM     10  C   UNL     1      12.598   5.609  32.762  1.00  0.00     0.006 C 
BRANCH  10  11
ATOM     11  C   UNL     1      12.766   4.284  32.009  1.00  0.00     0.053 C 
BRANCH  11  12
ATOM     12  C   UNL     1      14.216   3.984  31.794  1.00  0.00     0.041 C 
ATOM     13  O   UNL     1      14.730   2.947  32.291  1.00  0.00    -0.550 OA
ATOM     14  O   UNL     1      14.989   4.820  30.996  1.00  0.00    -0.550 OA
ENDBRANCH  11  12
ENDBRANCH  10  11
ENDBRANCH   9  10
ENDBRANCH   8   9
ENDBRANCH   7   8
ENDBRANCH   6   7
ENDBRANCH   5   6
ENDBRANCH   4   5
ENDBRANCH   3   4
ENDBRANCH   2   3
ENDBRANCH   1   2
BRANCH   1  15
ATOM     15  C   UNL     1       8.296   4.683  32.397  1.00  0.00     0.000 C 
BRANCH  15  16
ATOM     16  C   UNL     1       8.179   3.329  33.119  1.00  0.00     0.000 C 
BRANCH  16  17
ATOM     17  C   UNL     1       9.530   2.598  33.213  1.00  0.00     0.000 C 
BRANCH  17  18
ATOM     18  C   UNL     1       9.487   1.203  32.569  1.00  0.00    -0.000 C 
BRANCH  18  19
ATOM     19  C   UNL     1       8.292   1.074  31.611  1.00  0.00    -0.000 C 
BRANCH  19  20
ATOM     20  C   UNL     1       8.682   1.269  30.133  1.00  0.00    -0.000 C 
BRANCH  20  21
ATOM     21  C   UNL     1      10.150   0.946  29.793  1.00  0.00    -0.000 C 
BRANCH  21  22
ATOM     22  C   UNL     1      10.978   2.193  29.447  1.00  0.00    -0.000 C 
BRANCH  22  23
ATOM     23  C   UNL     1      12.290   1.807  28.750  1.00  0.00    -0.000 C 
BRANCH  23  24
ATOM     24  C   UNL     1      13.147   3.027  28.375  1.00  0.00    -0.000 C 
BRANCH  24  25
ATOM     25  C   UNL     1      12.322   4.309  28.134  1.00  0.00    -0.003 C 
ATOM     26  C   UNL     1      13.196   5.563  28.088  1.00  0.00     0.004 C 
ENDBRANCH  24  25
ENDBRANCH  23  24
ENDBRANCH  22  23
ENDBRANCH  21  22
ENDBRANCH  20  21
ENDBRANCH  19  20
ENDBRANCH  18  19
ENDBRANCH  17  18
ENDBRANCH  16  17
ENDBRANCH  15  16
ENDBRANCH   1  15
TORSDOF 22
ENDMDL
MODEL 8
REMARK VINA RESULT:    -3.248      3.110      6.818
REMARK INTER + INTRA:         -11.115
REMARK INTER:                  -6.656
REMARK INTRA:                  -4.459
REMARK UNBOUND:                -3.690
REMARK SMILES CCCCCCCCCCCCCCCCCCCCCCCC(=O)[O-]
REMARK SMILES IDX 13 1 14 2 15 3 16 4 17 5 18 6 19 7 20 8 21 9 22 10 23 11
REMARK SMILES IDX 24 12 25 13 26 14 12 15 11 16 10 17 9 18 8 19 7 20 6 21 5 22
REMARK SMILES IDX 4 23 3 24 2 25 1 26
REMARK H PARENT
REMARK Flexibility Score: inf
ROOT
ATOM      1  C   UNL     1      12.327   4.061  32.440  1.00  0.00     0.000 C 
ENDROOT
BRANCH   1   2
ATOM      2  C   UNL     1      11.663   4.745  33.646  1.00  0.00     0.000 C 
BRANCH   2   3
ATOM      3  C   UNL     1      12.009   6.243  33.740  1.00  0.00     0.000 C 
BRANCH   3   4
ATOM      4  C   UNL     1      10.791   7.185  33.749  1.00  0.00     0.000 C 
BRANCH   4   5
ATOM      5  C   UNL     1      10.844   8.245  32.633  1.00  0.00     0.000 C 
BRANCH   5   6
ATOM      6  C   UNL     1       9.582   8.219  31.744  1.00  0.00     0.000 C 
BRANCH   6   7
ATOM      7  C   UNL     1       9.818   7.621  30.344  1.00  0.00     0.000 C 
BRANCH   7   8
ATOM      8  C   UNL     1       9.077   6.303  30.063  1.00  0.00     0.000 C 
BRANCH   8   9
ATOM      9  C   UNL     1       8.333   5.763  31.297  1.00  0.00     0.000 C 
BRANCH   9  10
ATOM     10  C   UNL     1       8.714   4.312  31.630  1.00  0.00     0.006 C 
BRANCH  10  11
ATOM     11  C   UNL     1       9.207   3.532  30.406  1.00  0.00     0.053 C 
BRANCH  11  12
ATOM     12  C   UNL     1       8.992   2.064  30.598  1.00  0.00     0.041 C 
ATOM     13  O   UNL     1       8.552   1.627  31.695  1.00  0.00    -0.550 OA
ATOM     14  O   UNL     1       9.222   1.183  29.548  1.00  0.00    -0.550 OA
ENDBRANCH  11  12
ENDBRANCH  10  11
ENDBRANCH   9  10
ENDBRANCH   8   9
ENDBRANCH   7   8
ENDBRANCH   6   7
ENDBRANCH   5   6
ENDBRANCH   4   5
ENDBRANCH   3   4
ENDBRANCH   2   3
ENDBRANCH   1   2
BRANCH   1  15
ATOM     15  C   UNL     1      12.782   5.060  31.362  1.00  0.00     0.000 C 
BRANCH  15  16
ATOM     16  C   UNL     1      12.800   4.444  29.952  1.00  0.00     0.000 C 
BRANCH  16  17
ATOM     17  C   UNL     1      12.421   5.465  28.865  1.00  0.00     0.000 C 
BRANCH  17  18
ATOM     18  C   UNL     1      13.650   6.003  28.112  1.00  0.00    -0.000 C 
BRANCH  18  19
ATOM     19  C   UNL     1      14.364   4.878  27.348  1.00  0.00    -0.000 C 
BRANCH  19  20
ATOM     20  C   UNL     1      15.853   4.744  27.724  1.00  0.00    -0.000 C 
BRANCH  20  21
ATOM     21  C   UNL     1      16.325   5.659  28.871  1.00  0.00    -0.000 C 
BRANCH  21  22
ATOM     22  C   UNL     1      16.993   4.891  30.021  1.00  0.00    -0.000 C 
BRANCH  22  23
ATOM     23  C   UNL     1      16.485   3.444  30.086  1.00  0.00    -0.000 C 
BRANCH  23  24
ATOM     24  C   UNL     1      15.903   3.077  31.461  1.00  0.00    -0.000 C 
BRANCH  24  25
ATOM     25  C   UNL     1      16.177   4.138  32.549  1.00  0.00    -0.003 C 
ATOM     26  C   UNL     1      15.684   3.699  33.927  1.00  0.00     0.004 C 
ENDBRANCH  24  25
ENDBRANCH  23  24
ENDBRANCH  22  23
ENDBRANCH  21  22
ENDBRANCH  20  21
ENDBRANCH  19  20
ENDBRANCH  18  19
ENDBRANCH  17  18
ENDBRANCH  16  17
ENDBRANCH  15  16
ENDBRANCH   1  15
TORSDOF 22
ENDMDL
MODEL 9
REMARK VINA RESULT:    -3.247      4.292      6.764
REMARK INTER + INTRA:         -11.113
REMARK INTER:                  -6.317
REMARK INTRA:                  -4.796
REMARK UNBOUND:                -3.690
REMARK SMILES CCCCCCCCCCCCCCCCCCCCCCCC(=O)[O-]
REMARK SMILES IDX 13 1 14 2 15 3 16 4 17 5 18 6 19 7 20 8 21 9 22 10 23 11
REMARK SMILES IDX 24 12 25 13 26 14 12 15 11 16 10 17 9 18 8 19 7 20 6 21 5 22
REMARK SMILES IDX 4 23 3 24 2 25 1 26
REMARK H PARENT
REMARK Flexibility Score: inf
ROOT
ATOM      1  C   UNL     1       8.334   6.125  30.842  1.00  0.00     0.000 C 
ENDROOT
BRANCH   1   2
ATOM      2  C   UNL     1       8.681   4.668  31.190  1.00  0.00     0.000 C 
BRANCH   2   3
ATOM      3  C   UNL     1       8.363   4.320  32.656  1.00  0.00     0.000 C 
BRANCH   3   4
ATOM      4  C   UNL     1       8.728   2.881  33.069  1.00  0.00     0.000 C 
BRANCH   4   5
ATOM      5  C   UNL     1       9.641   2.177  32.050  1.00  0.00     0.000 C 
BRANCH   5   6
ATOM      6  C   UNL     1      10.853   1.499  32.724  1.00  0.00     0.000 C 
BRANCH   6   7
ATOM      7  C   UNL     1      11.012   1.847  34.216  1.00  0.00     0.000 C 
BRANCH   7   8
ATOM      8  C   UNL     1      12.425   2.284  34.638  1.00  0.00     0.000 C 
BRANCH   8   9
ATOM      9  C   UNL     1      12.433   3.079  35.956  1.00  0.00     0.000 C 
BRANCH   9  10
ATOM     10  C   UNL     1      11.042   3.607  36.338  1.00  0.00     0.006 C 
BRANCH  10  11
ATOM     11  C   UNL     1      10.939   3.992  37.819  1.00  0.00     0.053 C 
BRANCH  11  12
ATOM     12  C   UNL     1       9.960   5.108  38.003  1.00  0.00     0.041 C 
ATOM     13  O   UNL     1       9.230   5.476  37.044  1.00  0.00    -0.550 OA
ATOM     14  O   UNL     1       9.811   5.705  39.249  1.00  0.00    -0.550 OA
ENDBRANCH  11  12
ENDBRANCH  10  11
ENDBRANCH   9  10
ENDBRANCH   8   9
ENDBRANCH   7   8
ENDBRANCH   6   7
ENDBRANCH   5   6
ENDBRANCH   4   5
ENDBRANCH   3   4
ENDBRANCH   2   3
ENDBRANCH   1   2
BRANCH   1  15
ATOM     15  C   UNL     1       9.333   6.759  29.860  1.00  0.00     0.000 C 
BRANCH  15  16
ATOM     16  C   UNL     1      10.315   7.722  30.551  1.00  0.00     0.000 C 
BRANCH  16  17
ATOM     17  C   UNL     1       9.770   8.251  31.888  1.00  0.00     0.000 C 
BRANCH  17  18
ATOM     18  C   UNL     1      10.831   8.239  33.000  1.00  0.00    -0.000 C 
BRANCH  18  19
ATOM     19  C   UNL     1      10.725   6.962  33.849  1.00  0.00    -0.000 C 
BRANCH  19  20
ATOM     20  C   UNL     1      11.956   6.044  33.713  1.00  0.00    -0.000 C 
BRANCH  20  21
ATOM     21  C   UNL     1      11.979   5.160  32.451  1.00  0.00    -0.000 C 
BRANCH  21  22
ATOM     22  C   UNL     1      13.398   4.767  32.014  1.00  0.00    -0.000 C 
BRANCH  22  23
ATOM     23  C   UNL     1      13.361   3.837  30.793  1.00  0.00    -0.000 C 
BRANCH  23  24
ATOM     24  C   UNL     1      12.052   3.952  29.996  1.00  0.00    -0.000 C 
BRANCH  24  25
ATOM     25  C   UNL     1      12.255   4.437  28.544  1.00  0.00    -0.003 C 
ATOM     26  C   UNL     1      12.855   5.841  28.477  1.00  0.00     0.004 C 
ENDBRANCH  24  25
ENDBRANCH  23  24
ENDBRANCH  22  23
ENDBRANCH  21  22
ENDBRANCH  20  21
ENDBRANCH  19  20
ENDBRANCH  18  19
ENDBRANCH  17  18
ENDBRANCH  16  17
ENDBRANCH  15  16
ENDBRANCH   1  15
TORSDOF 22
ENDMDL
