MODEL 1
REMARK VINA RESULT:    -3.313      0.000      0.000
REMARK INTER + INTRA:          -3.942
REMARK INTER:                  -3.798
REMARK INTRA:                  -0.145
REMARK UNBOUND:                -0.145
REMARK SMILES O=C([O-])C=Cc1ccc(O)cc1
REMARK SMILES IDX 6 1 7 2 12 3 8 4 11 5 9 6 5 7 4 8 2 9 1 10 3 11 10 12
REMARK H PARENT 10 13
REMARK Flexibility Score: inf
ROOT
ATOM      1  C   UNL     1      -7.899   9.065  -8.877  1.00  0.00    -0.025 A 
ATOM      2  C   UNL     1      -9.208   9.480  -8.582  1.00  0.00     0.012 A 
ATOM      3  C   UNL     1      -7.199   8.295  -7.924  1.00  0.00     0.012 A 
ATOM      4  C   UNL     1      -9.816   9.116  -7.377  1.00  0.00     0.047 A 
ATOM      5  C   UNL     1      -7.811   7.934  -6.720  1.00  0.00     0.047 A 
ATOM      6  C   UNL     1      -9.119   8.340  -6.443  1.00  0.00     0.115 A 
ENDROOT
BRANCH   1   7
ATOM      7  C   UNL     1      -7.292   9.486 -10.164  1.00  0.00     0.010 C 
ATOM      8  C   UNL     1      -5.976   9.447 -10.416  1.00  0.00     0.025 C 
BRANCH   8   9
ATOM      9  C   UNL     1      -5.421   9.864 -11.713  1.00  0.00     0.064 C 
ATOM     10  O   UNL     1      -6.200  10.124 -12.667  1.00  0.00    -0.545 OA
ATOM     11  O   UNL     1      -4.047   9.974 -11.904  1.00  0.00    -0.545 OA
ENDBRANCH   8   9
ENDBRANCH   1   7
BRANCH   6  12
ATOM     12  O   UNL     1      -9.715   7.970  -5.240  1.00  0.00    -0.508 OA
ATOM     13  H   UNL     1     -10.136   8.657  -4.625  1.00  0.00     0.293 HD
ENDBRANCH   6  12
TORSDOF 3
ENDMDL
MODEL 2
REMARK VINA RESULT:    -3.130     12.323     12.846
REMARK INTER + INTRA:          -3.732
REMARK INTER:                  -3.598
REMARK INTRA:                  -0.134
REMARK UNBOUND:                -0.145
REMARK SMILES O=C([O-])C=Cc1ccc(O)cc1
REMARK SMILES IDX 6 1 7 2 12 3 8 4 11 5 9 6 5 7 4 8 2 9 1 10 3 11 10 12
REMARK H PARENT 10 13
REMARK Flexibility Score: inf
ROOT
ATOM      1  C   UNL     1      -9.747  -1.956 -12.736  1.00  0.00    -0.025 A 
ATOM      2  C   UNL     1     -10.124  -1.387 -11.508  1.00  0.00     0.012 A 
ATOM      3  C   UNL     1      -9.393  -1.102 -13.801  1.00  0.00     0.012 A 
ATOM      4  C   UNL     1     -10.124   0.001 -11.337  1.00  0.00     0.047 A 
ATOM      5  C   UNL     1      -9.396   0.285 -13.626  1.00  0.00     0.047 A 
ATOM      6  C   UNL     1      -9.758   0.840 -12.396  1.00  0.00     0.115 A 
ENDROOT
BRANCH   1   7
ATOM      7  C   UNL     1      -9.773  -3.434 -12.872  1.00  0.00     0.010 C 
ATOM      8  C   UNL     1      -8.738  -4.228 -12.564  1.00  0.00     0.025 C 
BRANCH   8   9
ATOM      9  C   UNL     1      -8.813  -5.691 -12.704  1.00  0.00     0.064 C 
ATOM     10  O   UNL     1      -8.990  -6.198 -13.842  1.00  0.00    -0.545 OA
ATOM     11  O   UNL     1      -8.694  -6.526 -11.597  1.00  0.00    -0.545 OA
ENDBRANCH   8   9
ENDBRANCH   1   7
BRANCH   6  12
ATOM     12  O   UNL     1      -9.754   2.224 -12.237  1.00  0.00    -0.508 OA
ATOM     13  H   UNL     1     -10.199   2.667 -11.441  1.00  0.00     0.293 HD
ENDBRANCH   6  12
TORSDOF 3
ENDMDL
MODEL 3
REMARK VINA RESULT:    -2.996      1.192      2.071
REMARK INTER + INTRA:          -3.578
REMARK INTER:                  -3.437
REMARK INTRA:                  -0.141
REMARK UNBOUND:                -0.145
REMARK SMILES O=C([O-])C=Cc1ccc(O)cc1
REMARK SMILES IDX 6 1 7 2 12 3 8 4 11 5 9 6 5 7 4 8 2 9 1 10 3 11 10 12
REMARK H PARENT 10 13
REMARK Flexibility Score: inf
ROOT
ATOM      1  C   UNL     1      -8.514   8.387  -7.729  1.00  0.00    -0.025 A 
ATOM      2  C   UNL     1      -7.547   7.821  -6.882  1.00  0.00     0.012 A 
ATOM      3  C   UNL     1      -9.815   8.602  -7.228  1.00  0.00     0.012 A 
ATOM      4  C   UNL     1      -7.861   7.502  -5.557  1.00  0.00     0.047 A 
ATOM      5  C   UNL     1     -10.125   8.279  -5.904  1.00  0.00     0.047 A 
ATOM      6  C   UNL     1      -9.151   7.732  -5.064  1.00  0.00     0.115 A 
ENDROOT
BRANCH   1   7
ATOM      7  C   UNL     1      -8.136   8.699  -9.130  1.00  0.00     0.010 C 
ATOM      8  C   UNL     1      -7.115   9.501  -9.464  1.00  0.00     0.025 C 
BRANCH   8   9
ATOM      9  C   UNL     1      -6.769   9.773 -10.868  1.00  0.00     0.064 C 
ATOM     10  O   UNL     1      -7.672  10.116 -11.675  1.00  0.00    -0.545 OA
ATOM     11  O   UNL     1      -5.458   9.656 -11.321  1.00  0.00    -0.545 OA
ENDBRANCH   8   9
ENDBRANCH   1   7
BRANCH   6  12
ATOM     12  O   UNL     1      -9.475   7.418  -3.746  1.00  0.00    -0.508 OA
ATOM     13  H   UNL     1      -9.979   8.069  -3.156  1.00  0.00     0.293 HD
ENDBRANCH   6  12
TORSDOF 3
ENDMDL
MODEL 4
REMARK VINA RESULT:    -2.994     17.223     18.962
REMARK INTER + INTRA:          -3.577
REMARK INTER:                  -3.441
REMARK INTRA:                  -0.135
REMARK UNBOUND:                -0.145
REMARK SMILES O=C([O-])C=Cc1ccc(O)cc1
REMARK SMILES IDX 6 1 7 2 12 3 8 4 11 5 9 6 5 7 4 8 2 9 1 10 3 11 10 12
REMARK H PARENT 10 13
REMARK Flexibility Score: inf
ROOT
ATOM      1  C   UNL     1      -9.761  -4.586   3.574  1.00  0.00    -0.025 A 
ATOM      2  C   UNL     1      -9.032  -5.558   4.280  1.00  0.00     0.012 A 
ATOM      3  C   UNL     1     -10.096  -4.834   2.227  1.00  0.00     0.012 A 
ATOM      4  C   UNL     1      -8.668  -6.761   3.665  1.00  0.00     0.047 A 
ATOM      5  C   UNL     1      -9.728  -6.036   1.615  1.00  0.00     0.047 A 
ATOM      6  C   UNL     1      -9.017  -7.003   2.331  1.00  0.00     0.115 A 
ENDROOT
BRANCH   1   7
ATOM      7  C   UNL     1     -10.115  -3.322   4.267  1.00  0.00     0.010 C 
ATOM      8  C   UNL     1      -9.413  -2.186   4.147  1.00  0.00     0.025 C 
BRANCH   8   9
ATOM      9  C   UNL     1      -9.809  -0.952   4.845  1.00  0.00     0.064 C 
ATOM     10  O   UNL     1      -9.869  -0.942   6.102  1.00  0.00    -0.545 OA
ATOM     11  O   UNL     1     -10.121   0.204   4.137  1.00  0.00    -0.545 OA
ENDBRANCH   8   9
ENDBRANCH   1   7
BRANCH   6  12
ATOM     12  O   UNL     1      -8.660  -8.197   1.709  1.00  0.00    -0.508 OA
ATOM     13  H   UNL     1      -9.197  -9.046   1.845  1.00  0.00     0.293 HD
ENDBRANCH   6  12
TORSDOF 3
ENDMDL
MODEL 5
REMARK VINA RESULT:    -2.957      1.170      5.859
REMARK INTER + INTRA:          -3.533
REMARK INTER:                  -3.381
REMARK INTRA:                  -0.153
REMARK UNBOUND:                -0.145
REMARK SMILES O=C([O-])C=Cc1ccc(O)cc1
REMARK SMILES IDX 6 1 7 2 12 3 8 4 11 5 9 6 5 7 4 8 2 9 1 10 3 11 10 12
REMARK H PARENT 10 13
REMARK Flexibility Score: inf
ROOT
ATOM      1  C   UNL     1      -8.148   8.896  -9.466  1.00  0.00    -0.025 A 
ATOM      2  C   UNL     1      -6.748   9.010  -9.515  1.00  0.00     0.012 A 
ATOM      3  C   UNL     1      -8.897   9.221 -10.616  1.00  0.00     0.012 A 
ATOM      4  C   UNL     1      -6.108   9.414 -10.691  1.00  0.00     0.047 A 
ATOM      5  C   UNL     1      -8.252   9.627 -11.789  1.00  0.00     0.047 A 
ATOM      6  C   UNL     1      -6.859   9.722 -11.831  1.00  0.00     0.115 A 
ENDROOT
BRANCH   1   7
ATOM      7  C   UNL     1      -8.782   8.474  -8.192  1.00  0.00     0.010 C 
ATOM      8  C   UNL     1      -8.092   8.072  -7.115  1.00  0.00     0.025 C 
BRANCH   8   9
ATOM      9  C   UNL     1      -8.764   7.672  -5.868  1.00  0.00     0.064 C 
ATOM     10  O   UNL     1      -8.100   7.114  -4.957  1.00  0.00    -0.545 OA
ATOM     11  O   UNL     1     -10.123   7.900  -5.679  1.00  0.00    -0.545 OA
ENDBRANCH   8   9
ENDBRANCH   1   7
BRANCH   6  12
ATOM     12  O   UNL     1      -6.232  10.125 -13.008  1.00  0.00    -0.508 OA
ATOM     13  H   UNL     1      -6.677  10.770 -13.651  1.00  0.00     0.293 HD
ENDBRANCH   6  12
TORSDOF 3
ENDMDL
MODEL 6
REMARK VINA RESULT:    -2.927     13.490     13.974
REMARK INTER + INTRA:          -3.500
REMARK INTER:                  -3.349
REMARK INTRA:                  -0.151
REMARK UNBOUND:                -0.145
REMARK SMILES O=C([O-])C=Cc1ccc(O)cc1
REMARK SMILES IDX 6 1 7 2 12 3 8 4 11 5 9 6 5 7 4 8 2 9 1 10 3 11 10 12
REMARK H PARENT 10 13
REMARK Flexibility Score: inf
ROOT
ATOM      1  C   UNL     1      -8.143  -3.750 -13.440  1.00  0.00    -0.025 A 
ATOM      2  C   UNL     1      -9.082  -4.692 -12.988  1.00  0.00     0.012 A 
ATOM      3  C   UNL     1      -6.854  -4.194 -13.801  1.00  0.00     0.012 A 
ATOM      4  C   UNL     1      -8.753  -6.049 -12.920  1.00  0.00     0.047 A 
ATOM      5  C   UNL     1      -6.528  -5.552 -13.729  1.00  0.00     0.047 A 
ATOM      6  C   UNL     1      -7.474  -6.482 -13.293  1.00  0.00     0.115 A 
ENDROOT
BRANCH   1   7
ATOM      7  C   UNL     1      -8.537  -2.319 -13.485  1.00  0.00     0.010 C 
ATOM      8  C   UNL     1      -9.492  -1.785 -12.711  1.00  0.00     0.025 C 
BRANCH   8   9
ATOM      9  C   UNL     1      -9.841  -0.358 -12.781  1.00  0.00     0.064 C 
ATOM     10  O   UNL     1      -9.882   0.217 -13.900  1.00  0.00    -0.545 OA
ATOM     11  O   UNL     1     -10.125   0.370 -11.630  1.00  0.00    -0.545 OA
ENDBRANCH   8   9
ENDBRANCH   1   7
BRANCH   6  12
ATOM     12  O   UNL     1      -7.135  -7.832 -13.230  1.00  0.00    -0.508 OA
ATOM     13  H   UNL     1      -6.887  -8.275 -12.352  1.00  0.00     0.293 HD
ENDBRANCH   6  12
TORSDOF 3
ENDMDL
MODEL 7
REMARK VINA RESULT:    -2.917     17.478     18.730
REMARK INTER + INTRA:          -3.488
REMARK INTER:                  -3.353
REMARK INTRA:                  -0.135
REMARK UNBOUND:                -0.145
REMARK SMILES O=C([O-])C=Cc1ccc(O)cc1
REMARK SMILES IDX 6 1 7 2 12 3 8 4 11 5 9 6 5 7 4 8 2 9 1 10 3 11 10 12
REMARK H PARENT 10 13
REMARK Flexibility Score: inf
ROOT
ATOM      1  C   UNL     1      -7.481  -9.221  -9.375  1.00  0.00    -0.025 A 
ATOM      2  C   UNL     1      -8.266  -8.075  -9.581  1.00  0.00     0.012 A 
ATOM      3  C   UNL     1      -7.285 -10.113 -10.450  1.00  0.00     0.012 A 
ATOM      4  C   UNL     1      -8.821  -7.808 -10.836  1.00  0.00     0.047 A 
ATOM      5  C   UNL     1      -7.844  -9.844 -11.703  1.00  0.00     0.047 A 
ATOM      6  C   UNL     1      -8.610  -8.692 -11.901  1.00  0.00     0.115 A 
ENDROOT
BRANCH   1   7
ATOM      7  C   UNL     1      -6.921  -9.465  -8.022  1.00  0.00     0.010 C 
ATOM      8  C   UNL     1      -5.902  -8.768  -7.501  1.00  0.00     0.025 C 
BRANCH   8   9
ATOM      9  C   UNL     1      -5.387  -9.037  -6.149  1.00  0.00     0.064 C 
ATOM     10  O   UNL     1      -5.701  -8.271  -5.201  1.00  0.00    -0.545 OA
ATOM     11  O   UNL     1      -4.557 -10.125  -5.900  1.00  0.00    -0.545 OA
ENDBRANCH   8   9
ENDBRANCH   1   7
BRANCH   6  12
ATOM     12  O   UNL     1      -9.158  -8.437 -13.156  1.00  0.00    -0.508 OA
ATOM     13  H   UNL     1     -10.022  -8.875 -13.455  1.00  0.00     0.293 HD
ENDBRANCH   6  12
TORSDOF 3
ENDMDL
MODEL 8
REMARK VINA RESULT:    -2.897     15.607     16.544
REMARK INTER + INTRA:          -3.465
REMARK INTER:                  -3.327
REMARK INTRA:                  -0.139
REMARK UNBOUND:                -0.145
REMARK SMILES O=C([O-])C=Cc1ccc(O)cc1
REMARK SMILES IDX 6 1 7 2 12 3 8 4 11 5 9 6 5 7 4 8 2 9 1 10 3 11 10 12
REMARK H PARENT 10 13
REMARK Flexibility Score: inf
ROOT
ATOM      1  C   UNL     1      -7.905  -5.968 -12.990  1.00  0.00    -0.025 A 
ATOM      2  C   UNL     1      -6.812  -5.400 -13.665  1.00  0.00     0.012 A 
ATOM      3  C   UNL     1      -8.968  -5.130 -12.594  1.00  0.00     0.012 A 
ATOM      4  C   UNL     1      -6.790  -4.034 -13.962  1.00  0.00     0.047 A 
ATOM      5  C   UNL     1      -8.941  -3.764 -12.890  1.00  0.00     0.047 A 
ATOM      6  C   UNL     1      -7.856  -3.213 -13.577  1.00  0.00     0.115 A 
ENDROOT
BRANCH   1   7
ATOM      7  C   UNL     1      -7.877  -7.421 -12.689  1.00  0.00     0.010 C 
ATOM      8  C   UNL     1      -8.267  -7.947 -11.520  1.00  0.00     0.025 C 
BRANCH   8   9
ATOM      9  C   UNL     1      -8.233  -9.396 -11.270  1.00  0.00     0.064 C 
ATOM     10  O   UNL     1      -7.124  -9.989 -11.205  1.00  0.00    -0.545 OA
ATOM     11  O   UNL     1      -9.406 -10.125 -11.106  1.00  0.00    -0.545 OA
ENDBRANCH   8   9
ENDBRANCH   1   7
BRANCH   6  12
ATOM     12  O   UNL     1      -7.845  -1.850 -13.867  1.00  0.00    -0.508 OA
ATOM     13  H   UNL     1      -7.024  -1.280 -13.702  1.00  0.00     0.293 HD
ENDBRANCH   6  12
TORSDOF 3
ENDMDL
MODEL 9
REMARK VINA RESULT:    -2.406     16.052     16.534
REMARK INTER + INTRA:          -2.903
REMARK INTER:                  -2.759
REMARK INTRA:                  -0.143
REMARK UNBOUND:                -0.145
REMARK SMILES O=C([O-])C=Cc1ccc(O)cc1
REMARK SMILES IDX 6 1 7 2 12 3 8 4 11 5 9 6 5 7 4 8 2 9 1 10 3 11 10 12
REMARK H PARENT 10 13
REMARK Flexibility Score: inf
ROOT
ATOM      1  C   UNL     1      -9.016  -7.515 -11.402  1.00  0.00    -0.025 A 
ATOM      2  C   UNL     1      -8.250  -7.362 -10.234  1.00  0.00     0.012 A 
ATOM      3  C   UNL     1      -9.951  -8.569 -11.468  1.00  0.00     0.012 A 
ATOM      4  C   UNL     1      -8.429  -8.222  -9.147  1.00  0.00     0.047 A 
ATOM      5  C   UNL     1     -10.125  -9.429 -10.380  1.00  0.00     0.047 A 
ATOM      6  C   UNL     1      -9.369  -9.258  -9.217  1.00  0.00     0.115 A 
ENDROOT
BRANCH   1   7
ATOM      7  C   UNL     1      -8.782  -6.582 -12.532  1.00  0.00     0.010 C 
ATOM      8  C   UNL     1      -8.608  -5.261 -12.384  1.00  0.00     0.025 C 
BRANCH   8   9
ATOM      9  C   UNL     1      -8.367  -4.376 -13.534  1.00  0.00     0.064 C 
ATOM     10  O   UNL     1      -9.341  -3.823 -14.107  1.00  0.00    -0.545 OA
ATOM     11  O   UNL     1      -7.078  -4.140 -14.002  1.00  0.00    -0.545 OA
ENDBRANCH   8   9
ENDBRANCH   1   7
BRANCH   6  12
ATOM     12  O   UNL     1      -9.557 -10.122  -8.140  1.00  0.00    -0.508 OA
ATOM     13  H   UNL     1      -8.867 -10.205  -7.402  1.00  0.00     0.293 HD
ENDBRANCH   6  12
TORSDOF 3
ENDMDL
