MODEL 1
REMARK VINA RESULT:    -3.803      0.000      0.000
REMARK INTER + INTRA:         -15.132
REMARK INTER:                  -9.584
REMARK INTRA:                  -5.548
REMARK UNBOUND:                -5.548
REMARK SMILES CCCCCCCCCCCCCCCCCCCCCCCCCCCC(=O)[O-]
REMARK SMILES IDX 15 1 16 2 17 3 18 4 19 5 20 6 21 7 22 8 23 9 24 10 25 11
REMARK SMILES IDX 26 12 27 13 28 14 29 15 30 16 14 17 13 18 12 19 11 20 10 21
REMARK SMILES IDX 9 22 8 23 7 24 6 25 5 26 4 27 3 28 2 29 1 30
REMARK H PARENT
REMARK Flexibility Score: inf
ROOT
ATOM      1  C   UNL     1     173.362 175.949 182.329  1.00  0.00     0.000 C 
ENDROOT
BRANCH   1   2
ATOM      2  C   UNL     1     174.657 175.241 182.763  1.00  0.00     0.000 C 
BRANCH   2   3
ATOM      3  C   UNL     1     175.739 176.164 183.358  1.00  0.00     0.000 C 
BRANCH   3   4
ATOM      4  C   UNL     1     176.979 176.382 182.470  1.00  0.00     0.000 C 
BRANCH   4   5
ATOM      5  C   UNL     1     177.057 177.757 181.783  1.00  0.00     0.000 C 
BRANCH   5   6
ATOM      6  C   UNL     1     177.013 177.664 180.247  1.00  0.00     0.000 C 
BRANCH   6   7
ATOM      7  C   UNL     1     175.584 177.429 179.713  1.00  0.00     0.000 C 
BRANCH   7   8
ATOM      8  C   UNL     1     175.426 176.130 178.903  1.00  0.00     0.000 C 
BRANCH   8   9
ATOM      9  C   UNL     1     176.539 175.113 179.183  1.00  0.00     0.000 C 
BRANCH   9  10
ATOM     10  C   UNL     1     175.958 173.754 179.600  1.00  0.00     0.000 C 
BRANCH  10  11
ATOM     11  C   UNL     1     176.724 173.118 180.771  1.00  0.00     0.000 C 
BRANCH  11  12
ATOM     12  C   UNL     1     175.942 171.974 181.437  1.00  0.00     0.006 C 
BRANCH  12  13
ATOM     13  C   UNL     1     176.094 170.649 180.676  1.00  0.00     0.053 C 
BRANCH  13  14
ATOM     14  C   UNL     1     177.156 169.779 181.278  1.00  0.00     0.041 C 
ATOM     15  O   UNL     1     178.056 169.282 180.551  1.00  0.00    -0.550 OA
ATOM     16  O   UNL     1     177.134 169.496 182.638  1.00  0.00    -0.550 OA
ENDBRANCH  13  14
ENDBRANCH  12  13
ENDBRANCH  11  12
ENDBRANCH  10  11
ENDBRANCH   9  10
ENDBRANCH   8   9
ENDBRANCH   7   8
ENDBRANCH   6   7
ENDBRANCH   5   6
ENDBRANCH   4   5
ENDBRANCH   3   4
ENDBRANCH   2   3
ENDBRANCH   1   2
BRANCH   1  17
ATOM     17  C   UNL     1     173.353 177.444 182.679  1.00  0.00     0.000 C 
BRANCH  17  18
ATOM     18  C   UNL     1     171.939 178.026 182.574  1.00  0.00     0.000 C 
BRANCH  18  19
ATOM     19  C   UNL     1     170.878 176.950 182.852  1.00  0.00     0.000 C 
BRANCH  19  20
ATOM     20  C   UNL     1     169.713 176.984 181.850  1.00  0.00     0.000 C 
BRANCH  20  21
ATOM     21  C   UNL     1     170.026 176.229 180.546  1.00  0.00     0.000 C 
BRANCH  21  22
ATOM     22  C   UNL     1     170.311 177.175 179.367  1.00  0.00    -0.000 C 
BRANCH  22  23
ATOM     23  C   UNL     1     171.790 177.265 178.939  1.00  0.00    -0.000 C 
BRANCH  23  24
ATOM     24  C   UNL     1     172.051 178.049 177.641  1.00  0.00    -0.000 C 
BRANCH  24  25
ATOM     25  C   UNL     1     172.793 177.218 176.582  1.00  0.00    -0.000 C 
BRANCH  25  26
ATOM     26  C   UNL     1     171.965 175.996 176.158  1.00  0.00    -0.000 C 
BRANCH  26  27
ATOM     27  C   UNL     1     172.841 174.742 175.942  1.00  0.00    -0.000 C 
BRANCH  27  28
ATOM     28  C   UNL     1     173.135 173.959 177.235  1.00  0.00    -0.000 C 
BRANCH  28  29
ATOM     29  C   UNL     1     171.918 173.739 178.148  1.00  0.00    -0.003 C 
ATOM     30  C   UNL     1     172.304 173.518 179.611  1.00  0.00     0.004 C 
ENDBRANCH  28  29
ENDBRANCH  27  28
ENDBRANCH  26  27
ENDBRANCH  25  26
ENDBRANCH  24  25
ENDBRANCH  23  24
ENDBRANCH  22  23
ENDBRANCH  21  22
ENDBRANCH  20  21
ENDBRANCH  19  20
ENDBRANCH  18  19
ENDBRANCH  17  18
ENDBRANCH   1  17
TORSDOF 26
ENDMDL
MODEL 2
REMARK VINA RESULT:    -3.776      2.373      5.947
REMARK INTER + INTRA:         -15.064
REMARK INTER:                  -9.507
REMARK INTRA:                  -5.557
REMARK UNBOUND:                -5.548
REMARK SMILES CCCCCCCCCCCCCCCCCCCCCCCCCCCC(=O)[O-]
REMARK SMILES IDX 15 1 16 2 17 3 18 4 19 5 20 6 21 7 22 8 23 9 24 10 25 11
REMARK SMILES IDX 26 12 27 13 28 14 29 15 30 16 14 17 13 18 12 19 11 20 10 21
REMARK SMILES IDX 9 22 8 23 7 24 6 25 5 26 4 27 3 28 2 29 1 30
REMARK H PARENT
REMARK Flexibility Score: inf
ROOT
ATOM      1  C   UNL     1     176.546 175.324 182.869  1.00  0.00     0.000 C 
ENDROOT
BRANCH   1   2
ATOM      2  C   UNL     1     175.200 174.701 183.281  1.00  0.00     0.000 C 
BRANCH   2   3
ATOM      3  C   UNL     1     174.095 174.765 182.208  1.00  0.00     0.000 C 
BRANCH   3   4
ATOM      4  C   UNL     1     172.828 175.543 182.613  1.00  0.00     0.000 C 
BRANCH   4   5
ATOM      5  C   UNL     1     172.936 177.074 182.495  1.00  0.00     0.000 C 
BRANCH   5   6
ATOM      6  C   UNL     1     171.604 177.793 182.774  1.00  0.00     0.000 C 
BRANCH   6   7
ATOM      7  C   UNL     1     170.465 176.810 183.119  1.00  0.00     0.000 C 
BRANCH   7   8
ATOM      8  C   UNL     1     169.114 177.170 182.477  1.00  0.00     0.000 C 
BRANCH   8   9
ATOM      9  C   UNL     1     169.093 176.941 180.960  1.00  0.00     0.000 C 
BRANCH   9  10
ATOM     10  C   UNL     1     169.045 175.443 180.626  1.00  0.00     0.000 C 
BRANCH  10  11
ATOM     11  C   UNL     1     170.337 174.945 179.958  1.00  0.00     0.000 C 
BRANCH  11  12
ATOM     12  C   UNL     1     170.738 173.536 180.424  1.00  0.00     0.006 C 
BRANCH  12  13
ATOM     13  C   UNL     1     169.764 172.971 181.468  1.00  0.00     0.053 C 
BRANCH  13  14
ATOM     14  C   UNL     1     170.402 172.852 182.818  1.00  0.00     0.041 C 
ATOM     15  O   UNL     1     169.864 173.390 183.823  1.00  0.00    -0.550 OA
ATOM     16  O   UNL     1     171.604 172.170 182.963  1.00  0.00    -0.550 OA
ENDBRANCH  13  14
ENDBRANCH  12  13
ENDBRANCH  11  12
ENDBRANCH  10  11
ENDBRANCH   9  10
ENDBRANCH   8   9
ENDBRANCH   7   8
ENDBRANCH   6   7
ENDBRANCH   5   6
ENDBRANCH   4   5
ENDBRANCH   3   4
ENDBRANCH   2   3
ENDBRANCH   1   2
BRANCH   1  17
ATOM     17  C   UNL     1     176.575 176.849 183.041  1.00  0.00     0.000 C 
BRANCH  17  18
ATOM     18  C   UNL     1     176.673 177.554 181.683  1.00  0.00     0.000 C 
BRANCH  18  19
ATOM     19  C   UNL     1     177.022 176.558 180.567  1.00  0.00     0.000 C 
BRANCH  19  20
ATOM     20  C   UNL     1     176.314 176.871 179.240  1.00  0.00     0.000 C 
BRANCH  20  21
ATOM     21  C   UNL     1     174.814 177.163 179.418  1.00  0.00     0.000 C 
BRANCH  21  22
ATOM     22  C   UNL     1     173.919 176.116 178.732  1.00  0.00    -0.000 C 
BRANCH  22  23
ATOM     23  C   UNL     1     174.639 174.827 178.288  1.00  0.00    -0.000 C 
BRANCH  23  24
ATOM     24  C   UNL     1     174.014 173.517 178.799  1.00  0.00    -0.000 C 
BRANCH  24  25
ATOM     25  C   UNL     1     175.065 172.448 179.138  1.00  0.00    -0.000 C 
BRANCH  25  26
ATOM     26  C   UNL     1     176.230 173.050 179.937  1.00  0.00    -0.000 C 
BRANCH  26  27
ATOM     27  C   UNL     1     176.901 172.013 180.864  1.00  0.00    -0.000 C 
BRANCH  27  28
ATOM     28  C   UNL     1     175.908 171.227 181.740  1.00  0.00    -0.000 C 
BRANCH  28  29
ATOM     29  C   UNL     1     175.887 169.711 181.491  1.00  0.00    -0.003 C 
ATOM     30  C   UNL     1     175.964 168.895 182.782  1.00  0.00     0.004 C 
ENDBRANCH  28  29
ENDBRANCH  27  28
ENDBRANCH  26  27
ENDBRANCH  25  26
ENDBRANCH  24  25
ENDBRANCH  23  24
ENDBRANCH  22  23
ENDBRANCH  21  22
ENDBRANCH  20  21
ENDBRANCH  19  20
ENDBRANCH  18  19
ENDBRANCH  17  18
ENDBRANCH   1  17
TORSDOF 26
ENDMDL
MODEL 3
REMARK VINA RESULT:    -3.750      3.396      6.390
REMARK INTER + INTRA:         -14.997
REMARK INTER:                  -9.004
REMARK INTRA:                  -5.993
REMARK UNBOUND:                -5.548
REMARK SMILES CCCCCCCCCCCCCCCCCCCCCCCCCCCC(=O)[O-]
REMARK SMILES IDX 15 1 16 2 17 3 18 4 19 5 20 6 21 7 22 8 23 9 24 10 25 11
REMARK SMILES IDX 26 12 27 13 28 14 29 15 30 16 14 17 13 18 12 19 11 20 10 21
REMARK SMILES IDX 9 22 8 23 7 24 6 25 5 26 4 27 3 28 2 29 1 30
REMARK H PARENT
REMARK Flexibility Score: inf
ROOT
ATOM      1  C   UNL     1     171.545 173.788 182.247  1.00  0.00     0.000 C 
ENDROOT
BRANCH   1   2
ATOM      2  C   UNL     1     170.134 174.302 182.583  1.00  0.00     0.000 C 
BRANCH   2   3
ATOM      3  C   UNL     1     170.079 175.399 183.665  1.00  0.00     0.000 C 
BRANCH   3   4
ATOM      4  C   UNL     1     170.030 176.845 183.135  1.00  0.00     0.000 C 
BRANCH   4   5
ATOM      5  C   UNL     1     169.821 176.977 181.615  1.00  0.00     0.000 C 
BRANCH   5   6
ATOM      6  C   UNL     1     170.962 177.737 180.915  1.00  0.00     0.000 C 
BRANCH   6   7
ATOM      7  C   UNL     1     171.107 177.342 179.430  1.00  0.00     0.000 C 
BRANCH   7   8
ATOM      8  C   UNL     1     170.848 175.851 179.153  1.00  0.00     0.000 C 
BRANCH   8   9
ATOM      9  C   UNL     1     172.134 175.064 178.867  1.00  0.00     0.000 C 
BRANCH   9  10
ATOM     10  C   UNL     1     173.315 176.009 178.601  1.00  0.00     0.000 C 
BRANCH  10  11
ATOM     11  C   UNL     1     174.283 175.460 177.541  1.00  0.00     0.000 C 
BRANCH  11  12
ATOM     12  C   UNL     1     174.043 176.069 176.149  1.00  0.00     0.006 C 
BRANCH  12  13
ATOM     13  C   UNL     1     173.167 177.328 176.210  1.00  0.00     0.053 C 
BRANCH  13  14
ATOM     14  C   UNL     1     171.901 177.164 175.426  1.00  0.00     0.041 C 
ATOM     15  O   UNL     1     170.800 177.528 175.917  1.00  0.00    -0.550 OA
ATOM     16  O   UNL     1     171.935 176.584 174.163  1.00  0.00    -0.550 OA
ENDBRANCH  13  14
ENDBRANCH  12  13
ENDBRANCH  11  12
ENDBRANCH  10  11
ENDBRANCH   9  10
ENDBRANCH   8   9
ENDBRANCH   7   8
ENDBRANCH   6   7
ENDBRANCH   5   6
ENDBRANCH   4   5
ENDBRANCH   3   4
ENDBRANCH   2   3
ENDBRANCH   1   2
BRANCH   1  17
ATOM     17  C   UNL     1     172.472 173.747 183.470  1.00  0.00     0.000 C 
BRANCH  17  18
ATOM     18  C   UNL     1     173.744 174.567 183.224  1.00  0.00     0.000 C 
BRANCH  18  19
ATOM     19  C   UNL     1     173.509 175.644 182.154  1.00  0.00     0.000 C 
BRANCH  19  20
ATOM     20  C   UNL     1     174.399 176.882 182.341  1.00  0.00     0.000 C 
BRANCH  20  21
ATOM     21  C   UNL     1     175.640 176.598 183.205  1.00  0.00     0.000 C 
BRANCH  21  22
ATOM     22  C   UNL     1     176.957 176.762 182.425  1.00  0.00    -0.000 C 
BRANCH  22  23
ATOM     23  C   UNL     1     176.833 176.637 180.893  1.00  0.00    -0.000 C 
BRANCH  23  24
ATOM     24  C   UNL     1     176.860 175.199 180.348  1.00  0.00    -0.000 C 
BRANCH  24  25
ATOM     25  C   UNL     1     177.447 174.193 181.350  1.00  0.00    -0.000 C 
BRANCH  25  26
ATOM     26  C   UNL     1     176.507 172.995 181.548  1.00  0.00    -0.000 C 
BRANCH  26  27
ATOM     27  C   UNL     1     175.494 172.848 180.392  1.00  0.00    -0.000 C 
BRANCH  27  28
ATOM     28  C   UNL     1     174.337 171.879 180.699  1.00  0.00    -0.000 C 
BRANCH  28  29
ATOM     29  C   UNL     1     173.337 171.683 179.549  1.00  0.00    -0.003 C 
ATOM     30  C   UNL     1     173.984 171.818 178.169  1.00  0.00     0.004 C 
ENDBRANCH  28  29
ENDBRANCH  27  28
ENDBRANCH  26  27
ENDBRANCH  25  26
ENDBRANCH  24  25
ENDBRANCH  23  24
ENDBRANCH  22  23
ENDBRANCH  21  22
ENDBRANCH  20  21
ENDBRANCH  19  20
ENDBRANCH  18  19
ENDBRANCH  17  18
ENDBRANCH   1  17
TORSDOF 26
ENDMDL
MODEL 4
REMARK VINA RESULT:    -3.693      3.785      6.940
REMARK INTER + INTRA:         -14.854
REMARK INTER:                  -9.570
REMARK INTRA:                  -5.284
REMARK UNBOUND:                -5.548
REMARK SMILES CCCCCCCCCCCCCCCCCCCCCCCCCCCC(=O)[O-]
REMARK SMILES IDX 15 1 16 2 17 3 18 4 19 5 20 6 21 7 22 8 23 9 24 10 25 11
REMARK SMILES IDX 26 12 27 13 28 14 29 15 30 16 14 17 13 18 12 19 11 20 10 21
REMARK SMILES IDX 9 22 8 23 7 24 6 25 5 26 4 27 3 28 2 29 1 30
REMARK H PARENT
REMARK Flexibility Score: inf
ROOT
ATOM      1  C   UNL     1     174.272 174.337 182.833  1.00  0.00     0.000 C 
ENDROOT
BRANCH   1   2
ATOM      2  C   UNL     1     173.127 175.315 182.514  1.00  0.00     0.000 C 
BRANCH   2   3
ATOM      3  C   UNL     1     173.523 176.805 182.515  1.00  0.00     0.000 C 
BRANCH   3   4
ATOM      4  C   UNL     1     172.361 177.794 182.301  1.00  0.00     0.000 C 
BRANCH   4   5
ATOM      5  C   UNL     1     171.040 177.412 182.993  1.00  0.00     0.000 C 
BRANCH   5   6
ATOM      6  C   UNL     1     169.913 177.081 181.998  1.00  0.00     0.000 C 
BRANCH   6   7
ATOM      7  C   UNL     1     170.378 177.184 180.529  1.00  0.00     0.000 C 
BRANCH   7   8
ATOM      8  C   UNL     1     170.275 175.861 179.749  1.00  0.00     0.000 C 
BRANCH   8   9
ATOM      9  C   UNL     1     169.005 175.769 178.894  1.00  0.00     0.000 C 
BRANCH   9  10
ATOM     10  C   UNL     1     169.335 175.346 177.455  1.00  0.00     0.000 C 
BRANCH  10  11
ATOM     11  C   UNL     1     170.717 175.839 176.996  1.00  0.00     0.000 C 
BRANCH  11  12
ATOM     12  C   UNL     1     170.631 177.073 176.083  1.00  0.00     0.006 C 
BRANCH  12  13
ATOM     13  C   UNL     1     169.332 177.099 175.265  1.00  0.00     0.053 C 
BRANCH  13  14
ATOM     14  C   UNL     1     169.572 176.757 173.826  1.00  0.00     0.041 C 
ATOM     15  O   UNL     1     170.648 176.204 173.477  1.00  0.00    -0.550 OA
ATOM     16  O   UNL     1     168.618 177.076 172.867  1.00  0.00    -0.550 OA
ENDBRANCH  13  14
ENDBRANCH  12  13
ENDBRANCH  11  12
ENDBRANCH  10  11
ENDBRANCH   9  10
ENDBRANCH   8   9
ENDBRANCH   7   8
ENDBRANCH   6   7
ENDBRANCH   5   6
ENDBRANCH   4   5
ENDBRANCH   3   4
ENDBRANCH   2   3
ENDBRANCH   1   2
BRANCH   1  17
ATOM     17  C   UNL     1     175.574 175.049 183.225  1.00  0.00     0.000 C 
BRANCH  17  18
ATOM     18  C   UNL     1     176.772 174.464 182.467  1.00  0.00     0.000 C 
BRANCH  18  19
ATOM     19  C   UNL     1     177.198 175.385 181.314  1.00  0.00     0.000 C 
BRANCH  19  20
ATOM     20  C   UNL     1     177.096 176.877 181.668  1.00  0.00     0.000 C 
BRANCH  20  21
ATOM     21  C   UNL     1     177.003 177.780 180.425  1.00  0.00     0.000 C 
BRANCH  21  22
ATOM     22  C   UNL     1     176.262 177.107 179.256  1.00  0.00    -0.000 C 
BRANCH  22  23
ATOM     23  C   UNL     1     174.769 177.472 179.128  1.00  0.00    -0.000 C 
BRANCH  23  24
ATOM     24  C   UNL     1     173.831 176.293 178.815  1.00  0.00    -0.000 C 
BRANCH  24  25
ATOM     25  C   UNL     1     174.520 174.928 178.965  1.00  0.00    -0.000 C 
BRANCH  25  26
ATOM     26  C   UNL     1     173.491 173.810 179.193  1.00  0.00    -0.000 C 
BRANCH  26  27
ATOM     27  C   UNL     1     174.142 172.410 179.212  1.00  0.00    -0.000 C 
BRANCH  27  28
ATOM     28  C   UNL     1     175.619 172.418 179.647  1.00  0.00    -0.000 C 
BRANCH  28  29
ATOM     29  C   UNL     1     175.990 171.355 180.693  1.00  0.00    -0.003 C 
ATOM     30  C   UNL     1     174.804 170.942 181.568  1.00  0.00     0.004 C 
ENDBRANCH  28  29
ENDBRANCH  27  28
ENDBRANCH  26  27
ENDBRANCH  25  26
ENDBRANCH  24  25
ENDBRANCH  23  24
ENDBRANCH  22  23
ENDBRANCH  21  22
ENDBRANCH  20  21
ENDBRANCH  19  20
ENDBRANCH  18  19
ENDBRANCH  17  18
ENDBRANCH   1  17
TORSDOF 26
ENDMDL
MODEL 5
REMARK VINA RESULT:    -3.684      1.689      4.713
REMARK INTER + INTRA:         -14.833
REMARK INTER:                  -8.941
REMARK INTRA:                  -5.892
REMARK UNBOUND:                -5.548
REMARK SMILES CCCCCCCCCCCCCCCCCCCCCCCCCCCC(=O)[O-]
REMARK SMILES IDX 15 1 16 2 17 3 18 4 19 5 20 6 21 7 22 8 23 9 24 10 25 11
REMARK SMILES IDX 26 12 27 13 28 14 29 15 30 16 14 17 13 18 12 19 11 20 10 21
REMARK SMILES IDX 9 22 8 23 7 24 6 25 5 26 4 27 3 28 2 29 1 30
REMARK H PARENT
REMARK Flexibility Score: inf
ROOT
ATOM      1  C   UNL     1     170.892 174.310 182.878  1.00  0.00     0.000 C 
ENDROOT
BRANCH   1   2
ATOM      2  C   UNL     1     170.226 175.325 183.824  1.00  0.00     0.000 C 
BRANCH   2   3
ATOM      3  C   UNL     1     169.903 176.693 183.190  1.00  0.00     0.000 C 
BRANCH   3   4
ATOM      4  C   UNL     1     171.115 177.618 182.967  1.00  0.00     0.000 C 
BRANCH   4   5
ATOM      5  C   UNL     1     171.575 177.751 181.503  1.00  0.00     0.000 C 
BRANCH   5   6
ATOM      6  C   UNL     1     170.512 177.280 180.494  1.00  0.00     0.000 C 
BRANCH   6   7
ATOM      7  C   UNL     1     171.024 176.140 179.588  1.00  0.00     0.000 C 
BRANCH   7   8
ATOM      8  C   UNL     1     169.996 175.019 179.355  1.00  0.00     0.000 C 
BRANCH   8   9
ATOM      9  C   UNL     1     170.648 173.658 179.080  1.00  0.00     0.000 C 
BRANCH   9  10
ATOM     10  C   UNL     1     172.174 173.787 178.964  1.00  0.00     0.000 C 
BRANCH  10  11
ATOM     11  C   UNL     1     172.899 172.453 179.204  1.00  0.00     0.000 C 
BRANCH  11  12
ATOM     12  C   UNL     1     174.128 172.276 178.295  1.00  0.00     0.006 C 
BRANCH  12  13
ATOM     13  C   UNL     1     175.282 171.565 179.014  1.00  0.00     0.053 C 
BRANCH  13  14
ATOM     14  C   UNL     1     175.764 172.342 180.200  1.00  0.00     0.041 C 
ATOM     15  O   UNL     1     175.598 171.890 181.364  1.00  0.00    -0.550 OA
ATOM     16  O   UNL     1     176.373 173.579 180.022  1.00  0.00    -0.550 OA
ENDBRANCH  13  14
ENDBRANCH  12  13
ENDBRANCH  11  12
ENDBRANCH  10  11
ENDBRANCH   9  10
ENDBRANCH   8   9
ENDBRANCH   7   8
ENDBRANCH   6   7
ENDBRANCH   5   6
ENDBRANCH   4   5
ENDBRANCH   3   4
ENDBRANCH   2   3
ENDBRANCH   1   2
BRANCH   1  17
ATOM     17  C   UNL     1     172.357 174.029 183.241  1.00  0.00     0.000 C 
BRANCH  17  18
ATOM     18  C   UNL     1     173.304 174.561 182.158  1.00  0.00     0.000 C 
BRANCH  18  19
ATOM     19  C   UNL     1     174.638 175.016 182.768  1.00  0.00     0.000 C 
BRANCH  19  20
ATOM     20  C   UNL     1     174.748 176.543 182.901  1.00  0.00     0.000 C 
BRANCH  20  21
ATOM     21  C   UNL     1     176.201 177.026 183.048  1.00  0.00     0.000 C 
BRANCH  21  22
ATOM     22  C   UNL     1     177.091 176.600 181.867  1.00  0.00    -0.000 C 
BRANCH  22  23
ATOM     23  C   UNL     1     177.336 177.690 180.803  1.00  0.00    -0.000 C 
BRANCH  23  24
ATOM     24  C   UNL     1     176.757 177.388 179.410  1.00  0.00    -0.000 C 
BRANCH  24  25
ATOM     25  C   UNL     1     175.242 177.632 179.329  1.00  0.00    -0.000 C 
BRANCH  25  26
ATOM     26  C   UNL     1     174.499 176.364 178.883  1.00  0.00    -0.000 C 
BRANCH  26  27
ATOM     27  C   UNL     1     175.125 175.732 177.621  1.00  0.00    -0.000 C 
BRANCH  27  28
ATOM     28  C   UNL     1     174.446 176.163 176.307  1.00  0.00    -0.000 C 
BRANCH  28  29
ATOM     29  C   UNL     1     173.050 176.783 176.476  1.00  0.00    -0.003 C 
ATOM     30  C   UNL     1     171.934 175.892 175.927  1.00  0.00     0.004 C 
ENDBRANCH  28  29
ENDBRANCH  27  28
ENDBRANCH  26  27
ENDBRANCH  25  26
ENDBRANCH  24  25
ENDBRANCH  23  24
ENDBRANCH  22  23
ENDBRANCH  21  22
ENDBRANCH  20  21
ENDBRANCH  19  20
ENDBRANCH  18  19
ENDBRANCH  17  18
ENDBRANCH   1  17
TORSDOF 26
ENDMDL
MODEL 6
REMARK VINA RESULT:    -3.678      6.515     10.276
REMARK INTER + INTRA:         -14.816
REMARK INTER:                 -11.292
REMARK INTRA:                  -3.524
REMARK UNBOUND:                -5.548
REMARK SMILES CCCCCCCCCCCCCCCCCCCCCCCCCCCC(=O)[O-]
REMARK SMILES IDX 15 1 16 2 17 3 18 4 19 5 20 6 21 7 22 8 23 9 24 10 25 11
REMARK SMILES IDX 26 12 27 13 28 14 29 15 30 16 14 17 13 18 12 19 11 20 10 21
REMARK SMILES IDX 9 22 8 23 7 24 6 25 5 26 4 27 3 28 2 29 1 30
REMARK H PARENT
REMARK Flexibility Score: inf
ROOT
ATOM      1  C   UNL     1     170.287 175.632 182.851  1.00  0.00     0.000 C 
ENDROOT
BRANCH   1   2
ATOM      2  C   UNL     1     169.686 177.049 182.878  1.00  0.00     0.000 C 
BRANCH   2   3
ATOM      3  C   UNL     1     168.347 177.203 182.129  1.00  0.00     0.000 C 
BRANCH   3   4
ATOM      4  C   UNL     1     167.668 175.884 181.715  1.00  0.00     0.000 C 
BRANCH   4   5
ATOM      5  C   UNL     1     166.129 175.898 181.761  1.00  0.00     0.000 C 
BRANCH   5   6
ATOM      6  C   UNL     1     165.518 177.124 181.058  1.00  0.00     0.000 C 
BRANCH   6   7
ATOM      7  C   UNL     1     164.894 178.123 182.056  1.00  0.00     0.000 C 
BRANCH   7   8
ATOM      8  C   UNL     1     163.980 177.467 183.106  1.00  0.00     0.000 C 
BRANCH   8   9
ATOM      9  C   UNL     1     162.516 177.908 182.984  1.00  0.00     0.000 C 
BRANCH   9  10
ATOM     10  C   UNL     1     161.803 177.156 181.851  1.00  0.00     0.000 C 
BRANCH  10  11
ATOM     11  C   UNL     1     161.735 175.640 182.100  1.00  0.00     0.000 C 
BRANCH  11  12
ATOM     12  C   UNL     1     160.319 175.163 182.462  1.00  0.00     0.006 C 
BRANCH  12  13
ATOM     13  C   UNL     1     160.089 173.693 182.086  1.00  0.00     0.053 C 
BRANCH  13  14
ATOM     14  C   UNL     1     159.719 173.537 180.643  1.00  0.00     0.041 C 
ATOM     15  O   UNL     1     158.726 174.153 180.173  1.00  0.00    -0.550 OA
ATOM     16  O   UNL     1     160.457 172.691 179.823  1.00  0.00    -0.550 OA
ENDBRANCH  13  14
ENDBRANCH  12  13
ENDBRANCH  11  12
ENDBRANCH  10  11
ENDBRANCH   9  10
ENDBRANCH   8   9
ENDBRANCH   7   8
ENDBRANCH   6   7
ENDBRANCH   5   6
ENDBRANCH   4   5
ENDBRANCH   3   4
ENDBRANCH   2   3
ENDBRANCH   1   2
BRANCH   1  17
ATOM     17  C   UNL     1     171.809 175.634 182.650  1.00  0.00     0.000 C 
BRANCH  17  18
ATOM     18  C   UNL     1     172.347 177.064 182.527  1.00  0.00     0.000 C 
BRANCH  18  19
ATOM     19  C   UNL     1     173.882 177.084 182.590  1.00  0.00     0.000 C 
BRANCH  19  20
ATOM     20  C   UNL     1     174.502 175.679 182.542  1.00  0.00     0.000 C 
BRANCH  20  21
ATOM     21  C   UNL     1     176.018 175.688 182.808  1.00  0.00     0.000 C 
BRANCH  21  22
ATOM     22  C   UNL     1     176.816 176.359 181.676  1.00  0.00    -0.000 C 
BRANCH  22  23
ATOM     23  C   UNL     1     176.670 175.699 180.289  1.00  0.00    -0.000 C 
BRANCH  23  24
ATOM     24  C   UNL     1     176.623 176.676 179.100  1.00  0.00    -0.000 C 
BRANCH  24  25
ATOM     25  C   UNL     1     175.328 176.555 178.282  1.00  0.00    -0.000 C 
BRANCH  25  26
ATOM     26  C   UNL     1     174.176 177.318 178.952  1.00  0.00    -0.000 C 
BRANCH  26  27
ATOM     27  C   UNL     1     172.867 176.499 178.975  1.00  0.00    -0.000 C 
BRANCH  27  28
ATOM     28  C   UNL     1     171.594 177.364 179.043  1.00  0.00    -0.000 C 
BRANCH  28  29
ATOM     29  C   UNL     1     170.276 176.573 179.064  1.00  0.00    -0.003 C 
ATOM     30  C   UNL     1     170.489 175.068 179.239  1.00  0.00     0.004 C 
ENDBRANCH  28  29
ENDBRANCH  27  28
ENDBRANCH  26  27
ENDBRANCH  25  26
ENDBRANCH  24  25
ENDBRANCH  23  24
ENDBRANCH  22  23
ENDBRANCH  21  22
ENDBRANCH  20  21
ENDBRANCH  19  20
ENDBRANCH  18  19
ENDBRANCH  17  18
ENDBRANCH   1  17
TORSDOF 26
ENDMDL
MODEL 7
REMARK VINA RESULT:    -3.672      3.496      5.455
REMARK INTER + INTRA:         -14.802
REMARK INTER:                  -9.271
REMARK INTRA:                  -5.531
REMARK UNBOUND:                -5.548
REMARK SMILES CCCCCCCCCCCCCCCCCCCCCCCCCCCC(=O)[O-]
REMARK SMILES IDX 15 1 16 2 17 3 18 4 19 5 20 6 21 7 22 8 23 9 24 10 25 11
REMARK SMILES IDX 26 12 27 13 28 14 29 15 30 16 14 17 13 18 12 19 11 20 10 21
REMARK SMILES IDX 9 22 8 23 7 24 6 25 5 26 4 27 3 28 2 29 1 30
REMARK H PARENT
REMARK Flexibility Score: inf
ROOT
ATOM      1  C   UNL     1     173.615 176.999 182.537  1.00  0.00     0.000 C 
ENDROOT
BRANCH   1   2
ATOM      2  C   UNL     1     174.402 175.686 182.701  1.00  0.00     0.000 C 
BRANCH   2   3
ATOM      3  C   UNL     1     175.846 175.851 183.214  1.00  0.00     0.000 C 
BRANCH   3   4
ATOM      4  C   UNL     1     176.916 176.038 182.120  1.00  0.00     0.000 C 
BRANCH   4   5
ATOM      5  C   UNL     1     177.167 177.496 181.695  1.00  0.00     0.000 C 
BRANCH   5   6
ATOM      6  C   UNL     1     176.972 177.724 180.185  1.00  0.00     0.000 C 
BRANCH   6   7
ATOM      7  C   UNL     1     176.121 176.616 179.528  1.00  0.00     0.000 C 
BRANCH   7   8
ATOM      8  C   UNL     1     176.622 176.186 178.138  1.00  0.00     0.000 C 
BRANCH   8   9
ATOM      9  C   UNL     1     175.514 176.184 177.078  1.00  0.00     0.000 C 
BRANCH   9  10
ATOM     10  C   UNL     1     174.199 176.735 177.648  1.00  0.00     0.000 C 
BRANCH  10  11
ATOM     11  C   UNL     1     172.997 176.463 176.729  1.00  0.00     0.000 C 
BRANCH  11  12
ATOM     12  C   UNL     1     171.793 175.880 177.487  1.00  0.00     0.006 C 
BRANCH  12  13
ATOM     13  C   UNL     1     170.599 176.846 177.509  1.00  0.00     0.053 C 
BRANCH  13  14
ATOM     14  C   UNL     1     169.603 176.524 176.437  1.00  0.00     0.041 C 
ATOM     15  O   UNL     1     168.643 175.746 176.676  1.00  0.00    -0.550 OA
ATOM     16  O   UNL     1     169.753 177.064 175.164  1.00  0.00    -0.550 OA
ENDBRANCH  13  14
ENDBRANCH  12  13
ENDBRANCH  11  12
ENDBRANCH  10  11
ENDBRANCH   9  10
ENDBRANCH   8   9
ENDBRANCH   7   8
ENDBRANCH   6   7
ENDBRANCH   5   6
ENDBRANCH   4   5
ENDBRANCH   3   4
ENDBRANCH   2   3
ENDBRANCH   1   2
BRANCH   1  17
ATOM     17  C   UNL     1     172.927 177.115 181.170  1.00  0.00     0.000 C 
BRANCH  17  18
ATOM     18  C   UNL     1     171.410 177.271 181.328  1.00  0.00     0.000 C 
BRANCH  18  19
ATOM     19  C   UNL     1     171.000 177.207 182.807  1.00  0.00     0.000 C 
BRANCH  19  20
ATOM     20  C   UNL     1     170.081 176.017 183.125  1.00  0.00     0.000 C 
BRANCH  20  21
ATOM     21  C   UNL     1     170.861 174.717 183.392  1.00  0.00     0.000 C 
BRANCH  21  22
ATOM     22  C   UNL     1     170.708 173.690 182.256  1.00  0.00    -0.000 C 
BRANCH  22  23
ATOM     23  C   UNL     1     171.749 172.552 182.256  1.00  0.00    -0.000 C 
BRANCH  23  24
ATOM     24  C   UNL     1     172.140 172.022 180.865  1.00  0.00    -0.000 C 
BRANCH  24  25
ATOM     25  C   UNL     1     172.253 173.136 179.813  1.00  0.00    -0.000 C 
BRANCH  25  26
ATOM     26  C   UNL     1     173.608 173.853 179.909  1.00  0.00    -0.000 C 
BRANCH  26  27
ATOM     27  C   UNL     1     174.720 173.108 179.139  1.00  0.00    -0.000 C 
BRANCH  27  28
ATOM     28  C   UNL     1     176.025 172.941 179.940  1.00  0.00    -0.000 C 
BRANCH  28  29
ATOM     29  C   UNL     1     175.836 172.484 181.395  1.00  0.00    -0.003 C 
ATOM     30  C   UNL     1     176.774 171.342 181.787  1.00  0.00     0.004 C 
ENDBRANCH  28  29
ENDBRANCH  27  28
ENDBRANCH  26  27
ENDBRANCH  25  26
ENDBRANCH  24  25
ENDBRANCH  23  24
ENDBRANCH  22  23
ENDBRANCH  21  22
ENDBRANCH  20  21
ENDBRANCH  19  20
ENDBRANCH  18  19
ENDBRANCH  17  18
ENDBRANCH   1  17
TORSDOF 26
ENDMDL
MODEL 8
REMARK VINA RESULT:    -3.669      3.076      6.375
REMARK INTER + INTRA:         -14.793
REMARK INTER:                  -9.225
REMARK INTRA:                  -5.568
REMARK UNBOUND:                -5.548
REMARK SMILES CCCCCCCCCCCCCCCCCCCCCCCCCCCC(=O)[O-]
REMARK SMILES IDX 15 1 16 2 17 3 18 4 19 5 20 6 21 7 22 8 23 9 24 10 25 11
REMARK SMILES IDX 26 12 27 13 28 14 29 15 30 16 14 17 13 18 12 19 11 20 10 21
REMARK SMILES IDX 9 22 8 23 7 24 6 25 5 26 4 27 3 28 2 29 1 30
REMARK H PARENT
REMARK Flexibility Score: inf
ROOT
ATOM      1  C   UNL     1     174.723 172.793 180.188  1.00  0.00     0.000 C 
ENDROOT
BRANCH   1   2
ATOM      2  C   UNL     1     174.119 172.408 181.550  1.00  0.00     0.000 C 
BRANCH   2   3
ATOM      3  C   UNL     1     172.586 172.537 181.644  1.00  0.00     0.000 C 
BRANCH   3   4
ATOM      4  C   UNL     1     172.074 173.679 182.542  1.00  0.00     0.000 C 
BRANCH   4   5
ATOM      5  C   UNL     1     173.113 174.767 182.871  1.00  0.00     0.000 C 
BRANCH   5   6
ATOM      6  C   UNL     1     173.151 175.897 181.827  1.00  0.00     0.000 C 
BRANCH   6   7
ATOM      7  C   UNL     1     173.172 177.298 182.477  1.00  0.00     0.000 C 
BRANCH   7   8
ATOM      8  C   UNL     1     171.830 178.045 182.391  1.00  0.00     0.000 C 
BRANCH   8   9
ATOM      9  C   UNL     1     170.928 177.794 183.606  1.00  0.00     0.000 C 
BRANCH   9  10
ATOM     10  C   UNL     1     169.901 176.690 183.316  1.00  0.00     0.000 C 
BRANCH  10  11
ATOM     11  C   UNL     1     168.961 177.048 182.154  1.00  0.00     0.000 C 
BRANCH  11  12
ATOM     12  C   UNL     1     168.476 175.809 181.382  1.00  0.00     0.006 C 
BRANCH  12  13
ATOM     13  C   UNL     1     168.647 174.517 182.193  1.00  0.00     0.053 C 
BRANCH  13  14
ATOM     14  C   UNL     1     167.965 173.354 181.539  1.00  0.00     0.041 C 
ATOM     15  O   UNL     1     167.483 172.426 182.241  1.00  0.00    -0.550 OA
ATOM     16  O   UNL     1     167.888 173.283 180.154  1.00  0.00    -0.550 OA
ENDBRANCH  13  14
ENDBRANCH  12  13
ENDBRANCH  11  12
ENDBRANCH  10  11
ENDBRANCH   9  10
ENDBRANCH   8   9
ENDBRANCH   7   8
ENDBRANCH   6   7
ENDBRANCH   5   6
ENDBRANCH   4   5
ENDBRANCH   3   4
ENDBRANCH   2   3
ENDBRANCH   1   2
BRANCH   1  17
ATOM     17  C   UNL     1     176.247 172.975 180.240  1.00  0.00     0.000 C 
BRANCH  17  18
ATOM     18  C   UNL     1     176.748 173.002 181.689  1.00  0.00     0.000 C 
BRANCH  18  19
ATOM     19  C   UNL     1     177.432 174.340 182.011  1.00  0.00     0.000 C 
BRANCH  19  20
ATOM     20  C   UNL     1     176.560 175.269 182.869  1.00  0.00     0.000 C 
BRANCH  20  21
ATOM     21  C   UNL     1     176.760 176.756 182.528  1.00  0.00     0.000 C 
BRANCH  21  22
ATOM     22  C   UNL     1     177.366 176.969 181.130  1.00  0.00    -0.000 C 
BRANCH  22  23
ATOM     23  C   UNL     1     176.583 177.932 180.214  1.00  0.00    -0.000 C 
BRANCH  23  24
ATOM     24  C   UNL     1     175.437 177.288 179.413  1.00  0.00    -0.000 C 
BRANCH  24  25
ATOM     25  C   UNL     1     175.909 176.121 178.532  1.00  0.00    -0.000 C 
BRANCH  25  26
ATOM     26  C   UNL     1     174.854 175.762 177.475  1.00  0.00    -0.000 C 
BRANCH  26  27
ATOM     27  C   UNL     1     173.443 176.252 177.867  1.00  0.00    -0.000 C 
BRANCH  27  28
ATOM     28  C   UNL     1     172.505 175.128 178.344  1.00  0.00    -0.000 C 
BRANCH  28  29
ATOM     29  C   UNL     1     171.114 175.598 178.798  1.00  0.00    -0.003 C 
ATOM     30  C   UNL     1     171.024 177.115 178.967  1.00  0.00     0.004 C 
ENDBRANCH  28  29
ENDBRANCH  27  28
ENDBRANCH  26  27
ENDBRANCH  25  26
ENDBRANCH  24  25
ENDBRANCH  23  24
ENDBRANCH  22  23
ENDBRANCH  21  22
ENDBRANCH  20  21
ENDBRANCH  19  20
ENDBRANCH  18  19
ENDBRANCH  17  18
ENDBRANCH   1  17
TORSDOF 26
ENDMDL
MODEL 9
REMARK VINA RESULT:    -3.668      1.422      3.235
REMARK INTER + INTRA:         -14.791
REMARK INTER:                  -9.680
REMARK INTRA:                  -5.112
REMARK UNBOUND:                -5.548
REMARK SMILES CCCCCCCCCCCCCCCCCCCCCCCCCCCC(=O)[O-]
REMARK SMILES IDX 15 1 16 2 17 3 18 4 19 5 20 6 21 7 22 8 23 9 24 10 25 11
REMARK SMILES IDX 26 12 27 13 28 14 29 15 30 16 14 17 13 18 12 19 11 20 10 21
REMARK SMILES IDX 9 22 8 23 7 24 6 25 5 26 4 27 3 28 2 29 1 30
REMARK H PARENT
REMARK Flexibility Score: inf
ROOT
ATOM      1  C   UNL     1     173.247 176.653 178.887  1.00  0.00     0.000 C 
ENDROOT
BRANCH   1   2
ATOM      2  C   UNL     1     174.630 177.306 179.063  1.00  0.00     0.000 C 
BRANCH   2   3
ATOM      3  C   UNL     1     175.830 176.374 178.803  1.00  0.00     0.000 C 
BRANCH   3   4
ATOM      4  C   UNL     1     176.986 176.492 179.816  1.00  0.00     0.000 C 
BRANCH   4   5
ATOM      5  C   UNL     1     177.024 177.808 180.614  1.00  0.00     0.000 C 
BRANCH   5   6
ATOM      6  C   UNL     1     177.269 177.591 182.118  1.00  0.00     0.000 C 
BRANCH   6   7
ATOM      7  C   UNL     1     176.030 177.017 182.839  1.00  0.00     0.000 C 
BRANCH   7   8
ATOM      8  C   UNL     1     176.219 175.578 183.350  1.00  0.00     0.000 C 
BRANCH   8   9
ATOM      9  C   UNL     1     175.041 174.659 182.998  1.00  0.00     0.000 C 
BRANCH   9  10
ATOM     10  C   UNL     1     175.335 173.840 181.734  1.00  0.00     0.000 C 
BRANCH  10  11
ATOM     11  C   UNL     1     176.813 173.430 181.626  1.00  0.00     0.000 C 
BRANCH  11  12
ATOM     12  C   UNL     1     176.999 172.057 180.959  1.00  0.00     0.006 C 
BRANCH  12  13
ATOM     13  C   UNL     1     176.279 170.938 181.724  1.00  0.00     0.053 C 
BRANCH  13  14
ATOM     14  C   UNL     1     177.028 169.643 181.652  1.00  0.00     0.041 C 
ATOM     15  O   UNL     1     177.769 169.393 180.665  1.00  0.00    -0.550 OA
ATOM     16  O   UNL     1     176.885 168.699 182.663  1.00  0.00    -0.550 OA
ENDBRANCH  13  14
ENDBRANCH  12  13
ENDBRANCH  11  12
ENDBRANCH  10  11
ENDBRANCH   9  10
ENDBRANCH   8   9
ENDBRANCH   7   8
ENDBRANCH   6   7
ENDBRANCH   5   6
ENDBRANCH   4   5
ENDBRANCH   3   4
ENDBRANCH   2   3
ENDBRANCH   1   2
BRANCH   1  17
ATOM     17  C   UNL     1     172.270 177.010 180.015  1.00  0.00     0.000 C 
BRANCH  17  18
ATOM     18  C   UNL     1     173.019 177.301 181.321  1.00  0.00     0.000 C 
BRANCH  18  19
ATOM     19  C   UNL     1     172.069 177.246 182.526  1.00  0.00     0.000 C 
BRANCH  19  20
ATOM     20  C   UNL     1     171.615 175.818 182.868  1.00  0.00     0.000 C 
BRANCH  20  21
ATOM     21  C   UNL     1     170.130 175.743 183.263  1.00  0.00     0.000 C 
BRANCH  21  22
ATOM     22  C   UNL     1     169.334 176.982 182.819  1.00  0.00    -0.000 C 
BRANCH  22  23
ATOM     23  C   UNL     1     168.278 176.727 181.723  1.00  0.00    -0.000 C 
BRANCH  23  24
ATOM     24  C   UNL     1     168.791 175.978 180.481  1.00  0.00    -0.000 C 
BRANCH  24  25
ATOM     25  C   UNL     1     168.206 174.562 180.357  1.00  0.00    -0.000 C 
BRANCH  25  26
ATOM     26  C   UNL     1     169.318 173.502 180.348  1.00  0.00    -0.000 C 
BRANCH  26  27
ATOM     27  C   UNL     1     170.628 174.034 179.727  1.00  0.00    -0.000 C 
BRANCH  27  28
ATOM     28  C   UNL     1     171.898 173.366 180.289  1.00  0.00    -0.000 C 
BRANCH  28  29
ATOM     29  C   UNL     1     172.872 172.834 179.226  1.00  0.00    -0.003 C 
ATOM     30  C   UNL     1     172.420 173.142 177.798  1.00  0.00     0.004 C 
ENDBRANCH  28  29
ENDBRANCH  27  28
ENDBRANCH  26  27
ENDBRANCH  25  26
ENDBRANCH  24  25
ENDBRANCH  23  24
ENDBRANCH  22  23
ENDBRANCH  21  22
ENDBRANCH  20  21
ENDBRANCH  19  20
ENDBRANCH  18  19
ENDBRANCH  17  18
ENDBRANCH   1  17
TORSDOF 26
ENDMDL
