MODEL 1
REMARK VINA RESULT:    -5.028      0.000      0.000
REMARK INTER + INTRA:         -18.927
REMARK INTER:                 -13.259
REMARK INTRA:                  -5.668
REMARK UNBOUND:                -5.668
REMARK SMILES CCCCCCCCCCCCCCCCCCCCCCCCCCCCCC(=O)[O-]
REMARK SMILES IDX 16 1 17 2 18 3 19 4 20 5 21 6 22 7 23 8 24 9 25 10 26 11
REMARK SMILES IDX 27 12 28 13 29 14 30 15 31 16 32 17 15 18 14 19 13 20 12 21
REMARK SMILES IDX 11 22 10 23 9 24 8 25 7 26 6 27 5 28 4 29 3 30 2 31 1 32
REMARK H PARENT
REMARK Flexibility Score: inf
ROOT
ATOM      1  C   UNL     1       0.589  57.186  16.872  1.00  0.00     0.000 C 
ENDROOT
BRANCH   1   2
ATOM      2  C   UNL     1      -0.915  56.876  16.937  1.00  0.00     0.000 C 
BRANCH   2   3
ATOM      3  C   UNL     1      -1.296  56.033  18.167  1.00  0.00     0.000 C 
BRANCH   3   4
ATOM      4  C   UNL     1      -2.688  55.375  18.060  1.00  0.00     0.000 C 
BRANCH   4   5
ATOM      5  C   UNL     1      -2.641  54.022  17.328  1.00  0.00     0.000 C 
BRANCH   5   6
ATOM      6  C   UNL     1      -1.236  53.384  17.375  1.00  0.00     0.000 C 
BRANCH   6   7
ATOM      7  C   UNL     1      -1.248  51.891  17.740  1.00  0.00     0.000 C 
BRANCH   7   8
ATOM      8  C   UNL     1      -2.653  51.274  17.688  1.00  0.00     0.000 C 
BRANCH   8   9
ATOM      9  C   UNL     1      -2.622  49.804  18.124  1.00  0.00     0.000 C 
BRANCH   9  10
ATOM     10  C   UNL     1      -1.343  49.490  18.913  1.00  0.00     0.000 C 
BRANCH  10  11
ATOM     11  C   UNL     1      -1.620  48.711  20.210  1.00  0.00     0.000 C 
BRANCH  11  12
ATOM     12  C   UNL     1      -2.957  49.045  20.896  1.00  0.00     0.000 C 
BRANCH  12  13
ATOM     13  C   UNL     1      -2.804  49.800  22.237  1.00  0.00     0.006 C 
BRANCH  13  14
ATOM     14  C   UNL     1      -4.142  50.107  22.932  1.00  0.00     0.053 C 
BRANCH  14  15
ATOM     15  C   UNL     1      -3.952  50.874  24.206  1.00  0.00     0.041 C 
ATOM     16  O   UNL     1      -3.080  51.780  24.274  1.00  0.00    -0.550 OA
ATOM     17  O   UNL     1      -4.735  50.588  25.318  1.00  0.00    -0.550 OA
ENDBRANCH  14  15
ENDBRANCH  13  14
ENDBRANCH  12  13
ENDBRANCH  11  12
ENDBRANCH  10  11
ENDBRANCH   9  10
ENDBRANCH   8   9
ENDBRANCH   7   8
ENDBRANCH   6   7
ENDBRANCH   5   6
ENDBRANCH   4   5
ENDBRANCH   3   4
ENDBRANCH   2   3
ENDBRANCH   1   2
BRANCH   1  18
ATOM     18  C   UNL     1       1.298  56.963  18.218  1.00  0.00     0.000 C 
BRANCH  18  19
ATOM     19  C   UNL     1       2.615  57.751  18.331  1.00  0.00     0.000 C 
BRANCH  19  20
ATOM     20  C   UNL     1       3.862  56.851  18.239  1.00  0.00     0.000 C 
BRANCH  20  21
ATOM     21  C   UNL     1       4.455  56.693  16.826  1.00  0.00     0.000 C 
BRANCH  21  22
ATOM     22  C   UNL     1       4.422  55.240  16.322  1.00  0.00     0.000 C 
BRANCH  22  23
ATOM     23  C   UNL     1       3.057  54.849  15.734  1.00  0.00     0.000 C 
BRANCH  23  24
ATOM     24  C   UNL     1       2.277  53.875  16.630  1.00  0.00    -0.000 C 
BRANCH  24  25
ATOM     25  C   UNL     1       3.199  53.258  17.694  1.00  0.00    -0.000 C 
BRANCH  25  26
ATOM     26  C   UNL     1       2.455  52.892  18.988  1.00  0.00    -0.000 C 
BRANCH  26  27
ATOM     27  C   UNL     1       2.695  53.905  20.118  1.00  0.00    -0.000 C 
BRANCH  27  28
ATOM     28  C   UNL     1       1.364  54.468  20.639  1.00  0.00    -0.000 C 
BRANCH  28  29
ATOM     29  C   UNL     1       0.211  53.456  20.531  1.00  0.00    -0.000 C 
BRANCH  29  30
ATOM     30  C   UNL     1      -1.102  53.994  21.118  1.00  0.00    -0.000 C 
BRANCH  30  31
ATOM     31  C   UNL     1      -2.207  52.934  21.050  1.00  0.00    -0.003 C 
ATOM     32  C   UNL     1      -3.588  53.564  21.211  1.00  0.00     0.004 C 
ENDBRANCH  30  31
ENDBRANCH  29  30
ENDBRANCH  28  29
ENDBRANCH  27  28
ENDBRANCH  26  27
ENDBRANCH  25  26
ENDBRANCH  24  25
ENDBRANCH  23  24
ENDBRANCH  22  23
ENDBRANCH  21  22
ENDBRANCH  20  21
ENDBRANCH  19  20
ENDBRANCH  18  19
ENDBRANCH   1  18
TORSDOF 28
ENDMDL
MODEL 2
REMARK VINA RESULT:    -5.023      1.960      5.449
REMARK INTER + INTRA:         -18.913
REMARK INTER:                 -14.283
REMARK INTRA:                  -4.630
REMARK UNBOUND:                -5.668
REMARK SMILES CCCCCCCCCCCCCCCCCCCCCCCCCCCCCC(=O)[O-]
REMARK SMILES IDX 16 1 17 2 18 3 19 4 20 5 21 6 22 7 23 8 24 9 25 10 26 11
REMARK SMILES IDX 27 12 28 13 29 14 30 15 31 16 32 17 15 18 14 19 13 20 12 21
REMARK SMILES IDX 11 22 10 23 9 24 8 25 7 26 6 27 5 28 4 29 3 30 2 31 1 32
REMARK H PARENT
REMARK Flexibility Score: inf
ROOT
ATOM      1  C   UNL     1       3.431  53.887  19.467  1.00  0.00     0.000 C 
ENDROOT
BRANCH   1   2
ATOM      2  C   UNL     1       3.460  52.547  18.715  1.00  0.00     0.000 C 
BRANCH   2   3
ATOM      3  C   UNL     1       2.063  52.093  18.255  1.00  0.00     0.000 C 
BRANCH   3   4
ATOM      4  C   UNL     1       1.416  53.035  17.217  1.00  0.00     0.000 C 
BRANCH   4   5
ATOM      5  C   UNL     1      -0.114  52.872  17.154  1.00  0.00     0.000 C 
BRANCH   5   6
ATOM      6  C   UNL     1      -0.619  51.757  18.094  1.00  0.00     0.000 C 
BRANCH   6   7
ATOM      7  C   UNL     1      -2.151  51.636  18.140  1.00  0.00     0.000 C 
BRANCH   7   8
ATOM      8  C   UNL     1      -2.656  50.913  19.396  1.00  0.00     0.000 C 
BRANCH   8   9
ATOM      9  C   UNL     1      -1.870  51.354  20.636  1.00  0.00     0.000 C 
BRANCH   9  10
ATOM     10  C   UNL     1      -2.235  50.494  21.855  1.00  0.00     0.000 C 
BRANCH  10  11
ATOM     11  C   UNL     1      -2.334  51.312  23.153  1.00  0.00     0.000 C 
BRANCH  11  12
ATOM     12  C   UNL     1      -3.767  51.559  23.658  1.00  0.00     0.000 C 
BRANCH  12  13
ATOM     13  C   UNL     1      -4.197  53.044  23.630  1.00  0.00     0.006 C 
BRANCH  13  14
ATOM     14  C   UNL     1      -4.161  53.673  22.226  1.00  0.00     0.053 C 
BRANCH  14  15
ATOM     15  C   UNL     1      -5.521  54.107  21.768  1.00  0.00     0.041 C 
ATOM     16  O   UNL     1      -5.636  55.030  20.919  1.00  0.00    -0.550 OA
ATOM     17  O   UNL     1      -6.659  53.494  22.277  1.00  0.00    -0.550 OA
ENDBRANCH  14  15
ENDBRANCH  13  14
ENDBRANCH  12  13
ENDBRANCH  11  12
ENDBRANCH  10  11
ENDBRANCH   9  10
ENDBRANCH   8   9
ENDBRANCH   7   8
ENDBRANCH   6   7
ENDBRANCH   5   6
ENDBRANCH   4   5
ENDBRANCH   3   4
ENDBRANCH   2   3
ENDBRANCH   1   2
BRANCH   1  18
ATOM     18  C   UNL     1       2.427  53.890  20.631  1.00  0.00     0.000 C 
BRANCH  18  19
ATOM     19  C   UNL     1       1.321  54.945  20.456  1.00  0.00     0.000 C 
BRANCH  19  20
ATOM     20  C   UNL     1      -0.075  54.420  20.839  1.00  0.00     0.000 C 
BRANCH  20  21
ATOM     21  C   UNL     1      -1.232  54.922  19.954  1.00  0.00     0.000 C 
BRANCH  21  22
ATOM     22  C   UNL     1      -0.909  56.246  19.240  1.00  0.00     0.000 C 
BRANCH  22  23
ATOM     23  C   UNL     1      -1.187  56.185  17.730  1.00  0.00     0.000 C 
BRANCH  23  24
ATOM     24  C   UNL     1      -0.165  56.980  16.901  1.00  0.00    -0.000 C 
BRANCH  24  25
ATOM     25  C   UNL     1       1.269  56.623  17.319  1.00  0.00    -0.000 C 
BRANCH  25  26
ATOM     26  C   UNL     1       1.954  57.742  18.119  1.00  0.00    -0.000 C 
BRANCH  26  27
ATOM     27  C   UNL     1       3.417  57.421  18.458  1.00  0.00    -0.000 C 
BRANCH  27  28
ATOM     28  C   UNL     1       4.086  56.643  17.316  1.00  0.00    -0.000 C 
BRANCH  28  29
ATOM     29  C   UNL     1       5.499  56.155  17.680  1.00  0.00    -0.000 C 
BRANCH  29  30
ATOM     30  C   UNL     1       6.601  57.021  17.052  1.00  0.00    -0.000 C 
BRANCH  30  31
ATOM     31  C   UNL     1       7.768  57.213  18.027  1.00  0.00    -0.003 C 
ATOM     32  C   UNL     1       7.632  58.523  18.799  1.00  0.00     0.004 C 
ENDBRANCH  30  31
ENDBRANCH  29  30
ENDBRANCH  28  29
ENDBRANCH  27  28
ENDBRANCH  26  27
ENDBRANCH  25  26
ENDBRANCH  24  25
ENDBRANCH  23  24
ENDBRANCH  22  23
ENDBRANCH  21  22
ENDBRANCH  20  21
ENDBRANCH  19  20
ENDBRANCH  18  19
ENDBRANCH   1  18
TORSDOF 28
ENDMDL
MODEL 3
REMARK VINA RESULT:    -4.991      2.256      4.575
REMARK INTER + INTRA:         -18.829
REMARK INTER:                 -12.934
REMARK INTRA:                  -5.895
REMARK UNBOUND:                -5.668
REMARK SMILES CCCCCCCCCCCCCCCCCCCCCCCCCCCCCC(=O)[O-]
REMARK SMILES IDX 16 1 17 2 18 3 19 4 20 5 21 6 22 7 23 8 24 9 25 10 26 11
REMARK SMILES IDX 27 12 28 13 29 14 30 15 31 16 32 17 15 18 14 19 13 20 12 21
REMARK SMILES IDX 11 22 10 23 9 24 8 25 7 26 6 27 5 28 4 29 3 30 2 31 1 32
REMARK H PARENT
REMARK Flexibility Score: inf
ROOT
ATOM      1  C   UNL     1       2.943  55.204  15.879  1.00  0.00     0.000 C 
ENDROOT
BRANCH   1   2
ATOM      2  C   UNL     1       1.545  55.715  16.262  1.00  0.00     0.000 C 
BRANCH   2   3
ATOM      3  C   UNL     1       1.573  56.686  17.455  1.00  0.00     0.000 C 
BRANCH   3   4
ATOM      4  C   UNL     1       0.800  56.173  18.690  1.00  0.00     0.000 C 
BRANCH   4   5
ATOM      5  C   UNL     1       1.739  55.729  19.825  1.00  0.00     0.000 C 
BRANCH   5   6
ATOM      6  C   UNL     1       1.028  54.817  20.847  1.00  0.00     0.000 C 
BRANCH   6   7
ATOM      7  C   UNL     1      -0.492  54.724  20.637  1.00  0.00     0.000 C 
BRANCH   7   8
ATOM      8  C   UNL     1      -1.129  53.546  21.387  1.00  0.00     0.000 C 
BRANCH   8   9
ATOM      9  C   UNL     1      -2.651  53.537  21.201  1.00  0.00     0.000 C 
BRANCH   9  10
ATOM     10  C   UNL     1      -3.174  52.107  21.001  1.00  0.00     0.000 C 
BRANCH  10  11
ATOM     11  C   UNL     1      -2.786  51.164  22.151  1.00  0.00     0.000 C 
BRANCH  11  12
ATOM     12  C   UNL     1      -1.885  49.982  21.748  1.00  0.00     0.000 C 
BRANCH  12  13
ATOM     13  C   UNL     1      -1.419  50.021  20.275  1.00  0.00     0.006 C 
BRANCH  13  14
ATOM     14  C   UNL     1      -1.027  48.645  19.711  1.00  0.00     0.053 C 
BRANCH  14  15
ATOM     15  C   UNL     1       0.438  48.368  19.865  1.00  0.00     0.041 C 
ATOM     16  O   UNL     1       0.869  47.814  20.911  1.00  0.00    -0.550 OA
ATOM     17  O   UNL     1       1.326  48.721  18.857  1.00  0.00    -0.550 OA
ENDBRANCH  14  15
ENDBRANCH  13  14
ENDBRANCH  12  13
ENDBRANCH  11  12
ENDBRANCH  10  11
ENDBRANCH   9  10
ENDBRANCH   8   9
ENDBRANCH   7   8
ENDBRANCH   6   7
ENDBRANCH   5   6
ENDBRANCH   4   5
ENDBRANCH   3   4
ENDBRANCH   2   3
ENDBRANCH   1   2
BRANCH   1  18
ATOM     18  C   UNL     1       4.070  56.038  16.507  1.00  0.00     0.000 C 
BRANCH  18  19
ATOM     19  C   UNL     1       4.865  55.256  17.569  1.00  0.00     0.000 C 
BRANCH  19  20
ATOM     20  C   UNL     1       4.479  53.767  17.630  1.00  0.00     0.000 C 
BRANCH  20  21
ATOM     21  C   UNL     1       4.416  53.163  19.046  1.00  0.00     0.000 C 
BRANCH  21  22
ATOM     22  C   UNL     1       3.134  52.349  19.293  1.00  0.00     0.000 C 
BRANCH  22  23
ATOM     23  C   UNL     1       2.231  52.277  18.052  1.00  0.00     0.000 C 
BRANCH  23  24
ATOM     24  C   UNL     1       0.738  52.175  18.403  1.00  0.00    -0.000 C 
BRANCH  24  25
ATOM     25  C   UNL     1      -0.128  52.729  17.261  1.00  0.00    -0.000 C 
BRANCH  25  26
ATOM     26  C   UNL     1      -1.547  52.139  17.247  1.00  0.00    -0.000 C 
BRANCH  26  27
ATOM     27  C   UNL     1      -2.608  53.130  17.748  1.00  0.00    -0.000 C 
BRANCH  27  28
ATOM     28  C   UNL     1      -2.187  54.578  17.454  1.00  0.00    -0.000 C 
BRANCH  28  29
ATOM     29  C   UNL     1      -3.238  55.604  17.909  1.00  0.00    -0.000 C 
BRANCH  29  30
ATOM     30  C   UNL     1      -2.824  57.049  17.599  1.00  0.00    -0.000 C 
BRANCH  30  31
ATOM     31  C   UNL     1      -4.054  57.958  17.481  1.00  0.00    -0.003 C 
ATOM     32  C   UNL     1      -5.058  57.676  18.594  1.00  0.00     0.004 C 
ENDBRANCH  30  31
ENDBRANCH  29  30
ENDBRANCH  28  29
ENDBRANCH  27  28
ENDBRANCH  26  27
ENDBRANCH  25  26
ENDBRANCH  24  25
ENDBRANCH  23  24
ENDBRANCH  22  23
ENDBRANCH  21  22
ENDBRANCH  20  21
ENDBRANCH  19  20
ENDBRANCH  18  19
ENDBRANCH   1  18
TORSDOF 28
ENDMDL
MODEL 4
REMARK VINA RESULT:    -4.940      4.722      9.082
REMARK INTER + INTRA:         -18.695
REMARK INTER:                 -14.182
REMARK INTRA:                  -4.512
REMARK UNBOUND:                -5.668
REMARK SMILES CCCCCCCCCCCCCCCCCCCCCCCCCCCCCC(=O)[O-]
REMARK SMILES IDX 16 1 17 2 18 3 19 4 20 5 21 6 22 7 23 8 24 9 25 10 26 11
REMARK SMILES IDX 27 12 28 13 29 14 30 15 31 16 32 17 15 18 14 19 13 20 12 21
REMARK SMILES IDX 11 22 10 23 9 24 8 25 7 26 6 27 5 28 4 29 3 30 2 31 1 32
REMARK H PARENT
REMARK Flexibility Score: inf
ROOT
ATOM      1  C   UNL     1       1.221  54.511  20.845  1.00  0.00     0.000 C 
ENDROOT
BRANCH   1   2
ATOM      2  C   UNL     1       1.937  55.692  20.171  1.00  0.00     0.000 C 
BRANCH   2   3
ATOM      3  C   UNL     1       1.003  56.517  19.268  1.00  0.00     0.000 C 
BRANCH   3   4
ATOM      4  C   UNL     1       1.705  57.107  18.025  1.00  0.00     0.000 C 
BRANCH   4   5
ATOM      5  C   UNL     1       1.109  56.575  16.710  1.00  0.00     0.000 C 
BRANCH   5   6
ATOM      6  C   UNL     1       1.972  55.455  16.090  1.00  0.00     0.000 C 
BRANCH   6   7
ATOM      7  C   UNL     1       1.738  54.074  16.722  1.00  0.00     0.000 C 
BRANCH   7   8
ATOM      8  C   UNL     1       2.952  53.564  17.511  1.00  0.00     0.000 C 
BRANCH   8   9
ATOM      9  C   UNL     1       4.257  54.121  16.930  1.00  0.00     0.000 C 
BRANCH   9  10
ATOM     10  C   UNL     1       4.867  55.181  17.859  1.00  0.00     0.000 C 
BRANCH  10  11
ATOM     11  C   UNL     1       5.585  56.303  17.093  1.00  0.00     0.000 C 
BRANCH  11  12
ATOM     12  C   UNL     1       6.489  57.204  17.956  1.00  0.00     0.000 C 
BRANCH  12  13
ATOM     13  C   UNL     1       7.894  57.443  17.356  1.00  0.00     0.006 C 
BRANCH  13  14
ATOM     14  C   UNL     1       8.626  58.656  17.955  1.00  0.00     0.053 C 
BRANCH  14  15
ATOM     15  C   UNL     1       9.776  59.098  17.102  1.00  0.00     0.041 C 
ATOM     16  O   UNL     1      10.727  59.748  17.612  1.00  0.00    -0.550 OA
ATOM     17  O   UNL     1       9.799  58.794  15.746  1.00  0.00    -0.550 OA
ENDBRANCH  14  15
ENDBRANCH  13  14
ENDBRANCH  12  13
ENDBRANCH  11  12
ENDBRANCH  10  11
ENDBRANCH   9  10
ENDBRANCH   8   9
ENDBRANCH   7   8
ENDBRANCH   6   7
ENDBRANCH   5   6
ENDBRANCH   4   5
ENDBRANCH   3   4
ENDBRANCH   2   3
ENDBRANCH   1   2
BRANCH   1  18
ATOM     18  C   UNL     1      -0.301  54.544  20.634  1.00  0.00     0.000 C 
BRANCH  18  19
ATOM     19  C   UNL     1      -0.995  53.263  21.130  1.00  0.00     0.000 C 
BRANCH  19  20
ATOM     20  C   UNL     1      -2.530  53.377  21.138  1.00  0.00     0.000 C 
BRANCH  20  21
ATOM     21  C   UNL     1      -3.286  52.058  21.392  1.00  0.00     0.000 C 
BRANCH  21  22
ATOM     22  C   UNL     1      -2.404  50.814  21.189  1.00  0.00     0.000 C 
BRANCH  22  23
ATOM     23  C   UNL     1      -2.803  50.005  19.945  1.00  0.00     0.000 C 
BRANCH  23  24
ATOM     24  C   UNL     1      -1.917  50.305  18.725  1.00  0.00    -0.000 C 
BRANCH  24  25
ATOM     25  C   UNL     1      -2.614  51.293  17.777  1.00  0.00    -0.000 C 
BRANCH  25  26
ATOM     26  C   UNL     1      -1.800  52.575  17.546  1.00  0.00    -0.000 C 
BRANCH  26  27
ATOM     27  C   UNL     1      -2.683  53.821  17.386  1.00  0.00    -0.000 C 
BRANCH  27  28
ATOM     28  C   UNL     1      -1.855  55.104  17.550  1.00  0.00    -0.000 C 
BRANCH  28  29
ATOM     29  C   UNL     1      -2.729  56.344  17.807  1.00  0.00    -0.000 C 
BRANCH  29  30
ATOM     30  C   UNL     1      -3.237  56.417  19.254  1.00  0.00    -0.000 C 
BRANCH  30  31
ATOM     31  C   UNL     1      -4.765  56.545  19.292  1.00  0.00    -0.003 C 
ATOM     32  C   UNL     1      -5.235  57.775  18.520  1.00  0.00     0.004 C 
ENDBRANCH  30  31
ENDBRANCH  29  30
ENDBRANCH  28  29
ENDBRANCH  27  28
ENDBRANCH  26  27
ENDBRANCH  25  26
ENDBRANCH  24  25
ENDBRANCH  23  24
ENDBRANCH  22  23
ENDBRANCH  21  22
ENDBRANCH  20  21
ENDBRANCH  19  20
ENDBRANCH  18  19
ENDBRANCH   1  18
TORSDOF 28
ENDMDL
MODEL 5
REMARK VINA RESULT:    -4.910      5.830     10.422
REMARK INTER + INTRA:         -18.614
REMARK INTER:                 -14.708
REMARK INTRA:                  -3.906
REMARK UNBOUND:                -5.668
REMARK SMILES CCCCCCCCCCCCCCCCCCCCCCCCCCCCCC(=O)[O-]
REMARK SMILES IDX 16 1 17 2 18 3 19 4 20 5 21 6 22 7 23 8 24 9 25 10 26 11
REMARK SMILES IDX 27 12 28 13 29 14 30 15 31 16 32 17 15 18 14 19 13 20 12 21
REMARK SMILES IDX 11 22 10 23 9 24 8 25 7 26 6 27 5 28 4 29 3 30 2 31 1 32
REMARK H PARENT
REMARK Flexibility Score: inf
ROOT
ATOM      1  C   UNL     1       2.506  52.609  17.865  1.00  0.00     0.000 C 
ENDROOT
BRANCH   1   2
ATOM      2  C   UNL     1       1.501  53.221  16.876  1.00  0.00     0.000 C 
BRANCH   2   3
ATOM      3  C   UNL     1       1.832  54.681  16.519  1.00  0.00     0.000 C 
BRANCH   3   4
ATOM      4  C   UNL     1       2.932  54.822  15.444  1.00  0.00     0.000 C 
BRANCH   4   5
ATOM      5  C   UNL     1       4.253  55.356  16.026  1.00  0.00     0.000 C 
BRANCH   5   6
ATOM      6  C   UNL     1       4.083  55.882  17.468  1.00  0.00     0.000 C 
BRANCH   6   7
ATOM      7  C   UNL     1       4.939  57.120  17.777  1.00  0.00     0.000 C 
BRANCH   7   8
ATOM      8  C   UNL     1       6.336  57.055  17.145  1.00  0.00     0.000 C 
BRANCH   8   9
ATOM      9  C   UNL     1       7.410  57.514  18.139  1.00  0.00     0.000 C 
BRANCH   9  10
ATOM     10  C   UNL     1       8.743  56.797  17.881  1.00  0.00     0.000 C 
BRANCH  10  11
ATOM     11  C   UNL     1       9.727  57.647  17.061  1.00  0.00     0.000 C 
BRANCH  11  12
ATOM     12  C   UNL     1       9.458  59.163  17.090  1.00  0.00     0.000 C 
BRANCH  12  13
ATOM     13  C   UNL     1      10.677  60.025  16.686  1.00  0.00     0.006 C 
BRANCH  13  14
ATOM     14  C   UNL     1      10.782  60.279  15.173  1.00  0.00     0.053 C 
BRANCH  14  15
ATOM     15  C   UNL     1      11.918  59.525  14.552  1.00  0.00     0.041 C 
ATOM     16  O   UNL     1      12.454  59.948  13.493  1.00  0.00    -0.550 OA
ATOM     17  O   UNL     1      12.387  58.356  15.140  1.00  0.00    -0.550 OA
ENDBRANCH  14  15
ENDBRANCH  13  14
ENDBRANCH  12  13
ENDBRANCH  11  12
ENDBRANCH  10  11
ENDBRANCH   9  10
ENDBRANCH   8   9
ENDBRANCH   7   8
ENDBRANCH   6   7
ENDBRANCH   5   6
ENDBRANCH   4   5
ENDBRANCH   3   4
ENDBRANCH   2   3
ENDBRANCH   1   2
BRANCH   1  18
ATOM     18  C   UNL     1       2.008  52.652  19.318  1.00  0.00     0.000 C 
BRANCH  18  19
ATOM     19  C   UNL     1       2.861  53.571  20.210  1.00  0.00     0.000 C 
BRANCH  19  20
ATOM     20  C   UNL     1       2.049  54.719  20.838  1.00  0.00     0.000 C 
BRANCH  20  21
ATOM     21  C   UNL     1       1.360  55.663  19.833  1.00  0.00     0.000 C 
BRANCH  21  22
ATOM     22  C   UNL     1      -0.167  55.717  20.012  1.00  0.00     0.000 C 
BRANCH  22  23
ATOM     23  C   UNL     1      -0.907  55.979  18.691  1.00  0.00     0.000 C 
BRANCH  23  24
ATOM     24  C   UNL     1      -2.431  55.816  18.816  1.00  0.00    -0.000 C 
BRANCH  24  25
ATOM     25  C   UNL     1      -2.945  54.750  17.837  1.00  0.00    -0.000 C 
BRANCH  25  26
ATOM     26  C   UNL     1      -1.903  53.661  17.537  1.00  0.00    -0.000 C 
BRANCH  26  27
ATOM     27  C   UNL     1      -2.279  52.298  18.135  1.00  0.00    -0.000 C 
BRANCH  27  28
ATOM     28  C   UNL     1      -1.561  52.071  19.474  1.00  0.00    -0.000 C 
BRANCH  28  29
ATOM     29  C   UNL     1      -2.483  52.296  20.685  1.00  0.00    -0.000 C 
BRANCH  29  30
ATOM     30  C   UNL     1      -1.805  53.106  21.799  1.00  0.00    -0.000 C 
BRANCH  30  31
ATOM     31  C   UNL     1      -2.263  52.628  23.181  1.00  0.00    -0.003 C 
ATOM     32  C   UNL     1      -2.468  51.115  23.202  1.00  0.00     0.004 C 
ENDBRANCH  30  31
ENDBRANCH  29  30
ENDBRANCH  28  29
ENDBRANCH  27  28
ENDBRANCH  26  27
ENDBRANCH  25  26
ENDBRANCH  24  25
ENDBRANCH  23  24
ENDBRANCH  22  23
ENDBRANCH  21  22
ENDBRANCH  20  21
ENDBRANCH  19  20
ENDBRANCH  18  19
ENDBRANCH   1  18
TORSDOF 28
ENDMDL
MODEL 6
REMARK VINA RESULT:    -4.891      3.957      7.530
REMARK INTER + INTRA:         -18.565
REMARK INTER:                 -14.177
REMARK INTRA:                  -4.387
REMARK UNBOUND:                -5.668
REMARK SMILES CCCCCCCCCCCCCCCCCCCCCCCCCCCCCC(=O)[O-]
REMARK SMILES IDX 16 1 17 2 18 3 19 4 20 5 21 6 22 7 23 8 24 9 25 10 26 11
REMARK SMILES IDX 27 12 28 13 29 14 30 15 31 16 32 17 15 18 14 19 13 20 12 21
REMARK SMILES IDX 11 22 10 23 9 24 8 25 7 26 6 27 5 28 4 29 3 30 2 31 1 32
REMARK H PARENT
REMARK Flexibility Score: inf
ROOT
ATOM      1  C   UNL     1       1.203  57.080  17.257  1.00  0.00     0.000 C 
ENDROOT
BRANCH   1   2
ATOM      2  C   UNL     1       0.125  56.251  17.973  1.00  0.00     0.000 C 
BRANCH   2   3
ATOM      3  C   UNL     1       0.220  56.348  19.506  1.00  0.00     0.000 C 
BRANCH   3   4
ATOM      4  C   UNL     1       0.693  55.043  20.182  1.00  0.00     0.000 C 
BRANCH   4   5
ATOM      5  C   UNL     1       2.181  55.094  20.572  1.00  0.00     0.000 C 
BRANCH   5   6
ATOM      6  C   UNL     1       2.817  53.688  20.625  1.00  0.00     0.000 C 
BRANCH   6   7
ATOM      7  C   UNL     1       3.505  53.273  19.315  1.00  0.00     0.000 C 
BRANCH   7   8
ATOM      8  C   UNL     1       2.607  52.415  18.413  1.00  0.00     0.000 C 
BRANCH   8   9
ATOM      9  C   UNL     1       2.180  53.196  17.165  1.00  0.00     0.000 C 
BRANCH   9  10
ATOM     10  C   UNL     1       0.687  52.991  16.870  1.00  0.00     0.000 C 
BRANCH  10  11
ATOM     11  C   UNL     1      -0.053  52.273  18.010  1.00  0.00     0.000 C 
BRANCH  11  12
ATOM     12  C   UNL     1      -1.562  52.069  17.779  1.00  0.00     0.000 C 
BRANCH  12  13
ATOM     13  C   UNL     1      -2.362  53.386  17.653  1.00  0.00     0.006 C 
BRANCH  13  14
ATOM     14  C   UNL     1      -2.674  54.053  19.003  1.00  0.00     0.053 C 
BRANCH  14  15
ATOM     15  C   UNL     1      -3.396  55.357  18.834  1.00  0.00     0.041 C 
ATOM     16  O   UNL     1      -4.089  55.822  19.778  1.00  0.00    -0.550 OA
ATOM     17  O   UNL     1      -3.303  56.057  17.638  1.00  0.00    -0.550 OA
ENDBRANCH  14  15
ENDBRANCH  13  14
ENDBRANCH  12  13
ENDBRANCH  11  12
ENDBRANCH  10  11
ENDBRANCH   9  10
ENDBRANCH   8   9
ENDBRANCH   7   8
ENDBRANCH   6   7
ENDBRANCH   5   6
ENDBRANCH   4   5
ENDBRANCH   3   4
ENDBRANCH   2   3
ENDBRANCH   1   2
BRANCH   1  18
ATOM     18  C   UNL     1       2.076  57.884  18.234  1.00  0.00     0.000 C 
BRANCH  18  19
ATOM     19  C   UNL     1       3.533  57.390  18.270  1.00  0.00     0.000 C 
BRANCH  19  20
ATOM     20  C   UNL     1       3.809  56.259  17.262  1.00  0.00     0.000 C 
BRANCH  20  21
ATOM     21  C   UNL     1       5.287  55.850  17.121  1.00  0.00     0.000 C 
BRANCH  21  22
ATOM     22  C   UNL     1       6.219  57.049  16.875  1.00  0.00     0.000 C 
BRANCH  22  23
ATOM     23  C   UNL     1       7.511  56.972  17.703  1.00  0.00     0.000 C 
BRANCH  23  24
ATOM     24  C   UNL     1       7.583  58.044  18.802  1.00  0.00    -0.000 C 
BRANCH  24  25
ATOM     25  C   UNL     1       8.254  59.321  18.272  1.00  0.00    -0.000 C 
BRANCH  25  26
ATOM     26  C   UNL     1       9.701  59.088  17.812  1.00  0.00    -0.000 C 
BRANCH  26  27
ATOM     27  C   UNL     1       9.872  59.228  16.292  1.00  0.00    -0.000 C 
BRANCH  27  28
ATOM     28  C   UNL     1      11.130  58.488  15.812  1.00  0.00    -0.000 C 
BRANCH  28  29
ATOM     29  C   UNL     1      10.805  57.135  15.157  1.00  0.00    -0.000 C 
BRANCH  29  30
ATOM     30  C   UNL     1      10.847  55.971  16.158  1.00  0.00    -0.000 C 
BRANCH  30  31
ATOM     31  C   UNL     1      11.980  54.996  15.817  1.00  0.00    -0.003 C 
ATOM     32  C   UNL     1      12.149  54.852  14.307  1.00  0.00     0.004 C 
ENDBRANCH  30  31
ENDBRANCH  29  30
ENDBRANCH  28  29
ENDBRANCH  27  28
ENDBRANCH  26  27
ENDBRANCH  25  26
ENDBRANCH  24  25
ENDBRANCH  23  24
ENDBRANCH  22  23
ENDBRANCH  21  22
ENDBRANCH  20  21
ENDBRANCH  19  20
ENDBRANCH  18  19
ENDBRANCH   1  18
TORSDOF 28
ENDMDL
MODEL 7
REMARK VINA RESULT:    -4.888      5.573     10.143
REMARK INTER + INTRA:         -18.557
REMARK INTER:                 -14.899
REMARK INTRA:                  -3.657
REMARK UNBOUND:                -5.668
REMARK SMILES CCCCCCCCCCCCCCCCCCCCCCCCCCCCCC(=O)[O-]
REMARK SMILES IDX 16 1 17 2 18 3 19 4 20 5 21 6 22 7 23 8 24 9 25 10 26 11
REMARK SMILES IDX 27 12 28 13 29 14 30 15 31 16 32 17 15 18 14 19 13 20 12 21
REMARK SMILES IDX 11 22 10 23 9 24 8 25 7 26 6 27 5 28 4 29 3 30 2 31 1 32
REMARK H PARENT
REMARK Flexibility Score: inf
ROOT
ATOM      1  C   UNL     1       2.824  53.163  19.904  1.00  0.00     0.000 C 
ENDROOT
BRANCH   1   2
ATOM      2  C   UNL     1       4.016  53.758  19.137  1.00  0.00     0.000 C 
BRANCH   2   3
ATOM      3  C   UNL     1       4.057  53.312  17.665  1.00  0.00     0.000 C 
BRANCH   3   4
ATOM      4  C   UNL     1       2.862  53.820  16.830  1.00  0.00     0.000 C 
BRANCH   4   5
ATOM      5  C   UNL     1       3.193  55.112  16.061  1.00  0.00     0.000 C 
BRANCH   5   6
ATOM      6  C   UNL     1       4.697  55.455  16.119  1.00  0.00     0.000 C 
BRANCH   6   7
ATOM      7  C   UNL     1       5.018  56.675  16.996  1.00  0.00     0.000 C 
BRANCH   7   8
ATOM      8  C   UNL     1       6.502  57.064  16.959  1.00  0.00     0.000 C 
BRANCH   8   9
ATOM      9  C   UNL     1       6.974  57.555  18.333  1.00  0.00     0.000 C 
BRANCH   9  10
ATOM     10  C   UNL     1       8.283  58.349  18.216  1.00  0.00     0.000 C 
BRANCH  10  11
ATOM     11  C   UNL     1       9.083  57.994  16.953  1.00  0.00     0.000 C 
BRANCH  11  12
ATOM     12  C   UNL     1       9.875  56.675  17.034  1.00  0.00     0.000 C 
BRANCH  12  13
ATOM     13  C   UNL     1      11.399  56.867  17.213  1.00  0.00     0.006 C 
BRANCH  13  14
ATOM     14  C   UNL     1      11.946  58.141  16.546  1.00  0.00     0.053 C 
BRANCH  14  15
ATOM     15  C   UNL     1      12.544  59.087  17.543  1.00  0.00     0.041 C 
ATOM     16  O   UNL     1      12.954  58.658  18.654  1.00  0.00    -0.550 OA
ATOM     17  O   UNL     1      12.647  60.441  17.248  1.00  0.00    -0.550 OA
ENDBRANCH  14  15
ENDBRANCH  13  14
ENDBRANCH  12  13
ENDBRANCH  11  12
ENDBRANCH  10  11
ENDBRANCH   9  10
ENDBRANCH   8   9
ENDBRANCH   7   8
ENDBRANCH   6   7
ENDBRANCH   5   6
ENDBRANCH   4   5
ENDBRANCH   3   4
ENDBRANCH   2   3
ENDBRANCH   1   2
BRANCH   1  18
ATOM     18  C   UNL     1       1.869  54.241  20.441  1.00  0.00     0.000 C 
BRANCH  18  19
ATOM     19  C   UNL     1       2.150  55.631  19.843  1.00  0.00     0.000 C 
BRANCH  19  20
ATOM     20  C   UNL     1       0.868  56.375  19.425  1.00  0.00     0.000 C 
BRANCH  20  21
ATOM     21  C   UNL     1       0.796  56.777  17.940  1.00  0.00     0.000 C 
BRANCH  21  22
ATOM     22  C   UNL     1      -0.359  56.093  17.189  1.00  0.00     0.000 C 
BRANCH  22  23
ATOM     23  C   UNL     1      -1.608  56.982  17.091  1.00  0.00     0.000 C 
BRANCH  23  24
ATOM     24  C   UNL     1      -2.753  56.507  17.999  1.00  0.00    -0.000 C 
BRANCH  24  25
ATOM     25  C   UNL     1      -2.677  54.989  18.222  1.00  0.00    -0.000 C 
BRANCH  25  26
ATOM     26  C   UNL     1      -3.036  54.577  19.658  1.00  0.00    -0.000 C 
BRANCH  26  27
ATOM     27  C   UNL     1      -1.837  54.010  20.432  1.00  0.00    -0.000 C 
BRANCH  27  28
ATOM     28  C   UNL     1      -1.821  52.475  20.370  1.00  0.00    -0.000 C 
BRANCH  28  29
ATOM     29  C   UNL     1      -0.717  51.933  19.447  1.00  0.00    -0.000 C 
BRANCH  29  30
ATOM     30  C   UNL     1      -1.218  51.668  18.020  1.00  0.00    -0.000 C 
BRANCH  30  31
ATOM     31  C   UNL     1      -2.674  51.188  18.031  1.00  0.00    -0.003 C 
ATOM     32  C   UNL     1      -2.753  49.665  18.076  1.00  0.00     0.004 C 
ENDBRANCH  30  31
ENDBRANCH  29  30
ENDBRANCH  28  29
ENDBRANCH  27  28
ENDBRANCH  26  27
ENDBRANCH  25  26
ENDBRANCH  24  25
ENDBRANCH  23  24
ENDBRANCH  22  23
ENDBRANCH  21  22
ENDBRANCH  20  21
ENDBRANCH  19  20
ENDBRANCH  18  19
ENDBRANCH   1  18
TORSDOF 28
ENDMDL
MODEL 8
REMARK VINA RESULT:    -4.864      2.957      6.037
REMARK INTER + INTRA:         -18.494
REMARK INTER:                 -13.388
REMARK INTRA:                  -5.106
REMARK UNBOUND:                -5.668
REMARK SMILES CCCCCCCCCCCCCCCCCCCCCCCCCCCCCC(=O)[O-]
REMARK SMILES IDX 16 1 17 2 18 3 19 4 20 5 21 6 22 7 23 8 24 9 25 10 26 11
REMARK SMILES IDX 27 12 28 13 29 14 30 15 31 16 32 17 15 18 14 19 13 20 12 21
REMARK SMILES IDX 11 22 10 23 9 24 8 25 7 26 6 27 5 28 4 29 3 30 2 31 1 32
REMARK H PARENT
REMARK Flexibility Score: inf
ROOT
ATOM      1  C   UNL     1       4.111  53.534  19.419  1.00  0.00     0.000 C 
ENDROOT
BRANCH   1   2
ATOM      2  C   UNL     1       3.832  52.623  18.213  1.00  0.00     0.000 C 
BRANCH   2   3
ATOM      3  C   UNL     1       2.393  52.077  18.200  1.00  0.00     0.000 C 
BRANCH   3   4
ATOM      4  C   UNL     1       1.526  52.644  17.055  1.00  0.00     0.000 C 
BRANCH   4   5
ATOM      5  C   UNL     1       0.049  52.796  17.460  1.00  0.00     0.000 C 
BRANCH   5   6
ATOM      6  C   UNL     1      -0.347  51.826  18.593  1.00  0.00     0.000 C 
BRANCH   6   7
ATOM      7  C   UNL     1      -1.852  51.818  18.901  1.00  0.00     0.000 C 
BRANCH   7   8
ATOM      8  C   UNL     1      -2.685  51.151  17.798  1.00  0.00     0.000 C 
BRANCH   8   9
ATOM      9  C   UNL     1      -3.122  49.742  18.217  1.00  0.00     0.000 C 
BRANCH   9  10
ATOM     10  C   UNL     1      -3.327  49.658  19.737  1.00  0.00     0.000 C 
BRANCH  10  11
ATOM     11  C   UNL     1      -2.612  48.453  20.369  1.00  0.00     0.000 C 
BRANCH  11  12
ATOM     12  C   UNL     1      -1.141  48.698  20.754  1.00  0.00     0.000 C 
BRANCH  12  13
ATOM     13  C   UNL     1      -0.124  48.168  19.718  1.00  0.00     0.006 C 
BRANCH  13  14
ATOM     14  C   UNL     1       1.248  48.861  19.785  1.00  0.00     0.053 C 
BRANCH  14  15
ATOM     15  C   UNL     1       2.355  47.967  19.311  1.00  0.00     0.041 C 
ATOM     16  O   UNL     1       2.946  47.209  20.124  1.00  0.00    -0.550 OA
ATOM     17  O   UNL     1       2.733  47.972  17.974  1.00  0.00    -0.550 OA
ENDBRANCH  14  15
ENDBRANCH  13  14
ENDBRANCH  12  13
ENDBRANCH  11  12
ENDBRANCH  10  11
ENDBRANCH   9  10
ENDBRANCH   8   9
ENDBRANCH   7   8
ENDBRANCH   6   7
ENDBRANCH   5   6
ENDBRANCH   4   5
ENDBRANCH   3   4
ENDBRANCH   2   3
ENDBRANCH   1   2
BRANCH   1  18
ATOM     18  C   UNL     1       2.982  53.498  20.461  1.00  0.00     0.000 C 
BRANCH  18  19
ATOM     19  C   UNL     1       2.231  54.837  20.567  1.00  0.00     0.000 C 
BRANCH  19  20
ATOM     20  C   UNL     1       0.714  54.660  20.768  1.00  0.00     0.000 C 
BRANCH  20  21
ATOM     21  C   UNL     1      -0.175  55.533  19.862  1.00  0.00     0.000 C 
BRANCH  21  22
ATOM     22  C   UNL     1       0.635  56.488  18.968  1.00  0.00     0.000 C 
BRANCH  22  23
ATOM     23  C   UNL     1       0.078  56.572  17.538  1.00  0.00     0.000 C 
BRANCH  23  24
ATOM     24  C   UNL     1       1.094  56.129  16.473  1.00  0.00    -0.000 C 
BRANCH  24  25
ATOM     25  C   UNL     1       2.496  55.988  17.084  1.00  0.00    -0.000 C 
BRANCH  25  26
ATOM     26  C   UNL     1       3.540  55.486  16.074  1.00  0.00    -0.000 C 
BRANCH  26  27
ATOM     27  C   UNL     1       4.973  55.892  16.448  1.00  0.00    -0.000 C 
BRANCH  27  28
ATOM     28  C   UNL     1       4.974  56.869  17.633  1.00  0.00    -0.000 C 
BRANCH  28  29
ATOM     29  C   UNL     1       6.375  57.064  18.237  1.00  0.00    -0.000 C 
BRANCH  29  30
ATOM     30  C   UNL     1       7.491  56.932  17.191  1.00  0.00    -0.000 C 
BRANCH  30  31
ATOM     31  C   UNL     1       8.380  58.182  17.179  1.00  0.00    -0.003 C 
ATOM     32  C   UNL     1       8.234  58.976  18.474  1.00  0.00     0.004 C 
ENDBRANCH  30  31
ENDBRANCH  29  30
ENDBRANCH  28  29
ENDBRANCH  27  28
ENDBRANCH  26  27
ENDBRANCH  25  26
ENDBRANCH  24  25
ENDBRANCH  23  24
ENDBRANCH  22  23
ENDBRANCH  21  22
ENDBRANCH  20  21
ENDBRANCH  19  20
ENDBRANCH  18  19
ENDBRANCH   1  18
TORSDOF 28
ENDMDL
MODEL 9
REMARK VINA RESULT:    -4.796      2.149      4.041
REMARK INTER + INTRA:         -18.315
REMARK INTER:                 -13.496
REMARK INTRA:                  -4.819
REMARK UNBOUND:                -5.668
REMARK SMILES CCCCCCCCCCCCCCCCCCCCCCCCCCCCCC(=O)[O-]
REMARK SMILES IDX 16 1 17 2 18 3 19 4 20 5 21 6 22 7 23 8 24 9 25 10 26 11
REMARK SMILES IDX 27 12 28 13 29 14 30 15 31 16 32 17 15 18 14 19 13 20 12 21
REMARK SMILES IDX 11 22 10 23 9 24 8 25 7 26 6 27 5 28 4 29 3 30 2 31 1 32
REMARK H PARENT
REMARK Flexibility Score: inf
ROOT
ATOM      1  C   UNL     1       2.120  54.732  20.605  1.00  0.00     0.000 C 
ENDROOT
BRANCH   1   2
ATOM      2  C   UNL     1       0.599  54.934  20.685  1.00  0.00     0.000 C 
BRANCH   2   3
ATOM      3  C   UNL     1      -0.190  53.672  20.293  1.00  0.00     0.000 C 
BRANCH   3   4
ATOM      4  C   UNL     1      -1.641  53.659  20.821  1.00  0.00     0.000 C 
BRANCH   4   5
ATOM      5  C   UNL     1      -2.663  53.338  19.715  1.00  0.00     0.000 C 
BRANCH   5   6
ATOM      6  C   UNL     1      -2.159  53.758  18.318  1.00  0.00     0.000 C 
BRANCH   6   7
ATOM      7  C   UNL     1      -2.186  52.621  17.285  1.00  0.00     0.000 C 
BRANCH   7   8
ATOM      8  C   UNL     1      -2.306  51.232  17.927  1.00  0.00     0.000 C 
BRANCH   8   9
ATOM      9  C   UNL     1      -0.926  50.684  18.307  1.00  0.00     0.000 C 
BRANCH   9  10
ATOM     10  C   UNL     1      -0.951  49.152  18.413  1.00  0.00     0.000 C 
BRANCH  10  11
ATOM     11  C   UNL     1      -1.174  48.658  19.851  1.00  0.00     0.000 C 
BRANCH  11  12
ATOM     12  C   UNL     1      -1.309  49.770  20.908  1.00  0.00     0.000 C 
BRANCH  12  13
ATOM     13  C   UNL     1      -2.586  49.663  21.773  1.00  0.00     0.006 C 
BRANCH  13  14
ATOM     14  C   UNL     1      -3.878  50.018  21.019  1.00  0.00     0.053 C 
BRANCH  14  15
ATOM     15  C   UNL     1      -4.510  48.815  20.385  1.00  0.00     0.041 C 
ATOM     16  O   UNL     1      -4.861  48.849  19.176  1.00  0.00    -0.550 OA
ATOM     17  O   UNL     1      -4.711  47.658  21.127  1.00  0.00    -0.550 OA
ENDBRANCH  14  15
ENDBRANCH  13  14
ENDBRANCH  12  13
ENDBRANCH  11  12
ENDBRANCH  10  11
ENDBRANCH   9  10
ENDBRANCH   8   9
ENDBRANCH   7   8
ENDBRANCH   6   7
ENDBRANCH   5   6
ENDBRANCH   4   5
ENDBRANCH   3   4
ENDBRANCH   2   3
ENDBRANCH   1   2
BRANCH   1  18
ATOM     18  C   UNL     1       2.505  53.348  20.056  1.00  0.00     0.000 C 
BRANCH  18  19
ATOM     19  C   UNL     1       3.751  53.395  19.155  1.00  0.00     0.000 C 
BRANCH  19  20
ATOM     20  C   UNL     1       3.418  53.723  17.687  1.00  0.00     0.000 C 
BRANCH  20  21
ATOM     21  C   UNL     1       2.040  53.236  17.202  1.00  0.00     0.000 C 
BRANCH  21  22
ATOM     22  C   UNL     1       1.066  54.389  16.907  1.00  0.00     0.000 C 
BRANCH  22  23
ATOM     23  C   UNL     1       1.786  55.729  16.692  1.00  0.00     0.000 C 
BRANCH  23  24
ATOM     24  C   UNL     1       1.172  56.877  17.509  1.00  0.00    -0.000 C 
BRANCH  24  25
ATOM     25  C   UNL     1      -0.346  56.691  17.652  1.00  0.00    -0.000 C 
BRANCH  25  26
ATOM     26  C   UNL     1      -1.133  57.265  16.464  1.00  0.00    -0.000 C 
BRANCH  26  27
ATOM     27  C   UNL     1      -2.594  57.581  16.814  1.00  0.00    -0.000 C 
BRANCH  27  28
ATOM     28  C   UNL     1      -3.028  56.830  18.082  1.00  0.00    -0.000 C 
BRANCH  28  29
ATOM     29  C   UNL     1      -4.407  57.280  18.593  1.00  0.00    -0.000 C 
BRANCH  29  30
ATOM     30  C   UNL     1      -5.011  56.295  19.604  1.00  0.00    -0.000 C 
BRANCH  30  31
ATOM     31  C   UNL     1      -6.369  56.794  20.112  1.00  0.00    -0.003 C 
ATOM     32  C   UNL     1      -6.729  56.152  21.448  1.00  0.00     0.004 C 
ENDBRANCH  30  31
ENDBRANCH  29  30
ENDBRANCH  28  29
ENDBRANCH  27  28
ENDBRANCH  26  27
ENDBRANCH  25  26
ENDBRANCH  24  25
ENDBRANCH  23  24
ENDBRANCH  22  23
ENDBRANCH  21  22
ENDBRANCH  20  21
ENDBRANCH  19  20
ENDBRANCH  18  19
ENDBRANCH   1  18
TORSDOF 28
ENDMDL
