MODEL 1
REMARK VINA RESULT:   134.618      0.000      0.000
REMARK INTER + INTRA:         146.504
REMARK INTER:                 146.422
REMARK INTRA:                   0.082
REMARK UNBOUND:                 0.082
REMARK SMILES C[C@H]1[C@H](C)CC[C@@]2(C(=O)[O-])CC[C@@]3(C)C(=CC[C@H]4[C@]5(C)CC[C@H](O)C(C)(C)[C@H]5CC[C@]43C)[C@@H]12
REMARK SMILES IDX 7 1 6 2 11 3 33 4 5 5 12 6 15 7 2 8 3 9 13 10 16 11 1 12
REMARK SMILES IDX 4 13 14 14 31 15 17 16 18 17 30 18 32 19 19 20 29 21 28 22
REMARK SMILES IDX 21 23 20 24 25 25 22 26 23 27 26 28 27 29 8 30 9 31 10 32
REMARK SMILES IDX 24 33
REMARK H PARENT 24 34
REMARK Flexibility Score: inf
ROOT
ATOM      1  C   UNL     1       1.868  -1.278   3.694  1.00  0.00     0.017 C 
ATOM      2  C   UNL     1       3.137  -1.169   4.591  1.00  0.00     0.014 C 
ATOM      3  C   UNL     1       0.703  -1.853   4.565  1.00  0.00     0.014 C 
ATOM      4  C   UNL     1       1.524   0.110   2.975  1.00  0.00     0.030 C 
ATOM      5  C   UNL     1       3.240   0.153   5.344  1.00  0.00     0.004 C 
ATOM      6  C   UNL     1      -0.715  -1.709   3.956  1.00  0.00     0.013 C 
ATOM      7  C   UNL     1       0.032   0.188   2.581  1.00  0.00    -0.063 C 
ATOM      8  C   UNL     1       2.179   1.482   3.446  1.00  0.00    -0.003 C 
ATOM      9  C   UNL     1       3.409   1.330   4.381  1.00  0.00    -0.011 C 
ATOM     10  C   UNL     1      -1.075  -0.244   3.573  1.00  0.00    -0.006 C 
ATOM     11  C   UNL     1      -0.221   0.148   1.257  1.00  0.00    -0.027 C 
ATOM     12  C   UNL     1       1.238   2.577   3.980  1.00  0.00     0.008 C 
ATOM     13  C   UNL     1       4.726   1.259   3.583  1.00  0.00     0.008 C 
ATOM     14  C   UNL     1      -0.996   0.578   4.901  1.00  0.00     0.017 C 
ATOM     15  C   UNL     1      -2.566  -0.063   2.923  1.00  0.00    -0.020 C 
ATOM     16  C   UNL     1      -1.298  -0.734   0.716  1.00  0.00     0.032 C 
ATOM     17  C   UNL     1      -2.655  -0.446   1.371  1.00  0.00     0.006 C 
ATOM     18  C   UNL     1      -3.632  -0.870   3.735  1.00  0.00     0.008 C 
ATOM     19  C   UNL     1      -2.996   1.444   3.024  1.00  0.00     0.012 C 
ATOM     20  C   UNL     1      -3.812  -1.459   0.955  1.00  0.00    -0.025 C 
ATOM     21  C   UNL     1      -5.062  -0.823   3.157  1.00  0.00     0.005 C 
ATOM     22  C   UNL     1      -5.140  -0.918   1.604  1.00  0.00     0.003 C 
ATOM     23  C   UNL     1      -3.963  -1.426  -0.603  1.00  0.00     0.010 C 
ATOM     24  C   UNL     1      -3.495  -2.926   1.405  1.00  0.00     0.012 C 
ATOM     25  C   UNL     1      -6.496  -1.521   1.051  1.00  0.00    -0.006 C 
ATOM     26  C   UNL     1      -5.251  -2.079  -1.124  1.00  0.00     0.033 C 
ATOM     27  C   UNL     1      -6.505  -1.440  -0.508  1.00  0.00     0.120 C 
ATOM     28  C   UNL     1      -7.689  -0.683   1.588  1.00  0.00     0.014 C 
ATOM     29  C   UNL     1      -6.764  -2.993   1.482  1.00  0.00     0.014 C 
ENDROOT
BRANCH   1  30
ATOM     30  C   UNL     1       2.144  -2.349   2.627  1.00  0.00     0.048 C 
ATOM     31  O   UNL     1       1.227  -3.125   2.245  1.00  0.00    -0.550 OA
ATOM     32  O   UNL     1       3.424  -2.538   2.107  1.00  0.00    -0.550 OA
ENDBRANCH   1  30
BRANCH  27  33
ATOM     33  O   UNL     1      -6.599  -0.100  -0.930  1.00  0.00    -0.393 OA
ATOM     34  H   UNL     1      -6.162   0.456  -0.232  1.00  0.00     0.210 HD
ENDBRANCH  27  33
TORSDOF 2
ENDMDL
MODEL 2
REMARK VINA RESULT:   135.993      5.449      8.491
REMARK INTER + INTRA:         148.000
REMARK INTER:                 147.758
REMARK INTRA:                   0.242
REMARK UNBOUND:                 0.082
REMARK SMILES C[C@H]1[C@H](C)CC[C@@]2(C(=O)[O-])CC[C@@]3(C)C(=CC[C@H]4[C@]5(C)CC[C@H](O)C(C)(C)[C@H]5CC[C@]43C)[C@@H]12
REMARK SMILES IDX 7 1 6 2 11 3 33 4 5 5 12 6 15 7 2 8 3 9 13 10 16 11 1 12
REMARK SMILES IDX 4 13 14 14 31 15 17 16 18 17 30 18 32 19 19 20 29 21 28 22
REMARK SMILES IDX 21 23 20 24 25 25 22 26 23 27 26 28 27 29 8 30 9 31 10 32
REMARK SMILES IDX 24 33
REMARK H PARENT 24 34
REMARK Flexibility Score: inf
ROOT
ATOM      1  C   UNL     1      -4.973   7.507   1.117  1.00  0.00     0.017 C 
ATOM      2  C   UNL     1      -5.155   9.050   1.231  1.00  0.00     0.014 C 
ATOM      3  C   UNL     1      -4.488   6.970   2.503  1.00  0.00     0.014 C 
ATOM      4  C   UNL     1      -6.292   6.791   0.562  1.00  0.00     0.030 C 
ATOM      5  C   UNL     1      -6.539   9.467   1.716  1.00  0.00     0.004 C 
ATOM      6  C   UNL     1      -4.586   5.435   2.691  1.00  0.00     0.013 C 
ATOM      7  C   UNL     1      -6.344   5.303   0.977  1.00  0.00    -0.063 C 
ATOM      8  C   UNL     1      -7.696   7.537   0.519  1.00  0.00    -0.003 C 
ATOM      9  C   UNL     1      -7.623   9.077   0.707  1.00  0.00    -0.011 C 
ATOM     10  C   UNL     1      -6.012   4.871   2.425  1.00  0.00    -0.006 C 
ATOM     11  C   UNL     1      -6.185   4.416  -0.026  1.00  0.00    -0.027 C 
ATOM     12  C   UNL     1      -8.842   6.954   1.366  1.00  0.00     0.008 C 
ATOM     13  C   UNL     1      -7.470   9.809  -0.641  1.00  0.00     0.008 C 
ATOM     14  C   UNL     1      -6.952   5.580   3.456  1.00  0.00     0.017 C 
ATOM     15  C   UNL     1      -6.143   3.250   2.613  1.00  0.00    -0.020 C 
ATOM     16  C   UNL     1      -5.264   3.249   0.131  1.00  0.00     0.032 C 
ATOM     17  C   UNL     1      -5.621   2.402   1.359  1.00  0.00     0.006 C 
ATOM     18  C   UNL     1      -5.421   2.777   3.917  1.00  0.00     0.008 C 
ATOM     19  C   UNL     1      -7.656   2.870   2.794  1.00  0.00     0.012 C 
ATOM     20  C   UNL     1      -4.582   1.236   1.675  1.00  0.00    -0.025 C 
ATOM     21  C   UNL     1      -5.426   1.251   4.146  1.00  0.00     0.005 C 
ATOM     22  C   UNL     1      -5.189   0.400   2.862  1.00  0.00     0.003 C 
ATOM     23  C   UNL     1      -4.474   0.314   0.414  1.00  0.00     0.010 C 
ATOM     24  C   UNL     1      -3.160   1.797   2.019  1.00  0.00     0.012 C 
ATOM     25  C   UNL     1      -4.547  -1.024   3.128  1.00  0.00    -0.006 C 
ATOM     26  C   UNL     1      -3.785  -1.032   0.676  1.00  0.00     0.033 C 
ATOM     27  C   UNL     1      -4.486  -1.825   1.789  1.00  0.00     0.120 C 
ATOM     28  C   UNL     1      -5.439  -1.812   4.126  1.00  0.00     0.014 C 
ATOM     29  C   UNL     1      -3.123  -0.976   3.754  1.00  0.00     0.014 C 
ENDROOT
BRANCH   1  30
ATOM     30  C   UNL     1      -3.807   7.247   0.150  1.00  0.00     0.048 C 
ATOM     31  O   UNL     1      -3.810   6.235  -0.601  1.00  0.00    -0.550 OA
ATOM     32  O   UNL     1      -2.689   8.079   0.127  1.00  0.00    -0.550 OA
ENDBRANCH   1  30
BRANCH  27  33
ATOM     33  O   UNL     1      -5.783  -2.175   1.365  1.00  0.00    -0.393 OA
ATOM     34  H   UNL     1      -6.305  -2.397   2.182  1.00  0.00     0.210 HD
ENDBRANCH  27  33
TORSDOF 2
ENDMDL
MODEL 3
REMARK VINA RESULT:   137.265      1.865      7.867
REMARK INTER + INTRA:         149.384
REMARK INTER:                 149.647
REMARK INTRA:                  -0.264
REMARK UNBOUND:                 0.082
REMARK SMILES C[C@H]1[C@H](C)CC[C@@]2(C(=O)[O-])CC[C@@]3(C)C(=CC[C@H]4[C@]5(C)CC[C@H](O)C(C)(C)[C@H]5CC[C@]43C)[C@@H]12
REMARK SMILES IDX 7 1 6 2 11 3 33 4 5 5 12 6 15 7 2 8 3 9 13 10 16 11 1 12
REMARK SMILES IDX 4 13 14 14 31 15 17 16 18 17 30 18 32 19 19 20 29 21 28 22
REMARK SMILES IDX 21 23 20 24 25 25 22 26 23 27 26 28 27 29 8 30 9 31 10 32
REMARK SMILES IDX 24 33
REMARK H PARENT 24 34
REMARK Flexibility Score: inf
ROOT
ATOM      1  C   UNL     1      -5.797  -0.916   1.551  1.00  0.00     0.017 C 
ATOM      2  C   UNL     1      -7.184  -0.602   0.915  1.00  0.00     0.014 C 
ATOM      3  C   UNL     1      -4.686  -0.465   0.546  1.00  0.00     0.014 C 
ATOM      4  C   UNL     1      -5.653  -0.282   3.013  1.00  0.00     0.030 C 
ATOM      5  C   UNL     1      -7.686   0.807   1.214  1.00  0.00     0.004 C 
ATOM      6  C   UNL     1      -3.256  -0.373   1.135  1.00  0.00     0.013 C 
ATOM      7  C   UNL     1      -4.170  -0.082   3.398  1.00  0.00    -0.063 C 
ATOM      8  C   UNL     1      -6.654   0.834   3.544  1.00  0.00    -0.003 C 
ATOM      9  C   UNL     1      -7.953   0.996   2.710  1.00  0.00    -0.011 C 
ATOM     10  C   UNL     1      -3.165   0.535   2.396  1.00  0.00    -0.006 C 
ATOM     11  C   UNL     1      -3.711  -0.890   4.376  1.00  0.00    -0.027 C 
ATOM     12  C   UNL     1      -6.067   2.216   3.885  1.00  0.00     0.008 C 
ATOM     13  C   UNL     1      -9.083   0.084   3.231  1.00  0.00     0.008 C 
ATOM     14  C   UNL     1      -3.628   1.956   1.933  1.00  0.00     0.017 C 
ATOM     15  C   UNL     1      -1.665   0.646   3.041  1.00  0.00    -0.020 C 
ATOM     16  C   UNL     1      -2.397  -1.586   4.230  1.00  0.00     0.032 C 
ATOM     17  C   UNL     1      -1.254  -0.598   3.961  1.00  0.00     0.006 C 
ATOM     18  C   UNL     1      -0.591   0.866   1.926  1.00  0.00     0.008 C 
ATOM     19  C   UNL     1      -1.593   1.913   3.966  1.00  0.00     0.012 C 
ATOM     20  C   UNL     1       0.145  -1.288   3.636  1.00  0.00    -0.025 C 
ATOM     21  C   UNL     1       0.867   0.911   2.428  1.00  0.00     0.005 C 
ATOM     22  C   UNL     1       1.206  -0.130   3.537  1.00  0.00     0.003 C 
ATOM     23  C   UNL     1       0.528  -2.220   4.836  1.00  0.00     0.010 C 
ATOM     24  C   UNL     1       0.086  -2.144   2.326  1.00  0.00     0.012 C 
ATOM     25  C   UNL     1       2.731  -0.558   3.591  1.00  0.00    -0.006 C 
ATOM     26  C   UNL     1       1.992  -2.681   4.832  1.00  0.00     0.033 C 
ATOM     27  C   UNL     1       2.965  -1.494   4.818  1.00  0.00     0.120 C 
ATOM     28  C   UNL     1       3.615   0.707   3.767  1.00  0.00     0.014 C 
ATOM     29  C   UNL     1       3.239  -1.274   2.306  1.00  0.00     0.014 C 
ENDROOT
BRANCH   1  30
ATOM     30  C   UNL     1      -5.664  -2.445   1.643  1.00  0.00     0.048 C 
ATOM     31  O   UNL     1      -5.358  -3.125   0.627  1.00  0.00    -0.550 OA
ATOM     32  O   UNL     1      -5.946  -3.124   2.827  1.00  0.00    -0.550 OA
ENDBRANCH   1  30
BRANCH  27  33
ATOM     33  O   UNL     1       2.833  -0.771   6.020  1.00  0.00    -0.393 OA
ATOM     34  H   UNL     1       3.574  -1.060   6.616  1.00  0.00     0.210 HD
ENDBRANCH  27  33
TORSDOF 2
ENDMDL
