MODEL 1
REMARK VINA RESULT:    -7.501      0.000      0.000
REMARK INTER + INTRA:         -12.262
REMARK INTER:                 -10.352
REMARK INTRA:                  -1.910
REMARK UNBOUND:                -1.910
REMARK SMILES CC[C@@H](CC[C@@H](C)[C@@H]1CC[C@H]2C3=CC[C@H]4C[C@@H](O)CC[C@@]4(C)[C@@H]3CC[C@]21C)C(C)C
REMARK SMILES IDX 5 1 4 2 3 3 2 4 1 5 28 6 29 7 30 8 6 9 7 10 8 11 9 12 26 13
REMARK SMILES IDX 10 14 11 15 25 16 27 17 12 18 24 19 23 20 13 21 21 22 14 23
REMARK SMILES IDX 15 24 20 25 22 26 16 27 19 28 17 29 18 30
REMARK H PARENT 18 31
REMARK Flexibility Score: inf
ROOT
ATOM      1  C   UNL     1     109.995 116.014 126.237  1.00  0.00     0.004 C 
ENDROOT
BRANCH   1   2
ATOM      2  C   UNL     1     110.035 115.342 124.850  1.00  0.00     0.004 C 
BRANCH   2   3
ATOM      3  C   UNL     1     111.101 115.960 123.902  1.00  0.00    -0.009 C 
BRANCH   3   4
ATOM      4  C   UNL     1     110.455 116.357 122.544  1.00  0.00     0.000 C 
ATOM      5  C   UNL     1     109.016 116.860 122.696  1.00  0.00     0.004 C 
ENDBRANCH   3   4
BRANCH   3   6
ATOM      6  C   UNL     1     112.347 115.024 123.718  1.00  0.00    -0.014 C 
ATOM      7  C   UNL     1     111.992 113.542 123.930  1.00  0.00     0.007 C 
ATOM      8  C   UNL     1     113.549 115.407 124.600  1.00  0.00     0.007 C 
ENDBRANCH   3   6
ENDBRANCH   2   3
ENDBRANCH   1   2
BRANCH   1   9
ATOM      9  C   UNL     1     109.989 117.570 126.229  1.00  0.00    -0.011 C 
ATOM     10  C   UNL     1     108.979 118.160 127.247  1.00  0.00     0.008 C 
BRANCH   9  11
ATOM     11  C   UNL     1     111.433 118.198 126.269  1.00  0.00    -0.002 C 
ATOM     12  C   UNL     1     111.936 118.514 127.701  1.00  0.00     0.005 C 
ATOM     13  C   UNL     1     111.684 119.514 125.434  1.00  0.00    -0.023 C 
ATOM     14  C   UNL     1     112.381 119.972 127.734  1.00  0.00     0.009 C 
ATOM     15  C   UNL     1     111.740 120.622 126.511  1.00  0.00     0.021 C 
ATOM     16  C   UNL     1     113.063 119.385 124.689  1.00  0.00     0.008 C 
ATOM     17  C   UNL     1     110.593 119.838 124.385  1.00  0.00     0.012 C 
ATOM     18  C   UNL     1     112.456 121.865 126.005  1.00  0.00    -0.067 C 
ATOM     19  C   UNL     1     113.683 120.723 124.218  1.00  0.00     0.009 C 
ATOM     20  C   UNL     1     113.844 121.694 125.409  1.00  0.00     0.021 C 
ATOM     21  C   UNL     1     111.716 122.944 125.687  1.00  0.00    -0.027 C 
ATOM     22  C   UNL     1     114.636 123.064 125.152  1.00  0.00    -0.023 C 
ATOM     23  C   UNL     1     112.251 123.994 124.769  1.00  0.00     0.031 C 
ATOM     24  C   UNL     1     113.693 124.342 125.140  1.00  0.00     0.002 C 
ATOM     25  C   UNL     1     115.708 123.209 126.291  1.00  0.00     0.010 C 
ATOM     26  C   UNL     1     115.401 123.028 123.798  1.00  0.00     0.012 C 
ATOM     27  C   UNL     1     113.736 125.133 126.467  1.00  0.00     0.036 C 
ATOM     28  C   UNL     1     116.258 124.636 126.446  1.00  0.00     0.032 C 
ATOM     29  C   UNL     1     115.150 125.685 126.720  1.00  0.00     0.114 C 
BRANCH  29  30
ATOM     30  O   UNL     1     115.233 126.169 128.039  1.00  0.00    -0.393 OA
ATOM     31  H   UNL     1     115.057 127.144 127.984  1.00  0.00     0.210 HD
ENDBRANCH  29  30
ENDBRANCH   9  11
ENDBRANCH   1   9
TORSDOF 7
ENDMDL
MODEL 2
REMARK VINA RESULT:    -7.359      1.274      2.273
REMARK INTER + INTRA:         -12.065
REMARK INTER:                  -9.925
REMARK INTRA:                  -2.140
REMARK UNBOUND:                -1.910
REMARK SMILES CC[C@@H](CC[C@@H](C)[C@@H]1CC[C@H]2C3=CC[C@H]4C[C@@H](O)CC[C@@]4(C)[C@@H]3CC[C@]21C)C(C)C
REMARK SMILES IDX 5 1 4 2 3 3 2 4 1 5 28 6 29 7 30 8 6 9 7 10 8 11 9 12 26 13
REMARK SMILES IDX 10 14 11 15 25 16 27 17 12 18 24 19 23 20 13 21 21 22 14 23
REMARK SMILES IDX 15 24 20 25 22 26 16 27 19 28 17 29 18 30
REMARK H PARENT 18 31
REMARK Flexibility Score: inf
ROOT
ATOM      1  C   UNL     1     110.478 116.129 127.210  1.00  0.00     0.004 C 
ENDROOT
BRANCH   1   2
ATOM      2  C   UNL     1     109.627 116.586 126.008  1.00  0.00     0.004 C 
BRANCH   2   3
ATOM      3  C   UNL     1     110.051 115.922 124.669  1.00  0.00    -0.009 C 
BRANCH   3   4
ATOM      4  C   UNL     1     111.408 115.180 124.836  1.00  0.00     0.000 C 
ATOM      5  C   UNL     1     112.580 115.938 124.207  1.00  0.00     0.004 C 
ENDBRANCH   3   4
BRANCH   3   6
ATOM      6  C   UNL     1     110.074 116.945 123.479  1.00  0.00    -0.014 C 
ATOM      7  C   UNL     1     109.216 118.188 123.771  1.00  0.00     0.007 C 
ATOM      8  C   UNL     1     109.670 116.334 122.125  1.00  0.00     0.007 C 
ENDBRANCH   3   6
ENDBRANCH   2   3
ENDBRANCH   1   2
BRANCH   1   9
ATOM      9  C   UNL     1     111.183 117.268 128.003  1.00  0.00    -0.011 C 
ATOM     10  C   UNL     1     111.701 116.789 129.384  1.00  0.00     0.008 C 
BRANCH   9  11
ATOM     11  C   UNL     1     112.219 118.081 127.138  1.00  0.00    -0.002 C 
ATOM     12  C   UNL     1     113.634 118.155 127.768  1.00  0.00     0.005 C 
ATOM     13  C   UNL     1     111.848 119.566 126.755  1.00  0.00    -0.023 C 
ATOM     14  C   UNL     1     114.044 119.623 127.835  1.00  0.00     0.009 C 
ATOM     15  C   UNL     1     112.748 120.416 127.682  1.00  0.00     0.021 C 
ATOM     16  C   UNL     1     112.216 119.805 125.244  1.00  0.00     0.008 C 
ATOM     17  C   UNL     1     110.360 119.939 126.958  1.00  0.00     0.012 C 
ATOM     18  C   UNL     1     112.928 121.830 127.153  1.00  0.00    -0.067 C 
ATOM     19  C   UNL     1     112.364 121.289 124.830  1.00  0.00     0.009 C 
ATOM     20  C   UNL     1     113.409 121.997 125.720  1.00  0.00     0.021 C 
ATOM     21  C   UNL     1     112.261 122.830 127.759  1.00  0.00    -0.027 C 
ATOM     22  C   UNL     1     113.832 123.493 125.327  1.00  0.00    -0.023 C 
ATOM     23  C   UNL     1     112.004 124.118 127.048  1.00  0.00     0.031 C 
ATOM     24  C   UNL     1     113.267 124.590 126.327  1.00  0.00     0.002 C 
ATOM     25  C   UNL     1     115.401 123.550 125.313  1.00  0.00     0.010 C 
ATOM     26  C   UNL     1     113.342 123.860 123.897  1.00  0.00     0.012 C 
ATOM     27  C   UNL     1     114.323 125.078 127.343  1.00  0.00     0.036 C 
ATOM     28  C   UNL     1     115.970 124.978 125.373  1.00  0.00     0.032 C 
ATOM     29  C   UNL     1     115.491 125.768 126.617  1.00  0.00     0.114 C 
BRANCH  29  30
ATOM     30  O   UNL     1     116.551 125.967 127.522  1.00  0.00    -0.393 OA
ATOM     31  H   UNL     1     117.202 125.239 127.345  1.00  0.00     0.210 HD
ENDBRANCH  29  30
ENDBRANCH   9  11
ENDBRANCH   1   9
TORSDOF 7
ENDMDL
MODEL 3
REMARK VINA RESULT:    -7.308      0.630      1.353
REMARK INTER + INTRA:         -11.996
REMARK INTER:                 -10.060
REMARK INTRA:                  -1.936
REMARK UNBOUND:                -1.910
REMARK SMILES CC[C@@H](CC[C@@H](C)[C@@H]1CC[C@H]2C3=CC[C@H]4C[C@@H](O)CC[C@@]4(C)[C@@H]3CC[C@]21C)C(C)C
REMARK SMILES IDX 5 1 4 2 3 3 2 4 1 5 28 6 29 7 30 8 6 9 7 10 8 11 9 12 26 13
REMARK SMILES IDX 10 14 11 15 25 16 27 17 12 18 24 19 23 20 13 21 21 22 14 23
REMARK SMILES IDX 15 24 20 25 22 26 16 27 19 28 17 29 18 30
REMARK H PARENT 18 31
REMARK Flexibility Score: inf
ROOT
ATOM      1  C   UNL     1     109.911 116.300 124.961  1.00  0.00     0.004 C 
ENDROOT
BRANCH   1   2
ATOM      2  C   UNL     1     110.597 116.395 123.584  1.00  0.00     0.004 C 
BRANCH   2   3
ATOM      3  C   UNL     1     111.733 115.352 123.392  1.00  0.00    -0.009 C 
BRANCH   3   4
ATOM      4  C   UNL     1     111.507 114.125 124.320  1.00  0.00     0.000 C 
ATOM      5  C   UNL     1     111.875 112.798 123.649  1.00  0.00     0.004 C 
ENDBRANCH   3   4
BRANCH   3   6
ATOM      6  C   UNL     1     113.159 115.984 123.576  1.00  0.00    -0.014 C 
ATOM      7  C   UNL     1     114.145 115.504 122.498  1.00  0.00     0.007 C 
ATOM      8  C   UNL     1     113.761 115.764 124.976  1.00  0.00     0.007 C 
ENDBRANCH   3   6
ENDBRANCH   2   3
ENDBRANCH   1   2
BRANCH   1   9
ATOM      9  C   UNL     1     109.969 117.590 125.830  1.00  0.00    -0.011 C 
ATOM     10  C   UNL     1     109.251 117.414 127.193  1.00  0.00     0.008 C 
BRANCH   9  11
ATOM     11  C   UNL     1     111.408 118.228 125.902  1.00  0.00    -0.002 C 
ATOM     12  C   UNL     1     111.920 118.447 127.349  1.00  0.00     0.005 C 
ATOM     13  C   UNL     1     111.640 119.600 125.159  1.00  0.00    -0.023 C 
ATOM     14  C   UNL     1     112.352 119.904 127.480  1.00  0.00     0.009 C 
ATOM     15  C   UNL     1     111.696 120.632 126.310  1.00  0.00     0.021 C 
ATOM     16  C   UNL     1     113.015 119.536 124.397  1.00  0.00     0.008 C 
ATOM     17  C   UNL     1     110.537 119.986 124.143  1.00  0.00     0.012 C 
ATOM     18  C   UNL     1     112.396 121.914 125.886  1.00  0.00    -0.067 C 
ATOM     19  C   UNL     1     113.619 120.910 124.015  1.00  0.00     0.009 C 
ATOM     20  C   UNL     1     113.780 121.797 125.269  1.00  0.00     0.021 C 
ATOM     21  C   UNL     1     111.644 123.005 125.650  1.00  0.00    -0.027 C 
ATOM     22  C   UNL     1     114.558 123.190 125.102  1.00  0.00    -0.023 C 
ATOM     23  C   UNL     1     112.162 124.121 124.803  1.00  0.00     0.031 C 
ATOM     24  C   UNL     1     113.604 124.456 125.187  1.00  0.00     0.002 C 
ATOM     25  C   UNL     1     115.638 123.264 126.240  1.00  0.00     0.010 C 
ATOM     26  C   UNL     1     115.312 123.255 123.743  1.00  0.00     0.012 C 
ATOM     27  C   UNL     1     113.651 125.153 126.565  1.00  0.00     0.036 C 
ATOM     28  C   UNL     1     116.176 124.683 126.490  1.00  0.00     0.032 C 
ATOM     29  C   UNL     1     115.061 125.700 126.844  1.00  0.00     0.114 C 
BRANCH  29  30
ATOM     30  O   UNL     1     115.152 126.092 128.194  1.00  0.00    -0.393 OA
ATOM     31  H   UNL     1     114.699 126.973 128.253  1.00  0.00     0.210 HD
ENDBRANCH  29  30
ENDBRANCH   9  11
ENDBRANCH   1   9
TORSDOF 7
ENDMDL
MODEL 4
REMARK VINA RESULT:    -7.228      3.291      9.734
REMARK INTER + INTRA:         -11.885
REMARK INTER:                 -10.892
REMARK INTRA:                  -0.992
REMARK UNBOUND:                -1.910
REMARK SMILES CC[C@@H](CC[C@@H](C)[C@@H]1CC[C@H]2C3=CC[C@H]4C[C@@H](O)CC[C@@]4(C)[C@@H]3CC[C@]21C)C(C)C
REMARK SMILES IDX 5 1 4 2 3 3 2 4 1 5 28 6 29 7 30 8 6 9 7 10 8 11 9 12 26 13
REMARK SMILES IDX 10 14 11 15 25 16 27 17 12 18 24 19 23 20 13 21 21 22 14 23
REMARK SMILES IDX 15 24 20 25 22 26 16 27 19 28 17 29 18 30
REMARK H PARENT 18 31
REMARK Flexibility Score: inf
ROOT
ATOM      1  C   UNL     1     115.996 127.079 125.638  1.00  0.00     0.004 C 
ENDROOT
BRANCH   1   2
ATOM      2  C   UNL     1     117.243 127.968 125.815  1.00  0.00     0.004 C 
BRANCH   2   3
ATOM      3  C   UNL     1     116.899 129.460 126.079  1.00  0.00    -0.009 C 
BRANCH   3   4
ATOM      4  C   UNL     1     115.684 129.899 125.214  1.00  0.00     0.000 C 
ATOM      5  C   UNL     1     114.488 130.351 126.057  1.00  0.00     0.004 C 
ENDBRANCH   3   4
BRANCH   3   6
ATOM      6  C   UNL     1     118.141 130.401 125.884  1.00  0.00    -0.014 C 
ATOM      7  C   UNL     1     117.770 131.699 125.147  1.00  0.00     0.007 C 
ATOM      8  C   UNL     1     119.332 129.722 125.184  1.00  0.00     0.007 C 
ENDBRANCH   3   6
ENDBRANCH   2   3
ENDBRANCH   1   2
BRANCH   1   9
ATOM      9  C   UNL     1     115.651 126.160 126.845  1.00  0.00    -0.011 C 
ATOM     10  C   UNL     1     115.851 126.876 128.206  1.00  0.00     0.008 C 
BRANCH   9  11
ATOM     11  C   UNL     1     114.282 125.399 126.678  1.00  0.00    -0.002 C 
ATOM     12  C   UNL     1     113.381 125.451 127.939  1.00  0.00     0.005 C 
ATOM     13  C   UNL     1     114.334 123.879 126.259  1.00  0.00    -0.023 C 
ATOM     14  C   UNL     1     112.992 124.021 128.300  1.00  0.00     0.009 C 
ATOM     15  C   UNL     1     113.990 123.129 127.567  1.00  0.00     0.021 C 
ATOM     16  C   UNL     1     113.238 123.620 125.160  1.00  0.00     0.008 C 
ATOM     17  C   UNL     1     115.699 123.402 125.706  1.00  0.00     0.012 C 
ATOM     18  C   UNL     1     113.499 121.716 127.295  1.00  0.00    -0.067 C 
ATOM     19  C   UNL     1     112.829 122.137 124.976  1.00  0.00     0.009 C 
ATOM     20  C   UNL     1     112.349 121.539 126.317  1.00  0.00     0.021 C 
ATOM     21  C   UNL     1     114.332 120.689 127.547  1.00  0.00    -0.027 C 
ATOM     22  C   UNL     1     111.713 120.067 126.290  1.00  0.00    -0.023 C 
ATOM     23  C   UNL     1     114.130 119.363 126.890  1.00  0.00     0.031 C 
ATOM     24  C   UNL     1     112.655 118.964 126.937  1.00  0.00     0.002 C 
ATOM     25  C   UNL     1     110.354 120.128 127.074  1.00  0.00     0.010 C 
ATOM     26  C   UNL     1     111.389 119.619 124.836  1.00  0.00     0.012 C 
ATOM     27  C   UNL     1     112.239 118.590 128.378  1.00  0.00     0.036 C 
ATOM     28  C   UNL     1     109.827 118.749 127.507  1.00  0.00     0.032 C 
ATOM     29  C   UNL     1     110.833 117.966 128.389  1.00  0.00     0.114 C 
BRANCH  29  30
ATOM     30  O   UNL     1     110.372 117.876 129.716  1.00  0.00    -0.393 OA
ATOM     31  H   UNL     1     111.106 118.226 130.284  1.00  0.00     0.210 HD
ENDBRANCH  29  30
ENDBRANCH   9  11
ENDBRANCH   1   9
TORSDOF 7
ENDMDL
MODEL 5
REMARK VINA RESULT:    -6.725      1.570      3.177
REMARK INTER + INTRA:         -11.191
REMARK INTER:                  -9.850
REMARK INTRA:                  -1.341
REMARK UNBOUND:                -1.910
REMARK SMILES CC[C@@H](CC[C@@H](C)[C@@H]1CC[C@H]2C3=CC[C@H]4C[C@@H](O)CC[C@@]4(C)[C@@H]3CC[C@]21C)C(C)C
REMARK SMILES IDX 5 1 4 2 3 3 2 4 1 5 28 6 29 7 30 8 6 9 7 10 8 11 9 12 26 13
REMARK SMILES IDX 10 14 11 15 25 16 27 17 12 18 24 19 23 20 13 21 21 22 14 23
REMARK SMILES IDX 15 24 20 25 22 26 16 27 19 28 17 29 18 30
REMARK H PARENT 18 31
REMARK Flexibility Score: inf
ROOT
ATOM      1  C   UNL     1     110.891 116.723 126.269  1.00  0.00     0.004 C 
ENDROOT
BRANCH   1   2
ATOM      2  C   UNL     1     110.207 116.138 127.521  1.00  0.00     0.004 C 
BRANCH   2   3
ATOM      3  C   UNL     1     109.990 117.187 128.647  1.00  0.00    -0.009 C 
BRANCH   3   4
ATOM      4  C   UNL     1     110.344 118.613 128.138  1.00  0.00     0.000 C 
ATOM      5  C   UNL     1     109.129 119.364 127.585  1.00  0.00     0.004 C 
ENDBRANCH   3   4
BRANCH   3   6
ATOM      6  C   UNL     1     110.760 116.815 129.963  1.00  0.00    -0.014 C 
ATOM      7  C   UNL     1     111.859 117.840 130.296  1.00  0.00     0.007 C 
ATOM      8  C   UNL     1     111.352 115.394 129.958  1.00  0.00     0.007 C 
ENDBRANCH   3   6
ENDBRANCH   2   3
ENDBRANCH   1   2
BRANCH   1   9
ATOM      9  C   UNL     1     112.308 116.161 125.955  1.00  0.00    -0.011 C 
ATOM     10  C   UNL     1     112.297 115.175 124.758  1.00  0.00     0.008 C 
BRANCH   9  11
ATOM     11  C   UNL     1     113.422 117.272 125.904  1.00  0.00    -0.002 C 
ATOM     12  C   UNL     1     114.015 117.625 127.293  1.00  0.00     0.005 C 
ATOM     13  C   UNL     1     113.051 118.655 125.241  1.00  0.00    -0.023 C 
ATOM     14  C   UNL     1     113.917 119.136 127.478  1.00  0.00     0.009 C 
ATOM     15  C   UNL     1     112.893 119.607 126.449  1.00  0.00     0.021 C 
ATOM     16  C   UNL     1     114.242 119.110 124.320  1.00  0.00     0.008 C 
ATOM     17  C   UNL     1     111.756 118.643 124.391  1.00  0.00     0.012 C 
ATOM     18  C   UNL     1     113.029 121.066 126.039  1.00  0.00    -0.067 C 
ATOM     19  C   UNL     1     114.263 120.619 123.971  1.00  0.00     0.009 C 
ATOM     20  C   UNL     1     114.268 121.472 125.258  1.00  0.00     0.021 C 
ATOM     21  C   UNL     1     111.915 121.818 125.973  1.00  0.00    -0.027 C 
ATOM     22  C   UNL     1     114.472 123.055 125.102  1.00  0.00    -0.023 C 
ATOM     23  C   UNL     1     111.885 123.067 125.154  1.00  0.00     0.031 C 
ATOM     24  C   UNL     1     113.152 123.890 125.389  1.00  0.00     0.002 C 
ATOM     25  C   UNL     1     115.599 123.485 126.108  1.00  0.00     0.010 C 
ATOM     26  C   UNL     1     114.963 123.422 123.673  1.00  0.00     0.012 C 
ATOM     27  C   UNL     1     113.136 124.521 126.800  1.00  0.00     0.036 C 
ATOM     28  C   UNL     1     115.629 124.996 126.395  1.00  0.00     0.032 C 
ATOM     29  C   UNL     1     114.285 125.533 126.951  1.00  0.00     0.114 C 
BRANCH  29  30
ATOM     30  O   UNL     1     114.413 125.896 128.305  1.00  0.00    -0.393 OA
ATOM     31  H   UNL     1     114.022 126.805 128.382  1.00  0.00     0.210 HD
ENDBRANCH  29  30
ENDBRANCH   9  11
ENDBRANCH   1   9
TORSDOF 7
ENDMDL
MODEL 6
REMARK VINA RESULT:    -6.660      1.914      3.078
REMARK INTER + INTRA:         -11.102
REMARK INTER:                  -9.842
REMARK INTRA:                  -1.260
REMARK UNBOUND:                -1.910
REMARK SMILES CC[C@@H](CC[C@@H](C)[C@@H]1CC[C@H]2C3=CC[C@H]4C[C@@H](O)CC[C@@]4(C)[C@@H]3CC[C@]21C)C(C)C
REMARK SMILES IDX 5 1 4 2 3 3 2 4 1 5 28 6 29 7 30 8 6 9 7 10 8 11 9 12 26 13
REMARK SMILES IDX 10 14 11 15 25 16 27 17 12 18 24 19 23 20 13 21 21 22 14 23
REMARK SMILES IDX 15 24 20 25 22 26 16 27 19 28 17 29 18 30
REMARK H PARENT 18 31
REMARK Flexibility Score: inf
ROOT
ATOM      1  C   UNL     1     110.209 115.927 126.227  1.00  0.00     0.004 C 
ENDROOT
BRANCH   1   2
ATOM      2  C   UNL     1     109.414 116.197 124.934  1.00  0.00     0.004 C 
BRANCH   2   3
ATOM      3  C   UNL     1     110.014 117.345 124.075  1.00  0.00    -0.009 C 
BRANCH   3   4
ATOM      4  C   UNL     1     108.910 118.369 123.688  1.00  0.00     0.000 C 
ATOM      5  C   UNL     1     109.438 119.507 122.809  1.00  0.00     0.004 C 
ENDBRANCH   3   4
BRANCH   3   6
ATOM      6  C   UNL     1     110.793 116.806 122.823  1.00  0.00    -0.014 C 
ATOM      7  C   UNL     1     109.889 115.978 121.894  1.00  0.00     0.007 C 
ATOM      8  C   UNL     1     112.059 116.004 123.175  1.00  0.00     0.007 C 
ENDBRANCH   3   6
ENDBRANCH   2   3
ENDBRANCH   1   2
BRANCH   1   9
ATOM      9  C   UNL     1     109.709 116.682 127.492  1.00  0.00    -0.011 C 
ATOM     10  C   UNL     1     109.557 115.742 128.717  1.00  0.00     0.008 C 
BRANCH   9  11
ATOM     11  C   UNL     1     110.485 118.025 127.764  1.00  0.00    -0.002 C 
ATOM     12  C   UNL     1     109.751 119.286 127.239  1.00  0.00     0.005 C 
ATOM     13  C   UNL     1     111.963 118.141 127.224  1.00  0.00    -0.023 C 
ATOM     14  C   UNL     1     110.723 120.064 126.358  1.00  0.00     0.009 C 
ATOM     15  C   UNL     1     111.830 119.077 126.000  1.00  0.00     0.021 C 
ATOM     16  C   UNL     1     112.858 118.799 128.338  1.00  0.00     0.008 C 
ATOM     17  C   UNL     1     112.612 116.798 126.808  1.00  0.00     0.012 C 
ATOM     18  C   UNL     1     113.160 119.718 125.633  1.00  0.00    -0.067 C 
ATOM     19  C   UNL     1     114.189 119.410 127.836  1.00  0.00     0.009 C 
ATOM     20  C   UNL     1     113.921 120.451 126.726  1.00  0.00     0.021 C 
ATOM     21  C   UNL     1     113.814 119.261 124.550  1.00  0.00    -0.027 C 
ATOM     22  C   UNL     1     115.162 121.324 126.208  1.00  0.00    -0.023 C 
ATOM     23  C   UNL     1     115.283 119.483 124.393  1.00  0.00     0.031 C 
ATOM     24  C   UNL     1     115.644 120.925 124.748  1.00  0.00     0.002 C 
ATOM     25  C   UNL     1     114.718 122.830 126.225  1.00  0.00     0.010 C 
ATOM     26  C   UNL     1     116.383 121.190 127.162  1.00  0.00     0.012 C 
ATOM     27  C   UNL     1     115.133 121.897 123.660  1.00  0.00     0.036 C 
ATOM     28  C   UNL     1     115.612 123.749 125.376  1.00  0.00     0.032 C 
ATOM     29  C   UNL     1     115.696 123.309 123.892  1.00  0.00     0.114 C 
BRANCH  29  30
ATOM     30  O   UNL     1     115.020 124.223 123.060  1.00  0.00    -0.393 OA
ATOM     31  H   UNL     1     115.192 123.924 122.130  1.00  0.00     0.210 HD
ENDBRANCH  29  30
ENDBRANCH   9  11
ENDBRANCH   1   9
TORSDOF 7
ENDMDL
MODEL 7
REMARK VINA RESULT:    -6.391      3.752      6.597
REMARK INTER + INTRA:         -10.731
REMARK INTER:                  -9.056
REMARK INTRA:                  -1.675
REMARK UNBOUND:                -1.910
REMARK SMILES CC[C@@H](CC[C@@H](C)[C@@H]1CC[C@H]2C3=CC[C@H]4C[C@@H](O)CC[C@@]4(C)[C@@H]3CC[C@]21C)C(C)C
REMARK SMILES IDX 5 1 4 2 3 3 2 4 1 5 28 6 29 7 30 8 6 9 7 10 8 11 9 12 26 13
REMARK SMILES IDX 10 14 11 15 25 16 27 17 12 18 24 19 23 20 13 21 21 22 14 23
REMARK SMILES IDX 15 24 20 25 22 26 16 27 19 28 17 29 18 30
REMARK H PARENT 18 31
REMARK Flexibility Score: inf
ROOT
ATOM      1  C   UNL     1     110.875 119.762 123.790  1.00  0.00     0.004 C 
ENDROOT
BRANCH   1   2
ATOM      2  C   UNL     1     109.600 119.762 124.656  1.00  0.00     0.004 C 
BRANCH   2   3
ATOM      3  C   UNL     1     109.139 118.336 125.067  1.00  0.00    -0.009 C 
BRANCH   3   4
ATOM      4  C   UNL     1     109.265 118.146 126.606  1.00  0.00     0.000 C 
ATOM      5  C   UNL     1     108.878 119.402 127.392  1.00  0.00     0.004 C 
ENDBRANCH   3   4
BRANCH   3   6
ATOM      6  C   UNL     1     109.889 117.214 124.265  1.00  0.00    -0.014 C 
ATOM      7  C   UNL     1     109.207 116.916 122.918  1.00  0.00     0.007 C 
ATOM      8  C   UNL     1     110.083 115.907 125.056  1.00  0.00     0.007 C 
ENDBRANCH   3   6
ENDBRANCH   2   3
ENDBRANCH   1   2
BRANCH   1   9
ATOM      9  C   UNL     1     112.033 120.669 124.300  1.00  0.00    -0.011 C 
ATOM     10  C   UNL     1     111.513 121.890 125.103  1.00  0.00     0.008 C 
BRANCH   9  11
ATOM     11  C   UNL     1     113.204 119.863 124.978  1.00  0.00    -0.002 C 
ATOM     12  C   UNL     1     113.410 118.446 124.385  1.00  0.00     0.005 C 
ATOM     13  C   UNL     1     113.146 119.662 126.542  1.00  0.00    -0.023 C 
ATOM     14  C   UNL     1     113.387 117.445 125.535  1.00  0.00     0.009 C 
ATOM     15  C   UNL     1     112.734 118.180 126.703  1.00  0.00     0.021 C 
ATOM     16  C   UNL     1     114.581 119.913 127.137  1.00  0.00     0.008 C 
ATOM     17  C   UNL     1     112.145 120.583 127.281  1.00  0.00     0.012 C 
ATOM     18  C   UNL     1     113.098 117.639 128.077  1.00  0.00    -0.067 C 
ATOM     19  C   UNL     1     114.821 119.316 128.546  1.00  0.00     0.009 C 
ATOM     20  C   UNL     1     114.535 117.798 128.546  1.00  0.00     0.021 C 
ATOM     21  C   UNL     1     112.112 117.462 128.976  1.00  0.00    -0.027 C 
ATOM     22  C   UNL     1     114.902 116.971 129.871  1.00  0.00    -0.023 C 
ATOM     23  C   UNL     1     112.414 117.399 130.438  1.00  0.00     0.031 C 
ATOM     24  C   UNL     1     113.627 116.504 130.693  1.00  0.00     0.002 C 
ATOM     25  C   UNL     1     115.733 115.716 129.425  1.00  0.00     0.010 C 
ATOM     26  C   UNL     1     115.801 117.807 130.826  1.00  0.00     0.012 C 
ATOM     27  C   UNL     1     113.268 115.020 130.453  1.00  0.00     0.036 C 
ATOM     28  C   UNL     1     115.804 114.610 130.491  1.00  0.00     0.032 C 
ATOM     29  C   UNL     1     114.407 114.105 130.934  1.00  0.00     0.114 C 
BRANCH  29  30
ATOM     30  O   UNL     1     114.179 112.794 130.473  1.00  0.00    -0.393 OA
ATOM     31  H   UNL     1     115.061 112.339 130.497  1.00  0.00     0.210 HD
ENDBRANCH  29  30
ENDBRANCH   9  11
ENDBRANCH   1   9
TORSDOF 7
ENDMDL
MODEL 8
REMARK VINA RESULT:    -6.354      1.918      3.766
REMARK INTER + INTRA:         -10.679
REMARK INTER:                  -9.476
REMARK INTRA:                  -1.202
REMARK UNBOUND:                -1.910
REMARK SMILES CC[C@@H](CC[C@@H](C)[C@@H]1CC[C@H]2C3=CC[C@H]4C[C@@H](O)CC[C@@]4(C)[C@@H]3CC[C@]21C)C(C)C
REMARK SMILES IDX 5 1 4 2 3 3 2 4 1 5 28 6 29 7 30 8 6 9 7 10 8 11 9 12 26 13
REMARK SMILES IDX 10 14 11 15 25 16 27 17 12 18 24 19 23 20 13 21 21 22 14 23
REMARK SMILES IDX 15 24 20 25 22 26 16 27 19 28 17 29 18 30
REMARK H PARENT 18 31
REMARK Flexibility Score: inf
ROOT
ATOM      1  C   UNL     1     111.794 115.944 126.667  1.00  0.00     0.004 C 
ENDROOT
BRANCH   1   2
ATOM      2  C   UNL     1     111.015 116.416 127.911  1.00  0.00     0.004 C 
BRANCH   2   3
ATOM      3  C   UNL     1     111.908 117.140 128.956  1.00  0.00    -0.009 C 
BRANCH   3   4
ATOM      4  C   UNL     1     113.413 116.890 128.651  1.00  0.00     0.000 C 
ATOM      5  C   UNL     1     114.282 118.126 128.900  1.00  0.00     0.004 C 
ENDBRANCH   3   4
BRANCH   3   6
ATOM      6  C   UNL     1     111.527 116.759 130.430  1.00  0.00    -0.014 C 
ATOM      7  C   UNL     1     111.893 115.301 130.761  1.00  0.00     0.007 C 
ATOM      8  C   UNL     1     110.051 117.022 130.780  1.00  0.00     0.007 C 
ENDBRANCH   3   6
ENDBRANCH   2   3
ENDBRANCH   1   2
BRANCH   1   9
ATOM      9  C   UNL     1     111.136 116.277 125.297  1.00  0.00    -0.011 C 
ATOM     10  C   UNL     1     109.588 116.215 125.357  1.00  0.00     0.008 C 
BRANCH   9  11
ATOM     11  C   UNL     1     111.734 117.564 124.614  1.00  0.00    -0.002 C 
ATOM     12  C   UNL     1     113.277 117.533 124.469  1.00  0.00     0.005 C 
ATOM     13  C   UNL     1     111.400 118.962 125.265  1.00  0.00    -0.023 C 
ATOM     14  C   UNL     1     113.835 118.812 125.084  1.00  0.00     0.009 C 
ATOM     15  C   UNL     1     112.718 119.361 125.967  1.00  0.00     0.021 C 
ATOM     16  C   UNL     1     111.045 119.981 124.119  1.00  0.00     0.008 C 
ATOM     17  C   UNL     1     110.231 118.946 126.280  1.00  0.00     0.012 C 
ATOM     18  C   UNL     1     112.790 120.858 126.226  1.00  0.00    -0.067 C 
ATOM     19  C   UNL     1     111.151 121.475 124.513  1.00  0.00     0.009 C 
ATOM     20  C   UNL     1     112.564 121.794 125.050  1.00  0.00     0.021 C 
ATOM     21  C   UNL     1     112.602 121.300 127.483  1.00  0.00    -0.027 C 
ATOM     22  C   UNL     1     112.922 123.330 125.338  1.00  0.00    -0.023 C 
ATOM     23  C   UNL     1     112.192 122.713 127.743  1.00  0.00     0.031 C 
ATOM     24  C   UNL     1     113.017 123.673 126.886  1.00  0.00     0.002 C 
ATOM     25  C   UNL     1     114.298 123.630 124.645  1.00  0.00     0.010 C 
ATOM     26  C   UNL     1     111.867 124.283 124.706  1.00  0.00     0.012 C 
ATOM     27  C   UNL     1     114.474 123.743 127.397  1.00  0.00     0.036 C 
ATOM     28  C   UNL     1     114.988 124.903 125.162  1.00  0.00     0.032 C 
ATOM     29  C   UNL     1     115.238 124.877 126.692  1.00  0.00     0.114 C 
BRANCH  29  30
ATOM     30  O   UNL     1     116.613 124.757 126.972  1.00  0.00    -0.393 OA
ATOM     31  H   UNL     1     117.001 125.658 126.821  1.00  0.00     0.210 HD
ENDBRANCH  29  30
ENDBRANCH   9  11
ENDBRANCH   1   9
TORSDOF 7
ENDMDL
MODEL 9
REMARK VINA RESULT:    -6.335      1.650      3.158
REMARK INTER + INTRA:         -10.652
REMARK INTER:                  -9.235
REMARK INTRA:                  -1.417
REMARK UNBOUND:                -1.910
REMARK SMILES CC[C@@H](CC[C@@H](C)[C@@H]1CC[C@H]2C3=CC[C@H]4C[C@@H](O)CC[C@@]4(C)[C@@H]3CC[C@]21C)C(C)C
REMARK SMILES IDX 5 1 4 2 3 3 2 4 1 5 28 6 29 7 30 8 6 9 7 10 8 11 9 12 26 13
REMARK SMILES IDX 10 14 11 15 25 16 27 17 12 18 24 19 23 20 13 21 21 22 14 23
REMARK SMILES IDX 15 24 20 25 22 26 16 27 19 28 17 29 18 30
REMARK H PARENT 18 31
REMARK Flexibility Score: inf
ROOT
ATOM      1  C   UNL     1     109.995 115.688 125.150  1.00  0.00     0.004 C 
ENDROOT
BRANCH   1   2
ATOM      2  C   UNL     1     111.453 115.207 125.294  1.00  0.00     0.004 C 
BRANCH   2   3
ATOM      3  C   UNL     1     112.336 115.551 124.062  1.00  0.00    -0.009 C 
BRANCH   3   4
ATOM      4  C   UNL     1     112.227 114.434 122.986  1.00  0.00     0.000 C 
ATOM      5  C   UNL     1     112.329 113.026 123.579  1.00  0.00     0.004 C 
ENDBRANCH   3   4
BRANCH   3   6
ATOM      6  C   UNL     1     113.824 115.851 124.462  1.00  0.00    -0.014 C 
ATOM      7  C   UNL     1     114.001 115.953 125.987  1.00  0.00     0.007 C 
ATOM      8  C   UNL     1     114.413 117.099 123.781  1.00  0.00     0.007 C 
ENDBRANCH   3   6
ENDBRANCH   2   3
ENDBRANCH   1   2
BRANCH   1   9
ATOM      9  C   UNL     1     109.437 116.507 126.350  1.00  0.00    -0.011 C 
ATOM     10  C   UNL     1     109.901 115.939 127.716  1.00  0.00     0.008 C 
BRANCH   9  11
ATOM     11  C   UNL     1     109.606 118.063 126.173  1.00  0.00    -0.002 C 
ATOM     12  C   UNL     1     109.643 118.522 124.693  1.00  0.00     0.005 C 
ATOM     13  C   UNL     1     110.850 118.749 126.860  1.00  0.00    -0.023 C 
ATOM     14  C   UNL     1     110.898 119.367 124.493  1.00  0.00     0.009 C 
ATOM     15  C   UNL     1     111.803 119.040 125.677  1.00  0.00     0.021 C 
ATOM     16  C   UNL     1     110.377 120.087 127.541  1.00  0.00     0.008 C 
ATOM     17  C   UNL     1     111.563 117.885 127.928  1.00  0.00     0.012 C 
ATOM     18  C   UNL     1     112.815 120.123 126.021  1.00  0.00    -0.067 C 
ATOM     19  C   UNL     1     111.505 121.103 127.845  1.00  0.00     0.009 C 
ATOM     20  C   UNL     1     112.288 121.444 126.558  1.00  0.00     0.021 C 
ATOM     21  C   UNL     1     114.085 119.755 126.268  1.00  0.00    -0.027 C 
ATOM     22  C   UNL     1     113.378 122.617 126.637  1.00  0.00    -0.023 C 
ATOM     23  C   UNL     1     114.999 120.642 127.050  1.00  0.00     0.031 C 
ATOM     24  C   UNL     1     114.875 122.089 126.572  1.00  0.00     0.002 C 
ATOM     25  C   UNL     1     113.109 123.591 125.436  1.00  0.00     0.010 C 
ATOM     26  C   UNL     1     113.225 123.442 127.947  1.00  0.00     0.012 C 
ATOM     27  C   UNL     1     115.510 122.255 125.173  1.00  0.00     0.036 C 
ATOM     28  C   UNL     1     114.293 124.518 125.112  1.00  0.00     0.032 C 
ATOM     29  C   UNL     1     115.598 123.743 124.794  1.00  0.00     0.114 C 
BRANCH  29  30
ATOM     30  O   UNL     1     115.929 123.860 123.431  1.00  0.00    -0.393 OA
ATOM     31  H   UNL     1     115.765 122.966 123.033  1.00  0.00     0.210 HD
ENDBRANCH  29  30
ENDBRANCH   9  11
ENDBRANCH   1   9
TORSDOF 7
ENDMDL
