MODEL 1
REMARK VINA RESULT:    -4.261      0.000      0.000
REMARK INTER + INTRA:         -12.814
REMARK INTER:                  -9.243
REMARK INTRA:                  -3.571
REMARK UNBOUND:                -3.571
REMARK SMILES CCCCCCCCCCCCCCCCCCCCCC(=O)[O-]
REMARK SMILES IDX 12 1 11 2 10 3 9 4 8 5 7 6 6 7 5 8 4 9 3 10 2 11 1 12 13 13
REMARK SMILES IDX 14 14 15 15 16 16 17 17 18 18 19 19 20 20 21 21 22 22 23 23
REMARK SMILES IDX 24 24
REMARK H PARENT
REMARK Flexibility Score: inf
ROOT
ATOM      1  C   UNL     1      26.132  27.483 -10.400  1.00  0.00     0.000 C 
ENDROOT
BRANCH   1   2
ATOM      2  C   UNL     1      25.800  27.275 -11.885  1.00  0.00     0.000 C 
BRANCH   2   3
ATOM      3  C   UNL     1      27.046  26.958 -12.730  1.00  0.00     0.000 C 
BRANCH   3   4
ATOM      4  C   UNL     1      26.710  26.714 -14.209  1.00  0.00    -0.000 C 
BRANCH   4   5
ATOM      5  C   UNL     1      25.244  26.296 -14.421  1.00  0.00    -0.000 C 
BRANCH   5   6
ATOM      6  C   UNL     1      25.121  24.906 -15.081  1.00  0.00    -0.000 C 
BRANCH   6   7
ATOM      7  C   UNL     1      25.302  23.732 -14.098  1.00  0.00    -0.000 C 
BRANCH   7   8
ATOM      8  C   UNL     1      26.635  22.977 -14.230  1.00  0.00    -0.000 C 
BRANCH   8   9
ATOM      9  C   UNL     1      27.617  23.298 -13.093  1.00  0.00    -0.000 C 
BRANCH   9  10
ATOM     10  C   UNL     1      26.879  23.415 -11.751  1.00  0.00    -0.000 C 
BRANCH  10  11
ATOM     11  C   UNL     1      27.125  22.206 -10.835  1.00  0.00    -0.003 C 
ATOM     12  C   UNL     1      28.376  21.416 -11.219  1.00  0.00     0.004 C 
ENDBRANCH  10  11
ENDBRANCH   9  10
ENDBRANCH   8   9
ENDBRANCH   7   8
ENDBRANCH   6   7
ENDBRANCH   5   6
ENDBRANCH   4   5
ENDBRANCH   3   4
ENDBRANCH   2   3
ENDBRANCH   1   2
BRANCH   1  13
ATOM     13  C   UNL     1      26.203  28.972 -10.014  1.00  0.00     0.000 C 
BRANCH  13  14
ATOM     14  C   UNL     1      27.623  29.413  -9.622  1.00  0.00     0.000 C 
BRANCH  14  15
ATOM     15  C   UNL     1      28.171  30.518 -10.541  1.00  0.00     0.000 C 
BRANCH  15  16
ATOM     16  C   UNL     1      29.252  30.004 -11.505  1.00  0.00     0.000 C 
BRANCH  16  17
ATOM     17  C   UNL     1      28.927  30.298 -12.981  1.00  0.00     0.000 C 
BRANCH  17  18
ATOM     18  C   UNL     1      27.417  30.521 -13.211  1.00  0.00     0.000 C 
BRANCH  18  19
ATOM     19  C   UNL     1      26.983  30.353 -14.680  1.00  0.00     0.000 C 
BRANCH  19  20
ATOM     20  C   UNL     1      25.467  30.189 -14.893  1.00  0.00     0.006 C 
BRANCH  20  21
ATOM     21  C   UNL     1      24.625  30.375 -13.619  1.00  0.00     0.053 C 
BRANCH  21  22
ATOM     22  C   UNL     1      23.903  31.687 -13.607  1.00  0.00     0.041 C 
ATOM     23  O   UNL     1      22.787  31.803 -14.181  1.00  0.00    -0.550 OA
ATOM     24  O   UNL     1      24.445  32.773 -12.929  1.00  0.00    -0.550 OA
ENDBRANCH  21  22
ENDBRANCH  20  21
ENDBRANCH  19  20
ENDBRANCH  18  19
ENDBRANCH  17  18
ENDBRANCH  16  17
ENDBRANCH  15  16
ENDBRANCH  14  15
ENDBRANCH  13  14
ENDBRANCH   1  13
TORSDOF 20
ENDMDL
MODEL 2
REMARK VINA RESULT:    -4.163      2.885      7.105
REMARK INTER + INTRA:         -12.600
REMARK INTER:                  -8.653
REMARK INTRA:                  -3.947
REMARK UNBOUND:                -3.571
REMARK SMILES CCCCCCCCCCCCCCCCCCCCCC(=O)[O-]
REMARK SMILES IDX 12 1 11 2 10 3 9 4 8 5 7 6 6 7 5 8 4 9 3 10 2 11 1 12 13 13
REMARK SMILES IDX 14 14 15 15 16 16 17 17 18 18 19 19 20 20 21 21 22 22 23 23
REMARK SMILES IDX 24 24
REMARK H PARENT
REMARK Flexibility Score: inf
ROOT
ATOM      1  C   UNL     1      26.038  29.291 -10.837  1.00  0.00     0.000 C 
ENDROOT
BRANCH   1   2
ATOM      2  C   UNL     1      26.968  30.444 -11.246  1.00  0.00     0.000 C 
BRANCH   2   3
ATOM      3  C   UNL     1      28.312  29.947 -11.805  1.00  0.00     0.000 C 
BRANCH   3   4
ATOM      4  C   UNL     1      28.517  30.332 -13.278  1.00  0.00    -0.000 C 
BRANCH   4   5
ATOM      5  C   UNL     1      27.211  30.778 -13.960  1.00  0.00    -0.000 C 
BRANCH   5   6
ATOM      6  C   UNL     1      26.810  29.847 -15.124  1.00  0.00    -0.000 C 
BRANCH   6   7
ATOM      7  C   UNL     1      25.286  29.729 -15.330  1.00  0.00    -0.000 C 
BRANCH   7   8
ATOM      8  C   UNL     1      24.455  29.750 -14.036  1.00  0.00    -0.000 C 
BRANCH   8   9
ATOM      9  C   UNL     1      23.256  30.708 -14.115  1.00  0.00    -0.000 C 
BRANCH   9  10
ATOM     10  C   UNL     1      23.723  32.170 -14.093  1.00  0.00    -0.000 C 
BRANCH  10  11
ATOM     11  C   UNL     1      24.282  32.592 -12.726  1.00  0.00    -0.003 C 
ATOM     12  C   UNL     1      23.415  32.118 -11.559  1.00  0.00     0.004 C 
ENDBRANCH  10  11
ENDBRANCH   9  10
ENDBRANCH   8   9
ENDBRANCH   7   8
ENDBRANCH   6   7
ENDBRANCH   5   6
ENDBRANCH   4   5
ENDBRANCH   3   4
ENDBRANCH   2   3
ENDBRANCH   1   2
BRANCH   1  13
ATOM     13  C   UNL     1      26.729  27.918 -10.924  1.00  0.00     0.000 C 
BRANCH  13  14
ATOM     14  C   UNL     1      26.106  27.011 -11.997  1.00  0.00     0.000 C 
BRANCH  14  15
ATOM     15  C   UNL     1      27.080  26.705 -13.148  1.00  0.00     0.000 C 
BRANCH  15  16
ATOM     16  C   UNL     1      26.362  26.248 -14.427  1.00  0.00     0.000 C 
BRANCH  16  17
ATOM     17  C   UNL     1      25.045  25.503 -14.141  1.00  0.00     0.000 C 
BRANCH  17  18
ATOM     18  C   UNL     1      25.020  24.099 -14.781  1.00  0.00     0.000 C 
BRANCH  18  19
ATOM     19  C   UNL     1      26.343  23.324 -14.628  1.00  0.00     0.000 C 
BRANCH  19  20
ATOM     20  C   UNL     1      26.432  22.436 -13.372  1.00  0.00     0.006 C 
BRANCH  20  21
ATOM     21  C   UNL     1      27.109  23.110 -12.167  1.00  0.00     0.053 C 
BRANCH  21  22
ATOM     22  C   UNL     1      26.139  23.396 -11.062  1.00  0.00     0.041 C 
ATOM     23  O   UNL     1      26.555  23.714  -9.917  1.00  0.00    -0.550 OA
ATOM     24  O   UNL     1      24.771  23.348 -11.308  1.00  0.00    -0.550 OA
ENDBRANCH  21  22
ENDBRANCH  20  21
ENDBRANCH  19  20
ENDBRANCH  18  19
ENDBRANCH  17  18
ENDBRANCH  16  17
ENDBRANCH  15  16
ENDBRANCH  14  15
ENDBRANCH  13  14
ENDBRANCH   1  13
TORSDOF 20
ENDMDL
MODEL 3
REMARK VINA RESULT:    -4.054      2.929      6.711
REMARK INTER + INTRA:         -12.365
REMARK INTER:                  -8.629
REMARK INTRA:                  -3.735
REMARK UNBOUND:                -3.571
REMARK SMILES CCCCCCCCCCCCCCCCCCCCCC(=O)[O-]
REMARK SMILES IDX 12 1 11 2 10 3 9 4 8 5 7 6 6 7 5 8 4 9 3 10 2 11 1 12 13 13
REMARK SMILES IDX 14 14 15 15 16 16 17 17 18 18 19 19 20 20 21 21 22 22 23 23
REMARK SMILES IDX 24 24
REMARK H PARENT
REMARK Flexibility Score: inf
ROOT
ATOM      1  C   UNL     1      26.975  29.153 -13.868  1.00  0.00     0.000 C 
ENDROOT
BRANCH   1   2
ATOM      2  C   UNL     1      26.048  29.390 -15.071  1.00  0.00     0.000 C 
BRANCH   2   3
ATOM      3  C   UNL     1      24.675  28.716 -14.898  1.00  0.00     0.000 C 
BRANCH   3   4
ATOM      4  C   UNL     1      23.517  29.724 -14.920  1.00  0.00    -0.000 C 
BRANCH   4   5
ATOM      5  C   UNL     1      23.863  31.006 -15.698  1.00  0.00    -0.000 C 
BRANCH   5   6
ATOM      6  C   UNL     1      23.545  32.284 -14.893  1.00  0.00    -0.000 C 
BRANCH   6   7
ATOM      7  C   UNL     1      24.645  32.673 -13.883  1.00  0.00    -0.000 C 
BRANCH   7   8
ATOM      8  C   UNL     1      24.199  32.682 -12.412  1.00  0.00    -0.000 C 
BRANCH   8   9
ATOM      9  C   UNL     1      24.507  31.361 -11.689  1.00  0.00    -0.000 C 
BRANCH   9  10
ATOM     10  C   UNL     1      23.212  30.607 -11.356  1.00  0.00    -0.000 C 
BRANCH  10  11
ATOM     11  C   UNL     1      21.960  31.484 -11.515  1.00  0.00    -0.003 C 
ATOM     12  C   UNL     1      20.954  30.907 -12.512  1.00  0.00     0.004 C 
ENDBRANCH  10  11
ENDBRANCH   9  10
ENDBRANCH   8   9
ENDBRANCH   7   8
ENDBRANCH   6   7
ENDBRANCH   5   6
ENDBRANCH   4   5
ENDBRANCH   3   4
ENDBRANCH   2   3
ENDBRANCH   1   2
BRANCH   1  13
ATOM     13  C   UNL     1      27.575  30.461 -13.320  1.00  0.00     0.000 C 
BRANCH  13  14
ATOM     14  C   UNL     1      29.052  30.311 -12.921  1.00  0.00     0.000 C 
BRANCH  14  15
ATOM     15  C   UNL     1      29.238  30.149 -11.403  1.00  0.00     0.000 C 
BRANCH  15  16
ATOM     16  C   UNL     1      27.932  30.357 -10.620  1.00  0.00     0.000 C 
BRANCH  16  17
ATOM     17  C   UNL     1      27.622  29.198  -9.656  1.00  0.00     0.000 C 
BRANCH  17  18
ATOM     18  C   UNL     1      26.109  28.904  -9.567  1.00  0.00     0.000 C 
BRANCH  18  19
ATOM     19  C   UNL     1      25.596  27.959 -10.671  1.00  0.00     0.000 C 
BRANCH  19  20
ATOM     20  C   UNL     1      26.673  27.056 -11.302  1.00  0.00     0.006 C 
BRANCH  20  21
ATOM     21  C   UNL     1      26.214  25.611 -11.562  1.00  0.00     0.053 C 
BRANCH  21  22
ATOM     22  C   UNL     1      27.039  24.939 -12.616  1.00  0.00     0.041 C 
ATOM     23  O   UNL     1      27.526  23.796 -12.410  1.00  0.00    -0.550 OA
ATOM     24  O   UNL     1      27.239  25.561 -13.844  1.00  0.00    -0.550 OA
ENDBRANCH  21  22
ENDBRANCH  20  21
ENDBRANCH  19  20
ENDBRANCH  18  19
ENDBRANCH  17  18
ENDBRANCH  16  17
ENDBRANCH  15  16
ENDBRANCH  14  15
ENDBRANCH  13  14
ENDBRANCH   1  13
TORSDOF 20
ENDMDL
MODEL 4
REMARK VINA RESULT:    -3.939      3.239      6.862
REMARK INTER + INTRA:         -12.114
REMARK INTER:                  -8.895
REMARK INTRA:                  -3.219
REMARK UNBOUND:                -3.571
REMARK SMILES CCCCCCCCCCCCCCCCCCCCCC(=O)[O-]
REMARK SMILES IDX 12 1 11 2 10 3 9 4 8 5 7 6 6 7 5 8 4 9 3 10 2 11 1 12 13 13
REMARK SMILES IDX 14 14 15 15 16 16 17 17 18 18 19 19 20 20 21 21 22 22 23 23
REMARK SMILES IDX 24 24
REMARK H PARENT
REMARK Flexibility Score: inf
ROOT
ATOM      1  C   UNL     1      29.142  30.124 -11.532  1.00  0.00     0.000 C 
ENDROOT
BRANCH   1   2
ATOM      2  C   UNL     1      28.978  30.238 -13.055  1.00  0.00     0.000 C 
BRANCH   2   3
ATOM      3  C   UNL     1      27.518  30.490 -13.473  1.00  0.00     0.000 C 
BRANCH   3   4
ATOM      4  C   UNL     1      27.298  30.309 -14.983  1.00  0.00    -0.000 C 
BRANCH   4   5
ATOM      5  C   UNL     1      26.284  29.195 -15.303  1.00  0.00    -0.000 C 
BRANCH   5   6
ATOM      6  C   UNL     1      24.900  29.757 -15.694  1.00  0.00    -0.000 C 
BRANCH   6   7
ATOM      7  C   UNL     1      23.835  29.613 -14.588  1.00  0.00    -0.000 C 
BRANCH   7   8
ATOM      8  C   UNL     1      22.627  30.553 -14.726  1.00  0.00    -0.000 C 
BRANCH   8   9
ATOM      9  C   UNL     1      22.572  31.618 -13.620  1.00  0.00    -0.000 C 
BRANCH   9  10
ATOM     10  C   UNL     1      23.950  32.262 -13.413  1.00  0.00    -0.000 C 
BRANCH  10  11
ATOM     11  C   UNL     1      24.512  32.015 -12.004  1.00  0.00    -0.003 C 
ATOM     12  C   UNL     1      23.433  31.615 -10.997  1.00  0.00     0.004 C 
ENDBRANCH  10  11
ENDBRANCH   9  10
ENDBRANCH   8   9
ENDBRANCH   7   8
ENDBRANCH   6   7
ENDBRANCH   5   6
ENDBRANCH   4   5
ENDBRANCH   3   4
ENDBRANCH   2   3
ENDBRANCH   1   2
BRANCH   1  13
ATOM     13  C   UNL     1      27.819  30.349 -10.778  1.00  0.00     0.000 C 
BRANCH  13  14
ATOM     14  C   UNL     1      27.247  29.050 -10.188  1.00  0.00     0.000 C 
BRANCH  14  15
ATOM     15  C   UNL     1      25.789  28.803 -10.611  1.00  0.00     0.000 C 
BRANCH  15  16
ATOM     16  C   UNL     1      25.674  27.869 -11.825  1.00  0.00     0.000 C 
BRANCH  16  17
ATOM     17  C   UNL     1      26.903  26.959 -12.000  1.00  0.00     0.000 C 
BRANCH  17  18
ATOM     18  C   UNL     1      26.983  26.353 -13.417  1.00  0.00     0.000 C 
BRANCH  18  19
ATOM     19  C   UNL     1      25.809  25.413 -13.755  1.00  0.00     0.000 C 
BRANCH  19  20
ATOM     20  C   UNL     1      26.207  24.114 -14.481  1.00  0.00     0.006 C 
BRANCH  20  21
ATOM     21  C   UNL     1      26.190  22.860 -13.590  1.00  0.00     0.053 C 
BRANCH  21  22
ATOM     22  C   UNL     1      27.348  22.827 -12.641  1.00  0.00     0.041 C 
ATOM     23  O   UNL     1      27.230  22.281 -11.512  1.00  0.00    -0.550 OA
ATOM     24  O   UNL     1      28.573  23.366 -13.020  1.00  0.00    -0.550 OA
ENDBRANCH  21  22
ENDBRANCH  20  21
ENDBRANCH  19  20
ENDBRANCH  18  19
ENDBRANCH  17  18
ENDBRANCH  16  17
ENDBRANCH  15  16
ENDBRANCH  14  15
ENDBRANCH  13  14
ENDBRANCH   1  13
TORSDOF 20
ENDMDL
MODEL 5
REMARK VINA RESULT:    -3.904      3.384      7.322
REMARK INTER + INTRA:         -12.038
REMARK INTER:                  -8.480
REMARK INTRA:                  -3.558
REMARK UNBOUND:                -3.571
REMARK SMILES CCCCCCCCCCCCCCCCCCCCCC(=O)[O-]
REMARK SMILES IDX 12 1 11 2 10 3 9 4 8 5 7 6 6 7 5 8 4 9 3 10 2 11 1 12 13 13
REMARK SMILES IDX 14 14 15 15 16 16 17 17 18 18 19 19 20 20 21 21 22 22 23 23
REMARK SMILES IDX 24 24
REMARK H PARENT
REMARK Flexibility Score: inf
ROOT
ATOM      1  C   UNL     1      22.915  29.818 -15.008  1.00  0.00     0.000 C 
ENDROOT
BRANCH   1   2
ATOM      2  C   UNL     1      22.621  31.325 -15.031  1.00  0.00     0.000 C 
BRANCH   2   3
ATOM      3  C   UNL     1      23.810  32.150 -15.553  1.00  0.00     0.000 C 
BRANCH   3   4
ATOM      4  C   UNL     1      24.599  32.830 -14.423  1.00  0.00    -0.000 C 
BRANCH   4   5
ATOM      5  C   UNL     1      24.030  32.508 -13.029  1.00  0.00    -0.000 C 
BRANCH   5   6
ATOM      6  C   UNL     1      25.072  31.831 -12.114  1.00  0.00    -0.000 C 
BRANCH   6   7
ATOM      7  C   UNL     1      24.789  30.338 -11.846  1.00  0.00    -0.000 C 
BRANCH   7   8
ATOM      8  C   UNL     1      25.897  29.376 -12.304  1.00  0.00    -0.000 C 
BRANCH   8   9
ATOM      9  C   UNL     1      26.770  29.964 -13.424  1.00  0.00    -0.000 C 
BRANCH   9  10
ATOM     10  C   UNL     1      28.172  30.307 -12.899  1.00  0.00    -0.000 C 
BRANCH  10  11
ATOM     11  C   UNL     1      28.426  29.755 -11.488  1.00  0.00    -0.003 C 
ATOM     12  C   UNL     1      28.613  30.856 -10.444  1.00  0.00     0.004 C 
ENDBRANCH  10  11
ENDBRANCH   9  10
ENDBRANCH   8   9
ENDBRANCH   7   8
ENDBRANCH   6   7
ENDBRANCH   5   6
ENDBRANCH   4   5
ENDBRANCH   3   4
ENDBRANCH   2   3
ENDBRANCH   1   2
BRANCH   1  13
ATOM     13  C   UNL     1      23.974  29.408 -16.049  1.00  0.00     0.000 C 
BRANCH  13  14
ATOM     14  C   UNL     1      24.630  28.057 -15.723  1.00  0.00     0.000 C 
BRANCH  14  15
ATOM     15  C   UNL     1      23.909  27.310 -14.588  1.00  0.00     0.000 C 
BRANCH  15  16
ATOM     16  C   UNL     1      24.686  26.075 -14.104  1.00  0.00     0.000 C 
BRANCH  16  17
ATOM     17  C   UNL     1      26.129  26.029 -14.636  1.00  0.00     0.000 C 
BRANCH  17  18
ATOM     18  C   UNL     1      27.170  26.026 -13.497  1.00  0.00     0.000 C 
BRANCH  18  19
ATOM     19  C   UNL     1      26.561  25.780 -12.102  1.00  0.00     0.000 C 
BRANCH  19  20
ATOM     20  C   UNL     1      26.648  24.324 -11.606  1.00  0.00     0.006 C 
BRANCH  20  21
ATOM     21  C   UNL     1      27.412  23.379 -12.548  1.00  0.00     0.053 C 
BRANCH  21  22
ATOM     22  C   UNL     1      26.518  22.339 -13.150  1.00  0.00     0.041 C 
ATOM     23  O   UNL     1      25.843  22.601 -14.181  1.00  0.00    -0.550 OA
ATOM     24  O   UNL     1      26.459  21.066 -12.594  1.00  0.00    -0.550 OA
ENDBRANCH  21  22
ENDBRANCH  20  21
ENDBRANCH  19  20
ENDBRANCH  18  19
ENDBRANCH  17  18
ENDBRANCH  16  17
ENDBRANCH  15  16
ENDBRANCH  14  15
ENDBRANCH  13  14
ENDBRANCH   1  13
TORSDOF 20
ENDMDL
MODEL 6
REMARK VINA RESULT:    -3.838      3.684      8.026
REMARK INTER + INTRA:         -11.897
REMARK INTER:                  -9.136
REMARK INTRA:                  -2.761
REMARK UNBOUND:                -3.571
REMARK SMILES CCCCCCCCCCCCCCCCCCCCCC(=O)[O-]
REMARK SMILES IDX 12 1 11 2 10 3 9 4 8 5 7 6 6 7 5 8 4 9 3 10 2 11 1 12 13 13
REMARK SMILES IDX 14 14 15 15 16 16 17 17 18 18 19 19 20 20 21 21 22 22 23 23
REMARK SMILES IDX 24 24
REMARK H PARENT
REMARK Flexibility Score: inf
ROOT
ATOM      1  C   UNL     1      26.619  26.851 -11.498  1.00  0.00     0.000 C 
ENDROOT
BRANCH   1   2
ATOM      2  C   UNL     1      26.194  28.076 -10.673  1.00  0.00     0.000 C 
BRANCH   2   3
ATOM      3  C   UNL     1      27.396  28.839 -10.089  1.00  0.00     0.000 C 
BRANCH   3   4
ATOM      4  C   UNL     1      27.741  30.102 -10.892  1.00  0.00    -0.000 C 
BRANCH   4   5
ATOM      5  C   UNL     1      28.962  29.905 -11.809  1.00  0.00    -0.000 C 
BRANCH   5   6
ATOM      6  C   UNL     1      28.753  30.529 -13.205  1.00  0.00    -0.000 C 
BRANCH   6   7
ATOM      7  C   UNL     1      27.498  30.010 -13.937  1.00  0.00    -0.000 C 
BRANCH   7   8
ATOM      8  C   UNL     1      26.461  31.090 -14.288  1.00  0.00    -0.000 C 
BRANCH   8   9
ATOM      9  C   UNL     1      25.099  30.846 -13.620  1.00  0.00    -0.000 C 
BRANCH   9  10
ATOM     10  C   UNL     1      24.946  31.708 -12.359  1.00  0.00    -0.000 C 
BRANCH  10  11
ATOM     11  C   UNL     1      23.977  31.094 -11.337  1.00  0.00    -0.003 C 
ATOM     12  C   UNL     1      23.249  29.862 -11.876  1.00  0.00     0.004 C 
ENDBRANCH  10  11
ENDBRANCH   9  10
ENDBRANCH   8   9
ENDBRANCH   7   8
ENDBRANCH   6   7
ENDBRANCH   5   6
ENDBRANCH   4   5
ENDBRANCH   3   4
ENDBRANCH   2   3
ENDBRANCH   1   2
BRANCH   1  13
ATOM     13  C   UNL     1      26.265  26.993 -12.990  1.00  0.00     0.000 C 
BRANCH  13  14
ATOM     14  C   UNL     1      26.909  25.899 -13.856  1.00  0.00     0.000 C 
BRANCH  14  15
ATOM     15  C   UNL     1      27.328  24.668 -13.035  1.00  0.00     0.000 C 
BRANCH  15  16
ATOM     16  C   UNL     1      27.287  23.367 -13.853  1.00  0.00     0.000 C 
BRANCH  16  17
ATOM     17  C   UNL     1      25.855  22.924 -14.201  1.00  0.00     0.000 C 
BRANCH  17  18
ATOM     18  C   UNL     1      25.022  22.603 -12.941  1.00  0.00     0.000 C 
BRANCH  18  19
ATOM     19  C   UNL     1      24.834  21.094 -12.691  1.00  0.00     0.000 C 
BRANCH  19  20
ATOM     20  C   UNL     1      26.134  20.317 -12.415  1.00  0.00     0.006 C 
BRANCH  20  21
ATOM     21  C   UNL     1      26.570  20.316 -10.939  1.00  0.00     0.053 C 
BRANCH  21  22
ATOM     22  C   UNL     1      27.615  21.353 -10.660  1.00  0.00     0.041 C 
ATOM     23  O   UNL     1      28.698  21.353 -11.303  1.00  0.00    -0.550 OA
ATOM     24  O   UNL     1      27.376  22.343  -9.713  1.00  0.00    -0.550 OA
ENDBRANCH  21  22
ENDBRANCH  20  21
ENDBRANCH  19  20
ENDBRANCH  18  19
ENDBRANCH  17  18
ENDBRANCH  16  17
ENDBRANCH  15  16
ENDBRANCH  14  15
ENDBRANCH  13  14
ENDBRANCH   1  13
TORSDOF 20
ENDMDL
MODEL 7
REMARK VINA RESULT:    -3.809      3.011      6.526
REMARK INTER + INTRA:         -11.832
REMARK INTER:                  -7.790
REMARK INTRA:                  -4.042
REMARK UNBOUND:                -3.571
REMARK SMILES CCCCCCCCCCCCCCCCCCCCCC(=O)[O-]
REMARK SMILES IDX 12 1 11 2 10 3 9 4 8 5 7 6 6 7 5 8 4 9 3 10 2 11 1 12 13 13
REMARK SMILES IDX 14 14 15 15 16 16 17 17 18 18 19 19 20 20 21 21 22 22 23 23
REMARK SMILES IDX 24 24
REMARK H PARENT
REMARK Flexibility Score: inf
ROOT
ATOM      1  C   UNL     1      27.802  30.131 -10.733  1.00  0.00     0.000 C 
ENDROOT
BRANCH   1   2
ATOM      2  C   UNL     1      29.078  30.185 -11.589  1.00  0.00     0.000 C 
BRANCH   2   3
ATOM      3  C   UNL     1      28.774  30.315 -13.092  1.00  0.00     0.000 C 
BRANCH   3   4
ATOM      4  C   UNL     1      27.276  30.504 -13.376  1.00  0.00    -0.000 C 
BRANCH   4   5
ATOM      5  C   UNL     1      26.924  30.286 -14.859  1.00  0.00    -0.000 C 
BRANCH   5   6
ATOM      6  C   UNL     1      26.186  28.951 -15.096  1.00  0.00    -0.000 C 
BRANCH   6   7
ATOM      7  C   UNL     1      24.823  29.110 -15.801  1.00  0.00    -0.000 C 
BRANCH   7   8
ATOM      8  C   UNL     1      24.233  30.529 -15.755  1.00  0.00    -0.000 C 
BRANCH   8   9
ATOM      9  C   UNL     1      22.805  30.561 -15.187  1.00  0.00    -0.000 C 
BRANCH   9  10
ATOM     10  C   UNL     1      22.712  31.529 -14.000  1.00  0.00    -0.000 C 
BRANCH  10  11
ATOM     11  C   UNL     1      23.976  32.387 -13.836  1.00  0.00    -0.003 C 
ATOM     12  C   UNL     1      24.293  32.703 -12.374  1.00  0.00     0.004 C 
ENDBRANCH  10  11
ENDBRANCH   9  10
ENDBRANCH   8   9
ENDBRANCH   7   8
ENDBRANCH   6   7
ENDBRANCH   5   6
ENDBRANCH   4   5
ENDBRANCH   3   4
ENDBRANCH   2   3
ENDBRANCH   1   2
BRANCH   1  13
ATOM     13  C   UNL     1      27.620  28.772 -10.032  1.00  0.00     0.000 C 
BRANCH  13  14
ATOM     14  C   UNL     1      26.271  28.114 -10.364  1.00  0.00     0.000 C 
BRANCH  14  15
ATOM     15  C   UNL     1      25.087  28.822  -9.684  1.00  0.00     0.000 C 
BRANCH  15  16
ATOM     16  C   UNL     1      24.110  29.446 -10.694  1.00  0.00     0.000 C 
BRANCH  16  17
ATOM     17  C   UNL     1      24.271  28.874 -12.113  1.00  0.00     0.000 C 
BRANCH  17  18
ATOM     18  C   UNL     1      23.118  27.919 -12.491  1.00  0.00     0.000 C 
BRANCH  18  19
ATOM     19  C   UNL     1      23.557  26.739 -13.379  1.00  0.00     0.000 C 
BRANCH  19  20
ATOM     20  C   UNL     1      24.480  25.717 -12.689  1.00  0.00     0.006 C 
BRANCH  20  21
ATOM     21  C   UNL     1      25.927  25.718 -13.210  1.00  0.00     0.053 C 
BRANCH  21  22
ATOM     22  C   UNL     1      26.801  24.769 -12.448  1.00  0.00     0.041 C 
ATOM     23  O   UNL     1      26.604  24.571 -11.220  1.00  0.00    -0.550 OA
ATOM     24  O   UNL     1      27.812  24.075 -13.105  1.00  0.00    -0.550 OA
ENDBRANCH  21  22
ENDBRANCH  20  21
ENDBRANCH  19  20
ENDBRANCH  18  19
ENDBRANCH  17  18
ENDBRANCH  16  17
ENDBRANCH  15  16
ENDBRANCH  14  15
ENDBRANCH  13  14
ENDBRANCH   1  13
TORSDOF 20
ENDMDL
MODEL 8
REMARK VINA RESULT:    -3.782      3.021      6.687
REMARK INTER + INTRA:         -11.773
REMARK INTER:                  -7.663
REMARK INTRA:                  -4.110
REMARK UNBOUND:                -3.571
REMARK SMILES CCCCCCCCCCCCCCCCCCCCCC(=O)[O-]
REMARK SMILES IDX 12 1 11 2 10 3 9 4 8 5 7 6 6 7 5 8 4 9 3 10 2 11 1 12 13 13
REMARK SMILES IDX 14 14 15 15 16 16 17 17 18 18 19 19 20 20 21 21 22 22 23 23
REMARK SMILES IDX 24 24
REMARK H PARENT
REMARK Flexibility Score: inf
ROOT
ATOM      1  C   UNL     1      21.492  30.595 -13.368  1.00  0.00     0.000 C 
ENDROOT
BRANCH   1   2
ATOM      2  C   UNL     1      22.519  31.256 -12.436  1.00  0.00     0.000 C 
BRANCH   2   3
ATOM      3  C   UNL     1      23.415  30.227 -11.724  1.00  0.00     0.000 C 
BRANCH   3   4
ATOM      4  C   UNL     1      24.834  30.174 -12.311  1.00  0.00    -0.000 C 
BRANCH   4   5
ATOM      5  C   UNL     1      25.256  31.505 -12.960  1.00  0.00    -0.000 C 
BRANCH   5   6
ATOM      6  C   UNL     1      25.902  31.301 -14.347  1.00  0.00    -0.000 C 
BRANCH   6   7
ATOM      7  C   UNL     1      26.993  30.211 -14.372  1.00  0.00    -0.000 C 
BRANCH   7   8
ATOM      8  C   UNL     1      28.271  30.558 -13.590  1.00  0.00    -0.000 C 
BRANCH   8   9
ATOM      9  C   UNL     1      28.631  29.498 -12.538  1.00  0.00    -0.000 C 
BRANCH   9  10
ATOM     10  C   UNL     1      29.216  30.155 -11.280  1.00  0.00    -0.000 C 
BRANCH  10  11
ATOM     11  C   UNL     1      28.135  30.548 -10.261  1.00  0.00    -0.003 C 
ATOM     12  C   UNL     1      27.381  29.342  -9.701  1.00  0.00     0.004 C 
ENDBRANCH  10  11
ENDBRANCH   9  10
ENDBRANCH   8   9
ENDBRANCH   7   8
ENDBRANCH   6   7
ENDBRANCH   5   6
ENDBRANCH   4   5
ENDBRANCH   3   4
ENDBRANCH   2   3
ENDBRANCH   1   2
BRANCH   1  13
ATOM     13  C   UNL     1      21.639  31.056 -14.830  1.00  0.00     0.000 C 
BRANCH  13  14
ATOM     14  C   UNL     1      22.706  30.256 -15.596  1.00  0.00     0.000 C 
BRANCH  14  15
ATOM     15  C   UNL     1      22.776  28.786 -15.147  1.00  0.00     0.000 C 
BRANCH  15  16
ATOM     16  C   UNL     1      24.084  28.099 -15.570  1.00  0.00     0.000 C 
BRANCH  16  17
ATOM     17  C   UNL     1      24.658  27.180 -14.477  1.00  0.00     0.000 C 
BRANCH  17  18
ATOM     18  C   UNL     1      26.123  26.784 -14.759  1.00  0.00     0.000 C 
BRANCH  18  19
ATOM     19  C   UNL     1      26.924  26.432 -13.491  1.00  0.00     0.000 C 
BRANCH  19  20
ATOM     20  C   UNL     1      26.177  26.673 -12.166  1.00  0.00     0.006 C 
BRANCH  20  21
ATOM     21  C   UNL     1      26.255  25.501 -11.172  1.00  0.00     0.053 C 
BRANCH  21  22
ATOM     22  C   UNL     1      25.754  24.222 -11.769  1.00  0.00     0.041 C 
ATOM     23  O   UNL     1      26.381  23.146 -11.584  1.00  0.00    -0.550 OA
ATOM     24  O   UNL     1      24.572  24.212 -12.500  1.00  0.00    -0.550 OA
ENDBRANCH  21  22
ENDBRANCH  20  21
ENDBRANCH  19  20
ENDBRANCH  18  19
ENDBRANCH  17  18
ENDBRANCH  16  17
ENDBRANCH  15  16
ENDBRANCH  14  15
ENDBRANCH  13  14
ENDBRANCH   1  13
TORSDOF 20
ENDMDL
MODEL 9
REMARK VINA RESULT:    -3.759      3.723      7.117
REMARK INTER + INTRA:         -11.724
REMARK INTER:                  -8.477
REMARK INTRA:                  -3.247
REMARK UNBOUND:                -3.571
REMARK SMILES CCCCCCCCCCCCCCCCCCCCCC(=O)[O-]
REMARK SMILES IDX 12 1 11 2 10 3 9 4 8 5 7 6 6 7 5 8 4 9 3 10 2 11 1 12 13 13
REMARK SMILES IDX 14 14 15 15 16 16 17 17 18 18 19 19 20 20 21 21 22 22 23 23
REMARK SMILES IDX 24 24
REMARK H PARENT
REMARK Flexibility Score: inf
ROOT
ATOM      1  C   UNL     1      23.030  29.881 -11.091  1.00  0.00     0.000 C 
ENDROOT
BRANCH   1   2
ATOM      2  C   UNL     1      23.518  31.333 -10.964  1.00  0.00     0.000 C 
BRANCH   2   3
ATOM      3  C   UNL     1      24.709  31.638 -11.890  1.00  0.00     0.000 C 
BRANCH   3   4
ATOM      4  C   UNL     1      24.382  32.714 -12.935  1.00  0.00    -0.000 C 
BRANCH   4   5
ATOM      5  C   UNL     1      24.942  32.375 -14.328  1.00  0.00    -0.000 C 
BRANCH   5   6
ATOM      6  C   UNL     1      24.474  30.990 -14.826  1.00  0.00    -0.000 C 
BRANCH   6   7
ATOM      7  C   UNL     1      25.620  29.973 -15.002  1.00  0.00    -0.000 C 
BRANCH   7   8
ATOM      8  C   UNL     1      27.002  30.470 -14.548  1.00  0.00    -0.000 C 
BRANCH   8   9
ATOM      9  C   UNL     1      27.551  29.687 -13.345  1.00  0.00    -0.000 C 
BRANCH   9  10
ATOM     10  C   UNL     1      28.856  30.315 -12.834  1.00  0.00    -0.000 C 
BRANCH  10  11
ATOM     11  C   UNL     1      29.040  30.143 -11.319  1.00  0.00    -0.003 C 
ATOM     12  C   UNL     1      27.739  29.783 -10.600  1.00  0.00     0.004 C 
ENDBRANCH  10  11
ENDBRANCH   9  10
ENDBRANCH   8   9
ENDBRANCH   7   8
ENDBRANCH   6   7
ENDBRANCH   5   6
ENDBRANCH   4   5
ENDBRANCH   3   4
ENDBRANCH   2   3
ENDBRANCH   1   2
BRANCH   1  13
ATOM     13  C   UNL     1      24.111  28.944 -11.659  1.00  0.00     0.000 C 
BRANCH  13  14
ATOM     14  C   UNL     1      23.562  27.991 -12.733  1.00  0.00     0.000 C 
BRANCH  14  15
ATOM     15  C   UNL     1      24.438  26.740 -12.915  1.00  0.00     0.000 C 
BRANCH  15  16
ATOM     16  C   UNL     1      24.745  26.441 -14.391  1.00  0.00     0.000 C 
BRANCH  16  17
ATOM     17  C   UNL     1      26.228  26.114 -14.640  1.00  0.00     0.000 C 
BRANCH  17  18
ATOM     18  C   UNL     1      27.006  25.901 -13.323  1.00  0.00     0.000 C 
BRANCH  18  19
ATOM     19  C   UNL     1      27.633  24.498 -13.195  1.00  0.00     0.000 C 
BRANCH  19  20
ATOM     20  C   UNL     1      26.858  23.375 -13.910  1.00  0.00     0.006 C 
BRANCH  20  21
ATOM     21  C   UNL     1      25.828  22.654 -13.024  1.00  0.00     0.053 C 
BRANCH  21  22
ATOM     22  C   UNL     1      26.385  21.402 -12.417  1.00  0.00     0.041 C 
ATOM     23  O   UNL     1      25.800  20.300 -12.586  1.00  0.00    -0.550 OA
ATOM     24  O   UNL     1      27.572  21.449 -11.695  1.00  0.00    -0.550 OA
ENDBRANCH  21  22
ENDBRANCH  20  21
ENDBRANCH  19  20
ENDBRANCH  18  19
ENDBRANCH  17  18
ENDBRANCH  16  17
ENDBRANCH  15  16
ENDBRANCH  14  15
ENDBRANCH  13  14
ENDBRANCH   1  13
TORSDOF 20
ENDMDL
