MODEL 1
REMARK VINA RESULT:    -4.652      0.000      0.000
REMARK INTER + INTRA:          -9.716
REMARK INTER:                  -8.459
REMARK INTRA:                  -1.258
REMARK UNBOUND:                -1.258
REMARK SMILES CCCCCCCCCCCCCCCC(=O)[O-]
REMARK SMILES IDX 9 1 10 2 11 3 12 4 13 5 14 6 15 7 16 8 17 9 18 10 8 11 7 12
REMARK SMILES IDX 6 13 5 14 4 15 3 16 2 17 1 18
REMARK H PARENT
REMARK Flexibility Score: inf
ROOT
ATOM      1  C   UNL     1       0.094  61.450  24.089  1.00  0.00     0.000 C 
ENDROOT
BRANCH   1   2
ATOM      2  C   UNL     1       0.826  60.099  24.072  1.00  0.00     0.000 C 
BRANCH   2   3
ATOM      3  C   UNL     1       0.434  59.200  25.254  1.00  0.00     0.000 C 
BRANCH   3   4
ATOM      4  C   UNL     1       0.136  57.769  24.781  1.00  0.00     0.000 C 
BRANCH   4   5
ATOM      5  C   UNL     1       0.353  57.578  23.268  1.00  0.00     0.000 C 
BRANCH   5   6
ATOM      6  C   UNL     1       1.475  56.594  22.892  1.00  0.00     0.006 C 
BRANCH   6   7
ATOM      7  C   UNL     1       2.403  57.134  21.797  1.00  0.00     0.053 C 
BRANCH   7   8
ATOM      8  C   UNL     1       3.300  58.196  22.349  1.00  0.00     0.041 C 
ATOM      9  O   UNL     1       3.650  59.167  21.628  1.00  0.00    -0.550 OA
ATOM     10  O   UNL     1       3.791  58.088  23.644  1.00  0.00    -0.550 OA
ENDBRANCH   7   8
ENDBRANCH   6   7
ENDBRANCH   5   6
ENDBRANCH   4   5
ENDBRANCH   3   4
ENDBRANCH   2   3
ENDBRANCH   1   2
BRANCH   1  11
ATOM     11  C   UNL     1      -1.163  61.455  23.201  1.00  0.00     0.000 C 
BRANCH  11  12
ATOM     12  C   UNL     1      -1.712  62.869  22.962  1.00  0.00    -0.000 C 
BRANCH  12  13
ATOM     13  C   UNL     1      -0.696  63.965  23.317  1.00  0.00    -0.000 C 
BRANCH  13  14
ATOM     14  C   UNL     1      -1.390  65.319  23.508  1.00  0.00    -0.000 C 
BRANCH  14  15
ATOM     15  C   UNL     1      -1.558  66.044  22.165  1.00  0.00    -0.000 C 
BRANCH  15  16
ATOM     16  C   UNL     1      -3.029  66.342  21.832  1.00  0.00    -0.000 C 
BRANCH  16  17
ATOM     17  C   UNL     1      -3.998  65.784  22.885  1.00  0.00    -0.003 C 
ATOM     18  C   UNL     1      -4.847  64.655  22.306  1.00  0.00     0.004 C 
ENDBRANCH  16  17
ENDBRANCH  15  16
ENDBRANCH  14  15
ENDBRANCH  13  14
ENDBRANCH  12  13
ENDBRANCH  11  12
ENDBRANCH   1  11
TORSDOF 14
ENDMDL
MODEL 2
REMARK VINA RESULT:    -4.637      3.537      8.595
REMARK INTER + INTRA:          -9.689
REMARK INTER:                  -8.682
REMARK INTRA:                  -1.007
REMARK UNBOUND:                -1.258
REMARK SMILES CCCCCCCCCCCCCCCC(=O)[O-]
REMARK SMILES IDX 9 1 10 2 11 3 12 4 13 5 14 6 15 7 16 8 17 9 18 10 8 11 7 12
REMARK SMILES IDX 6 13 5 14 4 15 3 16 2 17 1 18
REMARK H PARENT
REMARK Flexibility Score: inf
ROOT
ATOM      1  C   UNL     1      -0.586  61.107  23.483  1.00  0.00     0.000 C 
ENDROOT
BRANCH   1   2
ATOM      2  C   UNL     1      -0.355  62.576  23.871  1.00  0.00     0.000 C 
BRANCH   2   3
ATOM      3  C   UNL     1      -1.211  63.546  23.043  1.00  0.00     0.000 C 
BRANCH   3   4
ATOM      4  C   UNL     1      -0.943  65.002  23.453  1.00  0.00     0.000 C 
BRANCH   4   5
ATOM      5  C   UNL     1      -1.185  66.004  22.308  1.00  0.00     0.000 C 
BRANCH   5   6
ATOM      6  C   UNL     1      -2.388  66.943  22.510  1.00  0.00     0.006 C 
BRANCH   6   7
ATOM      7  C   UNL     1      -3.503  66.314  23.355  1.00  0.00     0.053 C 
BRANCH   7   8
ATOM      8  C   UNL     1      -4.411  65.493  22.496  1.00  0.00     0.041 C 
ATOM      9  O   UNL     1      -4.916  65.989  21.454  1.00  0.00    -0.550 OA
ATOM     10  O   UNL     1      -4.739  64.196  22.871  1.00  0.00    -0.550 OA
ENDBRANCH   7   8
ENDBRANCH   6   7
ENDBRANCH   5   6
ENDBRANCH   4   5
ENDBRANCH   3   4
ENDBRANCH   2   3
ENDBRANCH   1   2
BRANCH   1  11
ATOM     11  C   UNL     1       0.545  60.182  23.969  1.00  0.00     0.000 C 
BRANCH  11  12
ATOM     12  C   UNL     1       0.111  59.282  25.135  1.00  0.00    -0.000 C 
BRANCH  12  13
ATOM     13  C   UNL     1       0.450  57.803  24.898  1.00  0.00    -0.000 C 
BRANCH  13  14
ATOM     14  C   UNL     1       0.317  57.439  23.414  1.00  0.00    -0.000 C 
BRANCH  14  15
ATOM     15  C   UNL     1       1.474  56.535  22.964  1.00  0.00    -0.000 C 
BRANCH  15  16
ATOM     16  C   UNL     1       2.313  57.162  21.839  1.00  0.00    -0.000 C 
BRANCH  16  17
ATOM     17  C   UNL     1       3.258  58.261  22.348  1.00  0.00    -0.003 C 
ATOM     18  C   UNL     1       3.817  57.910  23.724  1.00  0.00     0.004 C 
ENDBRANCH  16  17
ENDBRANCH  15  16
ENDBRANCH  14  15
ENDBRANCH  13  14
ENDBRANCH  12  13
ENDBRANCH  11  12
ENDBRANCH   1  11
TORSDOF 14
ENDMDL
MODEL 3
REMARK VINA RESULT:    -4.557      3.820      8.146
REMARK INTER + INTRA:          -9.545
REMARK INTER:                  -7.966
REMARK INTRA:                  -1.578
REMARK UNBOUND:                -1.258
REMARK SMILES CCCCCCCCCCCCCCCC(=O)[O-]
REMARK SMILES IDX 9 1 10 2 11 3 12 4 13 5 14 6 15 7 16 8 17 9 18 10 8 11 7 12
REMARK SMILES IDX 6 13 5 14 4 15 3 16 2 17 1 18
REMARK H PARENT
REMARK Flexibility Score: inf
ROOT
ATOM      1  C   UNL     1       0.577  57.049  23.867  1.00  0.00     0.000 C 
ENDROOT
BRANCH   1   2
ATOM      2  C   UNL     1       0.940  57.819  22.588  1.00  0.00     0.000 C 
BRANCH   2   3
ATOM      3  C   UNL     1       2.241  57.316  21.945  1.00  0.00     0.000 C 
BRANCH   3   4
ATOM      4  C   UNL     1       3.283  58.441  21.860  1.00  0.00     0.000 C 
BRANCH   4   5
ATOM      5  C   UNL     1       3.176  59.449  23.020  1.00  0.00     0.000 C 
BRANCH   5   6
ATOM      6  C   UNL     1       2.432  60.753  22.680  1.00  0.00     0.006 C 
BRANCH   6   7
ATOM      7  C   UNL     1       1.911  61.486  23.923  1.00  0.00     0.053 C 
BRANCH   7   8
ATOM      8  C   UNL     1       0.468  61.163  24.153  1.00  0.00     0.041 C 
ATOM      9  O   UNL     1      -0.315  61.032  23.175  1.00  0.00    -0.550 OA
ATOM     10  O   UNL     1      -0.023  61.055  25.448  1.00  0.00    -0.550 OA
ENDBRANCH   7   8
ENDBRANCH   6   7
ENDBRANCH   5   6
ENDBRANCH   4   5
ENDBRANCH   3   4
ENDBRANCH   2   3
ENDBRANCH   1   2
BRANCH   1  11
ATOM     11  C   UNL     1       1.162  57.697  25.135  1.00  0.00     0.000 C 
BRANCH  11  12
ATOM     12  C   UNL     1       2.613  57.268  25.401  1.00  0.00    -0.000 C 
BRANCH  12  13
ATOM     13  C   UNL     1       2.719  56.186  26.485  1.00  0.00    -0.000 C 
BRANCH  13  14
ATOM     14  C   UNL     1       3.108  54.833  25.876  1.00  0.00    -0.000 C 
BRANCH  14  15
ATOM     15  C   UNL     1       3.577  54.999  24.423  1.00  0.00    -0.000 C 
BRANCH  15  16
ATOM     16  C   UNL     1       3.356  53.732  23.581  1.00  0.00    -0.000 C 
BRANCH  16  17
ATOM     17  C   UNL     1       2.107  53.824  22.692  1.00  0.00    -0.003 C 
ATOM     18  C   UNL     1       2.474  53.697  21.215  1.00  0.00     0.004 C 
ENDBRANCH  16  17
ENDBRANCH  15  16
ENDBRANCH  14  15
ENDBRANCH  13  14
ENDBRANCH  12  13
ENDBRANCH  11  12
ENDBRANCH   1  11
TORSDOF 14
ENDMDL
MODEL 4
REMARK VINA RESULT:    -4.549     13.690     14.723
REMARK INTER + INTRA:          -9.530
REMARK INTER:                  -8.581
REMARK INTRA:                  -0.949
REMARK UNBOUND:                -1.258
REMARK SMILES CCCCCCCCCCCCCCCC(=O)[O-]
REMARK SMILES IDX 9 1 10 2 11 3 12 4 13 5 14 6 15 7 16 8 17 9 18 10 8 11 7 12
REMARK SMILES IDX 6 13 5 14 4 15 3 16 2 17 1 18
REMARK H PARENT
REMARK Flexibility Score: inf
ROOT
ATOM      1  C   UNL     1       2.508  48.186  24.039  1.00  0.00     0.000 C 
ENDROOT
BRANCH   1   2
ATOM      2  C   UNL     1       3.442  48.489  25.221  1.00  0.00     0.000 C 
BRANCH   2   3
ATOM      3  C   UNL     1       3.993  47.215  25.880  1.00  0.00     0.000 C 
BRANCH   3   4
ATOM      4  C   UNL     1       5.514  47.113  25.692  1.00  0.00     0.000 C 
BRANCH   4   5
ATOM      5  C   UNL     1       5.954  47.311  24.230  1.00  0.00     0.000 C 
BRANCH   5   6
ATOM      6  C   UNL     1       6.912  48.493  23.994  1.00  0.00     0.006 C 
BRANCH   6   7
ATOM      7  C   UNL     1       6.912  49.503  25.149  1.00  0.00     0.053 C 
BRANCH   7   8
ATOM      8  C   UNL     1       8.313  49.798  25.584  1.00  0.00     0.041 C 
ATOM      9  O   UNL     1       9.188  48.893  25.559  1.00  0.00    -0.550 OA
ATOM     10  O   UNL     1       8.640  51.059  26.066  1.00  0.00    -0.550 OA
ENDBRANCH   7   8
ENDBRANCH   6   7
ENDBRANCH   5   6
ENDBRANCH   4   5
ENDBRANCH   3   4
ENDBRANCH   2   3
ENDBRANCH   1   2
BRANCH   1  11
ATOM     11  C   UNL     1       1.602  46.969  24.297  1.00  0.00     0.000 C 
BRANCH  11  12
ATOM     12  C   UNL     1       0.271  47.052  23.536  1.00  0.00    -0.000 C 
BRANCH  12  13
ATOM     13  C   UNL     1       0.344  47.983  22.317  1.00  0.00    -0.000 C 
BRANCH  13  14
ATOM     14  C   UNL     1       0.092  47.209  21.017  1.00  0.00    -0.000 C 
BRANCH  14  15
ATOM     15  C   UNL     1       1.368  47.132  20.166  1.00  0.00    -0.000 C 
BRANCH  15  16
ATOM     16  C   UNL     1       2.628  46.875  21.009  1.00  0.00    -0.000 C 
BRANCH  16  17
ATOM     17  C   UNL     1       3.609  48.056  20.980  1.00  0.00    -0.003 C 
ATOM     18  C   UNL     1       5.056  47.567  20.976  1.00  0.00     0.004 C 
ENDBRANCH  16  17
ENDBRANCH  15  16
ENDBRANCH  14  15
ENDBRANCH  13  14
ENDBRANCH  12  13
ENDBRANCH  11  12
ENDBRANCH   1  11
TORSDOF 14
ENDMDL
MODEL 5
REMARK VINA RESULT:    -4.493      0.594      1.334
REMARK INTER + INTRA:          -9.427
REMARK INTER:                  -8.253
REMARK INTRA:                  -1.174
REMARK UNBOUND:                -1.258
REMARK SMILES CCCCCCCCCCCCCCCC(=O)[O-]
REMARK SMILES IDX 9 1 10 2 11 3 12 4 13 5 14 6 15 7 16 8 17 9 18 10 8 11 7 12
REMARK SMILES IDX 6 13 5 14 4 15 3 16 2 17 1 18
REMARK H PARENT
REMARK Flexibility Score: inf
ROOT
ATOM      1  C   UNL     1      -1.036  61.629  23.176  1.00  0.00     0.000 C 
ENDROOT
BRANCH   1   2
ATOM      2  C   UNL     1       0.123  61.562  24.183  1.00  0.00     0.000 C 
BRANCH   2   3
ATOM      3  C   UNL     1       0.834  60.201  24.177  1.00  0.00     0.000 C 
BRANCH   3   4
ATOM      4  C   UNL     1       0.137  59.213  25.125  1.00  0.00     0.000 C 
BRANCH   4   5
ATOM      5  C   UNL     1       0.436  57.741  24.785  1.00  0.00     0.000 C 
BRANCH   5   6
ATOM      6  C   UNL     1       0.500  57.421  23.281  1.00  0.00     0.006 C 
BRANCH   6   7
ATOM      7  C   UNL     1       1.794  56.702  22.877  1.00  0.00     0.053 C 
BRANCH   7   8
ATOM      8  C   UNL     1       2.940  57.664  22.854  1.00  0.00     0.041 C 
ATOM      9  O   UNL     1       3.142  58.384  21.841  1.00  0.00    -0.550 OA
ATOM     10  O   UNL     1       3.815  57.728  23.931  1.00  0.00    -0.550 OA
ENDBRANCH   7   8
ENDBRANCH   6   7
ENDBRANCH   5   6
ENDBRANCH   4   5
ENDBRANCH   3   4
ENDBRANCH   2   3
ENDBRANCH   1   2
BRANCH   1  11
ATOM     11  C   UNL     1      -1.576  63.057  22.989  1.00  0.00     0.000 C 
BRANCH  11  12
ATOM     12  C   UNL     1      -0.641  64.124  23.578  1.00  0.00    -0.000 C 
BRANCH  12  13
ATOM     13  C   UNL     1      -1.221  65.542  23.470  1.00  0.00    -0.000 C 
BRANCH  13  14
ATOM     14  C   UNL     1      -0.940  66.149  22.090  1.00  0.00    -0.000 C 
BRANCH  14  15
ATOM     15  C   UNL     1      -2.248  66.415  21.331  1.00  0.00    -0.000 C 
BRANCH  15  16
ATOM     16  C   UNL     1      -3.457  66.566  22.268  1.00  0.00    -0.000 C 
BRANCH  16  17
ATOM     17  C   UNL     1      -4.682  65.774  21.785  1.00  0.00    -0.003 C 
ATOM     18  C   UNL     1      -4.776  64.424  22.491  1.00  0.00     0.004 C 
ENDBRANCH  16  17
ENDBRANCH  15  16
ENDBRANCH  14  15
ENDBRANCH  13  14
ENDBRANCH  12  13
ENDBRANCH  11  12
ENDBRANCH   1  11
TORSDOF 14
ENDMDL
MODEL 6
REMARK VINA RESULT:    -4.442      1.878      2.796
REMARK INTER + INTRA:          -9.335
REMARK INTER:                  -8.349
REMARK INTRA:                  -0.987
REMARK UNBOUND:                -1.258
REMARK SMILES CCCCCCCCCCCCCCCC(=O)[O-]
REMARK SMILES IDX 9 1 10 2 11 3 12 4 13 5 14 6 15 7 16 8 17 9 18 10 8 11 7 12
REMARK SMILES IDX 6 13 5 14 4 15 3 16 2 17 1 18
REMARK H PARENT
REMARK Flexibility Score: inf
ROOT
ATOM      1  C   UNL     1      -0.102  61.499  24.131  1.00  0.00     0.000 C 
ENDROOT
BRANCH   1   2
ATOM      2  C   UNL     1       0.765  60.237  24.259  1.00  0.00     0.000 C 
BRANCH   2   3
ATOM      3  C   UNL     1       0.120  59.165  25.149  1.00  0.00     0.000 C 
BRANCH   3   4
ATOM      4  C   UNL     1       0.291  57.767  24.537  1.00  0.00     0.000 C 
BRANCH   4   5
ATOM      5  C   UNL     1       0.767  57.805  23.073  1.00  0.00     0.000 C 
BRANCH   5   6
ATOM      6  C   UNL     1       2.005  56.943  22.769  1.00  0.00     0.006 C 
BRANCH   6   7
ATOM      7  C   UNL     1       2.904  56.733  23.995  1.00  0.00     0.053 C 
BRANCH   7   8
ATOM      8  C   UNL     1       2.963  55.282  24.357  1.00  0.00     0.041 C 
ATOM      9  O   UNL     1       2.678  54.404  23.501  1.00  0.00    -0.550 OA
ATOM     10  O   UNL     1       3.285  54.902  25.654  1.00  0.00    -0.550 OA
ENDBRANCH   7   8
ENDBRANCH   6   7
ENDBRANCH   5   6
ENDBRANCH   4   5
ENDBRANCH   3   4
ENDBRANCH   2   3
ENDBRANCH   1   2
BRANCH   1  11
ATOM     11  C   UNL     1      -1.049  61.447  22.919  1.00  0.00     0.000 C 
BRANCH  11  12
ATOM     12  C   UNL     1      -2.022  62.635  22.879  1.00  0.00    -0.000 C 
BRANCH  12  13
ATOM     13  C   UNL     1      -1.315  63.985  23.064  1.00  0.00    -0.000 C 
BRANCH  13  14
ATOM     14  C   UNL     1      -2.192  65.140  22.566  1.00  0.00    -0.000 C 
BRANCH  14  15
ATOM     15  C   UNL     1      -1.390  66.447  22.490  1.00  0.00    -0.000 C 
BRANCH  15  16
ATOM     16  C   UNL     1      -0.076  66.383  23.285  1.00  0.00    -0.000 C 
BRANCH  16  17
ATOM     17  C   UNL     1       1.123  66.924  22.490  1.00  0.00    -0.003 C 
ATOM     18  C   UNL     1       0.761  67.125  21.021  1.00  0.00     0.004 C 
ENDBRANCH  16  17
ENDBRANCH  15  16
ENDBRANCH  14  15
ENDBRANCH  13  14
ENDBRANCH  12  13
ENDBRANCH  11  12
ENDBRANCH   1  11
TORSDOF 14
ENDMDL
MODEL 7
REMARK VINA RESULT:    -4.385      1.630      1.868
REMARK INTER + INTRA:          -9.232
REMARK INTER:                  -8.387
REMARK INTRA:                  -0.846
REMARK UNBOUND:                -1.258
REMARK SMILES CCCCCCCCCCCCCCCC(=O)[O-]
REMARK SMILES IDX 9 1 10 2 11 3 12 4 13 5 14 6 15 7 16 8 17 9 18 10 8 11 7 12
REMARK SMILES IDX 6 13 5 14 4 15 3 16 2 17 1 18
REMARK H PARENT
REMARK Flexibility Score: inf
ROOT
ATOM      1  C   UNL     1       0.008  61.412  23.887  1.00  0.00     0.000 C 
ENDROOT
BRANCH   1   2
ATOM      2  C   UNL     1      -0.064  60.506  25.126  1.00  0.00     0.000 C 
BRANCH   2   3
ATOM      3  C   UNL     1       0.240  59.036  24.801  1.00  0.00     0.000 C 
BRANCH   3   4
ATOM      4  C   UNL     1       0.615  58.866  23.321  1.00  0.00     0.000 C 
BRANCH   4   5
ATOM      5  C   UNL     1       0.860  57.398  22.927  1.00  0.00     0.000 C 
BRANCH   5   6
ATOM      6  C   UNL     1       2.336  57.023  22.702  1.00  0.00     0.006 C 
BRANCH   6   7
ATOM      7  C   UNL     1       3.207  57.250  23.944  1.00  0.00     0.053 C 
BRANCH   7   8
ATOM      8  C   UNL     1       3.059  56.109  24.901  1.00  0.00     0.041 C 
ATOM      9  O   UNL     1       3.124  54.922  24.486  1.00  0.00    -0.550 OA
ATOM     10  O   UNL     1       2.800  56.356  26.243  1.00  0.00    -0.550 OA
ENDBRANCH   7   8
ENDBRANCH   6   7
ENDBRANCH   5   6
ENDBRANCH   4   5
ENDBRANCH   3   4
ENDBRANCH   2   3
ENDBRANCH   1   2
BRANCH   1  11
ATOM     11  C   UNL     1      -1.364  61.610  23.218  1.00  0.00     0.000 C 
BRANCH  11  12
ATOM     12  C   UNL     1      -1.661  63.085  22.906  1.00  0.00    -0.000 C 
BRANCH  12  13
ATOM     13  C   UNL     1      -0.656  64.041  23.564  1.00  0.00    -0.000 C 
BRANCH  13  14
ATOM     14  C   UNL     1      -1.147  65.493  23.490  1.00  0.00    -0.000 C 
BRANCH  14  15
ATOM     15  C   UNL     1      -1.276  65.955  22.031  1.00  0.00    -0.000 C 
BRANCH  15  16
ATOM     16  C   UNL     1      -2.648  66.578  21.726  1.00  0.00    -0.000 C 
BRANCH  16  17
ATOM     17  C   UNL     1      -3.770  65.993  22.597  1.00  0.00    -0.003 C 
ATOM     18  C   UNL     1      -4.991  65.637  21.753  1.00  0.00     0.004 C 
ENDBRANCH  16  17
ENDBRANCH  15  16
ENDBRANCH  14  15
ENDBRANCH  13  14
ENDBRANCH  12  13
ENDBRANCH  11  12
ENDBRANCH   1  11
TORSDOF 14
ENDMDL
MODEL 8
REMARK VINA RESULT:    -4.330      3.705      8.753
REMARK INTER + INTRA:          -9.131
REMARK INTER:                  -8.217
REMARK INTRA:                  -0.914
REMARK UNBOUND:                -1.258
REMARK SMILES CCCCCCCCCCCCCCCC(=O)[O-]
REMARK SMILES IDX 9 1 10 2 11 3 12 4 13 5 14 6 15 7 16 8 17 9 18 10 8 11 7 12
REMARK SMILES IDX 6 13 5 14 4 15 3 16 2 17 1 18
REMARK H PARENT
REMARK Flexibility Score: inf
ROOT
ATOM      1  C   UNL     1      -1.362  61.411  23.118  1.00  0.00     0.000 C 
ENDROOT
BRANCH   1   2
ATOM      2  C   UNL     1      -1.581  62.918  22.914  1.00  0.00     0.000 C 
BRANCH   2   3
ATOM      3  C   UNL     1      -0.529  63.771  23.638  1.00  0.00     0.000 C 
BRANCH   3   4
ATOM      4  C   UNL     1      -0.942  65.250  23.662  1.00  0.00     0.000 C 
BRANCH   4   5
ATOM      5  C   UNL     1      -1.056  65.866  22.255  1.00  0.00     0.000 C 
BRANCH   5   6
ATOM      6  C   UNL     1      -2.436  66.456  21.913  1.00  0.00     0.006 C 
BRANCH   6   7
ATOM      7  C   UNL     1      -3.492  66.168  22.987  1.00  0.00     0.053 C 
BRANCH   7   8
ATOM      8  C   UNL     1      -4.653  65.433  22.394  1.00  0.00     0.041 C 
ATOM      9  O   UNL     1      -4.724  64.180  22.488  1.00  0.00    -0.550 OA
ATOM     10  O   UNL     1      -5.631  66.128  21.693  1.00  0.00    -0.550 OA
ENDBRANCH   7   8
ENDBRANCH   6   7
ENDBRANCH   5   6
ENDBRANCH   4   5
ENDBRANCH   3   4
ENDBRANCH   2   3
ENDBRANCH   1   2
BRANCH   1  11
ATOM     11  C   UNL     1       0.041  61.084  23.659  1.00  0.00     0.000 C 
BRANCH  11  12
ATOM     12  C   UNL     1       0.002  60.464  25.064  1.00  0.00    -0.000 C 
BRANCH  12  13
ATOM     13  C   UNL     1       0.258  58.949  25.049  1.00  0.00    -0.000 C 
BRANCH  13  14
ATOM     14  C   UNL     1       1.270  58.573  23.960  1.00  0.00    -0.000 C 
BRANCH  14  15
ATOM     15  C   UNL     1       0.745  57.416  23.098  1.00  0.00    -0.000 C 
BRANCH  15  16
ATOM     16  C   UNL     1       1.874  56.614  22.431  1.00  0.00    -0.000 C 
BRANCH  16  17
ATOM     17  C   UNL     1       2.425  55.503  23.337  1.00  0.00    -0.003 C 
ATOM     18  C   UNL     1       2.375  54.147  22.636  1.00  0.00     0.004 C 
ENDBRANCH  16  17
ENDBRANCH  15  16
ENDBRANCH  14  15
ENDBRANCH  13  14
ENDBRANCH  12  13
ENDBRANCH  11  12
ENDBRANCH   1  11
TORSDOF 14
ENDMDL
MODEL 9
REMARK VINA RESULT:    -4.321      1.384      2.400
REMARK INTER + INTRA:          -9.116
REMARK INTER:                  -8.117
REMARK INTRA:                  -0.999
REMARK UNBOUND:                -1.258
REMARK SMILES CCCCCCCCCCCCCCCC(=O)[O-]
REMARK SMILES IDX 9 1 10 2 11 3 12 4 13 5 14 6 15 7 16 8 17 9 18 10 8 11 7 12
REMARK SMILES IDX 6 13 5 14 4 15 3 16 2 17 1 18
REMARK H PARENT
REMARK Flexibility Score: inf
ROOT
ATOM      1  C   UNL     1      -0.284  61.532  24.424  1.00  0.00     0.000 C 
ENDROOT
BRANCH   1   2
ATOM      2  C   UNL     1       0.235  60.115  24.133  1.00  0.00     0.000 C 
BRANCH   2   3
ATOM      3  C   UNL     1       0.275  59.232  25.389  1.00  0.00     0.000 C 
BRANCH   3   4
ATOM      4  C   UNL     1       0.477  57.756  25.016  1.00  0.00     0.000 C 
BRANCH   4   5
ATOM      5  C   UNL     1       0.363  57.496  23.502  1.00  0.00     0.000 C 
BRANCH   5   6
ATOM      6  C   UNL     1       1.454  56.583  22.915  1.00  0.00     0.006 C 
BRANCH   6   7
ATOM      7  C   UNL     1       2.360  57.303  21.908  1.00  0.00     0.053 C 
BRANCH   7   8
ATOM      8  C   UNL     1       3.226  58.303  22.606  1.00  0.00     0.041 C 
ATOM      9  O   UNL     1       3.368  59.460  22.130  1.00  0.00    -0.550 OA
ATOM     10  O   UNL     1       3.917  57.942  23.756  1.00  0.00    -0.550 OA
ENDBRANCH   7   8
ENDBRANCH   6   7
ENDBRANCH   5   6
ENDBRANCH   4   5
ENDBRANCH   3   4
ENDBRANCH   2   3
ENDBRANCH   1   2
BRANCH   1  11
ATOM     11  C   UNL     1      -0.958  62.179  23.200  1.00  0.00     0.000 C 
BRANCH  11  12
ATOM     12  C   UNL     1      -0.886  63.713  23.229  1.00  0.00    -0.000 C 
BRANCH  12  13
ATOM     13  C   UNL     1      -2.222  64.374  22.861  1.00  0.00    -0.000 C 
BRANCH  13  14
ATOM     14  C   UNL     1      -2.086  65.901  22.812  1.00  0.00    -0.000 C 
BRANCH  14  15
ATOM     15  C   UNL     1      -0.616  66.326  22.938  1.00  0.00    -0.000 C 
BRANCH  15  16
ATOM     16  C   UNL     1      -0.112  67.091  21.703  1.00  0.00    -0.000 C 
BRANCH  16  17
ATOM     17  C   UNL     1       1.421  67.125  21.614  1.00  0.00    -0.003 C 
ATOM     18  C   UNL     1       2.057  66.806  22.964  1.00  0.00     0.004 C 
ENDBRANCH  16  17
ENDBRANCH  15  16
ENDBRANCH  14  15
ENDBRANCH  13  14
ENDBRANCH  12  13
ENDBRANCH  11  12
ENDBRANCH   1  11
TORSDOF 14
ENDMDL
