MODEL 1
REMARK VINA RESULT:     2.919      0.000      0.000
REMARK INTER + INTRA:           7.612
REMARK INTER:                   5.307
REMARK INTRA:                   2.305
REMARK UNBOUND:                 2.305
REMARK SMILES CCCCCCCCCCCCCCCC(=O)[O-]
REMARK SMILES IDX 9 1 10 2 11 3 12 4 13 5 14 6 15 7 16 8 17 9 18 10 8 11 7 12
REMARK SMILES IDX 6 13 5 14 4 15 3 16 2 17 1 18
REMARK H PARENT
REMARK Flexibility Score: inf
ROOT
ATOM      1  C   UNL     1     -38.253  22.271   8.106  1.00  0.00     0.000 C 
ENDROOT
BRANCH   1   2
ATOM      2  C   UNL     1     -39.768  22.515   7.970  1.00  0.00     0.000 C 
BRANCH   2   3
ATOM      3  C   UNL     1     -40.105  23.664   7.007  1.00  0.00     0.000 C 
BRANCH   3   4
ATOM      4  C   UNL     1     -38.960  24.684   6.869  1.00  0.00     0.000 C 
BRANCH   4   5
ATOM      5  C   UNL     1     -39.330  25.995   6.146  1.00  0.00     0.000 C 
BRANCH   5   6
ATOM      6  C   UNL     1     -40.122  25.820   4.835  1.00  0.00     0.006 C 
BRANCH   6   7
ATOM      7  C   UNL     1     -39.310  25.213   3.680  1.00  0.00     0.053 C 
BRANCH   7   8
ATOM      8  C   UNL     1     -38.766  23.863   4.029  1.00  0.00     0.041 C 
ATOM      9  O   UNL     1     -39.541  22.876   4.143  1.00  0.00    -0.550 OA
ATOM     10  O   UNL     1     -37.406  23.701   4.264  1.00  0.00    -0.550 OA
ENDBRANCH   7   8
ENDBRANCH   6   7
ENDBRANCH   5   6
ENDBRANCH   4   5
ENDBRANCH   3   4
ENDBRANCH   2   3
ENDBRANCH   1   2
BRANCH   1  11
ATOM     11  C   UNL     1     -37.365  23.511   7.879  1.00  0.00     0.000 C 
BRANCH  11  12
ATOM     12  C   UNL     1     -35.988  23.223   7.249  1.00  0.00    -0.000 C 
BRANCH  12  13
ATOM     13  C   UNL     1     -34.903  24.274   7.554  1.00  0.00    -0.000 C 
BRANCH  13  14
ATOM     14  C   UNL     1     -34.994  25.568   6.721  1.00  0.00    -0.000 C 
BRANCH  14  15
ATOM     15  C   UNL     1     -33.731  25.916   5.913  1.00  0.00    -0.000 C 
BRANCH  15  16
ATOM     16  C   UNL     1     -33.320  27.393   6.055  1.00  0.00    -0.000 C 
BRANCH  16  17
ATOM     17  C   UNL     1     -32.563  27.912   4.823  1.00  0.00    -0.003 C 
ATOM     18  C   UNL     1     -33.169  27.430   3.505  1.00  0.00     0.004 C 
ENDBRANCH  16  17
ENDBRANCH  15  16
ENDBRANCH  14  15
ENDBRANCH  13  14
ENDBRANCH  12  13
ENDBRANCH  11  12
ENDBRANCH   1  11
TORSDOF 14
ENDMDL
MODEL 2
REMARK VINA RESULT:     3.395      1.966      2.325
REMARK INTER + INTRA:           8.480
REMARK INTER:                   7.850
REMARK INTRA:                   0.630
REMARK UNBOUND:                 2.305
REMARK SMILES CCCCCCCCCCCCCCCC(=O)[O-]
REMARK SMILES IDX 9 1 10 2 11 3 12 4 13 5 14 6 15 7 16 8 17 9 18 10 8 11 7 12
REMARK SMILES IDX 6 13 5 14 4 15 3 16 2 17 1 18
REMARK H PARENT
REMARK Flexibility Score: inf
ROOT
ATOM      1  C   UNL     1     -39.248  21.933   7.239  1.00  0.00     0.000 C 
ENDROOT
BRANCH   1   2
ATOM      2  C   UNL     1     -39.386  22.145   5.720  1.00  0.00     0.000 C 
BRANCH   2   3
ATOM      3  C   UNL     1     -39.959  23.526   5.359  1.00  0.00     0.000 C 
BRANCH   3   4
ATOM      4  C   UNL     1     -40.123  24.444   6.584  1.00  0.00     0.000 C 
BRANCH   4   5
ATOM      5  C   UNL     1     -39.501  25.848   6.442  1.00  0.00     0.000 C 
BRANCH   5   6
ATOM      6  C   UNL     1     -40.101  26.720   5.320  1.00  0.00     0.006 C 
BRANCH   6   7
ATOM      7  C   UNL     1     -40.123  26.048   3.938  1.00  0.00     0.053 C 
BRANCH   7   8
ATOM      8  C   UNL     1     -39.811  27.018   2.841  1.00  0.00     0.041 C 
ATOM      9  O   UNL     1     -39.357  26.605   1.740  1.00  0.00    -0.550 OA
ATOM     10  O   UNL     1     -39.988  28.380   3.045  1.00  0.00    -0.550 OA
ENDBRANCH   7   8
ENDBRANCH   6   7
ENDBRANCH   5   6
ENDBRANCH   4   5
ENDBRANCH   3   4
ENDBRANCH   2   3
ENDBRANCH   1   2
BRANCH   1  11
ATOM     11  C   UNL     1     -38.410  22.995   7.978  1.00  0.00     0.000 C 
BRANCH  11  12
ATOM     12  C   UNL     1     -36.883  22.794   7.898  1.00  0.00    -0.000 C 
BRANCH  12  13
ATOM     13  C   UNL     1     -36.197  23.512   6.720  1.00  0.00    -0.000 C 
BRANCH  13  14
ATOM     14  C   UNL     1     -36.342  25.046   6.715  1.00  0.00    -0.000 C 
BRANCH  14  15
ATOM     15  C   UNL     1     -35.161  25.819   7.329  1.00  0.00    -0.000 C 
BRANCH  15  16
ATOM     16  C   UNL     1     -33.902  25.784   6.445  1.00  0.00    -0.000 C 
BRANCH  16  17
ATOM     17  C   UNL     1     -33.606  27.142   5.790  1.00  0.00    -0.003 C 
ATOM     18  C   UNL     1     -32.246  27.184   5.095  1.00  0.00     0.004 C 
ENDBRANCH  16  17
ENDBRANCH  15  16
ENDBRANCH  14  15
ENDBRANCH  13  14
ENDBRANCH  12  13
ENDBRANCH  11  12
ENDBRANCH   1  11
TORSDOF 14
ENDMDL
MODEL 3
REMARK VINA RESULT:     3.899      1.519      2.985
REMARK INTER + INTRA:           9.396
REMARK INTER:                  10.266
REMARK INTRA:                  -0.871
REMARK UNBOUND:                 2.305
REMARK SMILES CCCCCCCCCCCCCCCC(=O)[O-]
REMARK SMILES IDX 9 1 10 2 11 3 12 4 13 5 14 6 15 7 16 8 17 9 18 10 8 11 7 12
REMARK SMILES IDX 6 13 5 14 4 15 3 16 2 17 1 18
REMARK H PARENT
REMARK Flexibility Score: inf
ROOT
ATOM      1  C   UNL     1     -37.843  24.263   3.422  1.00  0.00     0.000 C 
ENDROOT
BRANCH   1   2
ATOM      2  C   UNL     1     -39.220  23.794   3.930  1.00  0.00     0.000 C 
BRANCH   2   3
ATOM      3  C   UNL     1     -40.089  24.949   4.453  1.00  0.00     0.000 C 
BRANCH   3   4
ATOM      4  C   UNL     1     -39.294  25.959   5.301  1.00  0.00     0.000 C 
BRANCH   4   5
ATOM      5  C   UNL     1     -39.148  25.594   6.793  1.00  0.00     0.000 C 
BRANCH   5   6
ATOM      6  C   UNL     1     -40.125  24.517   7.304  1.00  0.00     0.006 C 
BRANCH   6   7
ATOM      7  C   UNL     1     -39.462  23.397   8.122  1.00  0.00     0.053 C 
BRANCH   7   8
ATOM      8  C   UNL     1     -39.582  22.066   7.448  1.00  0.00     0.041 C 
ATOM      9  O   UNL     1     -39.250  21.014   8.057  1.00  0.00    -0.550 OA
ATOM     10  O   UNL     1     -40.026  21.990   6.134  1.00  0.00    -0.550 OA
ENDBRANCH   7   8
ENDBRANCH   6   7
ENDBRANCH   5   6
ENDBRANCH   4   5
ENDBRANCH   3   4
ENDBRANCH   2   3
ENDBRANCH   1   2
BRANCH   1  11
ATOM     11  C   UNL     1     -36.637  23.783   4.253  1.00  0.00     0.000 C 
BRANCH  11  12
ATOM     12  C   UNL     1     -36.963  23.375   5.704  1.00  0.00    -0.000 C 
BRANCH  12  13
ATOM     13  C   UNL     1     -36.116  24.081   6.780  1.00  0.00    -0.000 C 
BRANCH  13  14
ATOM     14  C   UNL     1     -35.417  25.374   6.318  1.00  0.00    -0.000 C 
BRANCH  14  15
ATOM     15  C   UNL     1     -34.143  25.745   7.099  1.00  0.00    -0.000 C 
BRANCH  15  16
ATOM     16  C   UNL     1     -32.935  26.004   6.183  1.00  0.00    -0.000 C 
BRANCH  16  17
ATOM     17  C   UNL     1     -33.003  27.375   5.494  1.00  0.00    -0.003 C 
ATOM     18  C   UNL     1     -33.328  27.277   4.003  1.00  0.00     0.004 C 
ENDBRANCH  16  17
ENDBRANCH  15  16
ENDBRANCH  14  15
ENDBRANCH  13  14
ENDBRANCH  12  13
ENDBRANCH  11  12
ENDBRANCH   1  11
TORSDOF 14
ENDMDL
MODEL 4
REMARK VINA RESULT:     4.117      2.537      5.750
REMARK INTER + INTRA:           9.792
REMARK INTER:                  10.390
REMARK INTRA:                  -0.598
REMARK UNBOUND:                 2.305
REMARK SMILES CCCCCCCCCCCCCCCC(=O)[O-]
REMARK SMILES IDX 9 1 10 2 11 3 12 4 13 5 14 6 15 7 16 8 17 9 18 10 8 11 7 12
REMARK SMILES IDX 6 13 5 14 4 15 3 16 2 17 1 18
REMARK H PARENT
REMARK Flexibility Score: inf
ROOT
ATOM      1  C   UNL     1     -38.055  22.019   7.950  1.00  0.00     0.000 C 
ENDROOT
BRANCH   1   2
ATOM      2  C   UNL     1     -37.080  23.208   8.036  1.00  0.00     0.000 C 
BRANCH   2   3
ATOM      3  C   UNL     1     -36.275  23.415   6.743  1.00  0.00     0.000 C 
BRANCH   3   4
ATOM      4  C   UNL     1     -35.819  24.873   6.550  1.00  0.00     0.000 C 
BRANCH   4   5
ATOM      5  C   UNL     1     -34.765  25.092   5.445  1.00  0.00     0.000 C 
BRANCH   5   6
ATOM      6  C   UNL     1     -33.306  24.830   5.869  1.00  0.00     0.006 C 
BRANCH   6   7
ATOM      7  C   UNL     1     -32.579  26.062   6.430  1.00  0.00     0.053 C 
BRANCH   7   8
ATOM      8  C   UNL     1     -33.183  27.340   5.937  1.00  0.00     0.041 C 
ATOM      9  O   UNL     1     -33.089  27.659   4.722  1.00  0.00    -0.550 OA
ATOM     10  O   UNL     1     -33.819  28.197   6.826  1.00  0.00    -0.550 OA
ENDBRANCH   7   8
ENDBRANCH   6   7
ENDBRANCH   5   6
ENDBRANCH   4   5
ENDBRANCH   3   4
ENDBRANCH   2   3
ENDBRANCH   1   2
BRANCH   1  11
ATOM     11  C   UNL     1     -39.545  22.376   8.125  1.00  0.00     0.000 C 
BRANCH  11  12
ATOM     12  C   UNL     1     -40.121  23.323   7.053  1.00  0.00    -0.000 C 
BRANCH  12  13
ATOM     13  C   UNL     1     -39.921  24.823   7.340  1.00  0.00    -0.000 C 
BRANCH  13  14
ATOM     14  C   UNL     1     -39.283  25.629   6.191  1.00  0.00    -0.000 C 
BRANCH  14  15
ATOM     15  C   UNL     1     -39.823  25.306   4.786  1.00  0.00    -0.000 C 
BRANCH  15  16
ATOM     16  C   UNL     1     -38.831  24.489   3.939  1.00  0.00    -0.000 C 
BRANCH  16  17
ATOM     17  C   UNL     1     -38.752  23.020   4.380  1.00  0.00    -0.003 C 
ATOM     18  C   UNL     1     -40.085  22.285   4.244  1.00  0.00     0.004 C 
ENDBRANCH  16  17
ENDBRANCH  15  16
ENDBRANCH  14  15
ENDBRANCH  13  14
ENDBRANCH  12  13
ENDBRANCH  11  12
ENDBRANCH   1  11
TORSDOF 14
ENDMDL
MODEL 5
REMARK VINA RESULT:     4.560      2.489      3.447
REMARK INTER + INTRA:          10.598
REMARK INTER:                  10.637
REMARK INTRA:                  -0.039
REMARK UNBOUND:                 2.305
REMARK SMILES CCCCCCCCCCCCCCCC(=O)[O-]
REMARK SMILES IDX 9 1 10 2 11 3 12 4 13 5 14 6 15 7 16 8 17 9 18 10 8 11 7 12
REMARK SMILES IDX 6 13 5 14 4 15 3 16 2 17 1 18
REMARK H PARENT
REMARK Flexibility Score: inf
ROOT
ATOM      1  C   UNL     1     -36.411  24.677   6.519  1.00  0.00     0.000 C 
ENDROOT
BRANCH   1   2
ATOM      2  C   UNL     1     -36.973  23.256   6.717  1.00  0.00     0.000 C 
BRANCH   2   3
ATOM      3  C   UNL     1     -37.802  23.116   8.004  1.00  0.00     0.000 C 
BRANCH   3   4
ATOM      4  C   UNL     1     -38.986  22.144   7.849  1.00  0.00     0.000 C 
BRANCH   4   5
ATOM      5  C   UNL     1     -39.966  22.476   6.705  1.00  0.00     0.000 C 
BRANCH   5   6
ATOM      6  C   UNL     1     -39.322  22.621   5.312  1.00  0.00     0.006 C 
BRANCH   6   7
ATOM      7  C   UNL     1     -40.125  23.489   4.330  1.00  0.00     0.053 C 
BRANCH   7   8
ATOM      8  C   UNL     1     -39.759  24.937   4.437  1.00  0.00     0.041 C 
ATOM      9  O   UNL     1     -39.581  25.625   3.397  1.00  0.00    -0.550 OA
ATOM     10  O   UNL     1     -39.580  25.518   5.686  1.00  0.00    -0.550 OA
ENDBRANCH   7   8
ENDBRANCH   6   7
ENDBRANCH   5   6
ENDBRANCH   4   5
ENDBRANCH   3   4
ENDBRANCH   2   3
ENDBRANCH   1   2
BRANCH   1  11
ATOM     11  C   UNL     1     -35.107  24.981   7.282  1.00  0.00     0.000 C 
BRANCH  11  12
ATOM     12  C   UNL     1     -34.480  26.357   6.982  1.00  0.00    -0.000 C 
BRANCH  12  13
ATOM     13  C   UNL     1     -33.380  26.346   5.902  1.00  0.00    -0.000 C 
BRANCH  13  14
ATOM     14  C   UNL     1     -32.295  25.267   6.086  1.00  0.00    -0.000 C 
BRANCH  14  15
ATOM     15  C   UNL     1     -31.269  25.552   7.198  1.00  0.00    -0.000 C 
BRANCH  15  16
ATOM     16  C   UNL     1     -30.108  24.543   7.212  1.00  0.00    -0.000 C 
BRANCH  16  17
ATOM     17  C   UNL     1     -28.803  25.142   6.665  1.00  0.00    -0.003 C 
ATOM     18  C   UNL     1     -28.350  26.383   7.435  1.00  0.00     0.004 C 
ENDBRANCH  16  17
ENDBRANCH  15  16
ENDBRANCH  14  15
ENDBRANCH  13  14
ENDBRANCH  12  13
ENDBRANCH  11  12
ENDBRANCH   1  11
TORSDOF 14
ENDMDL
