MODEL 1
REMARK VINA RESULT:    -3.133      0.000      0.000
REMARK INTER + INTRA:         -13.243
REMARK INTER:                  -7.894
REMARK INTRA:                  -5.349
REMARK UNBOUND:                -5.349
REMARK SMILES CCCCCCCCCCCCCCCCCCCCCCCCCCCC(=O)[O-]
REMARK SMILES IDX 15 1 16 2 17 3 18 4 19 5 20 6 21 7 22 8 23 9 24 10 25 11
REMARK SMILES IDX 26 12 27 13 28 14 29 15 30 16 14 17 13 18 12 19 11 20 10 21
REMARK SMILES IDX 9 22 8 23 7 24 6 25 5 26 4 27 3 28 2 29 1 30
REMARK H PARENT
REMARK Flexibility Score: inf
ROOT
ATOM      1  C   UNL     1      12.439   4.695  31.674  1.00  0.00     0.000 C 
ENDROOT
BRANCH   1   2
ATOM      2  C   UNL     1      12.318   5.383  30.306  1.00  0.00     0.000 C 
BRANCH   2   3
ATOM      3  C   UNL     1      12.304   4.381  29.140  1.00  0.00     0.000 C 
BRANCH   3   4
ATOM      4  C   UNL     1      13.032   3.066  29.494  1.00  0.00     0.000 C 
BRANCH   4   5
ATOM      5  C   UNL     1      13.475   2.257  28.263  1.00  0.00     0.000 C 
BRANCH   5   6
ATOM      6  C   UNL     1      12.763   2.698  26.974  1.00  0.00     0.000 C 
BRANCH   6   7
ATOM      7  C   UNL     1      13.655   2.594  25.722  1.00  0.00     0.000 C 
BRANCH   7   8
ATOM      8  C   UNL     1      13.501   3.736  24.700  1.00  0.00     0.000 C 
BRANCH   8   9
ATOM      9  C   UNL     1      13.103   5.075  25.344  1.00  0.00     0.000 C 
BRANCH   9  10
ATOM     10  C   UNL     1      14.315   5.985  25.608  1.00  0.00     0.000 C 
BRANCH  10  11
ATOM     11  C   UNL     1      14.621   6.145  27.109  1.00  0.00     0.000 C 
BRANCH  11  12
ATOM     12  C   UNL     1      15.752   5.218  27.594  1.00  0.00     0.006 C 
BRANCH  12  13
ATOM     13  C   UNL     1      16.040   5.319  29.102  1.00  0.00     0.053 C 
BRANCH  13  14
ATOM     14  C   UNL     1      17.478   5.063  29.432  1.00  0.00     0.041 C 
ATOM     15  O   UNL     1      17.832   4.888  30.627  1.00  0.00    -0.550 OA
ATOM     16  O   UNL     1      18.426   4.990  28.418  1.00  0.00    -0.550 OA
ENDBRANCH  13  14
ENDBRANCH  12  13
ENDBRANCH  11  12
ENDBRANCH  10  11
ENDBRANCH   9  10
ENDBRANCH   8   9
ENDBRANCH   7   8
ENDBRANCH   6   7
ENDBRANCH   5   6
ENDBRANCH   4   5
ENDBRANCH   3   4
ENDBRANCH   2   3
ENDBRANCH   1   2
BRANCH   1  17
ATOM     17  C   UNL     1      12.516   5.704  32.833  1.00  0.00     0.000 C 
BRANCH  17  18
ATOM     18  C   UNL     1      11.136   6.063  33.407  1.00  0.00     0.000 C 
BRANCH  18  19
ATOM     19  C   UNL     1      10.945   7.580  33.579  1.00  0.00     0.000 C 
BRANCH  19  20
ATOM     20  C   UNL     1      10.664   8.311  32.250  1.00  0.00     0.000 C 
BRANCH  20  21
ATOM     21  C   UNL     1       9.322   7.965  31.575  1.00  0.00     0.000 C 
BRANCH  21  22
ATOM     22  C   UNL     1       9.398   7.980  30.040  1.00  0.00    -0.000 C 
BRANCH  22  23
ATOM     23  C   UNL     1       8.792   6.700  29.445  1.00  0.00    -0.000 C 
BRANCH  23  24
ATOM     24  C   UNL     1       8.432   5.653  30.514  1.00  0.00    -0.000 C 
BRANCH  24  25
ATOM     25  C   UNL     1       8.895   4.214  30.208  1.00  0.00    -0.000 C 
BRANCH  25  26
ATOM     26  C   UNL     1       9.214   3.351  31.444  1.00  0.00    -0.000 C 
BRANCH  26  27
ATOM     27  C   UNL     1       9.771   1.952  31.128  1.00  0.00    -0.000 C 
BRANCH  27  28
ATOM     28  C   UNL     1       9.145   1.335  29.870  1.00  0.00    -0.000 C 
BRANCH  28  29
ATOM     29  C   UNL     1      10.205   0.622  29.022  1.00  0.00    -0.003 C 
ATOM     30  C   UNL     1      10.790  -0.576  29.764  1.00  0.00     0.004 C 
ENDBRANCH  28  29
ENDBRANCH  27  28
ENDBRANCH  26  27
ENDBRANCH  25  26
ENDBRANCH  24  25
ENDBRANCH  23  24
ENDBRANCH  22  23
ENDBRANCH  21  22
ENDBRANCH  20  21
ENDBRANCH  19  20
ENDBRANCH  18  19
ENDBRANCH  17  18
ENDBRANCH   1  17
TORSDOF 26
ENDMDL
MODEL 2
REMARK VINA RESULT:    -3.130      1.318      2.162
REMARK INTER + INTRA:         -13.236
REMARK INTER:                  -8.024
REMARK INTRA:                  -5.213
REMARK UNBOUND:                -5.349
REMARK SMILES CCCCCCCCCCCCCCCCCCCCCCCCCCCC(=O)[O-]
REMARK SMILES IDX 15 1 16 2 17 3 18 4 19 5 20 6 21 7 22 8 23 9 24 10 25 11
REMARK SMILES IDX 26 12 27 13 28 14 29 15 30 16 14 17 13 18 12 19 11 20 10 21
REMARK SMILES IDX 9 22 8 23 7 24 6 25 5 26 4 27 3 28 2 29 1 30
REMARK H PARENT
REMARK Flexibility Score: inf
ROOT
ATOM      1  C   UNL     1      12.079   3.547  33.893  1.00  0.00     0.000 C 
ENDROOT
BRANCH   1   2
ATOM      2  C   UNL     1      13.235   3.716  32.896  1.00  0.00     0.000 C 
BRANCH   2   3
ATOM      3  C   UNL     1      13.193   2.678  31.762  1.00  0.00     0.000 C 
BRANCH   3   4
ATOM      4  C   UNL     1      13.240   3.337  30.367  1.00  0.00     0.000 C 
BRANCH   4   5
ATOM      5  C   UNL     1      13.291   4.874  30.414  1.00  0.00     0.000 C 
BRANCH   5   6
ATOM      6  C   UNL     1      12.493   5.530  29.275  1.00  0.00     0.000 C 
BRANCH   6   7
ATOM      7  C   UNL     1      12.007   4.522  28.216  1.00  0.00     0.000 C 
BRANCH   7   8
ATOM      8  C   UNL     1      12.751   4.565  26.868  1.00  0.00     0.000 C 
BRANCH   8   9
ATOM      9  C   UNL     1      13.685   3.360  26.653  1.00  0.00     0.000 C 
BRANCH   9  10
ATOM     10  C   UNL     1      15.170   3.761  26.647  1.00  0.00     0.000 C 
BRANCH  10  11
ATOM     11  C   UNL     1      15.378   5.272  26.858  1.00  0.00     0.000 C 
BRANCH  11  12
ATOM     12  C   UNL     1      16.115   5.599  28.171  1.00  0.00     0.006 C 
BRANCH  12  13
ATOM     13  C   UNL     1      17.437   4.833  28.353  1.00  0.00     0.053 C 
BRANCH  13  14
ATOM     14  C   UNL     1      18.120   5.163  29.644  1.00  0.00     0.041 C 
ATOM     15  O   UNL     1      17.596   4.835  30.740  1.00  0.00    -0.550 OA
ATOM     16  O   UNL     1      19.351   5.808  29.640  1.00  0.00    -0.550 OA
ENDBRANCH  13  14
ENDBRANCH  12  13
ENDBRANCH  11  12
ENDBRANCH  10  11
ENDBRANCH   9  10
ENDBRANCH   8   9
ENDBRANCH   7   8
ENDBRANCH   6   7
ENDBRANCH   5   6
ENDBRANCH   4   5
ENDBRANCH   3   4
ENDBRANCH   2   3
ENDBRANCH   1   2
BRANCH   1  17
ATOM     17  C   UNL     1      11.665   4.880  34.541  1.00  0.00     0.000 C 
BRANCH  17  18
ATOM     18  C   UNL     1      11.905   6.090  33.626  1.00  0.00     0.000 C 
BRANCH  18  19
ATOM     19  C   UNL     1      10.797   7.152  33.749  1.00  0.00     0.000 C 
BRANCH  19  20
ATOM     20  C   UNL     1      10.819   8.187  32.605  1.00  0.00     0.000 C 
BRANCH  20  21
ATOM     21  C   UNL     1       9.542   8.249  31.743  1.00  0.00     0.000 C 
BRANCH  21  22
ATOM     22  C   UNL     1       9.765   7.772  30.300  1.00  0.00    -0.000 C 
BRANCH  22  23
ATOM     23  C   UNL     1       8.847   6.586  29.963  1.00  0.00    -0.000 C 
BRANCH  23  24
ATOM     24  C   UNL     1       7.996   6.126  31.161  1.00  0.00    -0.000 C 
BRANCH  24  25
ATOM     25  C   UNL     1       8.513   4.871  31.892  1.00  0.00    -0.000 C 
BRANCH  25  26
ATOM     26  C   UNL     1       9.719   4.177  31.231  1.00  0.00    -0.000 C 
BRANCH  26  27
ATOM     27  C   UNL     1       9.370   2.933  30.395  1.00  0.00    -0.000 C 
BRANCH  27  28
ATOM     28  C   UNL     1       9.634   1.621  31.147  1.00  0.00    -0.000 C 
BRANCH  28  29
ATOM     29  C   UNL     1       8.351   1.102  31.807  1.00  0.00    -0.003 C 
ATOM     30  C   UNL     1       8.361   1.363  33.311  1.00  0.00     0.004 C 
ENDBRANCH  28  29
ENDBRANCH  27  28
ENDBRANCH  26  27
ENDBRANCH  25  26
ENDBRANCH  24  25
ENDBRANCH  23  24
ENDBRANCH  22  23
ENDBRANCH  21  22
ENDBRANCH  20  21
ENDBRANCH  19  20
ENDBRANCH  18  19
ENDBRANCH  17  18
ENDBRANCH   1  17
TORSDOF 26
ENDMDL
MODEL 3
REMARK VINA RESULT:    -3.109      2.539      6.686
REMARK INTER + INTRA:         -13.185
REMARK INTER:                  -7.853
REMARK INTRA:                  -5.332
REMARK UNBOUND:                -5.349
REMARK SMILES CCCCCCCCCCCCCCCCCCCCCCCCCCCC(=O)[O-]
REMARK SMILES IDX 15 1 16 2 17 3 18 4 19 5 20 6 21 7 22 8 23 9 24 10 25 11
REMARK SMILES IDX 26 12 27 13 28 14 29 15 30 16 14 17 13 18 12 19 11 20 10 21
REMARK SMILES IDX 9 22 8 23 7 24 6 25 5 26 4 27 3 28 2 29 1 30
REMARK H PARENT
REMARK Flexibility Score: inf
ROOT
ATOM      1  C   UNL     1      10.180   8.258  31.895  1.00  0.00     0.000 C 
ENDROOT
BRANCH   1   2
ATOM      2  C   UNL     1       8.679   8.403  31.603  1.00  0.00     0.000 C 
BRANCH   2   3
ATOM      3  C   UNL     1       8.328   8.083  30.141  1.00  0.00     0.000 C 
BRANCH   3   4
ATOM      4  C   UNL     1       9.196   6.940  29.571  1.00  0.00     0.000 C 
BRANCH   4   5
ATOM      5  C   UNL     1       8.511   5.563  29.623  1.00  0.00     0.000 C 
BRANCH   5   6
ATOM      6  C   UNL     1       9.083   4.656  30.725  1.00  0.00     0.000 C 
BRANCH   6   7
ATOM      7  C   UNL     1       8.374   4.829  32.081  1.00  0.00     0.000 C 
BRANCH   7   8
ATOM      8  C   UNL     1       8.394   3.595  33.003  1.00  0.00     0.000 C 
BRANCH   8   9
ATOM      9  C   UNL     1       9.815   3.081  33.296  1.00  0.00     0.000 C 
BRANCH   9  10
ATOM     10  C   UNL     1      10.045   1.654  32.772  1.00  0.00     0.000 C 
BRANCH  10  11
ATOM     11  C   UNL     1       8.840   1.111  31.981  1.00  0.00     0.000 C 
BRANCH  11  12
ATOM     12  C   UNL     1       9.124   0.978  30.472  1.00  0.00     0.006 C 
BRANCH  12  13
ATOM     13  C   UNL     1      10.620   0.931  30.119  1.00  0.00     0.053 C 
BRANCH  13  14
ATOM     14  C   UNL     1      10.872   0.387  28.746  1.00  0.00     0.041 C 
ATOM     15  O   UNL     1       9.907   0.138  27.977  1.00  0.00    -0.550 OA
ATOM     16  O   UNL     1      12.172   0.179  28.304  1.00  0.00    -0.550 OA
ENDBRANCH  13  14
ENDBRANCH  12  13
ENDBRANCH  11  12
ENDBRANCH  10  11
ENDBRANCH   9  10
ENDBRANCH   8   9
ENDBRANCH   7   8
ENDBRANCH   6   7
ENDBRANCH   5   6
ENDBRANCH   4   5
ENDBRANCH   3   4
ENDBRANCH   2   3
ENDBRANCH   1   2
BRANCH   1  17
ATOM     17  C   UNL     1      10.471   8.084  33.397  1.00  0.00     0.000 C 
BRANCH  17  18
ATOM     18  C   UNL     1      11.014   6.688  33.742  1.00  0.00     0.000 C 
BRANCH  18  19
ATOM     19  C   UNL     1      11.882   6.097  32.616  1.00  0.00     0.000 C 
BRANCH  19  20
ATOM     20  C   UNL     1      13.067   5.260  33.140  1.00  0.00     0.000 C 
BRANCH  20  21
ATOM     21  C   UNL     1      13.331   3.941  32.387  1.00  0.00     0.000 C 
BRANCH  21  22
ATOM     22  C   UNL     1      14.024   4.148  31.031  1.00  0.00    -0.000 C 
BRANCH  22  23
ATOM     23  C   UNL     1      13.327   3.339  29.926  1.00  0.00    -0.000 C 
BRANCH  23  24
ATOM     24  C   UNL     1      12.313   4.172  29.121  1.00  0.00    -0.000 C 
BRANCH  24  25
ATOM     25  C   UNL     1      12.672   5.663  28.952  1.00  0.00    -0.000 C 
BRANCH  25  26
ATOM     26  C   UNL     1      13.576   5.986  27.746  1.00  0.00    -0.000 C 
BRANCH  26  27
ATOM     27  C   UNL     1      15.082   6.018  28.059  1.00  0.00    -0.000 C 
BRANCH  27  28
ATOM     28  C   UNL     1      15.899   5.113  27.126  1.00  0.00    -0.000 C 
BRANCH  28  29
ATOM     29  C   UNL     1      15.001   4.076  26.443  1.00  0.00    -0.003 C 
ATOM     30  C   UNL     1      15.364   2.659  26.878  1.00  0.00     0.004 C 
ENDBRANCH  28  29
ENDBRANCH  27  28
ENDBRANCH  26  27
ENDBRANCH  25  26
ENDBRANCH  24  25
ENDBRANCH  23  24
ENDBRANCH  22  23
ENDBRANCH  21  22
ENDBRANCH  20  21
ENDBRANCH  19  20
ENDBRANCH  18  19
ENDBRANCH  17  18
ENDBRANCH   1  17
TORSDOF 26
ENDMDL
MODEL 4
REMARK VINA RESULT:    -3.056      1.448      2.261
REMARK INTER + INTRA:         -13.051
REMARK INTER:                  -7.612
REMARK INTRA:                  -5.439
REMARK UNBOUND:                -5.349
REMARK SMILES CCCCCCCCCCCCCCCCCCCCCCCCCCCC(=O)[O-]
REMARK SMILES IDX 15 1 16 2 17 3 18 4 19 5 20 6 21 7 22 8 23 9 24 10 25 11
REMARK SMILES IDX 26 12 27 13 28 14 29 15 30 16 14 17 13 18 12 19 11 20 10 21
REMARK SMILES IDX 9 22 8 23 7 24 6 25 5 26 4 27 3 28 2 29 1 30
REMARK H PARENT
REMARK Flexibility Score: inf
ROOT
ATOM      1  C   UNL     1      12.322   4.803  31.585  1.00  0.00     0.000 C 
ENDROOT
BRANCH   1   2
ATOM      2  C   UNL     1      12.209   5.536  30.240  1.00  0.00     0.000 C 
BRANCH   2   3
ATOM      3  C   UNL     1      11.872   4.589  29.077  1.00  0.00     0.000 C 
BRANCH   3   4
ATOM      4  C   UNL     1      12.253   3.126  29.389  1.00  0.00     0.000 C 
BRANCH   4   5
ATOM      5  C   UNL     1      13.036   2.438  28.258  1.00  0.00     0.000 C 
BRANCH   5   6
ATOM      6  C   UNL     1      12.720   3.028  26.873  1.00  0.00     0.000 C 
BRANCH   6   7
ATOM      7  C   UNL     1      13.774   2.670  25.807  1.00  0.00     0.000 C 
BRANCH   7   8
ATOM      8  C   UNL     1      13.840   3.617  24.594  1.00  0.00     0.000 C 
BRANCH   8   9
ATOM      9  C   UNL     1      13.281   5.020  24.890  1.00  0.00     0.000 C 
BRANCH   9  10
ATOM     10  C   UNL     1      14.365   5.994  25.382  1.00  0.00     0.000 C 
BRANCH  10  11
ATOM     11  C   UNL     1      13.998   6.665  26.718  1.00  0.00     0.000 C 
BRANCH  11  12
ATOM     12  C   UNL     1      15.039   6.410  27.825  1.00  0.00     0.006 C 
BRANCH  12  13
ATOM     13  C   UNL     1      15.880   5.140  27.611  1.00  0.00     0.053 C 
BRANCH  13  14
ATOM     14  C   UNL     1      16.103   4.376  28.880  1.00  0.00     0.041 C 
ATOM     15  O   UNL     1      16.751   3.297  28.864  1.00  0.00    -0.550 OA
ATOM     16  O   UNL     1      15.619   4.867  30.086  1.00  0.00    -0.550 OA
ENDBRANCH  13  14
ENDBRANCH  12  13
ENDBRANCH  11  12
ENDBRANCH  10  11
ENDBRANCH   9  10
ENDBRANCH   8   9
ENDBRANCH   7   8
ENDBRANCH   6   7
ENDBRANCH   5   6
ENDBRANCH   4   5
ENDBRANCH   3   4
ENDBRANCH   2   3
ENDBRANCH   1   2
BRANCH   1  17
ATOM     17  C   UNL     1      12.583   5.765  32.758  1.00  0.00     0.000 C 
BRANCH  17  18
ATOM     18  C   UNL     1      11.291   6.250  33.433  1.00  0.00     0.000 C 
BRANCH  18  19
ATOM     19  C   UNL     1      11.225   7.784  33.547  1.00  0.00     0.000 C 
BRANCH  19  20
ATOM     20  C   UNL     1      10.777   8.471  32.241  1.00  0.00     0.000 C 
BRANCH  20  21
ATOM     21  C   UNL     1       9.379   8.074  31.729  1.00  0.00     0.000 C 
BRANCH  21  22
ATOM     22  C   UNL     1       9.314   7.927  30.200  1.00  0.00    -0.000 C 
BRANCH  22  23
ATOM     23  C   UNL     1       8.732   6.563  29.801  1.00  0.00    -0.000 C 
BRANCH  23  24
ATOM     24  C   UNL     1       8.154   5.783  30.997  1.00  0.00    -0.000 C 
BRANCH  24  25
ATOM     25  C   UNL     1       8.793   4.403  31.253  1.00  0.00    -0.000 C 
BRANCH  25  26
ATOM     26  C   UNL     1       8.645   3.868  32.690  1.00  0.00    -0.000 C 
BRANCH  26  27
ATOM     27  C   UNL     1       9.642   2.761  33.073  1.00  0.00    -0.000 C 
BRANCH  27  28
ATOM     28  C   UNL     1      10.106   2.861  34.533  1.00  0.00    -0.000 C 
BRANCH  28  29
ATOM     29  C   UNL     1      11.628   2.711  34.635  1.00  0.00    -0.003 C 
ATOM     30  C   UNL     1      12.155   3.310  35.936  1.00  0.00     0.004 C 
ENDBRANCH  28  29
ENDBRANCH  27  28
ENDBRANCH  26  27
ENDBRANCH  25  26
ENDBRANCH  24  25
ENDBRANCH  23  24
ENDBRANCH  22  23
ENDBRANCH  21  22
ENDBRANCH  20  21
ENDBRANCH  19  20
ENDBRANCH  18  19
ENDBRANCH  17  18
ENDBRANCH   1  17
TORSDOF 26
ENDMDL
MODEL 5
REMARK VINA RESULT:    -3.015      2.235      5.126
REMARK INTER + INTRA:         -12.948
REMARK INTER:                  -7.322
REMARK INTRA:                  -5.626
REMARK UNBOUND:                -5.349
REMARK SMILES CCCCCCCCCCCCCCCCCCCCCCCCCCCC(=O)[O-]
REMARK SMILES IDX 15 1 16 2 17 3 18 4 19 5 20 6 21 7 22 8 23 9 24 10 25 11
REMARK SMILES IDX 26 12 27 13 28 14 29 15 30 16 14 17 13 18 12 19 11 20 10 21
REMARK SMILES IDX 9 22 8 23 7 24 6 25 5 26 4 27 3 28 2 29 1 30
REMARK H PARENT
REMARK Flexibility Score: inf
ROOT
ATOM      1  C   UNL     1      11.907   6.348  33.304  1.00  0.00     0.000 C 
ENDROOT
BRANCH   1   2
ATOM      2  C   UNL     1      10.923   7.507  33.517  1.00  0.00     0.000 C 
BRANCH   2   3
ATOM      3  C   UNL     1      10.569   8.230  32.206  1.00  0.00     0.000 C 
BRANCH   3   4
ATOM      4  C   UNL     1       9.044   8.346  31.999  1.00  0.00     0.000 C 
BRANCH   4   5
ATOM      5  C   UNL     1       8.574   7.880  30.610  1.00  0.00     0.000 C 
BRANCH   5   6
ATOM      6  C   UNL     1       8.239   6.380  30.568  1.00  0.00     0.000 C 
BRANCH   6   7
ATOM      7  C   UNL     1       8.969   5.627  29.440  1.00  0.00     0.000 C 
BRANCH   7   8
ATOM      8  C   UNL     1      10.506   5.738  29.453  1.00  0.00     0.000 C 
BRANCH   8   9
ATOM      9  C   UNL     1      11.212   4.406  29.146  1.00  0.00     0.000 C 
BRANCH   9  10
ATOM     10  C   UNL     1      12.627   4.338  29.744  1.00  0.00     0.000 C 
BRANCH  10  11
ATOM     11  C   UNL     1      13.713   4.109  28.677  1.00  0.00     0.000 C 
BRANCH  11  12
ATOM     12  C   UNL     1      14.577   5.359  28.422  1.00  0.00     0.006 C 
BRANCH  12  13
ATOM     13  C   UNL     1      14.013   6.300  27.343  1.00  0.00     0.053 C 
BRANCH  13  14
ATOM     14  C   UNL     1      14.386   5.874  25.956  1.00  0.00     0.041 C 
ATOM     15  O   UNL     1      15.385   5.133  25.768  1.00  0.00    -0.550 OA
ATOM     16  O   UNL     1      13.614   6.274  24.872  1.00  0.00    -0.550 OA
ENDBRANCH  13  14
ENDBRANCH  12  13
ENDBRANCH  11  12
ENDBRANCH  10  11
ENDBRANCH   9  10
ENDBRANCH   8   9
ENDBRANCH   7   8
ENDBRANCH   6   7
ENDBRANCH   5   6
ENDBRANCH   4   5
ENDBRANCH   3   4
ENDBRANCH   2   3
ENDBRANCH   1   2
BRANCH   1  17
ATOM     17  C   UNL     1      11.196   4.988  33.187  1.00  0.00     0.000 C 
BRANCH  17  18
ATOM     18  C   UNL     1       9.778   5.001  33.779  1.00  0.00     0.000 C 
BRANCH  18  19
ATOM     19  C   UNL     1       8.886   3.889  33.198  1.00  0.00     0.000 C 
BRANCH  19  20
ATOM     20  C   UNL     1       9.524   3.166  31.995  1.00  0.00     0.000 C 
BRANCH  20  21
ATOM     21  C   UNL     1       8.981   1.752  31.707  1.00  0.00     0.000 C 
BRANCH  21  22
ATOM     22  C   UNL     1       8.629   1.531  30.227  1.00  0.00    -0.000 C 
BRANCH  22  23
ATOM     23  C   UNL     1       9.831   0.968  29.453  1.00  0.00    -0.000 C 
BRANCH  23  24
ATOM     24  C   UNL     1      10.898   0.344  30.372  1.00  0.00    -0.000 C 
BRANCH  24  25
ATOM     25  C   UNL     1      12.360   0.610  29.957  1.00  0.00    -0.000 C 
BRANCH  25  26
ATOM     26  C   UNL     1      13.340   0.840  31.123  1.00  0.00    -0.000 C 
BRANCH  26  27
ATOM     27  C   UNL     1      12.795   1.720  32.261  1.00  0.00    -0.000 C 
BRANCH  27  28
ATOM     28  C   UNL     1      12.920   1.053  33.638  1.00  0.00    -0.000 C 
BRANCH  28  29
ATOM     29  C   UNL     1      11.540   0.702  34.204  1.00  0.00    -0.003 C 
ATOM     30  C   UNL     1      11.079   1.745  35.218  1.00  0.00     0.004 C 
ENDBRANCH  28  29
ENDBRANCH  27  28
ENDBRANCH  26  27
ENDBRANCH  25  26
ENDBRANCH  24  25
ENDBRANCH  23  24
ENDBRANCH  22  23
ENDBRANCH  21  22
ENDBRANCH  20  21
ENDBRANCH  19  20
ENDBRANCH  18  19
ENDBRANCH  17  18
ENDBRANCH   1  17
TORSDOF 26
ENDMDL
MODEL 6
REMARK VINA RESULT:    -2.998      1.955      5.143
REMARK INTER + INTRA:         -12.904
REMARK INTER:                  -7.287
REMARK INTRA:                  -5.617
REMARK UNBOUND:                -5.349
REMARK SMILES CCCCCCCCCCCCCCCCCCCCCCCCCCCC(=O)[O-]
REMARK SMILES IDX 15 1 16 2 17 3 18 4 19 5 20 6 21 7 22 8 23 9 24 10 25 11
REMARK SMILES IDX 26 12 27 13 28 14 29 15 30 16 14 17 13 18 12 19 11 20 10 21
REMARK SMILES IDX 9 22 8 23 7 24 6 25 5 26 4 27 3 28 2 29 1 30
REMARK H PARENT
REMARK Flexibility Score: inf
ROOT
ATOM      1  C   UNL     1      11.385   4.831  34.090  1.00  0.00     0.000 C 
ENDROOT
BRANCH   1   2
ATOM      2  C   UNL     1      12.040   5.996  33.332  1.00  0.00     0.000 C 
BRANCH   2   3
ATOM      3  C   UNL     1      11.339   7.339  33.593  1.00  0.00     0.000 C 
BRANCH   3   4
ATOM      4  C   UNL     1      10.865   8.012  32.287  1.00  0.00     0.000 C 
BRANCH   4   5
ATOM      5  C   UNL     1       9.350   8.274  32.244  1.00  0.00     0.000 C 
BRANCH   5   6
ATOM      6  C   UNL     1       8.647   7.520  31.103  1.00  0.00     0.000 C 
BRANCH   6   7
ATOM      7  C   UNL     1       8.612   5.995  31.317  1.00  0.00     0.000 C 
BRANCH   7   8
ATOM      8  C   UNL     1       9.071   5.145  30.117  1.00  0.00     0.000 C 
BRANCH   8   9
ATOM      9  C   UNL     1      10.519   4.642  30.251  1.00  0.00     0.000 C 
BRANCH   9  10
ATOM     10  C   UNL     1      11.527   5.548  29.525  1.00  0.00     0.000 C 
BRANCH  10  11
ATOM     11  C   UNL     1      12.177   4.860  28.310  1.00  0.00     0.000 C 
BRANCH  11  12
ATOM     12  C   UNL     1      13.388   3.987  28.690  1.00  0.00     0.006 C 
BRANCH  12  13
ATOM     13  C   UNL     1      14.655   4.790  29.031  1.00  0.00     0.053 C 
BRANCH  13  14
ATOM     14  C   UNL     1      15.193   5.544  27.854  1.00  0.00     0.041 C 
ATOM     15  O   UNL     1      15.076   6.796  27.796  1.00  0.00    -0.550 OA
ATOM     16  O   UNL     1      15.848   4.869  26.832  1.00  0.00    -0.550 OA
ENDBRANCH  13  14
ENDBRANCH  12  13
ENDBRANCH  11  12
ENDBRANCH  10  11
ENDBRANCH   9  10
ENDBRANCH   8   9
ENDBRANCH   7   8
ENDBRANCH   6   7
ENDBRANCH   5   6
ENDBRANCH   4   5
ENDBRANCH   3   4
ENDBRANCH   2   3
ENDBRANCH   1   2
BRANCH   1  17
ATOM     17  C   UNL     1      10.211   5.292  34.971  1.00  0.00     0.000 C 
BRANCH  17  18
ATOM     18  C   UNL     1       8.920   4.501  34.708  1.00  0.00     0.000 C 
BRANCH  18  19
ATOM     19  C   UNL     1       9.061   3.007  35.054  1.00  0.00     0.000 C 
BRANCH  19  20
ATOM     20  C   UNL     1       8.473   2.076  33.974  1.00  0.00     0.000 C 
BRANCH  20  21
ATOM     21  C   UNL     1       9.059   2.249  32.559  1.00  0.00     0.000 C 
BRANCH  21  22
ATOM     22  C   UNL     1       8.874   1.006  31.674  1.00  0.00    -0.000 C 
BRANCH  22  23
ATOM     23  C   UNL     1       8.698   1.401  30.199  1.00  0.00    -0.000 C 
BRANCH  23  24
ATOM     24  C   UNL     1       9.677   0.672  29.261  1.00  0.00    -0.000 C 
BRANCH  24  25
ATOM     25  C   UNL     1      11.150   1.115  29.374  1.00  0.00    -0.000 C 
BRANCH  25  26
ATOM     26  C   UNL     1      12.104   0.072  29.987  1.00  0.00    -0.000 C 
BRANCH  26  27
ATOM     27  C   UNL     1      12.999   0.603  31.121  1.00  0.00    -0.000 C 
BRANCH  27  28
ATOM     28  C   UNL     1      12.522   1.955  31.668  1.00  0.00    -0.000 C 
BRANCH  28  29
ATOM     29  C   UNL     1      13.710   2.816  32.112  1.00  0.00    -0.003 C 
ATOM     30  C   UNL     1      15.016   2.028  32.051  1.00  0.00     0.004 C 
ENDBRANCH  28  29
ENDBRANCH  27  28
ENDBRANCH  26  27
ENDBRANCH  25  26
ENDBRANCH  24  25
ENDBRANCH  23  24
ENDBRANCH  22  23
ENDBRANCH  21  22
ENDBRANCH  20  21
ENDBRANCH  19  20
ENDBRANCH  18  19
ENDBRANCH  17  18
ENDBRANCH   1  17
TORSDOF 26
ENDMDL
MODEL 7
REMARK VINA RESULT:    -2.996      2.416      5.845
REMARK INTER + INTRA:         -12.899
REMARK INTER:                  -6.988
REMARK INTRA:                  -5.912
REMARK UNBOUND:                -5.349
REMARK SMILES CCCCCCCCCCCCCCCCCCCCCCCCCCCC(=O)[O-]
REMARK SMILES IDX 15 1 16 2 17 3 18 4 19 5 20 6 21 7 22 8 23 9 24 10 25 11
REMARK SMILES IDX 26 12 27 13 28 14 29 15 30 16 14 17 13 18 12 19 11 20 10 21
REMARK SMILES IDX 9 22 8 23 7 24 6 25 5 26 4 27 3 28 2 29 1 30
REMARK H PARENT
REMARK Flexibility Score: inf
ROOT
ATOM      1  C   UNL     1      10.161   4.530  34.144  1.00  0.00     0.000 C 
ENDROOT
BRANCH   1   2
ATOM      2  C   UNL     1      11.658   4.782  33.906  1.00  0.00     0.000 C 
BRANCH   2   3
ATOM      3  C   UNL     1      11.952   6.227  33.471  1.00  0.00     0.000 C 
BRANCH   3   4
ATOM      4  C   UNL     1      10.726   7.149  33.648  1.00  0.00     0.000 C 
BRANCH   4   5
ATOM      5  C   UNL     1      10.602   8.225  32.556  1.00  0.00     0.000 C 
BRANCH   5   6
ATOM      6  C   UNL     1       9.142   8.603  32.258  1.00  0.00     0.000 C 
BRANCH   6   7
ATOM      7  C   UNL     1       8.635   8.049  30.913  1.00  0.00     0.000 C 
BRANCH   7   8
ATOM      8  C   UNL     1       7.885   6.706  30.988  1.00  0.00     0.000 C 
BRANCH   8   9
ATOM      9  C   UNL     1       8.806   5.487  30.799  1.00  0.00     0.000 C 
BRANCH   9  10
ATOM     10  C   UNL     1       9.412   5.422  29.387  1.00  0.00     0.000 C 
BRANCH  10  11
ATOM     11  C   UNL     1      10.949   5.508  29.396  1.00  0.00     0.000 C 
BRANCH  11  12
ATOM     12  C   UNL     1      11.607   4.410  30.254  1.00  0.00     0.006 C 
BRANCH  12  13
ATOM     13  C   UNL     1      13.132   4.560  30.399  1.00  0.00     0.053 C 
BRANCH  13  14
ATOM     14  C   UNL     1      13.883   3.932  29.266  1.00  0.00     0.041 C 
ATOM     15  O   UNL     1      14.419   4.652  28.385  1.00  0.00    -0.550 OA
ATOM     16  O   UNL     1      14.016   2.550  29.197  1.00  0.00    -0.550 OA
ENDBRANCH  13  14
ENDBRANCH  12  13
ENDBRANCH  11  12
ENDBRANCH  10  11
ENDBRANCH   9  10
ENDBRANCH   8   9
ENDBRANCH   7   8
ENDBRANCH   6   7
ENDBRANCH   5   6
ENDBRANCH   4   5
ENDBRANCH   3   4
ENDBRANCH   2   3
ENDBRANCH   1   2
BRANCH   1  17
ATOM     17  C   UNL     1       9.894   3.169  34.811  1.00  0.00     0.000 C 
BRANCH  17  18
ATOM     18  C   UNL     1       8.989   2.257  33.968  1.00  0.00     0.000 C 
BRANCH  18  19
ATOM     19  C   UNL     1       8.925   2.689  32.493  1.00  0.00     0.000 C 
BRANCH  19  20
ATOM     20  C   UNL     1       8.526   1.542  31.542  1.00  0.00     0.000 C 
BRANCH  20  21
ATOM     21  C   UNL     1       8.773   1.807  30.043  1.00  0.00     0.000 C 
BRANCH  21  22
ATOM     22  C   UNL     1       9.474   0.639  29.331  1.00  0.00    -0.000 C 
BRANCH  22  23
ATOM     23  C   UNL     1      10.964   0.943  29.109  1.00  0.00    -0.000 C 
BRANCH  23  24
ATOM     24  C   UNL     1      11.866  -0.287  29.323  1.00  0.00    -0.000 C 
BRANCH  24  25
ATOM     25  C   UNL     1      11.204  -1.468  30.061  1.00  0.00    -0.000 C 
BRANCH  25  26
ATOM     26  C   UNL     1      11.659  -1.668  31.519  1.00  0.00    -0.000 C 
BRANCH  26  27
ATOM     27  C   UNL     1      10.965  -0.754  32.543  1.00  0.00    -0.000 C 
BRANCH  27  28
ATOM     28  C   UNL     1      11.955   0.127  33.318  1.00  0.00    -0.000 C 
BRANCH  28  29
ATOM     29  C   UNL     1      12.344   1.363  32.499  1.00  0.00    -0.003 C 
ATOM     30  C   UNL     1      13.800   1.751  32.744  1.00  0.00     0.004 C 
ENDBRANCH  28  29
ENDBRANCH  27  28
ENDBRANCH  26  27
ENDBRANCH  25  26
ENDBRANCH  24  25
ENDBRANCH  23  24
ENDBRANCH  22  23
ENDBRANCH  21  22
ENDBRANCH  20  21
ENDBRANCH  19  20
ENDBRANCH  18  19
ENDBRANCH  17  18
ENDBRANCH   1  17
TORSDOF 26
ENDMDL
MODEL 8
REMARK VINA RESULT:    -2.993      2.618      6.208
REMARK INTER + INTRA:         -12.892
REMARK INTER:                  -7.083
REMARK INTRA:                  -5.809
REMARK UNBOUND:                -5.349
REMARK SMILES CCCCCCCCCCCCCCCCCCCCCCCCCCCC(=O)[O-]
REMARK SMILES IDX 15 1 16 2 17 3 18 4 19 5 20 6 21 7 22 8 23 9 24 10 25 11
REMARK SMILES IDX 26 12 27 13 28 14 29 15 30 16 14 17 13 18 12 19 11 20 10 21
REMARK SMILES IDX 9 22 8 23 7 24 6 25 5 26 4 27 3 28 2 29 1 30
REMARK H PARENT
REMARK Flexibility Score: inf
ROOT
ATOM      1  C   UNL     1      10.120   4.786  33.277  1.00  0.00     0.000 C 
ENDROOT
BRANCH   1   2
ATOM      2  C   UNL     1      10.466   6.152  33.890  1.00  0.00     0.000 C 
BRANCH   2   3
ATOM      3  C   UNL     1      11.493   6.932  33.052  1.00  0.00     0.000 C 
BRANCH   3   4
ATOM      4  C   UNL     1      10.903   8.238  32.477  1.00  0.00     0.000 C 
BRANCH   4   5
ATOM      5  C   UNL     1       9.366   8.282  32.502  1.00  0.00     0.000 C 
BRANCH   5   6
ATOM      6  C   UNL     1       8.741   8.035  31.119  1.00  0.00     0.000 C 
BRANCH   6   7
ATOM      7  C   UNL     1       7.933   6.726  31.044  1.00  0.00     0.000 C 
BRANCH   7   8
ATOM      8  C   UNL     1       8.486   5.657  30.082  1.00  0.00     0.000 C 
BRANCH   8   9
ATOM      9  C   UNL     1       9.901   5.978  29.570  1.00  0.00     0.000 C 
BRANCH   9  10
ATOM     10  C   UNL     1      10.863   4.787  29.713  1.00  0.00     0.000 C 
BRANCH  10  11
ATOM     11  C   UNL     1      12.310   5.225  30.005  1.00  0.00     0.000 C 
BRANCH  11  12
ATOM     12  C   UNL     1      13.315   4.721  28.952  1.00  0.00     0.006 C 
BRANCH  12  13
ATOM     13  C   UNL     1      13.085   5.296  27.543  1.00  0.00     0.053 C 
BRANCH  13  14
ATOM     14  C   UNL     1      14.282   6.028  27.018  1.00  0.00     0.041 C 
ATOM     15  O   UNL     1      15.420   5.492  27.058  1.00  0.00    -0.550 OA
ATOM     16  O   UNL     1      14.138   7.291  26.458  1.00  0.00    -0.550 OA
ENDBRANCH  13  14
ENDBRANCH  12  13
ENDBRANCH  11  12
ENDBRANCH  10  11
ENDBRANCH   9  10
ENDBRANCH   8   9
ENDBRANCH   7   8
ENDBRANCH   6   7
ENDBRANCH   5   6
ENDBRANCH   4   5
ENDBRANCH   3   4
ENDBRANCH   2   3
ENDBRANCH   1   2
BRANCH   1  17
ATOM     17  C   UNL     1       8.845   4.177  33.885  1.00  0.00     0.000 C 
BRANCH  17  18
ATOM     18  C   UNL     1       8.259   3.041  33.032  1.00  0.00     0.000 C 
BRANCH  18  19
ATOM     19  C   UNL     1       9.262   2.504  31.995  1.00  0.00     0.000 C 
BRANCH  19  20
ATOM     20  C   UNL     1       9.918   1.174  32.418  1.00  0.00     0.000 C 
BRANCH  20  21
ATOM     21  C   UNL     1      11.365   1.285  32.938  1.00  0.00     0.000 C 
BRANCH  21  22
ATOM     22  C   UNL     1      12.280   2.100  32.009  1.00  0.00    -0.000 C 
BRANCH  22  23
ATOM     23  C   UNL     1      13.615   2.426  32.696  1.00  0.00    -0.000 C 
BRANCH  23  24
ATOM     24  C   UNL     1      13.777   3.924  33.013  1.00  0.00    -0.000 C 
BRANCH  24  25
ATOM     25  C   UNL     1      13.659   4.298  34.504  1.00  0.00    -0.000 C 
BRANCH  25  26
ATOM     26  C   UNL     1      14.132   3.215  35.492  1.00  0.00    -0.000 C 
BRANCH  26  27
ATOM     27  C   UNL     1      13.047   2.699  36.453  1.00  0.00    -0.000 C 
BRANCH  27  28
ATOM     28  C   UNL     1      11.638   3.166  36.062  1.00  0.00    -0.000 C 
BRANCH  28  29
ATOM     29  C   UNL     1      11.032   4.054  37.155  1.00  0.00    -0.003 C 
ATOM     30  C   UNL     1      10.953   3.313  38.487  1.00  0.00     0.004 C 
ENDBRANCH  28  29
ENDBRANCH  27  28
ENDBRANCH  26  27
ENDBRANCH  25  26
ENDBRANCH  24  25
ENDBRANCH  23  24
ENDBRANCH  22  23
ENDBRANCH  21  22
ENDBRANCH  20  21
ENDBRANCH  19  20
ENDBRANCH  18  19
ENDBRANCH  17  18
ENDBRANCH   1  17
TORSDOF 26
ENDMDL
MODEL 9
REMARK VINA RESULT:    -2.975      1.930      4.410
REMARK INTER + INTRA:         -12.848
REMARK INTER:                  -6.883
REMARK INTRA:                  -5.965
REMARK UNBOUND:                -5.349
REMARK SMILES CCCCCCCCCCCCCCCCCCCCCCCCCCCC(=O)[O-]
REMARK SMILES IDX 15 1 16 2 17 3 18 4 19 5 20 6 21 7 22 8 23 9 24 10 25 11
REMARK SMILES IDX 26 12 27 13 28 14 29 15 30 16 14 17 13 18 12 19 11 20 10 21
REMARK SMILES IDX 9 22 8 23 7 24 6 25 5 26 4 27 3 28 2 29 1 30
REMARK H PARENT
REMARK Flexibility Score: inf
ROOT
ATOM      1  C   UNL     1       8.475   3.833  34.144  1.00  0.00     0.000 C 
ENDROOT
BRANCH   1   2
ATOM      2  C   UNL     1       7.896   2.643  33.365  1.00  0.00     0.000 C 
BRANCH   2   3
ATOM      3  C   UNL     1       8.976   1.638  32.933  1.00  0.00     0.000 C 
BRANCH   3   4
ATOM      4  C   UNL     1       8.527   0.784  31.728  1.00  0.00     0.000 C 
BRANCH   4   5
ATOM      5  C   UNL     1       8.653   1.509  30.377  1.00  0.00     0.000 C 
BRANCH   5   6
ATOM      6  C   UNL     1       9.642   0.821  29.422  1.00  0.00     0.000 C 
BRANCH   6   7
ATOM      7  C   UNL     1      10.738   0.024  30.155  1.00  0.00     0.000 C 
BRANCH   7   8
ATOM      8  C   UNL     1      12.137   0.669  30.162  1.00  0.00     0.000 C 
BRANCH   8   9
ATOM      9  C   UNL     1      12.763   0.742  31.566  1.00  0.00     0.000 C 
BRANCH   9  10
ATOM     10  C   UNL     1      12.539   2.106  32.240  1.00  0.00     0.000 C 
BRANCH  10  11
ATOM     11  C   UNL     1      13.854   2.763  32.701  1.00  0.00     0.000 C 
BRANCH  11  12
ATOM     12  C   UNL     1      14.846   2.996  31.545  1.00  0.00     0.006 C 
BRANCH  12  13
ATOM     13  C   UNL     1      15.672   4.287  31.681  1.00  0.00     0.053 C 
BRANCH  13  14
ATOM     14  C   UNL     1      17.137   4.058  31.477  1.00  0.00     0.041 C 
ATOM     15  O   UNL     1      17.811   4.853  30.772  1.00  0.00    -0.550 OA
ATOM     16  O   UNL     1      17.768   2.981  32.087  1.00  0.00    -0.550 OA
ENDBRANCH  13  14
ENDBRANCH  12  13
ENDBRANCH  11  12
ENDBRANCH  10  11
ENDBRANCH   9  10
ENDBRANCH   8   9
ENDBRANCH   7   8
ENDBRANCH   6   7
ENDBRANCH   5   6
ENDBRANCH   4   5
ENDBRANCH   3   4
ENDBRANCH   2   3
ENDBRANCH   1   2
BRANCH   1  17
ATOM     17  C   UNL     1       9.992   3.988  33.936  1.00  0.00     0.000 C 
BRANCH  17  18
ATOM     18  C   UNL     1      10.551   5.284  34.544  1.00  0.00     0.000 C 
BRANCH  18  19
ATOM     19  C   UNL     1      11.753   5.835  33.757  1.00  0.00     0.000 C 
BRANCH  19  20
ATOM     20  C   UNL     1      11.658   7.351  33.487  1.00  0.00     0.000 C 
BRANCH  20  21
ATOM     21  C   UNL     1      10.293   7.847  32.969  1.00  0.00     0.000 C 
BRANCH  21  22
ATOM     22  C   UNL     1      10.339   8.326  31.509  1.00  0.00    -0.000 C 
BRANCH  22  23
ATOM     23  C   UNL     1       9.197   7.705  30.690  1.00  0.00    -0.000 C 
BRANCH  23  24
ATOM     24  C   UNL     1       8.473   6.568  31.433  1.00  0.00    -0.000 C 
BRANCH  24  25
ATOM     25  C   UNL     1       8.484   5.202  30.718  1.00  0.00    -0.000 C 
BRANCH  25  26
ATOM     26  C   UNL     1       9.575   5.033  29.644  1.00  0.00    -0.000 C 
BRANCH  26  27
ATOM     27  C   UNL     1      10.883   4.398  30.146  1.00  0.00    -0.000 C 
BRANCH  27  28
ATOM     28  C   UNL     1      12.074   5.364  30.080  1.00  0.00    -0.000 C 
BRANCH  28  29
ATOM     29  C   UNL     1      13.099   4.901  29.037  1.00  0.00    -0.003 C 
ATOM     30  C   UNL     1      12.548   3.754  28.195  1.00  0.00     0.004 C 
ENDBRANCH  28  29
ENDBRANCH  27  28
ENDBRANCH  26  27
ENDBRANCH  25  26
ENDBRANCH  24  25
ENDBRANCH  23  24
ENDBRANCH  22  23
ENDBRANCH  21  22
ENDBRANCH  20  21
ENDBRANCH  19  20
ENDBRANCH  18  19
ENDBRANCH  17  18
ENDBRANCH   1  17
TORSDOF 26
ENDMDL
