MODEL 1
REMARK VINA RESULT:    -0.653      0.000      0.000
REMARK INTER + INTRA:          -3.180
REMARK INTER:                  -1.645
REMARK INTRA:                  -1.535
REMARK UNBOUND:                -1.535
REMARK SMILES CCCCCCCCCCCCCCCCCCCCCCCCCCCC(=O)[O-]
REMARK SMILES IDX 15 1 16 2 17 3 18 4 19 5 20 6 21 7 22 8 23 9 24 10 25 11
REMARK SMILES IDX 26 12 27 13 28 14 29 15 30 16 14 17 13 18 12 19 11 20 10 21
REMARK SMILES IDX 9 22 8 23 7 24 6 25 5 26 4 27 3 28 2 29 1 30
REMARK H PARENT
REMARK Flexibility Score: inf
ROOT
ATOM      1  C   UNL     1     -15.128  13.081   6.575  1.00  0.00     0.000 C 
ENDROOT
BRANCH   1   2
ATOM      2  C   UNL     1     -15.878  12.439   7.754  1.00  0.00     0.000 C 
BRANCH   2   3
ATOM      3  C   UNL     1     -17.124  11.658   7.308  1.00  0.00     0.000 C 
BRANCH   3   4
ATOM      4  C   UNL     1     -17.088  10.188   7.762  1.00  0.00     0.000 C 
BRANCH   4   5
ATOM      5  C   UNL     1     -15.821   9.835   8.565  1.00  0.00     0.000 C 
BRANCH   5   6
ATOM      6  C   UNL     1     -15.892   8.521   9.370  1.00  0.00     0.000 C 
BRANCH   6   7
ATOM      7  C   UNL     1     -17.101   8.394  10.312  1.00  0.00     0.000 C 
BRANCH   7   8
ATOM      8  C   UNL     1     -16.732   7.800  11.683  1.00  0.00     0.000 C 
BRANCH   8   9
ATOM      9  C   UNL     1     -16.893   8.824  12.818  1.00  0.00     0.000 C 
BRANCH   9  10
ATOM     10  C   UNL     1     -16.045  10.085  12.588  1.00  0.00     0.000 C 
BRANCH  10  11
ATOM     11  C   UNL     1     -16.854  11.172  11.869  1.00  0.00     0.000 C 
BRANCH  11  12
ATOM     12  C   UNL     1     -16.378  12.570  12.279  1.00  0.00     0.006 C 
BRANCH  12  13
ATOM     13  C   UNL     1     -15.059  12.930  11.589  1.00  0.00     0.053 C 
BRANCH  13  14
ATOM     14  C   UNL     1     -15.093  14.344  11.102  1.00  0.00     0.041 C 
ATOM     15  O   UNL     1     -15.948  15.150  11.557  1.00  0.00    -0.550 OA
ATOM     16  O   UNL     1     -14.143  14.789  10.191  1.00  0.00    -0.550 OA
ENDBRANCH  13  14
ENDBRANCH  12  13
ENDBRANCH  11  12
ENDBRANCH  10  11
ENDBRANCH   9  10
ENDBRANCH   8   9
ENDBRANCH   7   8
ENDBRANCH   6   7
ENDBRANCH   5   6
ENDBRANCH   4   5
ENDBRANCH   3   4
ENDBRANCH   2   3
ENDBRANCH   1   2
BRANCH   1  17
ATOM     17  C   UNL     1     -13.626  12.759   6.586  1.00  0.00     0.000 C 
BRANCH  17  18
ATOM     18  C   UNL     1     -13.243  11.698   5.543  1.00  0.00     0.000 C 
BRANCH  18  19
ATOM     19  C   UNL     1     -14.205  10.505   5.591  1.00  0.00     0.000 C 
BRANCH  19  20
ATOM     20  C   UNL     1     -14.099   9.663   4.311  1.00  0.00     0.000 C 
BRANCH  20  21
ATOM     21  C   UNL     1     -12.880  10.039   3.454  1.00  0.00     0.000 C 
BRANCH  21  22
ATOM     22  C   UNL     1     -13.198  10.051   1.950  1.00  0.00    -0.000 C 
BRANCH  22  23
ATOM     23  C   UNL     1     -12.959   8.668   1.324  1.00  0.00    -0.000 C 
BRANCH  23  24
ATOM     24  C   UNL     1     -12.823   8.724  -0.205  1.00  0.00    -0.000 C 
BRANCH  24  25
ATOM     25  C   UNL     1     -11.982   7.569  -0.768  1.00  0.00    -0.000 C 
BRANCH  25  26
ATOM     26  C   UNL     1     -12.765   6.247  -0.731  1.00  0.00    -0.000 C 
BRANCH  26  27
ATOM     27  C   UNL     1     -14.127   6.396  -0.020  1.00  0.00    -0.000 C 
BRANCH  27  28
ATOM     28  C   UNL     1     -15.262   5.606  -0.691  1.00  0.00    -0.000 C 
BRANCH  28  29
ATOM     29  C   UNL     1     -16.625   5.830  -0.021  1.00  0.00    -0.003 C 
ATOM     30  C   UNL     1     -16.752   7.255   0.508  1.00  0.00     0.004 C 
ENDBRANCH  28  29
ENDBRANCH  27  28
ENDBRANCH  26  27
ENDBRANCH  25  26
ENDBRANCH  24  25
ENDBRANCH  23  24
ENDBRANCH  22  23
ENDBRANCH  21  22
ENDBRANCH  20  21
ENDBRANCH  19  20
ENDBRANCH  18  19
ENDBRANCH  17  18
ENDBRANCH   1  17
TORSDOF 26
ENDMDL
MODEL 2
REMARK VINA RESULT:    -0.491      2.722      4.521
REMARK INTER + INTRA:          -2.772
REMARK INTER:                  -0.431
REMARK INTRA:                  -2.341
REMARK UNBOUND:                -1.535
REMARK SMILES CCCCCCCCCCCCCCCCCCCCCCCCCCCC(=O)[O-]
REMARK SMILES IDX 15 1 16 2 17 3 18 4 19 5 20 6 21 7 22 8 23 9 24 10 25 11
REMARK SMILES IDX 26 12 27 13 28 14 29 15 30 16 14 17 13 18 12 19 11 20 10 21
REMARK SMILES IDX 9 22 8 23 7 24 6 25 5 26 4 27 3 28 2 29 1 30
REMARK H PARENT
REMARK Flexibility Score: inf
ROOT
ATOM      1  C   UNL     1     -15.086  10.656   6.007  1.00  0.00     0.000 C 
ENDROOT
BRANCH   1   2
ATOM      2  C   UNL     1     -16.153  10.248   7.037  1.00  0.00     0.000 C 
BRANCH   2   3
ATOM      3  C   UNL     1     -15.678  10.438   8.487  1.00  0.00     0.000 C 
BRANCH   3   4
ATOM      4  C   UNL     1     -14.779  11.675   8.652  1.00  0.00     0.000 C 
BRANCH   4   5
ATOM      5  C   UNL     1     -15.574  12.968   8.919  1.00  0.00     0.000 C 
BRANCH   5   6
ATOM      6  C   UNL     1     -16.639  12.872  10.032  1.00  0.00     0.000 C 
BRANCH   6   7
ATOM      7  C   UNL     1     -16.136  13.194  11.449  1.00  0.00     0.000 C 
BRANCH   7   8
ATOM      8  C   UNL     1     -15.663  11.947  12.215  1.00  0.00     0.000 C 
BRANCH   8   9
ATOM      9  C   UNL     1     -16.797  11.302  13.027  1.00  0.00     0.000 C 
BRANCH   9  10
ATOM     10  C   UNL     1     -16.659   9.774  13.107  1.00  0.00     0.000 C 
BRANCH  10  11
ATOM     11  C   UNL     1     -16.820   9.129  11.725  1.00  0.00     0.000 C 
BRANCH  11  12
ATOM     12  C   UNL     1     -15.667   8.162  11.432  1.00  0.00     0.006 C 
BRANCH  12  13
ATOM     13  C   UNL     1     -15.267   7.383  12.688  1.00  0.00     0.053 C 
BRANCH  13  14
ATOM     14  C   UNL     1     -14.253   6.335  12.353  1.00  0.00     0.041 C 
ATOM     15  O   UNL     1     -13.068   6.444  12.767  1.00  0.00    -0.550 OA
ATOM     16  O   UNL     1     -14.630   5.208  11.633  1.00  0.00    -0.550 OA
ENDBRANCH  13  14
ENDBRANCH  12  13
ENDBRANCH  11  12
ENDBRANCH  10  11
ENDBRANCH   9  10
ENDBRANCH   8   9
ENDBRANCH   7   8
ENDBRANCH   6   7
ENDBRANCH   5   6
ENDBRANCH   4   5
ENDBRANCH   3   4
ENDBRANCH   2   3
ENDBRANCH   1   2
BRANCH   1  17
ATOM     17  C   UNL     1     -14.907   9.608   4.898  1.00  0.00     0.000 C 
BRANCH  17  18
ATOM     18  C   UNL     1     -13.684   9.890   4.013  1.00  0.00     0.000 C 
BRANCH  18  19
ATOM     19  C   UNL     1     -13.802   9.171   2.664  1.00  0.00     0.000 C 
BRANCH  19  20
ATOM     20  C   UNL     1     -15.243   8.703   2.418  1.00  0.00     0.000 C 
BRANCH  20  21
ATOM     21  C   UNL     1     -15.376   7.822   1.165  1.00  0.00     0.000 C 
BRANCH  21  22
ATOM     22  C   UNL     1     -16.840   7.599   0.753  1.00  0.00    -0.000 C 
BRANCH  22  23
ATOM     23  C   UNL     1     -17.125   6.108   0.517  1.00  0.00    -0.000 C 
BRANCH  23  24
ATOM     24  C   UNL     1     -15.853   5.301   0.213  1.00  0.00    -0.000 C 
BRANCH  24  25
ATOM     25  C   UNL     1     -15.757   4.879  -1.260  1.00  0.00    -0.000 C 
BRANCH  25  26
ATOM     26  C   UNL     1     -14.307   4.952  -1.763  1.00  0.00    -0.000 C 
BRANCH  26  27
ATOM     27  C   UNL     1     -13.325   5.378  -0.650  1.00  0.00    -0.000 C 
BRANCH  27  28
ATOM     28  C   UNL     1     -12.392   6.530  -1.058  1.00  0.00    -0.000 C 
BRANCH  28  29
ATOM     29  C   UNL     1     -12.523   7.759  -0.147  1.00  0.00    -0.003 C 
ATOM     30  C   UNL     1     -12.131   9.036  -0.884  1.00  0.00     0.004 C 
ENDBRANCH  28  29
ENDBRANCH  27  28
ENDBRANCH  26  27
ENDBRANCH  25  26
ENDBRANCH  24  25
ENDBRANCH  23  24
ENDBRANCH  22  23
ENDBRANCH  21  22
ENDBRANCH  20  21
ENDBRANCH  19  20
ENDBRANCH  18  19
ENDBRANCH  17  18
ENDBRANCH   1  17
TORSDOF 26
ENDMDL
MODEL 3
REMARK VINA RESULT:    -0.485      1.306      2.089
REMARK INTER + INTRA:          -2.757
REMARK INTER:                  -0.572
REMARK INTRA:                  -2.185
REMARK UNBOUND:                -1.535
REMARK SMILES CCCCCCCCCCCCCCCCCCCCCCCCCCCC(=O)[O-]
REMARK SMILES IDX 15 1 16 2 17 3 18 4 19 5 20 6 21 7 22 8 23 9 24 10 25 11
REMARK SMILES IDX 26 12 27 13 28 14 29 15 30 16 14 17 13 18 12 19 11 20 10 21
REMARK SMILES IDX 9 22 8 23 7 24 6 25 5 26 4 27 3 28 2 29 1 30
REMARK H PARENT
REMARK Flexibility Score: inf
ROOT
ATOM      1  C   UNL     1     -15.228  10.328   7.518  1.00  0.00     0.000 C 
ENDROOT
BRANCH   1   2
ATOM      2  C   UNL     1     -15.334   9.058   8.379  1.00  0.00     0.000 C 
BRANCH   2   3
ATOM      3  C   UNL     1     -16.762   8.491   8.423  1.00  0.00     0.000 C 
BRANCH   3   4
ATOM      4  C   UNL     1     -16.970   7.518   9.598  1.00  0.00     0.000 C 
BRANCH   4   5
ATOM      5  C   UNL     1     -15.658   6.876  10.088  1.00  0.00     0.000 C 
BRANCH   5   6
ATOM      6  C   UNL     1     -15.547   6.679  11.615  1.00  0.00     0.000 C 
BRANCH   6   7
ATOM      7  C   UNL     1     -15.417   7.973  12.435  1.00  0.00     0.000 C 
BRANCH   7   8
ATOM      8  C   UNL     1     -16.764   8.468  12.991  1.00  0.00     0.000 C 
BRANCH   8   9
ATOM      9  C   UNL     1     -16.932   9.987  12.831  1.00  0.00     0.000 C 
BRANCH   9  10
ATOM     10  C   UNL     1     -17.125  10.399  11.363  1.00  0.00     0.000 C 
BRANCH  10  11
ATOM     11  C   UNL     1     -16.777  11.878  11.153  1.00  0.00     0.000 C 
BRANCH  11  12
ATOM     12  C   UNL     1     -16.217  12.498  12.437  1.00  0.00     0.006 C 
BRANCH  12  13
ATOM     13  C   UNL     1     -14.758  12.926  12.255  1.00  0.00     0.053 C 
BRANCH  13  14
ATOM     14  C   UNL     1     -14.652  13.997  11.217  1.00  0.00     0.041 C 
ATOM     15  O   UNL     1     -13.814  13.893  10.282  1.00  0.00    -0.550 OA
ATOM     16  O   UNL     1     -15.517  15.084  11.249  1.00  0.00    -0.550 OA
ENDBRANCH  13  14
ENDBRANCH  12  13
ENDBRANCH  11  12
ENDBRANCH  10  11
ENDBRANCH   9  10
ENDBRANCH   8   9
ENDBRANCH   7   8
ENDBRANCH   6   7
ENDBRANCH   5   6
ENDBRANCH   4   5
ENDBRANCH   3   4
ENDBRANCH   2   3
ENDBRANCH   1   2
BRANCH   1  17
ATOM     17  C   UNL     1     -16.293  10.381   6.412  1.00  0.00     0.000 C 
BRANCH  17  18
ATOM     18  C   UNL     1     -15.825   9.710   5.112  1.00  0.00     0.000 C 
BRANCH  18  19
ATOM     19  C   UNL     1     -14.316   9.442   5.142  1.00  0.00     0.000 C 
BRANCH  19  20
ATOM     20  C   UNL     1     -13.557  10.489   4.313  1.00  0.00     0.000 C 
BRANCH  20  21
ATOM     21  C   UNL     1     -12.834   9.878   3.103  1.00  0.00     0.000 C 
BRANCH  21  22
ATOM     22  C   UNL     1     -13.792   9.145   2.151  1.00  0.00    -0.000 C 
BRANCH  22  23
ATOM     23  C   UNL     1     -13.354   9.314   0.688  1.00  0.00    -0.000 C 
BRANCH  23  24
ATOM     24  C   UNL     1     -12.900   7.994   0.048  1.00  0.00    -0.000 C 
BRANCH  24  25
ATOM     25  C   UNL     1     -13.824   6.818   0.395  1.00  0.00    -0.000 C 
BRANCH  25  26
ATOM     26  C   UNL     1     -13.801   5.751  -0.710  1.00  0.00    -0.000 C 
BRANCH  26  27
ATOM     27  C   UNL     1     -15.222   5.339  -1.152  1.00  0.00    -0.000 C 
BRANCH  27  28
ATOM     28  C   UNL     1     -16.260   5.393  -0.018  1.00  0.00    -0.000 C 
BRANCH  28  29
ATOM     29  C   UNL     1     -17.125   6.661  -0.058  1.00  0.00    -0.003 C 
ATOM     30  C   UNL     1     -16.991   7.461   1.234  1.00  0.00     0.004 C 
ENDBRANCH  28  29
ENDBRANCH  27  28
ENDBRANCH  26  27
ENDBRANCH  25  26
ENDBRANCH  24  25
ENDBRANCH  23  24
ENDBRANCH  22  23
ENDBRANCH  21  22
ENDBRANCH  20  21
ENDBRANCH  19  20
ENDBRANCH  18  19
ENDBRANCH  17  18
ENDBRANCH   1  17
TORSDOF 26
ENDMDL
MODEL 4
REMARK VINA RESULT:    -0.460      3.037     10.598
REMARK INTER + INTRA:          -2.693
REMARK INTER:                  -1.115
REMARK INTRA:                  -1.579
REMARK UNBOUND:                -1.535
REMARK SMILES CCCCCCCCCCCCCCCCCCCCCCCCCCCC(=O)[O-]
REMARK SMILES IDX 15 1 16 2 17 3 18 4 19 5 20 6 21 7 22 8 23 9 24 10 25 11
REMARK SMILES IDX 26 12 27 13 28 14 29 15 30 16 14 17 13 18 12 19 11 20 10 21
REMARK SMILES IDX 9 22 8 23 7 24 6 25 5 26 4 27 3 28 2 29 1 30
REMARK H PARENT
REMARK Flexibility Score: inf
ROOT
ATOM      1  C   UNL     1     -16.943   9.138   6.567  1.00  0.00     0.000 C 
ENDROOT
BRANCH   1   2
ATOM      2  C   UNL     1     -17.048   9.402   5.055  1.00  0.00     0.000 C 
BRANCH   2   3
ATOM      3  C   UNL     1     -17.124   8.106   4.232  1.00  0.00     0.000 C 
BRANCH   3   4
ATOM      4  C   UNL     1     -17.085   8.372   2.716  1.00  0.00     0.000 C 
BRANCH   4   5
ATOM      5  C   UNL     1     -17.124   7.081   1.876  1.00  0.00     0.000 C 
BRANCH   5   6
ATOM      6  C   UNL     1     -16.366   7.142   0.534  1.00  0.00     0.000 C 
BRANCH   6   7
ATOM      7  C   UNL     1     -16.779   6.082  -0.501  1.00  0.00     0.000 C 
BRANCH   7   8
ATOM      8  C   UNL     1     -15.798   4.899  -0.571  1.00  0.00     0.000 C 
BRANCH   8   9
ATOM      9  C   UNL     1     -14.527   5.248  -1.362  1.00  0.00     0.000 C 
BRANCH   9  10
ATOM     10  C   UNL     1     -13.336   5.557  -0.441  1.00  0.00     0.000 C 
BRANCH  10  11
ATOM     11  C   UNL     1     -12.375   6.557  -1.095  1.00  0.00     0.000 C 
BRANCH  11  12
ATOM     12  C   UNL     1     -12.731   7.996  -0.705  1.00  0.00     0.006 C 
BRANCH  12  13
ATOM     13  C   UNL     1     -12.261   8.316   0.717  1.00  0.00     0.053 C 
BRANCH  13  14
ATOM     14  C   UNL     1     -13.248   9.205   1.406  1.00  0.00     0.041 C 
ATOM     15  O   UNL     1     -14.309   8.722   1.883  1.00  0.00    -0.550 OA
ATOM     16  O   UNL     1     -12.969  10.555   1.574  1.00  0.00    -0.550 OA
ENDBRANCH  13  14
ENDBRANCH  12  13
ENDBRANCH  11  12
ENDBRANCH  10  11
ENDBRANCH   9  10
ENDBRANCH   8   9
ENDBRANCH   7   8
ENDBRANCH   6   7
ENDBRANCH   5   6
ENDBRANCH   4   5
ENDBRANCH   3   4
ENDBRANCH   2   3
ENDBRANCH   1   2
BRANCH   1  17
ATOM     17  C   UNL     1     -15.554   9.475   7.130  1.00  0.00     0.000 C 
BRANCH  17  18
ATOM     18  C   UNL     1     -15.493   9.352   8.659  1.00  0.00     0.000 C 
BRANCH  18  19
ATOM     19  C   UNL     1     -16.894   9.165   9.254  1.00  0.00     0.000 C 
BRANCH  19  20
ATOM     20  C   UNL     1     -16.861   9.298  10.784  1.00  0.00     0.000 C 
BRANCH  20  21
ATOM     21  C   UNL     1     -16.834  10.761  11.253  1.00  0.00     0.000 C 
BRANCH  21  22
ATOM     22  C   UNL     1     -16.007  10.955  12.534  1.00  0.00    -0.000 C 
BRANCH  22  23
ATOM     23  C   UNL     1     -15.215  12.270  12.486  1.00  0.00    -0.000 C 
BRANCH  23  24
ATOM     24  C   UNL     1     -16.123  13.510  12.499  1.00  0.00    -0.000 C 
BRANCH  24  25
ATOM     25  C   UNL     1     -16.059  14.304  11.187  1.00  0.00    -0.000 C 
BRANCH  25  26
ATOM     26  C   UNL     1     -14.604  14.581  10.778  1.00  0.00    -0.000 C 
BRANCH  26  27
ATOM     27  C   UNL     1     -14.185  13.771   9.532  1.00  0.00    -0.000 C 
BRANCH  27  28
ATOM     28  C   UNL     1     -15.295  12.858   8.988  1.00  0.00    -0.000 C 
BRANCH  28  29
ATOM     29  C   UNL     1     -15.502  13.003   7.473  1.00  0.00    -0.003 C 
ATOM     30  C   UNL     1     -14.172  13.189   6.750  1.00  0.00     0.004 C 
ENDBRANCH  28  29
ENDBRANCH  27  28
ENDBRANCH  26  27
ENDBRANCH  25  26
ENDBRANCH  24  25
ENDBRANCH  23  24
ENDBRANCH  22  23
ENDBRANCH  21  22
ENDBRANCH  20  21
ENDBRANCH  19  20
ENDBRANCH  18  19
ENDBRANCH  17  18
ENDBRANCH   1  17
TORSDOF 26
ENDMDL
MODEL 5
REMARK VINA RESULT:    -0.253      4.080     10.947
REMARK INTER + INTRA:          -2.173
REMARK INTER:                  -1.298
REMARK INTRA:                  -0.875
REMARK UNBOUND:                -1.535
REMARK SMILES CCCCCCCCCCCCCCCCCCCCCCCCCCCC(=O)[O-]
REMARK SMILES IDX 15 1 16 2 17 3 18 4 19 5 20 6 21 7 22 8 23 9 24 10 25 11
REMARK SMILES IDX 26 12 27 13 28 14 29 15 30 16 14 17 13 18 12 19 11 20 10 21
REMARK SMILES IDX 9 22 8 23 7 24 6 25 5 26 4 27 3 28 2 29 1 30
REMARK H PARENT
REMARK Flexibility Score: inf
ROOT
ATOM      1  C   UNL     1     -13.391   9.873   4.404  1.00  0.00     0.000 C 
ENDROOT
BRANCH   1   2
ATOM      2  C   UNL     1     -13.574  10.206   2.914  1.00  0.00     0.000 C 
BRANCH   2   3
ATOM      3  C   UNL     1     -13.346   8.988   2.003  1.00  0.00     0.000 C 
BRANCH   3   4
ATOM      4  C   UNL     1     -14.644   8.511   1.328  1.00  0.00     0.000 C 
BRANCH   4   5
ATOM      5  C   UNL     1     -15.821   8.373   2.313  1.00  0.00     0.000 C 
BRANCH   5   6
ATOM      6  C   UNL     1     -17.117   7.783   1.718  1.00  0.00     0.000 C 
BRANCH   6   7
ATOM      7  C   UNL     1     -16.969   7.152   0.323  1.00  0.00     0.000 C 
BRANCH   7   8
ATOM      8  C   UNL     1     -17.041   5.615   0.350  1.00  0.00     0.000 C 
BRANCH   8   9
ATOM      9  C   UNL     1     -16.907   5.006  -1.054  1.00  0.00     0.000 C 
BRANCH   9  10
ATOM     10  C   UNL     1     -15.645   4.140  -1.194  1.00  0.00     0.000 C 
BRANCH  10  11
ATOM     11  C   UNL     1     -14.515   4.917  -1.881  1.00  0.00     0.000 C 
BRANCH  11  12
ATOM     12  C   UNL     1     -13.381   5.222  -0.896  1.00  0.00     0.006 C 
BRANCH  12  13
ATOM     13  C   UNL     1     -13.365   6.704  -0.513  1.00  0.00     0.053 C 
BRANCH  13  14
ATOM     14  C   UNL     1     -12.114   7.359  -1.006  1.00  0.00     0.041 C 
ATOM     15  O   UNL     1     -11.650   8.368  -0.410  1.00  0.00    -0.550 OA
ATOM     16  O   UNL     1     -11.427   6.821  -2.087  1.00  0.00    -0.550 OA
ENDBRANCH  13  14
ENDBRANCH  12  13
ENDBRANCH  11  12
ENDBRANCH  10  11
ENDBRANCH   9  10
ENDBRANCH   8   9
ENDBRANCH   7   8
ENDBRANCH   6   7
ENDBRANCH   5   6
ENDBRANCH   4   5
ENDBRANCH   3   4
ENDBRANCH   2   3
ENDBRANCH   1   2
BRANCH   1  17
ATOM     17  C   UNL     1     -14.724   9.581   5.110  1.00  0.00     0.000 C 
BRANCH  17  18
ATOM     18  C   UNL     1     -14.880  10.367   6.421  1.00  0.00     0.000 C 
BRANCH  18  19
ATOM     19  C   UNL     1     -16.344  10.389   6.878  1.00  0.00     0.000 C 
BRANCH  19  20
ATOM     20  C   UNL     1     -16.497  11.182   8.185  1.00  0.00     0.000 C 
BRANCH  20  21
ATOM     21  C   UNL     1     -16.234  10.324   9.433  1.00  0.00     0.000 C 
BRANCH  21  22
ATOM     22  C   UNL     1     -16.667   8.861   9.246  1.00  0.00    -0.000 C 
BRANCH  22  23
ATOM     23  C   UNL     1     -16.580   8.087  10.570  1.00  0.00    -0.000 C 
BRANCH  23  24
ATOM     24  C   UNL     1     -16.713   6.568  10.378  1.00  0.00    -0.000 C 
BRANCH  24  25
ATOM     25  C   UNL     1     -16.859   5.814  11.708  1.00  0.00    -0.000 C 
BRANCH  25  26
ATOM     26  C   UNL     1     -16.364   4.365  11.579  1.00  0.00    -0.000 C 
BRANCH  26  27
ATOM     27  C   UNL     1     -15.200   4.059  12.546  1.00  0.00    -0.000 C 
BRANCH  27  28
ATOM     28  C   UNL     1     -13.811   4.185  11.898  1.00  0.00    -0.000 C 
BRANCH  28  29
ATOM     29  C   UNL     1     -13.413   5.641  11.615  1.00  0.00    -0.003 C 
ATOM     30  C   UNL     1     -13.251   6.430  12.910  1.00  0.00     0.004 C 
ENDBRANCH  28  29
ENDBRANCH  27  28
ENDBRANCH  26  27
ENDBRANCH  25  26
ENDBRANCH  24  25
ENDBRANCH  23  24
ENDBRANCH  22  23
ENDBRANCH  21  22
ENDBRANCH  20  21
ENDBRANCH  19  20
ENDBRANCH  18  19
ENDBRANCH  17  18
ENDBRANCH   1  17
TORSDOF 26
ENDMDL
MODEL 6
REMARK VINA RESULT:    -0.251      1.325      2.480
REMARK INTER + INTRA:          -2.168
REMARK INTER:                  -0.893
REMARK INTRA:                  -1.276
REMARK UNBOUND:                -1.535
REMARK SMILES CCCCCCCCCCCCCCCCCCCCCCCCCCCC(=O)[O-]
REMARK SMILES IDX 15 1 16 2 17 3 18 4 19 5 20 6 21 7 22 8 23 9 24 10 25 11
REMARK SMILES IDX 26 12 27 13 28 14 29 15 30 16 14 17 13 18 12 19 11 20 10 21
REMARK SMILES IDX 9 22 8 23 7 24 6 25 5 26 4 27 3 28 2 29 1 30
REMARK H PARENT
REMARK Flexibility Score: inf
ROOT
ATOM      1  C   UNL     1     -13.840  10.172   5.748  1.00  0.00     0.000 C 
ENDROOT
BRANCH   1   2
ATOM      2  C   UNL     1     -15.365   9.995   5.656  1.00  0.00     0.000 C 
BRANCH   2   3
ATOM      3  C   UNL     1     -16.113  10.703   6.796  1.00  0.00     0.000 C 
BRANCH   3   4
ATOM      4  C   UNL     1     -16.756   9.710   7.780  1.00  0.00     0.000 C 
BRANCH   4   5
ATOM      5  C   UNL     1     -15.782   8.615   8.257  1.00  0.00     0.000 C 
BRANCH   5   6
ATOM      6  C   UNL     1     -16.394   7.539   9.177  1.00  0.00     0.000 C 
BRANCH   6   7
ATOM      7  C   UNL     1     -16.266   7.816  10.685  1.00  0.00     0.000 C 
BRANCH   7   8
ATOM      8  C   UNL     1     -16.880   9.164  11.100  1.00  0.00     0.000 C 
BRANCH   8   9
ATOM      9  C   UNL     1     -16.287   9.687  12.418  1.00  0.00     0.000 C 
BRANCH   9  10
ATOM     10  C   UNL     1     -16.701  11.139  12.706  1.00  0.00     0.000 C 
BRANCH  10  11
ATOM     11  C   UNL     1     -15.628  12.126  12.228  1.00  0.00     0.000 C 
BRANCH  11  12
ATOM     12  C   UNL     1     -16.266  13.418  11.705  1.00  0.00     0.006 C 
BRANCH  12  13
ATOM     13  C   UNL     1     -15.274  14.584  11.755  1.00  0.00     0.053 C 
BRANCH  13  14
ATOM     14  C   UNL     1     -13.985  14.203  11.098  1.00  0.00     0.041 C 
ATOM     15  O   UNL     1     -12.953  14.010  11.794  1.00  0.00    -0.550 OA
ATOM     16  O   UNL     1     -13.937  14.004   9.724  1.00  0.00    -0.550 OA
ENDBRANCH  13  14
ENDBRANCH  12  13
ENDBRANCH  11  12
ENDBRANCH  10  11
ENDBRANCH   9  10
ENDBRANCH   8   9
ENDBRANCH   7   8
ENDBRANCH   6   7
ENDBRANCH   5   6
ENDBRANCH   4   5
ENDBRANCH   3   4
ENDBRANCH   2   3
ENDBRANCH   1   2
BRANCH   1  17
ATOM     17  C   UNL     1     -13.188  10.391   4.374  1.00  0.00     0.000 C 
BRANCH  17  18
ATOM     18  C   UNL     1     -13.839   9.544   3.270  1.00  0.00     0.000 C 
BRANCH  18  19
ATOM     19  C   UNL     1     -13.375   9.998   1.881  1.00  0.00     0.000 C 
BRANCH  19  20
ATOM     20  C   UNL     1     -13.521   8.863   0.857  1.00  0.00     0.000 C 
BRANCH  20  21
ATOM     21  C   UNL     1     -12.183   8.180   0.534  1.00  0.00     0.000 C 
BRANCH  21  22
ATOM     22  C   UNL     1     -11.910   8.100  -0.977  1.00  0.00    -0.000 C 
BRANCH  22  23
ATOM     23  C   UNL     1     -12.319   6.731  -1.540  1.00  0.00    -0.000 C 
BRANCH  23  24
ATOM     24  C   UNL     1     -13.414   6.049  -0.705  1.00  0.00    -0.000 C 
BRANCH  24  25
ATOM     25  C   UNL     1     -13.744   4.635  -1.204  1.00  0.00    -0.000 C 
BRANCH  25  26
ATOM     26  C   UNL     1     -15.036   4.630  -2.036  1.00  0.00    -0.000 C 
BRANCH  26  27
ATOM     27  C   UNL     1     -16.188   3.892  -1.320  1.00  0.00    -0.000 C 
BRANCH  27  28
ATOM     28  C   UNL     1     -16.729   4.640  -0.091  1.00  0.00    -0.000 C 
BRANCH  28  29
ATOM     29  C   UNL     1     -17.125   6.091  -0.399  1.00  0.00    -0.003 C 
ATOM     30  C   UNL     1     -16.518   7.056   0.616  1.00  0.00     0.004 C 
ENDBRANCH  28  29
ENDBRANCH  27  28
ENDBRANCH  26  27
ENDBRANCH  25  26
ENDBRANCH  24  25
ENDBRANCH  23  24
ENDBRANCH  22  23
ENDBRANCH  21  22
ENDBRANCH  20  21
ENDBRANCH  19  20
ENDBRANCH  18  19
ENDBRANCH  17  18
ENDBRANCH   1  17
TORSDOF 26
ENDMDL
MODEL 7
REMARK VINA RESULT:    -0.248      1.165      2.798
REMARK INTER + INTRA:          -2.159
REMARK INTER:                  -0.336
REMARK INTRA:                  -1.824
REMARK UNBOUND:                -1.535
REMARK SMILES CCCCCCCCCCCCCCCCCCCCCCCCCCCC(=O)[O-]
REMARK SMILES IDX 15 1 16 2 17 3 18 4 19 5 20 6 21 7 22 8 23 9 24 10 25 11
REMARK SMILES IDX 26 12 27 13 28 14 29 15 30 16 14 17 13 18 12 19 11 20 10 21
REMARK SMILES IDX 9 22 8 23 7 24 6 25 5 26 4 27 3 28 2 29 1 30
REMARK H PARENT
REMARK Flexibility Score: inf
ROOT
ATOM      1  C   UNL     1     -14.509  10.472   6.187  1.00  0.00     0.000 C 
ENDROOT
BRANCH   1   2
ATOM      2  C   UNL     1     -15.262  11.698   6.729  1.00  0.00     0.000 C 
BRANCH   2   3
ATOM      3  C   UNL     1     -16.625  11.334   7.339  1.00  0.00     0.000 C 
BRANCH   3   4
ATOM      4  C   UNL     1     -16.998   9.860   7.102  1.00  0.00     0.000 C 
BRANCH   4   5
ATOM      5  C   UNL     1     -17.102   9.047   8.406  1.00  0.00     0.000 C 
BRANCH   5   6
ATOM      6  C   UNL     1     -15.759   8.575   9.001  1.00  0.00     0.000 C 
BRANCH   6   7
ATOM      7  C   UNL     1     -15.859   7.417  10.009  1.00  0.00     0.000 C 
BRANCH   7   8
ATOM      8  C   UNL     1     -16.769   7.743  11.206  1.00  0.00     0.000 C 
BRANCH   8   9
ATOM      9  C   UNL     1     -16.043   8.576  12.274  1.00  0.00     0.000 C 
BRANCH   9  10
ATOM     10  C   UNL     1     -16.764   9.901  12.566  1.00  0.00     0.000 C 
BRANCH  10  11
ATOM     11  C   UNL     1     -16.560  10.906  11.425  1.00  0.00     0.000 C 
BRANCH  11  12
ATOM     12  C   UNL     1     -15.756  12.121  11.900  1.00  0.00     0.006 C 
BRANCH  12  13
ATOM     13  C   UNL     1     -15.452  13.072  10.739  1.00  0.00     0.053 C 
BRANCH  13  14
ATOM     14  C   UNL     1     -14.143  13.762  10.958  1.00  0.00     0.041 C 
ATOM     15  O   UNL     1     -13.336  13.331  11.823  1.00  0.00    -0.550 OA
ATOM     16  O   UNL     1     -13.788  14.848  10.166  1.00  0.00    -0.550 OA
ENDBRANCH  13  14
ENDBRANCH  12  13
ENDBRANCH  11  12
ENDBRANCH  10  11
ENDBRANCH   9  10
ENDBRANCH   8   9
ENDBRANCH   7   8
ENDBRANCH   6   7
ENDBRANCH   5   6
ENDBRANCH   4   5
ENDBRANCH   3   4
ENDBRANCH   2   3
ENDBRANCH   1   2
BRANCH   1  17
ATOM     17  C   UNL     1     -13.802  10.756   4.853  1.00  0.00     0.000 C 
BRANCH  17  18
ATOM     18  C   UNL     1     -13.396   9.471   4.115  1.00  0.00     0.000 C 
BRANCH  18  19
ATOM     19  C   UNL     1     -13.960   9.452   2.690  1.00  0.00     0.000 C 
BRANCH  19  20
ATOM     20  C   UNL     1     -15.265   8.644   2.628  1.00  0.00     0.000 C 
BRANCH  20  21
ATOM     21  C   UNL     1     -15.525   8.043   1.237  1.00  0.00     0.000 C 
BRANCH  21  22
ATOM     22  C   UNL     1     -16.969   7.540   1.073  1.00  0.00    -0.000 C 
BRANCH  22  23
ATOM     23  C   UNL     1     -17.091   6.600  -0.135  1.00  0.00    -0.000 C 
BRANCH  23  24
ATOM     24  C   UNL     1     -16.343   5.273   0.066  1.00  0.00    -0.000 C 
BRANCH  24  25
ATOM     25  C   UNL     1     -16.394   4.370  -1.174  1.00  0.00    -0.000 C 
BRANCH  25  26
ATOM     26  C   UNL     1     -15.011   4.258  -1.834  1.00  0.00    -0.000 C 
BRANCH  26  27
ATOM     27  C   UNL     1     -14.194   5.561  -1.698  1.00  0.00    -0.000 C 
BRANCH  27  28
ATOM     28  C   UNL     1     -13.340   5.621  -0.421  1.00  0.00    -0.000 C 
BRANCH  28  29
ATOM     29  C   UNL     1     -12.751   7.015  -0.160  1.00  0.00    -0.003 C 
ATOM     30  C   UNL     1     -11.984   7.526  -1.376  1.00  0.00     0.004 C 
ENDBRANCH  28  29
ENDBRANCH  27  28
ENDBRANCH  26  27
ENDBRANCH  25  26
ENDBRANCH  24  25
ENDBRANCH  23  24
ENDBRANCH  22  23
ENDBRANCH  21  22
ENDBRANCH  20  21
ENDBRANCH  19  20
ENDBRANCH  18  19
ENDBRANCH  17  18
ENDBRANCH   1  17
TORSDOF 26
ENDMDL
MODEL 8
REMARK VINA RESULT:    -0.213      3.690     11.090
REMARK INTER + INTRA:          -2.073
REMARK INTER:                  -0.160
REMARK INTRA:                  -1.913
REMARK UNBOUND:                -1.535
REMARK SMILES CCCCCCCCCCCCCCCCCCCCCCCCCCCC(=O)[O-]
REMARK SMILES IDX 15 1 16 2 17 3 18 4 19 5 20 6 21 7 22 8 23 9 24 10 25 11
REMARK SMILES IDX 26 12 27 13 28 14 29 15 30 16 14 17 13 18 12 19 11 20 10 21
REMARK SMILES IDX 9 22 8 23 7 24 6 25 5 26 4 27 3 28 2 29 1 30
REMARK H PARENT
REMARK Flexibility Score: inf
ROOT
ATOM      1  C   UNL     1     -14.530   9.601   5.725  1.00  0.00     0.000 C 
ENDROOT
BRANCH   1   2
ATOM      2  C   UNL     1     -13.820  10.492   4.692  1.00  0.00     0.000 C 
BRANCH   2   3
ATOM      3  C   UNL     1     -12.974   9.684   3.695  1.00  0.00     0.000 C 
BRANCH   3   4
ATOM      4  C   UNL     1     -13.681   9.502   2.340  1.00  0.00     0.000 C 
BRANCH   4   5
ATOM      5  C   UNL     1     -14.922   8.592   2.424  1.00  0.00     0.000 C 
BRANCH   5   6
ATOM      6  C   UNL     1     -15.396   7.993   1.083  1.00  0.00     0.000 C 
BRANCH   6   7
ATOM      7  C   UNL     1     -16.872   7.563   1.043  1.00  0.00     0.000 C 
BRANCH   7   8
ATOM      8  C   UNL     1     -17.056   6.091   0.634  1.00  0.00     0.000 C 
BRANCH   8   9
ATOM      9  C   UNL     1     -17.124   5.919  -0.892  1.00  0.00     0.000 C 
BRANCH   9  10
ATOM     10  C   UNL     1     -16.078   4.922  -1.412  1.00  0.00     0.000 C 
BRANCH  10  11
ATOM     11  C   UNL     1     -14.860   4.861  -0.481  1.00  0.00     0.000 C 
BRANCH  11  12
ATOM     12  C   UNL     1     -13.657   5.579  -1.103  1.00  0.00     0.006 C 
BRANCH  12  13
ATOM     13  C   UNL     1     -13.273   6.819  -0.292  1.00  0.00     0.053 C 
BRANCH  13  14
ATOM     14  C   UNL     1     -12.141   7.544  -0.949  1.00  0.00     0.041 C 
ATOM     15  O   UNL     1     -11.354   6.928  -1.715  1.00  0.00    -0.550 OA
ATOM     16  O   UNL     1     -11.990   8.913  -0.762  1.00  0.00    -0.550 OA
ENDBRANCH  13  14
ENDBRANCH  12  13
ENDBRANCH  11  12
ENDBRANCH  10  11
ENDBRANCH   9  10
ENDBRANCH   8   9
ENDBRANCH   7   8
ENDBRANCH   6   7
ENDBRANCH   5   6
ENDBRANCH   4   5
ENDBRANCH   3   4
ENDBRANCH   2   3
ENDBRANCH   1   2
BRANCH   1  17
ATOM     17  C   UNL     1     -16.051   9.816   5.742  1.00  0.00     0.000 C 
BRANCH  17  18
ATOM     18  C   UNL     1     -16.588  10.123   7.148  1.00  0.00     0.000 C 
BRANCH  18  19
ATOM     19  C   UNL     1     -16.279   8.976   8.118  1.00  0.00     0.000 C 
BRANCH  19  20
ATOM     20  C   UNL     1     -15.825   9.519   9.481  1.00  0.00     0.000 C 
BRANCH  20  21
ATOM     21  C   UNL     1     -16.994   9.729  10.456  1.00  0.00     0.000 C 
BRANCH  21  22
ATOM     22  C   UNL     1     -16.537   9.784  11.923  1.00  0.00    -0.000 C 
BRANCH  22  23
ATOM     23  C   UNL     1     -15.810  11.102  12.225  1.00  0.00    -0.000 C 
BRANCH  23  24
ATOM     24  C   UNL     1     -16.654  12.065  13.074  1.00  0.00    -0.000 C 
BRANCH  24  25
ATOM     25  C   UNL     1     -16.736  13.473  12.468  1.00  0.00    -0.000 C 
BRANCH  25  26
ATOM     26  C   UNL     1     -15.365  13.932  11.949  1.00  0.00    -0.000 C 
BRANCH  26  27
ATOM     27  C   UNL     1     -15.360  14.141  10.419  1.00  0.00    -0.000 C 
BRANCH  27  28
ATOM     28  C   UNL     1     -14.157  13.495   9.712  1.00  0.00    -0.000 C 
BRANCH  28  29
ATOM     29  C   UNL     1     -14.513  12.907   8.339  1.00  0.00    -0.003 C 
ATOM     30  C   UNL     1     -13.640  13.503   7.240  1.00  0.00     0.004 C 
ENDBRANCH  28  29
ENDBRANCH  27  28
ENDBRANCH  26  27
ENDBRANCH  25  26
ENDBRANCH  24  25
ENDBRANCH  23  24
ENDBRANCH  22  23
ENDBRANCH  21  22
ENDBRANCH  20  21
ENDBRANCH  19  20
ENDBRANCH  18  19
ENDBRANCH  17  18
ENDBRANCH   1  17
TORSDOF 26
ENDMDL
MODEL 9
REMARK VINA RESULT:    -0.123      1.942      4.335
REMARK INTER + INTRA:          -1.846
REMARK INTER:                   0.409
REMARK INTRA:                  -2.255
REMARK UNBOUND:                -1.535
REMARK SMILES CCCCCCCCCCCCCCCCCCCCCCCCCCCC(=O)[O-]
REMARK SMILES IDX 15 1 16 2 17 3 18 4 19 5 20 6 21 7 22 8 23 9 24 10 25 11
REMARK SMILES IDX 26 12 27 13 28 14 29 15 30 16 14 17 13 18 12 19 11 20 10 21
REMARK SMILES IDX 9 22 8 23 7 24 6 25 5 26 4 27 3 28 2 29 1 30
REMARK H PARENT
REMARK Flexibility Score: inf
ROOT
ATOM      1  C   UNL     1     -15.675   7.719   9.297  1.00  0.00     0.000 C 
ENDROOT
BRANCH   1   2
ATOM      2  C   UNL     1     -15.659   6.886  10.590  1.00  0.00     0.000 C 
BRANCH   2   3
ATOM      3  C   UNL     1     -16.965   7.010  11.391  1.00  0.00     0.000 C 
BRANCH   3   4
ATOM      4  C   UNL     1     -16.932   8.182  12.387  1.00  0.00     0.000 C 
BRANCH   4   5
ATOM      5  C   UNL     1     -15.524   8.454  12.953  1.00  0.00     0.000 C 
BRANCH   5   6
ATOM      6  C   UNL     1     -15.150   9.942  13.111  1.00  0.00     0.000 C 
BRANCH   6   7
ATOM      7  C   UNL     1     -16.324  10.929  12.993  1.00  0.00     0.000 C 
BRANCH   7   8
ATOM      8  C   UNL     1     -15.866  12.386  12.805  1.00  0.00     0.000 C 
BRANCH   8   9
ATOM      9  C   UNL     1     -16.895  13.220  12.026  1.00  0.00     0.000 C 
BRANCH   9  10
ATOM     10  C   UNL     1     -16.239  14.364  11.237  1.00  0.00     0.000 C 
BRANCH  10  11
ATOM     11  C   UNL     1     -14.713  14.334  11.384  1.00  0.00     0.000 C 
BRANCH  11  12
ATOM     12  C   UNL     1     -14.031  14.260  10.013  1.00  0.00     0.006 C 
BRANCH  12  13
ATOM     13  C   UNL     1     -14.387  12.959   9.288  1.00  0.00     0.053 C 
BRANCH  13  14
ATOM     14  C   UNL     1     -14.316  13.151   7.806  1.00  0.00     0.041 C 
ATOM     15  O   UNL     1     -15.261  12.757   7.071  1.00  0.00    -0.550 OA
ATOM     16  O   UNL     1     -13.235  13.815   7.241  1.00  0.00    -0.550 OA
ENDBRANCH  13  14
ENDBRANCH  12  13
ENDBRANCH  11  12
ENDBRANCH  10  11
ENDBRANCH   9  10
ENDBRANCH   8   9
ENDBRANCH   7   8
ENDBRANCH   6   7
ENDBRANCH   5   6
ENDBRANCH   4   5
ENDBRANCH   3   4
ENDBRANCH   2   3
ENDBRANCH   1   2
BRANCH   1  17
ATOM     17  C   UNL     1     -17.082   8.219   8.936  1.00  0.00     0.000 C 
BRANCH  17  18
ATOM     18  C   UNL     1     -17.057   9.566   8.199  1.00  0.00     0.000 C 
BRANCH  18  19
ATOM     19  C   UNL     1     -16.091   9.525   7.008  1.00  0.00     0.000 C 
BRANCH  19  20
ATOM     20  C   UNL     1     -16.861   9.494   5.680  1.00  0.00     0.000 C 
BRANCH  20  21
ATOM     21  C   UNL     1     -16.320   8.437   4.704  1.00  0.00     0.000 C 
BRANCH  21  22
ATOM     22  C   UNL     1     -17.125   8.374   3.396  1.00  0.00    -0.000 C 
BRANCH  22  23
ATOM     23  C   UNL     1     -16.193   8.276   2.179  1.00  0.00    -0.000 C 
BRANCH  23  24
ATOM     24  C   UNL     1     -16.953   8.023   0.868  1.00  0.00    -0.000 C 
BRANCH  24  25
ATOM     25  C   UNL     1     -17.051   6.532   0.518  1.00  0.00    -0.000 C 
BRANCH  25  26
ATOM     26  C   UNL     1     -15.667   5.865   0.547  1.00  0.00    -0.000 C 
BRANCH  26  27
ATOM     27  C   UNL     1     -14.847   6.168  -0.725  1.00  0.00    -0.000 C 
BRANCH  27  28
ATOM     28  C   UNL     1     -13.391   5.679  -0.652  1.00  0.00    -0.000 C 
BRANCH  28  29
ATOM     29  C   UNL     1     -12.369   6.818  -0.783  1.00  0.00    -0.003 C 
ATOM     30  C   UNL     1     -12.839   8.067  -0.044  1.00  0.00     0.004 C 
ENDBRANCH  28  29
ENDBRANCH  27  28
ENDBRANCH  26  27
ENDBRANCH  25  26
ENDBRANCH  24  25
ENDBRANCH  23  24
ENDBRANCH  22  23
ENDBRANCH  21  22
ENDBRANCH  20  21
ENDBRANCH  19  20
ENDBRANCH  18  19
ENDBRANCH  17  18
ENDBRANCH   1  17
TORSDOF 26
ENDMDL
