MODEL 1
REMARK VINA RESULT:    -5.513      0.000      0.000
REMARK INTER + INTRA:          -6.616
REMARK INTER:                  -6.479
REMARK INTRA:                  -0.136
REMARK UNBOUND:                -0.136
REMARK SMILES O=C([O-])C=Cc1ccc(O)c(O)c1
REMARK SMILES IDX 6 1 13 2 7 3 11 4 8 5 9 6 5 7 4 8 2 9 1 10 3 11 12 12 10 14
REMARK H PARENT 12 13 10 15
REMARK Flexibility Score: inf
ROOT
ATOM      1  C   UNL     1      -7.105 -10.272  28.765  1.00  0.00    -0.022 A 
ATOM      2  C   UNL     1      -8.432 -10.254  28.306  1.00  0.00     0.058 A 
ATOM      3  C   UNL     1      -6.700  -9.311  29.708  1.00  0.00     0.012 A 
ATOM      4  C   UNL     1      -9.339  -9.285  28.753  1.00  0.00     0.157 A 
ATOM      5  C   UNL     1      -7.599  -8.342  30.159  1.00  0.00     0.051 A 
ATOM      6  C   UNL     1      -8.916  -8.314  29.689  1.00  0.00     0.157 A 
ENDROOT
BRANCH   1   7
ATOM      7  C   UNL     1      -6.194 -11.330  28.262  1.00  0.00     0.010 C 
ATOM      8  C   UNL     1      -5.300 -11.971  29.029  1.00  0.00     0.025 C 
BRANCH   8   9
ATOM      9  C   UNL     1      -4.404 -13.009  28.492  1.00  0.00     0.064 C 
ATOM     10  O   UNL     1      -4.293 -14.130  29.056  1.00  0.00    -0.545 OA
ATOM     11  O   UNL     1      -3.668 -12.747  27.345  1.00  0.00    -0.545 OA
ENDBRANCH   8   9
ENDBRANCH   1   7
BRANCH   4  12
ATOM     12  O   UNL     1     -10.640  -9.326  28.244  1.00  0.00    -0.504 OA
ATOM     13  H   UNL     1     -11.202  -8.506  28.065  1.00  0.00     0.293 HD
ENDBRANCH   4  12
BRANCH   6  14
ATOM     14  O   UNL     1      -9.762  -7.316  30.178  1.00  0.00    -0.504 OA
ATOM     15  H   UNL     1      -9.968  -7.181  31.157  1.00  0.00     0.293 HD
ENDBRANCH   6  14
TORSDOF 4
ENDMDL
MODEL 2
REMARK VINA RESULT:    -5.101      0.787      2.098
REMARK INTER + INTRA:          -6.132
REMARK INTER:                  -6.000
REMARK INTRA:                  -0.132
REMARK UNBOUND:                -0.136
REMARK SMILES O=C([O-])C=Cc1ccc(O)c(O)c1
REMARK SMILES IDX 6 1 13 2 7 3 11 4 8 5 9 6 5 7 4 8 2 9 1 10 3 11 12 12 10 14
REMARK H PARENT 12 13 10 15
REMARK Flexibility Score: inf
ROOT
ATOM      1  C   UNL     1      -7.243 -10.374  28.701  1.00  0.00    -0.022 A 
ATOM      2  C   UNL     1      -6.860  -9.537  29.761  1.00  0.00     0.058 A 
ATOM      3  C   UNL     1      -8.495 -10.171  28.094  1.00  0.00     0.012 A 
ATOM      4  C   UNL     1      -7.712  -8.530  30.232  1.00  0.00     0.157 A 
ATOM      5  C   UNL     1      -9.349  -9.168  28.558  1.00  0.00     0.051 A 
ATOM      6  C   UNL     1      -8.975  -8.345  29.625  1.00  0.00     0.157 A 
ENDROOT
BRANCH   1   7
ATOM      7  C   UNL     1      -6.292 -11.417  28.241  1.00  0.00     0.010 C 
ATOM      8  C   UNL     1      -5.333 -11.946  29.015  1.00  0.00     0.025 C 
BRANCH   8   9
ATOM      9  C   UNL     1      -4.399 -12.971  28.521  1.00  0.00     0.064 C 
ATOM     10  O   UNL     1      -3.729 -12.790  27.469  1.00  0.00    -0.545 OA
ATOM     11  O   UNL     1      -4.255 -14.159  29.225  1.00  0.00    -0.545 OA
ENDBRANCH   8   9
ENDBRANCH   1   7
BRANCH   4  12
ATOM     12  O   UNL     1      -7.265  -7.743  31.296  1.00  0.00    -0.504 OA
ATOM     13  H   UNL     1      -6.471  -7.121  31.244  1.00  0.00     0.293 HD
ENDBRANCH   4  12
BRANCH   6  14
ATOM     14  O   UNL     1      -9.879  -7.365  30.041  1.00  0.00    -0.504 OA
ATOM     15  H   UNL     1      -9.987  -6.469  29.588  1.00  0.00     0.293 HD
ENDBRANCH   6  14
TORSDOF 4
ENDMDL
MODEL 3
REMARK VINA RESULT:    -5.081      2.059      2.531
REMARK INTER + INTRA:          -6.108
REMARK INTER:                  -5.983
REMARK INTRA:                  -0.125
REMARK UNBOUND:                -0.136
REMARK SMILES O=C([O-])C=Cc1ccc(O)c(O)c1
REMARK SMILES IDX 6 1 13 2 7 3 11 4 8 5 9 6 5 7 4 8 2 9 1 10 3 11 12 12 10 14
REMARK H PARENT 12 13 10 15
REMARK Flexibility Score: inf
ROOT
ATOM      1  C   UNL     1      -7.302 -10.086  27.989  1.00  0.00    -0.022 A 
ATOM      2  C   UNL     1      -8.698 -10.006  27.868  1.00  0.00     0.058 A 
ATOM      3  C   UNL     1      -6.680  -9.477  29.094  1.00  0.00     0.012 A 
ATOM      4  C   UNL     1      -9.468  -9.311  28.810  1.00  0.00     0.157 A 
ATOM      5  C   UNL     1      -7.442  -8.783  30.037  1.00  0.00     0.051 A 
ATOM      6  C   UNL     1      -8.831  -8.688  29.907  1.00  0.00     0.157 A 
ENDROOT
BRANCH   1   7
ATOM      7  C   UNL     1      -6.543 -10.845  26.964  1.00  0.00     0.010 C 
ATOM      8  C   UNL     1      -6.230 -10.357  25.755  1.00  0.00     0.025 C 
BRANCH   8   9
ATOM      9  C   UNL     1      -5.485 -11.144  24.758  1.00  0.00     0.064 C 
ATOM     10  O   UNL     1      -4.291 -11.492  24.962  1.00  0.00    -0.545 OA
ATOM     11  O   UNL     1      -6.109 -11.508  23.572  1.00  0.00    -0.545 OA
ENDBRANCH   8   9
ENDBRANCH   1   7
BRANCH   4  12
ATOM     12  O   UNL     1     -10.851  -9.266  28.616  1.00  0.00    -0.504 OA
ATOM     13  H   UNL     1     -11.314  -8.611  28.003  1.00  0.00     0.293 HD
ENDBRANCH   4  12
BRANCH   6  14
ATOM     14  O   UNL     1      -9.530  -7.976  30.884  1.00  0.00    -0.504 OA
ATOM     15  H   UNL     1      -9.338  -8.039  31.873  1.00  0.00     0.293 HD
ENDBRANCH   6  14
TORSDOF 4
ENDMDL
MODEL 4
REMARK VINA RESULT:    -5.029      2.149      2.916
REMARK INTER + INTRA:          -6.047
REMARK INTER:                  -5.917
REMARK INTRA:                  -0.130
REMARK UNBOUND:                -0.136
REMARK SMILES O=C([O-])C=Cc1ccc(O)c(O)c1
REMARK SMILES IDX 6 1 13 2 7 3 11 4 8 5 9 6 5 7 4 8 2 9 1 10 3 11 12 12 10 14
REMARK H PARENT 12 13 10 15
REMARK Flexibility Score: inf
ROOT
ATOM      1  C   UNL     1      -6.828  -9.453  29.822  1.00  0.00    -0.022 A 
ATOM      2  C   UNL     1      -7.762  -8.577  30.398  1.00  0.00     0.058 A 
ATOM      3  C   UNL     1      -7.218 -10.228  28.715  1.00  0.00     0.012 A 
ATOM      4  C   UNL     1      -9.070  -8.487  29.905  1.00  0.00     0.157 A 
ATOM      5  C   UNL     1      -8.520 -10.143  28.218  1.00  0.00     0.051 A 
ATOM      6  C   UNL     1      -9.455  -9.283  28.802  1.00  0.00     0.157 A 
ENDROOT
BRANCH   1   7
ATOM      7  C   UNL     1      -5.455  -9.496  30.383  1.00  0.00     0.010 C 
ATOM      8  C   UNL     1      -4.833 -10.628  30.746  1.00  0.00     0.025 C 
BRANCH   8   9
ATOM      9  C   UNL     1      -3.473 -10.631  31.310  1.00  0.00     0.064 C 
ATOM     10  O   UNL     1      -3.032 -11.626  31.945  1.00  0.00    -0.545 OA
ATOM     11  O   UNL     1      -2.662  -9.517  31.141  1.00  0.00    -0.545 OA
ENDBRANCH   8   9
ENDBRANCH   1   7
BRANCH   4  12
ATOM     12  O   UNL     1      -9.944  -7.600  30.537  1.00  0.00    -0.504 OA
ATOM     13  H   UNL     1     -10.534  -7.849  31.318  1.00  0.00     0.293 HD
ENDBRANCH   4  12
BRANCH   6  14
ATOM     14  O   UNL     1     -10.741  -9.249  28.257  1.00  0.00    -0.504 OA
ATOM     15  H   UNL     1     -10.981  -9.631  27.354  1.00  0.00     0.293 HD
ENDBRANCH   6  14
TORSDOF 4
ENDMDL
MODEL 5
REMARK VINA RESULT:    -4.963      2.723      3.284
REMARK INTER + INTRA:          -5.969
REMARK INTER:                  -5.837
REMARK INTRA:                  -0.132
REMARK UNBOUND:                -0.136
REMARK SMILES O=C([O-])C=Cc1ccc(O)c(O)c1
REMARK SMILES IDX 6 1 13 2 7 3 11 4 8 5 9 6 5 7 4 8 2 9 1 10 3 11 12 12 10 14
REMARK H PARENT 12 13 10 15
REMARK Flexibility Score: inf
ROOT
ATOM      1  C   UNL     1      -7.104  -8.870  30.369  1.00  0.00    -0.022 A 
ATOM      2  C   UNL     1      -7.206  -9.680  29.227  1.00  0.00     0.058 A 
ATOM      3  C   UNL     1      -8.248  -8.191  30.824  1.00  0.00     0.012 A 
ATOM      4  C   UNL     1      -8.415  -9.798  28.529  1.00  0.00     0.157 A 
ATOM      5  C   UNL     1      -9.457  -8.304  30.134  1.00  0.00     0.051 A 
ATOM      6  C   UNL     1      -9.555  -9.098  28.987  1.00  0.00     0.157 A 
ENDROOT
BRANCH   1   7
ATOM      7  C   UNL     1      -5.798  -8.794  31.070  1.00  0.00     0.010 C 
ATOM      8  C   UNL     1      -4.786  -9.649  30.857  1.00  0.00     0.025 C 
BRANCH   8   9
ATOM      9  C   UNL     1      -3.508  -9.550  31.581  1.00  0.00     0.064 C 
ATOM     10  O   UNL     1      -3.248 -10.308  32.553  1.00  0.00    -0.545 OA
ATOM     11  O   UNL     1      -2.572  -8.603  31.186  1.00  0.00    -0.545 OA
ENDBRANCH   8   9
ENDBRANCH   1   7
BRANCH   4  12
ATOM     12  O   UNL     1      -8.437 -10.615  27.396  1.00  0.00    -0.504 OA
ATOM     13  H   UNL     1      -9.283 -10.934  26.946  1.00  0.00     0.293 HD
ENDBRANCH   4  12
BRANCH   6  14
ATOM     14  O   UNL     1     -10.792  -9.164  28.343  1.00  0.00    -0.504 OA
ATOM     15  H   UNL     1     -11.445  -8.395  28.294  1.00  0.00     0.293 HD
ENDBRANCH   6  14
TORSDOF 4
ENDMDL
MODEL 6
REMARK VINA RESULT:    -4.774     10.182     11.092
REMARK INTER + INTRA:          -5.748
REMARK INTER:                  -5.625
REMARK INTRA:                  -0.122
REMARK UNBOUND:                -0.136
REMARK SMILES O=C([O-])C=Cc1ccc(O)c(O)c1
REMARK SMILES IDX 6 1 13 2 7 3 11 4 8 5 9 6 5 7 4 8 2 9 1 10 3 11 12 12 10 14
REMARK H PARENT 12 13 10 15
REMARK Flexibility Score: inf
ROOT
ATOM      1  C   UNL     1      -8.660 -13.270  18.645  1.00  0.00    -0.022 A 
ATOM      2  C   UNL     1      -9.625 -12.253  18.577  1.00  0.00     0.058 A 
ATOM      3  C   UNL     1      -8.402 -13.879  19.886  1.00  0.00     0.012 A 
ATOM      4  C   UNL     1     -10.308 -11.825  19.723  1.00  0.00     0.157 A 
ATOM      5  C   UNL     1      -9.080 -13.459  21.033  1.00  0.00     0.051 A 
ATOM      6  C   UNL     1     -10.029 -12.434  20.968  1.00  0.00     0.157 A 
ENDROOT
BRANCH   1   7
ATOM      7  C   UNL     1      -7.978 -13.685  17.395  1.00  0.00     0.010 C 
ATOM      8  C   UNL     1      -6.893 -13.073  16.898  1.00  0.00     0.025 C 
BRANCH   8   9
ATOM      9  C   UNL     1      -6.249 -13.506  15.647  1.00  0.00     0.064 C 
ATOM     10  O   UNL     1      -6.533 -12.966  14.545  1.00  0.00    -0.545 OA
ATOM     11  O   UNL     1      -5.311 -14.530  15.682  1.00  0.00    -0.545 OA
ENDBRANCH   8   9
ENDBRANCH   1   7
BRANCH   4  12
ATOM     12  O   UNL     1     -11.247 -10.801  19.578  1.00  0.00    -0.504 OA
ATOM     13  H   UNL     1     -11.015  -9.856  19.308  1.00  0.00     0.293 HD
ENDBRANCH   4  12
BRANCH   6  14
ATOM     14  O   UNL     1     -10.667 -12.060  22.153  1.00  0.00    -0.504 OA
ATOM     15  H   UNL     1     -10.180 -11.798  22.997  1.00  0.00     0.293 HD
ENDBRANCH   6  14
TORSDOF 4
ENDMDL
MODEL 7
REMARK VINA RESULT:    -4.639      8.472      9.366
REMARK INTER + INTRA:          -5.588
REMARK INTER:                  -5.459
REMARK INTRA:                  -0.129
REMARK UNBOUND:                -0.136
REMARK SMILES O=C([O-])C=Cc1ccc(O)c(O)c1
REMARK SMILES IDX 6 1 13 2 7 3 11 4 8 5 9 6 5 7 4 8 2 9 1 10 3 11 12 12 10 14
REMARK H PARENT 12 13 10 15
REMARK Flexibility Score: inf
ROOT
ATOM      1  C   UNL     1      -9.629 -14.816  21.111  1.00  0.00    -0.022 A 
ATOM      2  C   UNL     1     -10.048 -13.931  22.116  1.00  0.00     0.058 A 
ATOM      3  C   UNL     1      -9.689 -14.398  19.769  1.00  0.00     0.012 A 
ATOM      4  C   UNL     1     -10.545 -12.660  21.800  1.00  0.00     0.157 A 
ATOM      5  C   UNL     1     -10.183 -13.132  19.447  1.00  0.00     0.051 A 
ATOM      6  C   UNL     1     -10.617 -12.256  20.447  1.00  0.00     0.157 A 
ENDROOT
BRANCH   1   7
ATOM      7  C   UNL     1      -9.103 -16.145  21.509  1.00  0.00     0.010 C 
ATOM      8  C   UNL     1      -9.628 -16.890  22.494  1.00  0.00     0.025 C 
BRANCH   8   9
ATOM      9  C   UNL     1      -9.072 -18.200  22.870  1.00  0.00     0.064 C 
ATOM     10  O   UNL     1      -8.985 -18.550  24.077  1.00  0.00    -0.545 OA
ATOM     11  O   UNL     1      -8.634 -19.066  21.877  1.00  0.00    -0.545 OA
ENDBRANCH   8   9
ENDBRANCH   1   7
BRANCH   4  12
ATOM     12  O   UNL     1     -10.952 -11.839  22.855  1.00  0.00    -0.504 OA
ATOM     13  H   UNL     1     -10.356 -11.572  23.625  1.00  0.00     0.293 HD
ENDBRANCH   4  12
BRANCH   6  14
ATOM     14  O   UNL     1     -11.102 -11.007  20.055  1.00  0.00    -0.504 OA
ATOM     15  H   UNL     1     -10.918 -10.148  20.554  1.00  0.00     0.293 HD
ENDBRANCH   6  14
TORSDOF 4
ENDMDL
MODEL 8
REMARK VINA RESULT:    -4.541      9.223     10.244
REMARK INTER + INTRA:          -5.474
REMARK INTER:                  -5.336
REMARK INTRA:                  -0.138
REMARK UNBOUND:                -0.136
REMARK SMILES O=C([O-])C=Cc1ccc(O)c(O)c1
REMARK SMILES IDX 6 1 13 2 7 3 11 4 8 5 9 6 5 7 4 8 2 9 1 10 3 11 12 12 10 14
REMARK H PARENT 12 13 10 15
REMARK Flexibility Score: inf
ROOT
ATOM      1  C   UNL     1      -8.866 -13.590  19.873  1.00  0.00    -0.022 A 
ATOM      2  C   UNL     1      -8.536 -14.179  21.104  1.00  0.00     0.058 A 
ATOM      3  C   UNL     1      -9.900 -12.639  19.831  1.00  0.00     0.012 A 
ATOM      4  C   UNL     1      -9.234 -13.853  22.273  1.00  0.00     0.157 A 
ATOM      5  C   UNL     1     -10.601 -12.308  20.994  1.00  0.00     0.051 A 
ATOM      6  C   UNL     1     -10.284 -12.907  22.217  1.00  0.00     0.157 A 
ENDROOT
BRANCH   1   7
ATOM      7  C   UNL     1      -8.082 -13.970  18.672  1.00  0.00     0.010 C 
ATOM      8  C   UNL     1      -7.689 -13.098  17.731  1.00  0.00     0.025 C 
BRANCH   8   9
ATOM      9  C   UNL     1      -6.921 -13.513  16.546  1.00  0.00     0.064 C 
ATOM     10  O   UNL     1      -6.366 -12.665  15.798  1.00  0.00    -0.545 OA
ATOM     11  O   UNL     1      -6.808 -14.864  16.245  1.00  0.00    -0.545 OA
ENDBRANCH   8   9
ENDBRANCH   1   7
BRANCH   4  12
ATOM     12  O   UNL     1      -8.855 -14.487  23.458  1.00  0.00    -0.504 OA
ATOM     13  H   UNL     1      -7.931 -14.422  23.863  1.00  0.00     0.293 HD
ENDBRANCH   4  12
BRANCH   6  14
ATOM     14  O   UNL     1     -11.027 -12.533  23.339  1.00  0.00    -0.504 OA
ATOM     15  H   UNL     1     -10.630 -12.394  24.257  1.00  0.00     0.293 HD
ENDBRANCH   6  14
TORSDOF 4
ENDMDL
MODEL 9
REMARK VINA RESULT:    -4.462     14.940     15.780
REMARK INTER + INTRA:          -5.381
REMARK INTER:                  -5.249
REMARK INTRA:                  -0.132
REMARK UNBOUND:                -0.136
REMARK SMILES O=C([O-])C=Cc1ccc(O)c(O)c1
REMARK SMILES IDX 6 1 13 2 7 3 11 4 8 5 9 6 5 7 4 8 2 9 1 10 3 11 12 12 10 14
REMARK H PARENT 12 13 10 15
REMARK Flexibility Score: inf
ROOT
ATOM      1  C   UNL     1     -14.039 -21.041  19.940  1.00  0.00    -0.022 A 
ATOM      2  C   UNL     1     -14.389 -21.525  21.210  1.00  0.00     0.058 A 
ATOM      3  C   UNL     1     -14.024 -19.652  19.723  1.00  0.00     0.012 A 
ATOM      4  C   UNL     1     -14.743 -20.650  22.246  1.00  0.00     0.157 A 
ATOM      5  C   UNL     1     -14.375 -18.774  20.751  1.00  0.00     0.051 A 
ATOM      6  C   UNL     1     -14.740 -19.256  22.012  1.00  0.00     0.157 A 
ENDROOT
BRANCH   1   7
ATOM      7  C   UNL     1     -13.664 -22.018  18.887  1.00  0.00     0.010 C 
ATOM      8  C   UNL     1     -13.253 -23.269  19.143  1.00  0.00     0.025 C 
BRANCH   8   9
ATOM      9  C   UNL     1     -12.877 -24.207  18.072  1.00  0.00     0.064 C 
ATOM     10  O   UNL     1     -13.751 -24.859  17.440  1.00  0.00    -0.545 OA
ATOM     11  O   UNL     1     -11.537 -24.377  17.754  1.00  0.00    -0.545 OA
ENDBRANCH   8   9
ENDBRANCH   1   7
BRANCH   4  12
ATOM     12  O   UNL     1     -15.088 -21.207  23.480  1.00  0.00    -0.504 OA
ATOM     13  H   UNL     1     -15.764 -21.949  23.595  1.00  0.00     0.293 HD
ENDBRANCH   4  12
BRANCH   6  14
ATOM     14  O   UNL     1     -15.083 -18.324  22.993  1.00  0.00    -0.504 OA
ATOM     15  H   UNL     1     -14.511 -17.530  23.242  1.00  0.00     0.293 HD
ENDBRANCH   6  14
TORSDOF 4
ENDMDL
