MODEL 1
REMARK VINA RESULT:    -6.639      0.000      0.000
REMARK INTER + INTRA:          -8.061
REMARK INTER:                  -7.803
REMARK INTRA:                  -0.257
REMARK UNBOUND:                -0.257
REMARK SMILES O=c1c(O)c(-c2ccc(O)cc2)oc2cc(O)cc(O)c12
REMARK SMILES IDX 5 1 3 2 2 3 1 4 21 5 19 6 18 7 16 8 15 9 14 10 13 11 6 12
REMARK SMILES IDX 7 13 8 14 9 15 12 16 11 17 10 18 4 20 20 22 17 24
REMARK H PARENT 10 19 4 21 20 23 17 25
REMARK Flexibility Score: inf
ROOT
ATOM      1  C   UNL     1     178.703 181.653 175.310  1.00  0.00     0.180 A 
ATOM      2  C   UNL     1     177.489 181.281 174.705  1.00  0.00     0.208 A 
ATOM      3  C   UNL     1     177.043 181.993 173.580  1.00  0.00     0.238 A 
ATOM      4  O   UNL     1     175.929 181.691 173.077  1.00  0.00    -0.285 OA
ATOM      5  C   UNL     1     177.821 183.057 173.064  1.00  0.00     0.111 A 
ATOM      6  C   UNL     1     177.485 183.820 171.906  1.00  0.00     0.134 A 
ATOM      7  C   UNL     1     178.263 184.934 171.563  1.00  0.00     0.093 A 
ATOM      8  C   UNL     1     179.401 185.271 172.299  1.00  0.00     0.123 A 
ATOM      9  C   UNL     1     179.770 184.496 173.396  1.00  0.00     0.094 A 
ATOM     10  C   UNL     1     178.995 183.402 173.784  1.00  0.00     0.146 A 
ATOM     11  O   UNL     1     179.377 182.697 174.842  1.00  0.00    -0.452 OA
ENDROOT
BRANCH   1  12
ATOM     12  C   UNL     1     179.251 180.935 176.482  1.00  0.00     0.021 A 
ATOM     13  C   UNL     1     179.888 179.688 176.346  1.00  0.00     0.016 A 
ATOM     14  C   UNL     1     180.419 179.040 177.466  1.00  0.00     0.047 A 
ATOM     15  C   UNL     1     180.333 179.634 178.731  1.00  0.00     0.115 A 
ATOM     16  C   UNL     1     179.188 181.534 177.752  1.00  0.00     0.016 A 
ATOM     17  C   UNL     1     179.720 180.883 178.869  1.00  0.00     0.047 A 
BRANCH  15  18
ATOM     18  O   UNL     1     180.859 178.997 179.853  1.00  0.00    -0.508 OA
ATOM     19  H   UNL     1     180.317 178.889 180.702  1.00  0.00     0.293 HD
ENDBRANCH  15  18
ENDBRANCH   1  12
BRANCH   2  20
ATOM     20  O   UNL     1     176.725 180.243 175.243  1.00  0.00    -0.502 OA
ATOM     21  H   UNL     1     176.386 180.255 176.198  1.00  0.00     0.293 HD
ENDBRANCH   2  20
BRANCH   6  22
ATOM     22  O   UNL     1     176.424 183.513 171.051  1.00  0.00    -0.507 OA
ATOM     23  H   UNL     1     175.567 184.042 170.982  1.00  0.00     0.293 HD
ENDBRANCH   6  22
BRANCH   8  24
ATOM     24  O   UNL     1     180.177 186.371 171.942  1.00  0.00    -0.508 OA
ATOM     25  H   UNL     1     180.401 186.571 170.973  1.00  0.00     0.293 HD
ENDBRANCH   8  24
TORSDOF 5
ENDMDL
MODEL 2
REMARK VINA RESULT:    -6.606      4.692      6.909
REMARK INTER + INTRA:          -8.023
REMARK INTER:                  -7.743
REMARK INTRA:                  -0.280
REMARK UNBOUND:                -0.257
REMARK SMILES O=c1c(O)c(-c2ccc(O)cc2)oc2cc(O)cc(O)c12
REMARK SMILES IDX 5 1 3 2 2 3 1 4 21 5 19 6 18 7 16 8 15 9 14 10 13 11 6 12
REMARK SMILES IDX 7 13 8 14 9 15 12 16 11 17 10 18 4 20 20 22 17 24
REMARK H PARENT 10 19 4 21 20 23 17 25
REMARK Flexibility Score: inf
ROOT
ATOM      1  C   UNL     1     181.965 179.072 175.347  1.00  0.00     0.180 A 
ATOM      2  C   UNL     1     183.160 179.499 174.744  1.00  0.00     0.208 A 
ATOM      3  C   UNL     1     183.635 178.814 173.613  1.00  0.00     0.238 A 
ATOM      4  O   UNL     1     184.734 179.166 173.110  1.00  0.00    -0.285 OA
ATOM      5  C   UNL     1     182.901 177.722 173.091  1.00  0.00     0.111 A 
ATOM      6  C   UNL     1     183.267 176.981 171.928  1.00  0.00     0.134 A 
ATOM      7  C   UNL     1     182.536 175.838 171.578  1.00  0.00     0.093 A 
ATOM      8  C   UNL     1     181.415 175.448 172.314  1.00  0.00     0.123 A 
ATOM      9  C   UNL     1     181.014 176.200 173.417  1.00  0.00     0.094 A 
ATOM     10  C   UNL     1     181.744 177.323 173.811  1.00  0.00     0.146 A 
ATOM     11  O   UNL     1     181.334 178.004 174.874  1.00  0.00    -0.452 OA
ENDROOT
BRANCH   1  12
ATOM     12  C   UNL     1     181.389 179.760 176.525  1.00  0.00     0.021 A 
ATOM     13  C   UNL     1     180.635 180.939 176.390  1.00  0.00     0.016 A 
ATOM     14  C   UNL     1     180.081 181.557 177.516  1.00  0.00     0.047 A 
ATOM     15  C   UNL     1     180.262 180.998 178.787  1.00  0.00     0.115 A 
ATOM     16  C   UNL     1     181.547 179.193 177.802  1.00  0.00     0.016 A 
ATOM     17  C   UNL     1     180.993 179.814 178.926  1.00  0.00     0.047 A 
BRANCH  15  18
ATOM     18  O   UNL     1     179.714 181.605 179.915  1.00  0.00    -0.508 OA
ATOM     19  H   UNL     1     178.779 181.383 180.235  1.00  0.00     0.293 HD
ENDBRANCH  15  18
ENDBRANCH   1  12
BRANCH   2  20
ATOM     20  O   UNL     1     183.882 180.566 175.287  1.00  0.00    -0.502 OA
ATOM     21  H   UNL     1     183.498 181.500 175.362  1.00  0.00     0.293 HD
ENDBRANCH   2  20
BRANCH   6  22
ATOM     22  O   UNL     1     184.313 177.338 171.073  1.00  0.00    -0.507 OA
ATOM     23  H   UNL     1     185.273 177.462 171.358  1.00  0.00     0.293 HD
ENDBRANCH   6  22
BRANCH   8  24
ATOM     24  O   UNL     1     180.684 174.319 171.951  1.00  0.00    -0.508 OA
ATOM     25  H   UNL     1     180.754 173.918 171.022  1.00  0.00     0.293 HD
ENDBRANCH   8  24
TORSDOF 5
ENDMDL
MODEL 3
REMARK VINA RESULT:    -6.529      4.734      6.926
REMARK INTER + INTRA:          -7.932
REMARK INTER:                  -7.675
REMARK INTRA:                  -0.257
REMARK UNBOUND:                -0.257
REMARK SMILES O=c1c(O)c(-c2ccc(O)cc2)oc2cc(O)cc(O)c12
REMARK SMILES IDX 5 1 3 2 2 3 1 4 21 5 19 6 18 7 16 8 15 9 14 10 13 11 6 12
REMARK SMILES IDX 7 13 8 14 9 15 12 16 11 17 10 18 4 20 20 22 17 24
REMARK H PARENT 10 19 4 21 20 23 17 25
REMARK Flexibility Score: inf
ROOT
ATOM      1  C   UNL     1     181.649 178.802 175.205  1.00  0.00     0.180 A 
ATOM      2  C   UNL     1     182.878 179.231 174.675  1.00  0.00     0.208 A 
ATOM      3  C   UNL     1     183.412 178.558 173.564  1.00  0.00     0.238 A 
ATOM      4  O   UNL     1     184.539 178.910 173.128  1.00  0.00    -0.285 OA
ATOM      5  C   UNL     1     182.703 177.476 172.987  1.00  0.00     0.111 A 
ATOM      6  C   UNL     1     183.130 176.749 171.836  1.00  0.00     0.134 A 
ATOM      7  C   UNL     1     182.415 175.615 171.430  1.00  0.00     0.093 A 
ATOM      8  C   UNL     1     181.252 175.222 172.096  1.00  0.00     0.123 A 
ATOM      9  C   UNL     1     180.794 175.961 173.185  1.00  0.00     0.094 A 
ATOM     10  C   UNL     1     181.506 177.075 173.635  1.00  0.00     0.146 A 
ATOM     11  O   UNL     1     181.040 177.744 174.682  1.00  0.00    -0.452 OA
ENDROOT
BRANCH   1  12
ATOM     12  C   UNL     1     181.011 179.477 176.358  1.00  0.00     0.021 A 
ATOM     13  C   UNL     1     181.437 179.236 177.676  1.00  0.00     0.016 A 
ATOM     14  C   UNL     1     180.834 179.904 178.747  1.00  0.00     0.047 A 
ATOM     15  C   UNL     1     179.810 180.830 178.514  1.00  0.00     0.115 A 
ATOM     16  C   UNL     1     179.997 180.424 176.131  1.00  0.00     0.016 A 
ATOM     17  C   UNL     1     179.396 181.090 177.204  1.00  0.00     0.047 A 
BRANCH  15  18
ATOM     18  O   UNL     1     179.203 181.501 179.573  1.00  0.00    -0.508 OA
ATOM     19  H   UNL     1     179.747 181.890 180.334  1.00  0.00     0.293 HD
ENDBRANCH  15  18
ENDBRANCH   1  12
BRANCH   2  20
ATOM     20  O   UNL     1     183.573 180.285 175.273  1.00  0.00    -0.502 OA
ATOM     21  H   UNL     1     183.116 180.978 175.854  1.00  0.00     0.293 HD
ENDBRANCH   2  20
BRANCH   6  22
ATOM     22  O   UNL     1     184.224 177.112 171.046  1.00  0.00    -0.507 OA
ATOM     23  H   UNL     1     184.451 178.057 170.775  1.00  0.00     0.293 HD
ENDBRANCH   6  22
BRANCH   8  24
ATOM     24  O   UNL     1     180.538 174.102 171.678  1.00  0.00    -0.508 OA
ATOM     25  H   UNL     1     180.922 173.450 171.003  1.00  0.00     0.293 HD
ENDBRANCH   8  24
TORSDOF 5
ENDMDL
MODEL 4
REMARK VINA RESULT:    -6.341      1.258      3.076
REMARK INTER + INTRA:          -7.710
REMARK INTER:                  -7.458
REMARK INTRA:                  -0.252
REMARK UNBOUND:                -0.257
REMARK SMILES O=c1c(O)c(-c2ccc(O)cc2)oc2cc(O)cc(O)c12
REMARK SMILES IDX 5 1 3 2 2 3 1 4 21 5 19 6 18 7 16 8 15 9 14 10 13 11 6 12
REMARK SMILES IDX 7 13 8 14 9 15 12 16 11 17 10 18 4 20 20 22 17 24
REMARK H PARENT 10 19 4 21 20 23 17 25
REMARK Flexibility Score: inf
ROOT
ATOM      1  C   UNL     1     178.764 181.662 175.094  1.00  0.00     0.180 A 
ATOM      2  C   UNL     1     179.442 182.759 174.535  1.00  0.00     0.208 A 
ATOM      3  C   UNL     1     178.903 183.386 173.400  1.00  0.00     0.238 A 
ATOM      4  O   UNL     1     179.543 184.332 172.871  1.00  0.00    -0.285 OA
ATOM      5  C   UNL     1     177.686 182.919 172.847  1.00  0.00     0.111 A 
ATOM      6  C   UNL     1     177.029 183.504 171.723  1.00  0.00     0.134 A 
ATOM      7  C   UNL     1     175.897 182.879 171.184  1.00  0.00     0.093 A 
ATOM      8  C   UNL     1     175.362 181.729 171.767  1.00  0.00     0.123 A 
ATOM      9  C   UNL     1     175.962 181.185 172.901  1.00  0.00     0.094 A 
ATOM     10  C   UNL     1     177.113 181.764 173.440  1.00  0.00     0.146 A 
ATOM     11  O   UNL     1     177.659 181.207 174.514  1.00  0.00    -0.452 OA
ENDROOT
BRANCH   1  12
ATOM     12  C   UNL     1     179.256 180.966 176.304  1.00  0.00     0.021 A 
ATOM     13  C   UNL     1     179.960 179.753 176.218  1.00  0.00     0.016 A 
ATOM     14  C   UNL     1     180.436 179.127 177.374  1.00  0.00     0.047 A 
ATOM     15  C   UNL     1     180.226 179.711 178.629  1.00  0.00     0.115 A 
ATOM     16  C   UNL     1     179.068 181.557 177.566  1.00  0.00     0.016 A 
ATOM     17  C   UNL     1     179.544 180.929 178.721  1.00  0.00     0.047 A 
BRANCH  15  18
ATOM     18  O   UNL     1     180.695 179.096 179.788  1.00  0.00    -0.508 OA
ATOM     19  H   UNL     1     181.624 178.695 179.835  1.00  0.00     0.293 HD
ENDBRANCH  15  18
ENDBRANCH   1  12
BRANCH   2  20
ATOM     20  O   UNL     1     180.653 183.190 175.082  1.00  0.00    -0.502 OA
ATOM     21  H   UNL     1     181.419 182.556 175.276  1.00  0.00     0.293 HD
ENDBRANCH   2  20
BRANCH   6  22
ATOM     22  O   UNL     1     177.427 184.701 171.123  1.00  0.00    -0.507 OA
ATOM     23  H   UNL     1     177.242 185.621 171.494  1.00  0.00     0.293 HD
ENDBRANCH   6  22
BRANCH   8  24
ATOM     24  O   UNL     1     174.228 181.123 171.233  1.00  0.00    -0.508 OA
ATOM     25  H   UNL     1     173.549 181.649 170.694  1.00  0.00     0.293 HD
ENDBRANCH   8  24
TORSDOF 5
ENDMDL
MODEL 5
REMARK VINA RESULT:    -6.334      1.294      1.490
REMARK INTER + INTRA:          -7.702
REMARK INTER:                  -7.418
REMARK INTRA:                  -0.284
REMARK UNBOUND:                -0.257
REMARK SMILES O=c1c(O)c(-c2ccc(O)cc2)oc2cc(O)cc(O)c12
REMARK SMILES IDX 5 1 3 2 2 3 1 4 21 5 19 6 18 7 16 8 15 9 14 10 13 11 6 12
REMARK SMILES IDX 7 13 8 14 9 15 12 16 11 17 10 18 4 20 20 22 17 24
REMARK H PARENT 10 19 4 21 20 23 17 25
REMARK Flexibility Score: inf
ROOT
ATOM      1  C   UNL     1     179.515 182.057 175.369  1.00  0.00     0.180 A 
ATOM      2  C   UNL     1     178.256 182.214 174.763  1.00  0.00     0.208 A 
ATOM      3  C   UNL     1     178.145 183.032 173.628  1.00  0.00     0.238 A 
ATOM      4  O   UNL     1     177.006 183.214 173.122  1.00  0.00    -0.285 OA
ATOM      5  C   UNL     1     179.294 183.670 173.102  1.00  0.00     0.111 A 
ATOM      6  C   UNL     1     179.305 184.488 171.933  1.00  0.00     0.134 A 
ATOM      7  C   UNL     1     180.475 185.173 171.580  1.00  0.00     0.093 A 
ATOM      8  C   UNL     1     181.650 185.017 172.317  1.00  0.00     0.123 A 
ATOM      9  C   UNL     1     181.666 184.174 173.426  1.00  0.00     0.094 A 
ATOM     10  C   UNL     1     180.506 183.506 173.824  1.00  0.00     0.146 A 
ATOM     11  O   UNL     1     180.561 182.720 174.892  1.00  0.00    -0.452 OA
ENDROOT
BRANCH   1  12
ATOM     12  C   UNL     1     179.715 181.192 176.553  1.00  0.00     0.021 A 
ATOM     13  C   UNL     1     180.160 179.864 176.424  1.00  0.00     0.016 A 
ATOM     14  C   UNL     1     180.365 179.073 177.559  1.00  0.00     0.047 A 
ATOM     15  C   UNL     1     180.143 179.603 178.836  1.00  0.00     0.115 A 
ATOM     16  C   UNL     1     179.515 181.722 177.839  1.00  0.00     0.016 A 
ATOM     17  C   UNL     1     179.721 180.929 178.973  1.00  0.00     0.047 A 
BRANCH  15  18
ATOM     18  O   UNL     1     180.344 178.824 179.974  1.00  0.00    -0.508 OA
ATOM     19  H   UNL     1     180.948 179.132 180.726  1.00  0.00     0.293 HD
ENDBRANCH  15  18
ENDBRANCH   1  12
BRANCH   2  20
ATOM     20  O   UNL     1     177.129 181.595 175.311  1.00  0.00    -0.502 OA
ATOM     21  H   UNL     1     176.904 181.648 176.297  1.00  0.00     0.293 HD
ENDBRANCH   2  20
BRANCH   6  22
ATOM     22  O   UNL     1     178.211 184.638 171.076  1.00  0.00    -0.507 OA
ATOM     23  H   UNL     1     177.575 185.421 171.086  1.00  0.00     0.293 HD
ENDBRANCH   6  22
BRANCH   8  24
ATOM     24  O   UNL     1     182.813 185.691 171.950  1.00  0.00    -0.508 OA
ATOM     25  H   UNL     1     182.829 186.334 171.168  1.00  0.00     0.293 HD
ENDBRANCH   8  24
TORSDOF 5
ENDMDL
MODEL 6
REMARK VINA RESULT:    -6.328      1.474      3.272
REMARK INTER + INTRA:          -7.695
REMARK INTER:                  -7.440
REMARK INTRA:                  -0.255
REMARK UNBOUND:                -0.257
REMARK SMILES O=c1c(O)c(-c2ccc(O)cc2)oc2cc(O)cc(O)c12
REMARK SMILES IDX 5 1 3 2 2 3 1 4 21 5 19 6 18 7 16 8 15 9 14 10 13 11 6 12
REMARK SMILES IDX 7 13 8 14 9 15 12 16 11 17 10 18 4 20 20 22 17 24
REMARK H PARENT 10 19 4 21 20 23 17 25
REMARK Flexibility Score: inf
ROOT
ATOM      1  C   UNL     1     180.437 182.604 175.132  1.00  0.00     0.180 A 
ATOM      2  C   UNL     1     181.341 183.616 174.763  1.00  0.00     0.208 A 
ATOM      3  C   UNL     1     180.975 184.519 173.752  1.00  0.00     0.238 A 
ATOM      4  O   UNL     1     181.810 185.388 173.388  1.00  0.00    -0.285 OA
ATOM      5  C   UNL     1     179.706 184.411 173.134  1.00  0.00     0.111 A 
ATOM      6  C   UNL     1     179.216 185.297 172.128  1.00  0.00     0.134 A 
ATOM      7  C   UNL     1     177.997 185.017 171.496  1.00  0.00     0.093 A 
ATOM      8  C   UNL     1     177.222 183.920 171.880  1.00  0.00     0.123 A 
ATOM      9  C   UNL     1     177.665 183.084 172.902  1.00  0.00     0.094 A 
ATOM     10  C   UNL     1     178.892 183.316 173.526  1.00  0.00     0.146 A 
ATOM     11  O   UNL     1     179.281 182.489 174.489  1.00  0.00    -0.452 OA
ENDROOT
BRANCH   1  12
ATOM     12  C   UNL     1     180.740 181.631 176.205  1.00  0.00     0.021 A 
ATOM     13  C   UNL     1     181.580 180.526 175.977  1.00  0.00     0.016 A 
ATOM     14  C   UNL     1     181.871 179.634 177.014  1.00  0.00     0.047 A 
ATOM     15  C   UNL     1     181.339 179.841 178.292  1.00  0.00     0.115 A 
ATOM     16  C   UNL     1     180.227 181.843 177.496  1.00  0.00     0.016 A 
ATOM     17  C   UNL     1     180.520 180.949 178.531  1.00  0.00     0.047 A 
BRANCH  15  18
ATOM     18  O   UNL     1     181.622 178.958 179.332  1.00  0.00    -0.508 OA
ATOM     19  H   UNL     1     181.227 178.025 179.357  1.00  0.00     0.293 HD
ENDBRANCH  15  18
ENDBRANCH   1  12
BRANCH   2  20
ATOM     20  O   UNL     1     182.597 183.691 175.369  1.00  0.00    -0.502 OA
ATOM     21  H   UNL     1     182.727 183.587 176.368  1.00  0.00     0.293 HD
ENDBRANCH   2  20
BRANCH   6  22
ATOM     22  O   UNL     1     179.867 186.470 171.737  1.00  0.00    -0.507 OA
ATOM     23  H   UNL     1     180.868 186.581 171.681  1.00  0.00     0.293 HD
ENDBRANCH   6  22
BRANCH   8  24
ATOM     24  O   UNL     1     176.005 183.658 171.256  1.00  0.00    -0.508 OA
ATOM     25  H   UNL     1     175.833 182.782 170.777  1.00  0.00     0.293 HD
ENDBRANCH   8  24
TORSDOF 5
ENDMDL
MODEL 7
REMARK VINA RESULT:    -6.324      4.970      6.229
REMARK INTER + INTRA:          -7.691
REMARK INTER:                  -7.462
REMARK INTRA:                  -0.229
REMARK UNBOUND:                -0.257
REMARK SMILES O=c1c(O)c(-c2ccc(O)cc2)oc2cc(O)cc(O)c12
REMARK SMILES IDX 5 1 3 2 2 3 1 4 21 5 19 6 18 7 16 8 15 9 14 10 13 11 6 12
REMARK SMILES IDX 7 13 8 14 9 15 12 16 11 17 10 18 4 20 20 22 17 24
REMARK H PARENT 10 19 4 21 20 23 17 25
REMARK Flexibility Score: inf
ROOT
ATOM      1  C   UNL     1     182.011 179.124 175.046  1.00  0.00     0.180 A 
ATOM      2  C   UNL     1     181.343 178.013 174.503  1.00  0.00     0.208 A 
ATOM      3  C   UNL     1     181.885 177.377 173.375  1.00  0.00     0.238 A 
ATOM      4  O   UNL     1     181.253 176.417 172.861  1.00  0.00    -0.285 OA
ATOM      5  C   UNL     1     183.095 177.849 172.813  1.00  0.00     0.111 A 
ATOM      6  C   UNL     1     183.755 177.256 171.695  1.00  0.00     0.134 A 
ATOM      7  C   UNL     1     184.879 177.885 171.144  1.00  0.00     0.093 A 
ATOM      8  C   UNL     1     185.404 179.048 171.710  1.00  0.00     0.123 A 
ATOM      9  C   UNL     1     184.801 179.601 172.838  1.00  0.00     0.094 A 
ATOM     10  C   UNL     1     183.658 179.018 173.389  1.00  0.00     0.146 A 
ATOM     11  O   UNL     1     183.109 179.583 174.457  1.00  0.00    -0.452 OA
ENDROOT
BRANCH   1  12
ATOM     12  C   UNL     1     181.515 179.831 176.249  1.00  0.00     0.021 A 
ATOM     13  C   UNL     1     180.845 181.063 176.151  1.00  0.00     0.016 A 
ATOM     14  C   UNL     1     180.365 181.700 177.300  1.00  0.00     0.047 A 
ATOM     15  C   UNL     1     180.536 181.108 178.557  1.00  0.00     0.115 A 
ATOM     16  C   UNL     1     181.664 179.233 177.512  1.00  0.00     0.016 A 
ATOM     17  C   UNL     1     181.183 179.873 178.659  1.00  0.00     0.047 A 
BRANCH  15  18
ATOM     18  O   UNL     1     180.061 181.734 179.708  1.00  0.00    -0.508 OA
ATOM     19  H   UNL     1     180.523 181.617 180.602  1.00  0.00     0.293 HD
ENDBRANCH  15  18
ENDBRANCH   1  12
BRANCH   2  20
ATOM     20  O   UNL     1     180.137 177.577 175.059  1.00  0.00    -0.502 OA
ATOM     21  H   UNL     1     179.518 176.935 174.580  1.00  0.00     0.293 HD
ENDBRANCH   2  20
BRANCH   6  22
ATOM     22  O   UNL     1     183.368 176.047 171.112  1.00  0.00    -0.507 OA
ATOM     23  H   UNL     1     183.956 175.478 170.521  1.00  0.00     0.293 HD
ENDBRANCH   6  22
BRANCH   8  24
ATOM     24  O   UNL     1     186.530 179.659 171.165  1.00  0.00    -0.508 OA
ATOM     25  H   UNL     1     186.458 180.498 170.601  1.00  0.00     0.293 HD
ENDBRANCH   8  24
TORSDOF 5
ENDMDL
MODEL 8
REMARK VINA RESULT:    -6.307      4.573      6.347
REMARK INTER + INTRA:          -7.670
REMARK INTER:                  -7.403
REMARK INTRA:                  -0.267
REMARK UNBOUND:                -0.257
REMARK SMILES O=c1c(O)c(-c2ccc(O)cc2)oc2cc(O)cc(O)c12
REMARK SMILES IDX 5 1 3 2 2 3 1 4 21 5 19 6 18 7 16 8 15 9 14 10 13 11 6 12
REMARK SMILES IDX 7 13 8 14 9 15 12 16 11 17 10 18 4 20 20 22 17 24
REMARK H PARENT 10 19 4 21 20 23 17 25
REMARK Flexibility Score: inf
ROOT
ATOM      1  C   UNL     1     180.321 178.128 175.207  1.00  0.00     0.180 A 
ATOM      2  C   UNL     1     179.381 177.141 174.861  1.00  0.00     0.208 A 
ATOM      3  C   UNL     1     179.695 176.232 173.837  1.00  0.00     0.238 A 
ATOM      4  O   UNL     1     178.829 175.386 173.493  1.00  0.00    -0.285 OA
ATOM      5  C   UNL     1     180.949 176.311 173.184  1.00  0.00     0.111 A 
ATOM      6  C   UNL     1     181.388 175.417 172.162  1.00  0.00     0.134 A 
ATOM      7  C   UNL     1     182.595 175.669 171.497  1.00  0.00     0.093 A 
ATOM      8  C   UNL     1     183.408 176.744 171.862  1.00  0.00     0.123 A 
ATOM      9  C   UNL     1     183.016 177.587 172.899  1.00  0.00     0.094 A 
ATOM     10  C   UNL     1     181.801 177.384 173.557  1.00  0.00     0.146 A 
ATOM     11  O   UNL     1     181.461 178.216 174.532  1.00  0.00    -0.452 OA
ENDROOT
BRANCH   1  12
ATOM     12  C   UNL     1     180.072 179.104 176.292  1.00  0.00     0.021 A 
ATOM     13  C   UNL     1     179.304 180.262 176.075  1.00  0.00     0.016 A 
ATOM     14  C   UNL     1     179.063 181.157 177.122  1.00  0.00     0.047 A 
ATOM     15  C   UNL     1     179.575 180.901 178.400  1.00  0.00     0.115 A 
ATOM     16  C   UNL     1     180.564 178.843 177.583  1.00  0.00     0.016 A 
ATOM     17  C   UNL     1     180.322 179.741 178.628  1.00  0.00     0.047 A 
BRANCH  15  18
ATOM     18  O   UNL     1     179.341 181.786 179.450  1.00  0.00    -0.508 OA
ATOM     19  H   UNL     1     179.996 182.525 179.675  1.00  0.00     0.293 HD
ENDBRANCH  15  18
ENDBRANCH   1  12
BRANCH   2  20
ATOM     20  O   UNL     1     178.141 177.095 175.501  1.00  0.00    -0.502 OA
ATOM     21  H   UNL     1     177.988 176.569 176.354  1.00  0.00     0.293 HD
ENDBRANCH   2  20
BRANCH   6  22
ATOM     22  O   UNL     1     180.697 174.263 171.785  1.00  0.00    -0.507 OA
ATOM     23  H   UNL     1     179.703 174.217 171.614  1.00  0.00     0.293 HD
ENDBRANCH   6  22
BRANCH   8  24
ATOM     24  O   UNL     1     184.614 176.978 171.205  1.00  0.00    -0.508 OA
ATOM     25  H   UNL     1     185.334 176.267 171.148  1.00  0.00     0.293 HD
ENDBRANCH   8  24
TORSDOF 5
ENDMDL
MODEL 9
REMARK VINA RESULT:    -6.210      4.361      6.294
REMARK INTER + INTRA:          -7.557
REMARK INTER:                  -7.341
REMARK INTRA:                  -0.216
REMARK UNBOUND:                -0.257
REMARK SMILES O=c1c(O)c(-c2ccc(O)cc2)oc2cc(O)cc(O)c12
REMARK SMILES IDX 5 1 3 2 2 3 1 4 21 5 19 6 18 7 16 8 15 9 14 10 13 11 6 12
REMARK SMILES IDX 7 13 8 14 9 15 12 16 11 17 10 18 4 20 20 22 17 24
REMARK H PARENT 10 19 4 21 20 23 17 25
REMARK Flexibility Score: inf
ROOT
ATOM      1  C   UNL     1     179.825 178.448 175.400  1.00  0.00     0.180 A 
ATOM      2  C   UNL     1     180.877 178.009 174.577  1.00  0.00     0.208 A 
ATOM      3  C   UNL     1     180.589 177.155 173.501  1.00  0.00     0.238 A 
ATOM      4  O   UNL     1     181.542 176.721 172.801  1.00  0.00    -0.285 OA
ATOM      5  C   UNL     1     179.252 176.761 173.251  1.00  0.00     0.111 A 
ATOM      6  C   UNL     1     178.841 175.931 172.165  1.00  0.00     0.134 A 
ATOM      7  C   UNL     1     177.510 175.500 172.091  1.00  0.00     0.093 A 
ATOM      8  C   UNL     1     176.563 175.923 173.026  1.00  0.00     0.123 A 
ATOM      9  C   UNL     1     176.943 176.782 174.055  1.00  0.00     0.094 A 
ATOM     10  C   UNL     1     178.270 177.199 174.177  1.00  0.00     0.146 A 
ATOM     11  O   UNL     1     178.591 178.009 175.178  1.00  0.00    -0.452 OA
ENDROOT
BRANCH   1  12
ATOM     12  C   UNL     1     180.046 179.369 176.536  1.00  0.00     0.021 A 
ATOM     13  C   UNL     1     179.640 180.715 176.480  1.00  0.00     0.016 A 
ATOM     14  C   UNL     1     179.838 181.560 177.576  1.00  0.00     0.047 A 
ATOM     15  C   UNL     1     180.431 181.069 178.746  1.00  0.00     0.115 A 
ATOM     16  C   UNL     1     180.620 178.879 177.722  1.00  0.00     0.016 A 
ATOM     17  C   UNL     1     180.818 179.727 178.816  1.00  0.00     0.047 A 
BRANCH  15  18
ATOM     18  O   UNL     1     180.633 181.903 179.844  1.00  0.00    -0.508 OA
ATOM     19  H   UNL     1     180.097 182.752 179.969  1.00  0.00     0.293 HD
ENDBRANCH  15  18
ENDBRANCH   1  12
BRANCH   2  20
ATOM     20  O   UNL     1     182.192 178.391 174.854  1.00  0.00    -0.502 OA
ATOM     21  H   UNL     1     182.983 177.783 174.681  1.00  0.00     0.293 HD
ENDBRANCH   2  20
BRANCH   6  22
ATOM     22  O   UNL     1     179.687 175.528 171.128  1.00  0.00    -0.507 OA
ATOM     23  H   UNL     1     180.211 176.155 170.536  1.00  0.00     0.293 HD
ENDBRANCH   6  22
BRANCH   8  24
ATOM     24  O   UNL     1     175.239 175.502 172.936  1.00  0.00    -0.508 OA
ATOM     25  H   UNL     1     174.754 175.462 172.047  1.00  0.00     0.293 HD
ENDBRANCH   8  24
TORSDOF 5
ENDMDL
