MODEL 1
REMARK VINA RESULT:    -2.531      0.000      0.000
REMARK INTER + INTRA:          -6.269
REMARK INTER:                  -4.306
REMARK INTRA:                  -1.963
REMARK UNBOUND:                -1.963
REMARK SMILES CCCCCCCCCCCCCC(=O)[O-]
REMARK SMILES IDX 8 1 9 2 10 3 11 4 12 5 13 6 14 7 15 8 16 9 7 10 6 11 5 12
REMARK SMILES IDX 4 13 3 14 2 15 1 16
REMARK H PARENT
REMARK Flexibility Score: inf
ROOT
ATOM      1  C   UNL     1     -21.214  14.452 -24.526  1.00  0.00     0.000 C 
ENDROOT
BRANCH   1   2
ATOM      2  C   UNL     1     -22.303  14.393 -23.447  1.00  0.00     0.000 C 
BRANCH   2   3
ATOM      3  C   UNL     1     -21.855  15.117 -22.173  1.00  0.00     0.000 C 
BRANCH   3   4
ATOM      4  C   UNL     1     -21.116  14.163 -21.228  1.00  0.00     0.000 C 
BRANCH   4   5
ATOM      5  C   UNL     1     -21.021  14.753 -19.812  1.00  0.00     0.006 C 
BRANCH   5   6
ATOM      6  C   UNL     1     -20.145  13.899 -18.885  1.00  0.00     0.053 C 
BRANCH   6   7
ATOM      7  C   UNL     1     -20.972  13.032 -17.985  1.00  0.00     0.041 C 
ATOM      8  O   UNL     1     -20.500  11.956 -17.533  1.00  0.00    -0.550 OA
ATOM      9  O   UNL     1     -22.252  13.429 -17.620  1.00  0.00    -0.550 OA
ENDBRANCH   6   7
ENDBRANCH   5   6
ENDBRANCH   4   5
ENDBRANCH   3   4
ENDBRANCH   2   3
ENDBRANCH   1   2
BRANCH   1  10
ATOM     10  C   UNL     1     -20.759  13.042 -24.926  1.00  0.00     0.000 C 
BRANCH  10  11
ATOM     11  C   UNL     1     -19.347  12.751 -24.405  1.00  0.00    -0.000 C 
BRANCH  11  12
ATOM     12  C   UNL     1     -18.622  14.051 -24.028  1.00  0.00    -0.000 C 
BRANCH  12  13
ATOM     13  C   UNL     1     -17.695  13.881 -22.813  1.00  0.00    -0.000 C 
BRANCH  13  14
ATOM     14  C   UNL     1     -17.634  15.143 -21.935  1.00  0.00    -0.000 C 
BRANCH  14  15
ATOM     15  C   UNL     1     -18.385  16.330 -22.556  1.00  0.00    -0.003 C 
ATOM     16  C   UNL     1     -18.850  17.346 -21.512  1.00  0.00     0.004 C 
ENDBRANCH  14  15
ENDBRANCH  13  14
ENDBRANCH  12  13
ENDBRANCH  11  12
ENDBRANCH  10  11
ENDBRANCH   1  10
TORSDOF 12
ENDMDL
MODEL 2
REMARK VINA RESULT:    -2.494     13.792     15.717
REMARK INTER + INTRA:          -6.206
REMARK INTER:                  -4.463
REMARK INTRA:                  -1.743
REMARK UNBOUND:                -1.963
REMARK SMILES CCCCCCCCCCCCCC(=O)[O-]
REMARK SMILES IDX 8 1 9 2 10 3 11 4 12 5 13 6 14 7 15 8 16 9 7 10 6 11 5 12
REMARK SMILES IDX 4 13 3 14 2 15 1 16
REMARK H PARENT
REMARK Flexibility Score: inf
ROOT
ATOM      1  C   UNL     1     -21.667  28.119 -21.054  1.00  0.00     0.000 C 
ENDROOT
BRANCH   1   2
ATOM      2  C   UNL     1     -21.762  27.004 -20.006  1.00  0.00     0.000 C 
BRANCH   2   3
ATOM      3  C   UNL     1     -21.320  27.506 -18.627  1.00  0.00     0.000 C 
BRANCH   3   4
ATOM      4  C   UNL     1     -20.698  28.904 -18.722  1.00  0.00     0.000 C 
BRANCH   4   5
ATOM      5  C   UNL     1     -19.220  28.879 -18.307  1.00  0.00     0.006 C 
BRANCH   5   6
ATOM      6  C   UNL     1     -18.297  28.489 -19.469  1.00  0.00     0.053 C 
BRANCH   6   7
ATOM      7  C   UNL     1     -18.082  29.630 -20.415  1.00  0.00     0.041 C 
ATOM      8  O   UNL     1     -18.322  29.490 -21.643  1.00  0.00    -0.550 OA
ATOM      9  O   UNL     1     -17.648  30.859 -19.935  1.00  0.00    -0.550 OA
ENDBRANCH   6   7
ENDBRANCH   5   6
ENDBRANCH   4   5
ENDBRANCH   3   4
ENDBRANCH   2   3
ENDBRANCH   1   2
BRANCH   1  10
ATOM     10  C   UNL     1     -22.956  28.208 -21.882  1.00  0.00     0.000 C 
BRANCH  10  11
ATOM     11  C   UNL     1     -23.582  29.603 -21.778  1.00  0.00    -0.000 C 
BRANCH  11  12
ATOM     12  C   UNL     1     -25.031  29.519 -21.276  1.00  0.00    -0.000 C 
BRANCH  12  13
ATOM     13  C   UNL     1     -25.125  29.040 -19.819  1.00  0.00    -0.000 C 
BRANCH  13  14
ATOM     14  C   UNL     1     -24.343  29.942 -18.847  1.00  0.00    -0.000 C 
BRANCH  14  15
ATOM     15  C   UNL     1     -24.666  29.642 -17.376  1.00  0.00    -0.003 C 
ATOM     16  C   UNL     1     -24.577  28.151 -17.044  1.00  0.00     0.004 C 
ENDBRANCH  14  15
ENDBRANCH  13  14
ENDBRANCH  12  13
ENDBRANCH  11  12
ENDBRANCH  10  11
ENDBRANCH   1  10
TORSDOF 12
ENDMDL
MODEL 3
REMARK VINA RESULT:    -2.442      1.775      3.618
REMARK INTER + INTRA:          -6.119
REMARK INTER:                  -4.884
REMARK INTRA:                  -1.235
REMARK UNBOUND:                -1.963
REMARK SMILES CCCCCCCCCCCCCC(=O)[O-]
REMARK SMILES IDX 8 1 9 2 10 3 11 4 12 5 13 6 14 7 15 8 16 9 7 10 6 11 5 12
REMARK SMILES IDX 4 13 3 14 2 15 1 16
REMARK H PARENT
REMARK Flexibility Score: inf
ROOT
ATOM      1  C   UNL     1     -19.655  15.585 -21.389  1.00  0.00     0.000 C 
ENDROOT
BRANCH   1   2
ATOM      2  C   UNL     1     -19.713  14.336 -20.501  1.00  0.00     0.000 C 
BRANCH   2   3
ATOM      3  C   UNL     1     -21.002  14.309 -19.672  1.00  0.00     0.000 C 
BRANCH   3   4
ATOM      4  C   UNL     1     -20.873  13.350 -18.484  1.00  0.00     0.000 C 
BRANCH   4   5
ATOM      5  C   UNL     1     -22.071  13.486 -17.532  1.00  0.00     0.006 C 
BRANCH   5   6
ATOM      6  C   UNL     1     -21.927  12.602 -16.286  1.00  0.00     0.053 C 
BRANCH   6   7
ATOM      7  C   UNL     1     -23.170  12.616 -15.449  1.00  0.00     0.041 C 
ATOM      8  O   UNL     1     -24.211  13.186 -15.871  1.00  0.00    -0.550 OA
ATOM      9  O   UNL     1     -23.188  11.972 -14.220  1.00  0.00    -0.550 OA
ENDBRANCH   6   7
ENDBRANCH   5   6
ENDBRANCH   4   5
ENDBRANCH   3   4
ENDBRANCH   2   3
ENDBRANCH   1   2
BRANCH   1  10
ATOM     10  C   UNL     1     -18.783  15.340 -22.627  1.00  0.00     0.000 C 
BRANCH  10  11
ATOM     11  C   UNL     1     -18.395  13.862 -22.744  1.00  0.00    -0.000 C 
BRANCH  11  12
ATOM     12  C   UNL     1     -18.588  13.355 -24.181  1.00  0.00    -0.000 C 
BRANCH  12  13
ATOM     13  C   UNL     1     -19.879  13.885 -24.827  1.00  0.00    -0.000 C 
BRANCH  13  14
ATOM     14  C   UNL     1     -21.045  12.887 -24.722  1.00  0.00    -0.000 C 
BRANCH  14  15
ATOM     15  C   UNL     1     -22.017  13.234 -23.584  1.00  0.00    -0.003 C 
ATOM     16  C   UNL     1     -22.426  14.708 -23.587  1.00  0.00     0.004 C 
ENDBRANCH  14  15
ENDBRANCH  13  14
ENDBRANCH  12  13
ENDBRANCH  11  12
ENDBRANCH  10  11
ENDBRANCH   1  10
TORSDOF 12
ENDMDL
MODEL 4
REMARK VINA RESULT:    -2.398      2.451      3.214
REMARK INTER + INTRA:          -6.044
REMARK INTER:                  -3.946
REMARK INTRA:                  -2.098
REMARK UNBOUND:                -1.963
REMARK SMILES CCCCCCCCCCCCCC(=O)[O-]
REMARK SMILES IDX 8 1 9 2 10 3 11 4 12 5 13 6 14 7 15 8 16 9 7 10 6 11 5 12
REMARK SMILES IDX 4 13 3 14 2 15 1 16
REMARK H PARENT
REMARK Flexibility Score: inf
ROOT
ATOM      1  C   UNL     1     -21.963  14.918 -23.135  1.00  0.00     0.000 C 
ENDROOT
BRANCH   1   2
ATOM      2  C   UNL     1     -21.515  15.377 -21.742  1.00  0.00     0.000 C 
BRANCH   2   3
ATOM      3  C   UNL     1     -20.891  14.219 -20.956  1.00  0.00     0.000 C 
BRANCH   3   4
ATOM      4  C   UNL     1     -19.980  14.740 -19.838  1.00  0.00     0.000 C 
BRANCH   4   5
ATOM      5  C   UNL     1     -18.778  13.807 -19.626  1.00  0.00     0.006 C 
BRANCH   5   6
ATOM      6  C   UNL     1     -17.512  14.573 -19.218  1.00  0.00     0.053 C 
BRANCH   6   7
ATOM      7  C   UNL     1     -16.327  14.160 -20.035  1.00  0.00     0.041 C 
ATOM      8  O   UNL     1     -16.173  12.954 -20.365  1.00  0.00    -0.550 OA
ATOM      9  O   UNL     1     -15.409  15.112 -20.459  1.00  0.00    -0.550 OA
ENDBRANCH   6   7
ENDBRANCH   5   6
ENDBRANCH   4   5
ENDBRANCH   3   4
ENDBRANCH   2   3
ENDBRANCH   1   2
BRANCH   1  10
ATOM     10  C   UNL     1     -21.770  13.405 -23.304  1.00  0.00     0.000 C 
BRANCH  10  11
ATOM     11  C   UNL     1     -21.285  13.067 -24.719  1.00  0.00    -0.000 C 
BRANCH  11  12
ATOM     12  C   UNL     1     -19.903  13.681 -24.986  1.00  0.00    -0.000 C 
BRANCH  12  13
ATOM     13  C   UNL     1     -18.764  12.885 -24.329  1.00  0.00    -0.000 C 
BRANCH  13  14
ATOM     14  C   UNL     1     -17.985  13.714 -23.292  1.00  0.00    -0.000 C 
BRANCH  14  15
ATOM     15  C   UNL     1     -17.744  15.158 -23.754  1.00  0.00    -0.003 C 
ATOM     16  C   UNL     1     -18.093  16.188 -22.679  1.00  0.00     0.004 C 
ENDBRANCH  14  15
ENDBRANCH  13  14
ENDBRANCH  12  13
ENDBRANCH  11  12
ENDBRANCH  10  11
ENDBRANCH   1  10
TORSDOF 12
ENDMDL
MODEL 5
REMARK VINA RESULT:    -2.351     14.131     15.707
REMARK INTER + INTRA:          -5.963
REMARK INTER:                  -4.666
REMARK INTRA:                  -1.297
REMARK UNBOUND:                -1.963
REMARK SMILES CCCCCCCCCCCCCC(=O)[O-]
REMARK SMILES IDX 8 1 9 2 10 3 11 4 12 5 13 6 14 7 15 8 16 9 7 10 6 11 5 12
REMARK SMILES IDX 4 13 3 14 2 15 1 16
REMARK H PARENT
REMARK Flexibility Score: inf
ROOT
ATOM      1  C   UNL     1     -21.295  28.747 -21.011  1.00  0.00     0.000 C 
ENDROOT
BRANCH   1   2
ATOM      2  C   UNL     1     -20.575  28.320 -19.727  1.00  0.00     0.000 C 
BRANCH   2   3
ATOM      3  C   UNL     1     -19.128  28.824 -19.714  1.00  0.00     0.000 C 
BRANCH   3   4
ATOM      4  C   UNL     1     -18.460  28.617 -21.078  1.00  0.00     0.000 C 
BRANCH   4   5
ATOM      5  C   UNL     1     -17.558  29.807 -21.438  1.00  0.00     0.006 C 
BRANCH   5   6
ATOM      6  C   UNL     1     -16.971  29.686 -22.850  1.00  0.00     0.053 C 
BRANCH   6   7
ATOM      7  C   UNL     1     -16.118  28.463 -22.993  1.00  0.00     0.041 C 
ATOM      8  O   UNL     1     -16.310  27.664 -23.947  1.00  0.00    -0.550 OA
ATOM      9  O   UNL     1     -15.090  28.223 -22.091  1.00  0.00    -0.550 OA
ENDBRANCH   6   7
ENDBRANCH   5   6
ENDBRANCH   4   5
ENDBRANCH   3   4
ENDBRANCH   2   3
ENDBRANCH   1   2
BRANCH   1  10
ATOM     10  C   UNL     1     -22.194  27.622 -21.539  1.00  0.00     0.000 C 
BRANCH  10  11
ATOM     11  C   UNL     1     -23.532  28.176 -22.042  1.00  0.00    -0.000 C 
BRANCH  11  12
ATOM     12  C   UNL     1     -23.656  29.675 -21.735  1.00  0.00    -0.000 C 
BRANCH  12  13
ATOM     13  C   UNL     1     -24.822  29.990 -20.784  1.00  0.00    -0.000 C 
BRANCH  13  14
ATOM     14  C   UNL     1     -24.418  29.896 -19.302  1.00  0.00    -0.000 C 
BRANCH  14  15
ATOM     15  C   UNL     1     -24.903  28.597 -18.641  1.00  0.00    -0.003 C 
ATOM     16  C   UNL     1     -23.798  27.884 -17.860  1.00  0.00     0.004 C 
ENDBRANCH  14  15
ENDBRANCH  13  14
ENDBRANCH  12  13
ENDBRANCH  11  12
ENDBRANCH  10  11
ENDBRANCH   1  10
TORSDOF 12
ENDMDL
MODEL 6
REMARK VINA RESULT:    -2.314      2.685      5.616
REMARK INTER + INTRA:          -5.901
REMARK INTER:                  -4.872
REMARK INTRA:                  -1.028
REMARK UNBOUND:                -1.963
REMARK SMILES CCCCCCCCCCCCCC(=O)[O-]
REMARK SMILES IDX 8 1 9 2 10 3 11 4 12 5 13 6 14 7 15 8 16 9 7 10 6 11 5 12
REMARK SMILES IDX 4 13 3 14 2 15 1 16
REMARK H PARENT
REMARK Flexibility Score: inf
ROOT
ATOM      1  C   UNL     1     -21.701  15.300 -22.261  1.00  0.00     0.000 C 
ENDROOT
BRANCH   1   2
ATOM      2  C   UNL     1     -22.367  14.673 -23.491  1.00  0.00     0.000 C 
BRANCH   2   3
ATOM      3  C   UNL     1     -21.955  13.205 -23.652  1.00  0.00     0.000 C 
BRANCH   3   4
ATOM      4  C   UNL     1     -21.100  13.007 -24.909  1.00  0.00     0.000 C 
BRANCH   4   5
ATOM      5  C   UNL     1     -19.605  12.970 -24.560  1.00  0.00     0.006 C 
BRANCH   5   6
ATOM      6  C   UNL     1     -18.921  14.326 -24.785  1.00  0.00     0.053 C 
BRANCH   6   7
ATOM      7  C   UNL     1     -18.037  14.698 -23.635  1.00  0.00     0.041 C 
ATOM      8  O   UNL     1     -17.480  15.827 -23.603  1.00  0.00    -0.550 OA
ATOM      9  O   UNL     1     -17.853  13.811 -22.583  1.00  0.00    -0.550 OA
ENDBRANCH   6   7
ENDBRANCH   5   6
ENDBRANCH   4   5
ENDBRANCH   3   4
ENDBRANCH   2   3
ENDBRANCH   1   2
BRANCH   1  10
ATOM     10  C   UNL     1     -21.100  14.222 -21.351  1.00  0.00     0.000 C 
BRANCH  10  11
ATOM     11  C   UNL     1     -20.651  14.819 -20.012  1.00  0.00    -0.000 C 
BRANCH  11  12
ATOM     12  C   UNL     1     -21.096  13.934 -18.839  1.00  0.00    -0.000 C 
BRANCH  12  13
ATOM     13  C   UNL     1     -20.136  14.011 -17.641  1.00  0.00    -0.000 C 
BRANCH  13  14
ATOM     14  C   UNL     1     -19.575  12.634 -17.244  1.00  0.00    -0.000 C 
BRANCH  14  15
ATOM     15  C   UNL     1     -20.679  11.593 -17.011  1.00  0.00    -0.003 C 
ATOM     16  C   UNL     1     -21.555  11.921 -15.801  1.00  0.00     0.004 C 
ENDBRANCH  14  15
ENDBRANCH  13  14
ENDBRANCH  12  13
ENDBRANCH  11  12
ENDBRANCH  10  11
ENDBRANCH   1  10
TORSDOF 12
ENDMDL
MODEL 7
REMARK VINA RESULT:    -2.285      1.455      2.778
REMARK INTER + INTRA:          -5.850
REMARK INTER:                  -4.621
REMARK INTRA:                  -1.230
REMARK UNBOUND:                -1.963
REMARK SMILES CCCCCCCCCCCCCC(=O)[O-]
REMARK SMILES IDX 8 1 9 2 10 3 11 4 12 5 13 6 14 7 15 8 16 9 7 10 6 11 5 12
REMARK SMILES IDX 4 13 3 14 2 15 1 16
REMARK H PARENT
REMARK Flexibility Score: inf
ROOT
ATOM      1  C   UNL     1     -21.328  14.204 -21.590  1.00  0.00     0.000 C 
ENDROOT
BRANCH   1   2
ATOM      2  C   UNL     1     -20.697  15.388 -20.848  1.00  0.00     0.000 C 
BRANCH   2   3
ATOM      3  C   UNL     1     -20.289  14.991 -19.425  1.00  0.00     0.000 C 
BRANCH   3   4
ATOM      4  C   UNL     1     -21.170  13.854 -18.896  1.00  0.00     0.000 C 
BRANCH   4   5
ATOM      5  C   UNL     1     -21.472  14.040 -17.401  1.00  0.00     0.006 C 
BRANCH   5   6
ATOM      6  C   UNL     1     -22.551  13.069 -16.901  1.00  0.00     0.053 C 
BRANCH   6   7
ATOM      7  C   UNL     1     -22.026  12.161 -15.832  1.00  0.00     0.041 C 
ATOM      8  O   UNL     1     -20.909  11.596 -15.971  1.00  0.00    -0.550 OA
ATOM      9  O   UNL     1     -22.756  11.963 -14.667  1.00  0.00    -0.550 OA
ENDBRANCH   6   7
ENDBRANCH   5   6
ENDBRANCH   4   5
ENDBRANCH   3   4
ENDBRANCH   2   3
ENDBRANCH   1   2
BRANCH   1  10
ATOM     10  C   UNL     1     -21.602  14.558 -23.058  1.00  0.00     0.000 C 
BRANCH  10  11
ATOM     11  C   UNL     1     -21.764  13.292 -23.908  1.00  0.00    -0.000 C 
BRANCH  11  12
ATOM     12  C   UNL     1     -20.699  13.233 -25.012  1.00  0.00    -0.000 C 
BRANCH  12  13
ATOM     13  C   UNL     1     -19.284  12.997 -24.459  1.00  0.00    -0.000 C 
BRANCH  13  14
ATOM     14  C   UNL     1     -18.342  14.185 -24.720  1.00  0.00    -0.000 C 
BRANCH  14  15
ATOM     15  C   UNL     1     -17.857  14.848 -23.422  1.00  0.00    -0.003 C 
ATOM     16  C   UNL     1     -17.644  13.842 -22.289  1.00  0.00     0.004 C 
ENDBRANCH  14  15
ENDBRANCH  13  14
ENDBRANCH  12  13
ENDBRANCH  11  12
ENDBRANCH  10  11
ENDBRANCH   1  10
TORSDOF 12
ENDMDL
MODEL 8
REMARK VINA RESULT:    -2.261     13.362     15.526
REMARK INTER + INTRA:          -5.810
REMARK INTER:                  -4.253
REMARK INTRA:                  -1.557
REMARK UNBOUND:                -1.963
REMARK SMILES CCCCCCCCCCCCCC(=O)[O-]
REMARK SMILES IDX 8 1 9 2 10 3 11 4 12 5 13 6 14 7 15 8 16 9 7 10 6 11 5 12
REMARK SMILES IDX 4 13 3 14 2 15 1 16
REMARK H PARENT
REMARK Flexibility Score: inf
ROOT
ATOM      1  C   UNL     1     -21.553  27.407 -18.730  1.00  0.00     0.000 C 
ENDROOT
BRANCH   1   2
ATOM      2  C   UNL     1     -21.422  26.657 -20.061  1.00  0.00     0.000 C 
BRANCH   2   3
ATOM      3  C   UNL     1     -20.281  27.232 -20.906  1.00  0.00     0.000 C 
BRANCH   3   4
ATOM      4  C   UNL     1     -19.937  28.660 -20.469  1.00  0.00     0.000 C 
BRANCH   4   5
ATOM      5  C   UNL     1     -18.798  29.239 -21.323  1.00  0.00     0.006 C 
BRANCH   5   6
ATOM      6  C   UNL     1     -17.595  28.290 -21.408  1.00  0.00     0.053 C 
BRANCH   6   7
ATOM      7  C   UNL     1     -16.456  28.763 -20.558  1.00  0.00     0.041 C 
ATOM      8  O   UNL     1     -15.356  28.151 -20.576  1.00  0.00    -0.550 OA
ATOM      9  O   UNL     1     -16.599  29.899 -19.772  1.00  0.00    -0.550 OA
ENDBRANCH   6   7
ENDBRANCH   5   6
ENDBRANCH   4   5
ENDBRANCH   3   4
ENDBRANCH   2   3
ENDBRANCH   1   2
BRANCH   1  10
ATOM     10  C   UNL     1     -23.013  27.790 -18.455  1.00  0.00     0.000 C 
BRANCH  10  11
ATOM     11  C   UNL     1     -23.121  29.243 -17.979  1.00  0.00    -0.000 C 
BRANCH  11  12
ATOM     12  C   UNL     1     -24.369  29.921 -18.563  1.00  0.00    -0.000 C 
BRANCH  12  13
ATOM     13  C   UNL     1     -24.928  29.179 -19.788  1.00  0.00    -0.000 C 
BRANCH  13  14
ATOM     14  C   UNL     1     -24.697  29.947 -21.101  1.00  0.00    -0.000 C 
BRANCH  14  15
ATOM     15  C   UNL     1     -23.409  29.516 -21.817  1.00  0.00    -0.003 C 
ATOM     16  C   UNL     1     -23.559  28.182 -22.550  1.00  0.00     0.004 C 
ENDBRANCH  14  15
ENDBRANCH  13  14
ENDBRANCH  12  13
ENDBRANCH  11  12
ENDBRANCH  10  11
ENDBRANCH   1  10
TORSDOF 12
ENDMDL
