MODEL 1
REMARK VINA RESULT:    -4.188      0.000      0.000
REMARK INTER + INTRA:         -16.045
REMARK INTER:                 -11.043
REMARK INTRA:                  -5.002
REMARK UNBOUND:                -5.002
REMARK SMILES CCCCCCCCCCCCCCCCCCCCCCCCCCCCCC(=O)[O-]
REMARK SMILES IDX 16 1 17 2 18 3 19 4 20 5 21 6 22 7 23 8 24 9 25 10 26 11
REMARK SMILES IDX 27 12 28 13 29 14 30 15 31 16 32 17 15 18 14 19 13 20 12 21
REMARK SMILES IDX 11 22 10 23 9 24 8 25 7 26 6 27 5 28 4 29 3 30 2 31 1 32
REMARK H PARENT
REMARK Flexibility Score: inf
ROOT
ATOM      1  C   UNL     1      42.402  12.612  22.920  1.00  0.00     0.000 C 
ENDROOT
BRANCH   1   2
ATOM      2  C   UNL     1      43.860  13.029  22.673  1.00  0.00     0.000 C 
BRANCH   2   3
ATOM      3  C   UNL     1      44.744  11.856  22.218  1.00  0.00     0.000 C 
BRANCH   3   4
ATOM      4  C   UNL     1      43.927  10.600  21.870  1.00  0.00     0.000 C 
BRANCH   4   5
ATOM      5  C   UNL     1      44.783   9.504  21.217  1.00  0.00     0.000 C 
BRANCH   5   6
ATOM      6  C   UNL     1      45.620   8.714  22.240  1.00  0.00     0.000 C 
BRANCH   6   7
ATOM      7  C   UNL     1      44.853   8.448  23.544  1.00  0.00     0.000 C 
BRANCH   7   8
ATOM      8  C   UNL     1      45.602   8.966  24.785  1.00  0.00     0.000 C 
BRANCH   8   9
ATOM      9  C   UNL     1      44.887  10.146  25.466  1.00  0.00     0.000 C 
BRANCH   9  10
ATOM     10  C   UNL     1      43.615   9.767  26.246  1.00  0.00     0.000 C 
BRANCH  10  11
ATOM     11  C   UNL     1      42.332  10.322  25.603  1.00  0.00     0.000 C 
BRANCH  11  12
ATOM     12  C   UNL     1      41.328  10.842  26.643  1.00  0.00     0.000 C 
BRANCH  12  13
ATOM     13  C   UNL     1      39.870  10.542  26.255  1.00  0.00     0.006 C 
BRANCH  13  14
ATOM     14  C   UNL     1      39.039  11.820  26.090  1.00  0.00     0.053 C 
BRANCH  14  15
ATOM     15  C   UNL     1      37.587  11.578  26.368  1.00  0.00     0.041 C 
ATOM     16  O   UNL     1      37.023  10.539  25.939  1.00  0.00    -0.550 OA
ATOM     17  O   UNL     1      36.848  12.520  27.075  1.00  0.00    -0.550 OA
ENDBRANCH  14  15
ENDBRANCH  13  14
ENDBRANCH  12  13
ENDBRANCH  11  12
ENDBRANCH  10  11
ENDBRANCH   9  10
ENDBRANCH   8   9
ENDBRANCH   7   8
ENDBRANCH   6   7
ENDBRANCH   5   6
ENDBRANCH   4   5
ENDBRANCH   3   4
ENDBRANCH   2   3
ENDBRANCH   1   2
BRANCH   1  18
ATOM     18  C   UNL     1      41.438  13.766  22.621  1.00  0.00     0.000 C 
BRANCH  18  19
ATOM     19  C   UNL     1      42.181  15.110  22.604  1.00  0.00     0.000 C 
BRANCH  19  20
ATOM     20  C   UNL     1      41.775  16.004  21.421  1.00  0.00     0.000 C 
BRANCH  20  21
ATOM     21  C   UNL     1      42.973  16.745  20.803  1.00  0.00     0.000 C 
BRANCH  21  22
ATOM     22  C   UNL     1      44.322  16.154  21.243  1.00  0.00     0.000 C 
BRANCH  22  23
ATOM     23  C   UNL     1      45.364  17.236  21.569  1.00  0.00     0.000 C 
BRANCH  23  24
ATOM     24  C   UNL     1      45.717  17.225  23.064  1.00  0.00    -0.000 C 
BRANCH  24  25
ATOM     25  C   UNL     1      45.981  15.808  23.600  1.00  0.00    -0.000 C 
BRANCH  25  26
ATOM     26  C   UNL     1      45.339  15.565  24.974  1.00  0.00    -0.000 C 
BRANCH  26  27
ATOM     27  C   UNL     1      44.169  16.530  25.212  1.00  0.00    -0.000 C 
BRANCH  27  28
ATOM     28  C   UNL     1      43.607  16.448  26.644  1.00  0.00    -0.000 C 
BRANCH  28  29
ATOM     29  C   UNL     1      43.171  15.038  27.092  1.00  0.00    -0.000 C 
BRANCH  29  30
ATOM     30  C   UNL     1      42.114  14.363  26.196  1.00  0.00    -0.000 C 
BRANCH  30  31
ATOM     31  C   UNL     1      40.790  15.138  26.064  1.00  0.00    -0.003 C 
ATOM     32  C   UNL     1      40.071  15.320  27.401  1.00  0.00     0.004 C 
ENDBRANCH  30  31
ENDBRANCH  29  30
ENDBRANCH  28  29
ENDBRANCH  27  28
ENDBRANCH  26  27
ENDBRANCH  25  26
ENDBRANCH  24  25
ENDBRANCH  23  24
ENDBRANCH  22  23
ENDBRANCH  21  22
ENDBRANCH  20  21
ENDBRANCH  19  20
ENDBRANCH  18  19
ENDBRANCH   1  18
TORSDOF 28
ENDMDL
MODEL 2
REMARK VINA RESULT:    -4.162      2.707      6.088
REMARK INTER + INTRA:         -15.976
REMARK INTER:                 -10.503
REMARK INTRA:                  -5.472
REMARK UNBOUND:                -5.002
REMARK SMILES CCCCCCCCCCCCCCCCCCCCCCCCCCCCCC(=O)[O-]
REMARK SMILES IDX 16 1 17 2 18 3 19 4 20 5 21 6 22 7 23 8 24 9 25 10 26 11
REMARK SMILES IDX 27 12 28 13 29 14 30 15 31 16 32 17 15 18 14 19 13 20 12 21
REMARK SMILES IDX 11 22 10 23 9 24 8 25 7 26 6 27 5 28 4 29 3 30 2 31 1 32
REMARK H PARENT
REMARK Flexibility Score: inf
ROOT
ATOM      1  C   UNL     1      44.602  16.697  21.166  1.00  0.00     0.000 C 
ENDROOT
BRANCH   1   2
ATOM      2  C   UNL     1      43.337  16.380  20.355  1.00  0.00     0.000 C 
BRANCH   2   3
ATOM      3  C   UNL     1      42.047  16.574  21.169  1.00  0.00     0.000 C 
BRANCH   3   4
ATOM      4  C   UNL     1      41.662  15.321  21.975  1.00  0.00     0.000 C 
BRANCH   4   5
ATOM      5  C   UNL     1      41.629  15.584  23.488  1.00  0.00     0.000 C 
BRANCH   5   6
ATOM      6  C   UNL     1      41.253  14.332  24.301  1.00  0.00     0.000 C 
BRANCH   6   7
ATOM      7  C   UNL     1      41.328  13.045  23.465  1.00  0.00     0.000 C 
BRANCH   7   8
ATOM      8  C   UNL     1      42.555  12.184  23.818  1.00  0.00     0.000 C 
BRANCH   8   9
ATOM      9  C   UNL     1      43.604  12.149  22.693  1.00  0.00     0.000 C 
BRANCH   9  10
ATOM     10  C   UNL     1      45.039  11.846  23.159  1.00  0.00     0.000 C 
BRANCH  10  11
ATOM     11  C   UNL     1      45.093  11.230  24.568  1.00  0.00     0.000 C 
BRANCH  11  12
ATOM     12  C   UNL     1      45.678   9.810  24.569  1.00  0.00     0.000 C 
BRANCH  12  13
ATOM     13  C   UNL     1      44.736   8.785  23.913  1.00  0.00     0.006 C 
BRANCH  13  14
ATOM     14  C   UNL     1      45.374   8.110  22.693  1.00  0.00     0.053 C 
BRANCH  14  15
ATOM     15  C   UNL     1      44.618   8.412  21.434  1.00  0.00     0.041 C 
ATOM     16  O   UNL     1      44.999   9.339  20.673  1.00  0.00    -0.550 OA
ATOM     17  O   UNL     1      43.473   7.689  21.121  1.00  0.00    -0.550 OA
ENDBRANCH  14  15
ENDBRANCH  13  14
ENDBRANCH  12  13
ENDBRANCH  11  12
ENDBRANCH  10  11
ENDBRANCH   9  10
ENDBRANCH   8   9
ENDBRANCH   7   8
ENDBRANCH   6   7
ENDBRANCH   5   6
ENDBRANCH   4   5
ENDBRANCH   3   4
ENDBRANCH   2   3
ENDBRANCH   1   2
BRANCH   1  18
ATOM     18  C   UNL     1      45.636  15.571  21.041  1.00  0.00     0.000 C 
BRANCH  18  19
ATOM     19  C   UNL     1      46.123  15.119  22.426  1.00  0.00     0.000 C 
BRANCH  19  20
ATOM     20  C   UNL     1      45.234  15.634  23.570  1.00  0.00     0.000 C 
BRANCH  20  21
ATOM     21  C   UNL     1      45.570  14.977  24.920  1.00  0.00     0.000 C 
BRANCH  21  22
ATOM     22  C   UNL     1      44.407  15.063  25.923  1.00  0.00     0.000 C 
BRANCH  22  23
ATOM     23  C   UNL     1      44.506  14.008  27.036  1.00  0.00     0.000 C 
BRANCH  23  24
ATOM     24  C   UNL     1      43.110  13.591  27.523  1.00  0.00    -0.000 C 
BRANCH  24  25
ATOM     25  C   UNL     1      42.846  12.087  27.348  1.00  0.00    -0.000 C 
BRANCH  25  26
ATOM     26  C   UNL     1      41.396  11.698  27.671  1.00  0.00    -0.000 C 
BRANCH  26  27
ATOM     27  C   UNL     1      40.915  10.560  26.759  1.00  0.00    -0.000 C 
BRANCH  27  28
ATOM     28  C   UNL     1      39.626  10.910  25.994  1.00  0.00    -0.000 C 
BRANCH  28  29
ATOM     29  C   UNL     1      38.932  12.210  26.447  1.00  0.00    -0.000 C 
BRANCH  29  30
ATOM     30  C   UNL     1      37.839  12.032  27.519  1.00  0.00    -0.000 C 
BRANCH  30  31
ATOM     31  C   UNL     1      37.040  10.720  27.413  1.00  0.00    -0.003 C 
ATOM     32  C   UNL     1      36.108  10.493  28.603  1.00  0.00     0.004 C 
ENDBRANCH  30  31
ENDBRANCH  29  30
ENDBRANCH  28  29
ENDBRANCH  27  28
ENDBRANCH  26  27
ENDBRANCH  25  26
ENDBRANCH  24  25
ENDBRANCH  23  24
ENDBRANCH  22  23
ENDBRANCH  21  22
ENDBRANCH  20  21
ENDBRANCH  19  20
ENDBRANCH  18  19
ENDBRANCH   1  18
TORSDOF 28
ENDMDL
MODEL 3
REMARK VINA RESULT:    -4.103      1.899      5.636
REMARK INTER + INTRA:         -15.822
REMARK INTER:                 -11.273
REMARK INTRA:                  -4.548
REMARK UNBOUND:                -5.002
REMARK SMILES CCCCCCCCCCCCCCCCCCCCCCCCCCCCCC(=O)[O-]
REMARK SMILES IDX 16 1 17 2 18 3 19 4 20 5 21 6 22 7 23 8 24 9 25 10 26 11
REMARK SMILES IDX 27 12 28 13 29 14 30 15 31 16 32 17 15 18 14 19 13 20 12 21
REMARK SMILES IDX 11 22 10 23 9 24 8 25 7 26 6 27 5 28 4 29 3 30 2 31 1 32
REMARK H PARENT
REMARK Flexibility Score: inf
ROOT
ATOM      1  C   UNL     1      41.602  15.261  21.486  1.00  0.00     0.000 C 
ENDROOT
BRANCH   1   2
ATOM      2  C   UNL     1      41.990  14.851  22.916  1.00  0.00     0.000 C 
BRANCH   2   3
ATOM      3  C   UNL     1      41.185  13.644  23.425  1.00  0.00     0.000 C 
BRANCH   3   4
ATOM      4  C   UNL     1      40.765  13.793  24.898  1.00  0.00     0.000 C 
BRANCH   4   5
ATOM      5  C   UNL     1      40.998  15.213  25.435  1.00  0.00     0.000 C 
BRANCH   5   6
ATOM      6  C   UNL     1      40.790  15.316  26.957  1.00  0.00     0.000 C 
BRANCH   6   7
ATOM      7  C   UNL     1      40.499  13.953  27.602  1.00  0.00     0.000 C 
BRANCH   7   8
ATOM      8  C   UNL     1      40.092  14.075  29.081  1.00  0.00     0.000 C 
BRANCH   8   9
ATOM      9  C   UNL     1      38.649  13.609  29.345  1.00  0.00     0.000 C 
BRANCH   9  10
ATOM     10  C   UNL     1      37.563  14.451  28.653  1.00  0.00     0.000 C 
BRANCH  10  11
ATOM     11  C   UNL     1      36.622  13.608  27.774  1.00  0.00     0.000 C 
BRANCH  11  12
ATOM     12  C   UNL     1      37.025  12.126  27.732  1.00  0.00     0.000 C 
BRANCH  12  13
ATOM     13  C   UNL     1      37.500  11.685  26.336  1.00  0.00     0.006 C 
BRANCH  13  14
ATOM     14  C   UNL     1      36.661  10.529  25.777  1.00  0.00     0.053 C 
BRANCH  14  15
ATOM     15  C   UNL     1      36.801   9.289  26.606  1.00  0.00     0.041 C 
ATOM     16  O   UNL     1      37.917   8.717  26.709  1.00  0.00    -0.550 OA
ATOM     17  O   UNL     1      35.688   8.748  27.239  1.00  0.00    -0.550 OA
ENDBRANCH  14  15
ENDBRANCH  13  14
ENDBRANCH  12  13
ENDBRANCH  11  12
ENDBRANCH  10  11
ENDBRANCH   9  10
ENDBRANCH   8   9
ENDBRANCH   7   8
ENDBRANCH   6   7
ENDBRANCH   5   6
ENDBRANCH   4   5
ENDBRANCH   3   4
ENDBRANCH   2   3
ENDBRANCH   1   2
BRANCH   1  18
ATOM     18  C   UNL     1      42.199  16.625  21.121  1.00  0.00     0.000 C 
BRANCH  18  19
ATOM     19  C   UNL     1      43.467  16.457  20.272  1.00  0.00     0.000 C 
BRANCH  19  20
ATOM     20  C   UNL     1      44.755  16.471  21.111  1.00  0.00     0.000 C 
BRANCH  20  21
ATOM     21  C   UNL     1      45.676  15.277  20.800  1.00  0.00     0.000 C 
BRANCH  21  22
ATOM     22  C   UNL     1      45.724  14.255  21.947  1.00  0.00     0.000 C 
BRANCH  22  23
ATOM     23  C   UNL     1      45.533  14.905  23.327  1.00  0.00     0.000 C 
BRANCH  23  24
ATOM     24  C   UNL     1      45.711  13.872  24.450  1.00  0.00    -0.000 C 
BRANCH  24  25
ATOM     25  C   UNL     1      44.525  13.850  25.428  1.00  0.00    -0.000 C 
BRANCH  25  26
ATOM     26  C   UNL     1      44.033  12.427  25.732  1.00  0.00    -0.000 C 
BRANCH  26  27
ATOM     27  C   UNL     1      44.589  11.425  24.711  1.00  0.00    -0.000 C 
BRANCH  27  28
ATOM     28  C   UNL     1      43.508  10.879  23.759  1.00  0.00    -0.000 C 
BRANCH  28  29
ATOM     29  C   UNL     1      43.759  11.153  22.263  1.00  0.00    -0.000 C 
BRANCH  29  30
ATOM     30  C   UNL     1      45.089  10.605  21.709  1.00  0.00    -0.000 C 
BRANCH  30  31
ATOM     31  C   UNL     1      44.950   9.376  20.793  1.00  0.00    -0.003 C 
ATOM     32  C   UNL     1      44.392   8.153  21.519  1.00  0.00     0.004 C 
ENDBRANCH  30  31
ENDBRANCH  29  30
ENDBRANCH  28  29
ENDBRANCH  27  28
ENDBRANCH  26  27
ENDBRANCH  25  26
ENDBRANCH  24  25
ENDBRANCH  23  24
ENDBRANCH  22  23
ENDBRANCH  21  22
ENDBRANCH  20  21
ENDBRANCH  19  20
ENDBRANCH  18  19
ENDBRANCH   1  18
TORSDOF 28
ENDMDL
MODEL 4
REMARK VINA RESULT:    -4.088      2.303      3.181
REMARK INTER + INTRA:         -15.781
REMARK INTER:                 -10.211
REMARK INTRA:                  -5.570
REMARK UNBOUND:                -5.002
REMARK SMILES CCCCCCCCCCCCCCCCCCCCCCCCCCCCCC(=O)[O-]
REMARK SMILES IDX 16 1 17 2 18 3 19 4 20 5 21 6 22 7 23 8 24 9 25 10 26 11
REMARK SMILES IDX 27 12 28 13 29 14 30 15 31 16 32 17 15 18 14 19 13 20 12 21
REMARK SMILES IDX 11 22 10 23 9 24 8 25 7 26 6 27 5 28 4 29 3 30 2 31 1 32
REMARK H PARENT
REMARK Flexibility Score: inf
ROOT
ATOM      1  C   UNL     1      41.277  13.393  22.970  1.00  0.00     0.000 C 
ENDROOT
BRANCH   1   2
ATOM      2  C   UNL     1      42.737  13.042  23.297  1.00  0.00     0.000 C 
BRANCH   2   3
ATOM      3  C   UNL     1      43.246  11.827  22.503  1.00  0.00     0.000 C 
BRANCH   3   4
ATOM      4  C   UNL     1      44.742  11.932  22.157  1.00  0.00     0.000 C 
BRANCH   4   5
ATOM      5  C   UNL     1      45.259  10.694  21.409  1.00  0.00     0.000 C 
BRANCH   5   6
ATOM      6  C   UNL     1      44.153   9.660  21.131  1.00  0.00     0.000 C 
BRANCH   6   7
ATOM      7  C   UNL     1      44.499   8.268  21.682  1.00  0.00     0.000 C 
BRANCH   7   8
ATOM      8  C   UNL     1      45.874   8.233  22.373  1.00  0.00     0.000 C 
BRANCH   8   9
ATOM      9  C   UNL     1      45.786   7.850  23.861  1.00  0.00     0.000 C 
BRANCH   9  10
ATOM     10  C   UNL     1      45.159   8.925  24.767  1.00  0.00     0.000 C 
BRANCH  10  11
ATOM     11  C   UNL     1      43.672   8.664  25.063  1.00  0.00     0.000 C 
BRANCH  11  12
ATOM     12  C   UNL     1      42.939   9.920  25.558  1.00  0.00     0.000 C 
BRANCH  12  13
ATOM     13  C   UNL     1      43.893  10.941  26.203  1.00  0.00     0.006 C 
BRANCH  13  14
ATOM     14  C   UNL     1      43.469  11.308  27.631  1.00  0.00     0.053 C 
BRANCH  14  15
ATOM     15  C   UNL     1      44.238  10.528  28.654  1.00  0.00     0.041 C 
ATOM     16  O   UNL     1      45.112  11.096  29.358  1.00  0.00    -0.550 OA
ATOM     17  O   UNL     1      44.009   9.166  28.806  1.00  0.00    -0.550 OA
ENDBRANCH  14  15
ENDBRANCH  13  14
ENDBRANCH  12  13
ENDBRANCH  11  12
ENDBRANCH  10  11
ENDBRANCH   9  10
ENDBRANCH   8   9
ENDBRANCH   7   8
ENDBRANCH   6   7
ENDBRANCH   5   6
ENDBRANCH   4   5
ENDBRANCH   3   4
ENDBRANCH   2   3
ENDBRANCH   1   2
BRANCH   1  18
ATOM     18  C   UNL     1      41.197  14.450  21.862  1.00  0.00     0.000 C 
BRANCH  18  19
ATOM     19  C   UNL     1      41.953  15.724  22.266  1.00  0.00     0.000 C 
BRANCH  19  20
ATOM     20  C   UNL     1      42.725  16.357  21.097  1.00  0.00     0.000 C 
BRANCH  20  21
ATOM     21  C   UNL     1      44.210  15.952  21.082  1.00  0.00     0.000 C 
BRANCH  21  22
ATOM     22  C   UNL     1      45.147  17.138  21.362  1.00  0.00     0.000 C 
BRANCH  22  23
ATOM     23  C   UNL     1      45.912  16.987  22.687  1.00  0.00     0.000 C 
BRANCH  23  24
ATOM     24  C   UNL     1      45.493  15.704  23.420  1.00  0.00    -0.000 C 
BRANCH  24  25
ATOM     25  C   UNL     1      44.736  15.990  24.728  1.00  0.00    -0.000 C 
BRANCH  25  26
ATOM     26  C   UNL     1      44.834  14.833  25.734  1.00  0.00    -0.000 C 
BRANCH  26  27
ATOM     27  C   UNL     1      43.563  14.741  26.590  1.00  0.00    -0.000 C 
BRANCH  27  28
ATOM     28  C   UNL     1      42.625  15.948  26.401  1.00  0.00    -0.000 C 
BRANCH  28  29
ATOM     29  C   UNL     1      41.206  15.599  25.910  1.00  0.00    -0.000 C 
BRANCH  29  30
ATOM     30  C   UNL     1      40.163  15.373  27.023  1.00  0.00    -0.000 C 
BRANCH  30  31
ATOM     31  C   UNL     1      40.033  13.914  27.499  1.00  0.00    -0.003 C 
ATOM     32  C   UNL     1      40.218  12.901  26.369  1.00  0.00     0.004 C 
ENDBRANCH  30  31
ENDBRANCH  29  30
ENDBRANCH  28  29
ENDBRANCH  27  28
ENDBRANCH  26  27
ENDBRANCH  25  26
ENDBRANCH  24  25
ENDBRANCH  23  24
ENDBRANCH  22  23
ENDBRANCH  21  22
ENDBRANCH  20  21
ENDBRANCH  19  20
ENDBRANCH  18  19
ENDBRANCH   1  18
TORSDOF 28
ENDMDL
MODEL 5
REMARK VINA RESULT:    -4.081      1.878      5.623
REMARK INTER + INTRA:         -15.763
REMARK INTER:                 -12.119
REMARK INTRA:                  -3.644
REMARK UNBOUND:                -5.002
REMARK SMILES CCCCCCCCCCCCCCCCCCCCCCCCCCCCCC(=O)[O-]
REMARK SMILES IDX 16 1 17 2 18 3 19 4 20 5 21 6 22 7 23 8 24 9 25 10 26 11
REMARK SMILES IDX 27 12 28 13 29 14 30 15 31 16 32 17 15 18 14 19 13 20 12 21
REMARK SMILES IDX 11 22 10 23 9 24 8 25 7 26 6 27 5 28 4 29 3 30 2 31 1 32
REMARK H PARENT
REMARK Flexibility Score: inf
ROOT
ATOM      1  C   UNL     1      41.626  16.095  21.162  1.00  0.00     0.000 C 
ENDROOT
BRANCH   1   2
ATOM      2  C   UNL     1      42.010  15.255  22.390  1.00  0.00     0.000 C 
BRANCH   2   3
ATOM      3  C   UNL     1      41.506  13.805  22.298  1.00  0.00     0.000 C 
BRANCH   3   4
ATOM      4  C   UNL     1      41.569  13.070  23.647  1.00  0.00     0.000 C 
BRANCH   4   5
ATOM      5  C   UNL     1      41.229  13.987  24.832  1.00  0.00     0.000 C 
BRANCH   5   6
ATOM      6  C   UNL     1      40.535  13.238  25.985  1.00  0.00     0.000 C 
BRANCH   6   7
ATOM      7  C   UNL     1      40.246  11.769  25.639  1.00  0.00     0.000 C 
BRANCH   7   8
ATOM      8  C   UNL     1      39.125  11.168  26.506  1.00  0.00     0.000 C 
BRANCH   8   9
ATOM      9  C   UNL     1      37.931  12.122  26.685  1.00  0.00     0.000 C 
BRANCH   9  10
ATOM     10  C   UNL     1      37.494  12.340  28.145  1.00  0.00     0.000 C 
BRANCH  10  11
ATOM     11  C   UNL     1      36.222  11.555  28.511  1.00  0.00     0.000 C 
BRANCH  11  12
ATOM     12  C   UNL     1      36.481  10.473  29.570  1.00  0.00     0.000 C 
BRANCH  12  13
ATOM     13  C   UNL     1      36.114   9.064  29.074  1.00  0.00     0.006 C 
BRANCH  13  14
ATOM     14  C   UNL     1      35.122   9.101  27.904  1.00  0.00     0.053 C 
BRANCH  14  15
ATOM     15  C   UNL     1      35.736   8.583  26.639  1.00  0.00     0.041 C 
ATOM     16  O   UNL     1      36.985   8.467  26.541  1.00  0.00    -0.550 OA
ATOM     17  O   UNL     1      34.928   8.262  25.556  1.00  0.00    -0.550 OA
ENDBRANCH  14  15
ENDBRANCH  13  14
ENDBRANCH  12  13
ENDBRANCH  11  12
ENDBRANCH  10  11
ENDBRANCH   9  10
ENDBRANCH   8   9
ENDBRANCH   7   8
ENDBRANCH   6   7
ENDBRANCH   5   6
ENDBRANCH   4   5
ENDBRANCH   3   4
ENDBRANCH   2   3
ENDBRANCH   1   2
BRANCH   1  18
ATOM     18  C   UNL     1      42.770  17.030  20.752  1.00  0.00     0.000 C 
BRANCH  18  19
ATOM     19  C   UNL     1      44.085  16.251  20.599  1.00  0.00     0.000 C 
BRANCH  19  20
ATOM     20  C   UNL     1      45.163  16.695  21.601  1.00  0.00     0.000 C 
BRANCH  20  21
ATOM     21  C   UNL     1      45.864  15.504  22.278  1.00  0.00     0.000 C 
BRANCH  21  22
ATOM     22  C   UNL     1      45.833  14.233  21.414  1.00  0.00     0.000 C 
BRANCH  22  23
ATOM     23  C   UNL     1      45.148  13.053  22.123  1.00  0.00     0.000 C 
BRANCH  23  24
ATOM     24  C   UNL     1      45.665  11.712  21.579  1.00  0.00    -0.000 C 
BRANCH  24  25
ATOM     25  C   UNL     1      44.557  10.651  21.471  1.00  0.00    -0.000 C 
BRANCH  25  26
ATOM     26  C   UNL     1      45.059   9.329  20.872  1.00  0.00    -0.000 C 
BRANCH  26  27
ATOM     27  C   UNL     1      44.818   8.161  21.839  1.00  0.00    -0.000 C 
BRANCH  27  28
ATOM     28  C   UNL     1      43.941   8.552  23.043  1.00  0.00    -0.000 C 
BRANCH  28  29
ATOM     29  C   UNL     1      44.652   8.501  24.410  1.00  0.00    -0.000 C 
BRANCH  29  30
ATOM     30  C   UNL     1      44.159   9.530  25.445  1.00  0.00    -0.000 C 
BRANCH  30  31
ATOM     31  C   UNL     1      44.566  10.986  25.153  1.00  0.00    -0.003 C 
ATOM     32  C   UNL     1      44.118  11.959  26.243  1.00  0.00     0.004 C 
ENDBRANCH  30  31
ENDBRANCH  29  30
ENDBRANCH  28  29
ENDBRANCH  27  28
ENDBRANCH  26  27
ENDBRANCH  25  26
ENDBRANCH  24  25
ENDBRANCH  23  24
ENDBRANCH  22  23
ENDBRANCH  21  22
ENDBRANCH  20  21
ENDBRANCH  19  20
ENDBRANCH  18  19
ENDBRANCH   1  18
TORSDOF 28
ENDMDL
MODEL 6
REMARK VINA RESULT:    -4.072      2.694      7.383
REMARK INTER + INTRA:         -15.739
REMARK INTER:                 -10.482
REMARK INTRA:                  -5.256
REMARK UNBOUND:                -5.002
REMARK SMILES CCCCCCCCCCCCCCCCCCCCCCCCCCCCCC(=O)[O-]
REMARK SMILES IDX 16 1 17 2 18 3 19 4 20 5 21 6 22 7 23 8 24 9 25 10 26 11
REMARK SMILES IDX 27 12 28 13 29 14 30 15 31 16 32 17 15 18 14 19 13 20 12 21
REMARK SMILES IDX 11 22 10 23 9 24 8 25 7 26 6 27 5 28 4 29 3 30 2 31 1 32
REMARK H PARENT
REMARK Flexibility Score: inf
ROOT
ATOM      1  C   UNL     1      39.244  13.173  28.822  1.00  0.00     0.000 C 
ENDROOT
BRANCH   1   2
ATOM      2  C   UNL     1      40.015  11.993  29.433  1.00  0.00     0.000 C 
BRANCH   2   3
ATOM      3  C   UNL     1      39.221  10.677  29.382  1.00  0.00     0.000 C 
BRANCH   3   4
ATOM      4  C   UNL     1      39.727   9.724  28.285  1.00  0.00     0.000 C 
BRANCH   4   5
ATOM      5  C   UNL     1      38.615   9.312  27.307  1.00  0.00     0.000 C 
BRANCH   5   6
ATOM      6  C   UNL     1      38.066  10.500  26.495  1.00  0.00     0.000 C 
BRANCH   6   7
ATOM      7  C   UNL     1      36.632  10.258  26.001  1.00  0.00     0.000 C 
BRANCH   7   8
ATOM      8  C   UNL     1      36.225   8.776  26.073  1.00  0.00     0.000 C 
BRANCH   8   9
ATOM      9  C   UNL     1      34.716   8.580  26.300  1.00  0.00     0.000 C 
BRANCH   9  10
ATOM     10  C   UNL     1      34.216   8.988  27.697  1.00  0.00     0.000 C 
BRANCH  10  11
ATOM     11  C   UNL     1      35.182   8.577  28.822  1.00  0.00     0.000 C 
BRANCH  11  12
ATOM     12  C   UNL     1      35.718   9.782  29.610  1.00  0.00     0.000 C 
BRANCH  12  13
ATOM     13  C   UNL     1      34.933  11.073  29.317  1.00  0.00     0.006 C 
BRANCH  13  14
ATOM     14  C   UNL     1      35.753  12.332  29.623  1.00  0.00     0.053 C 
BRANCH  14  15
ATOM     15  C   UNL     1      35.384  13.468  28.720  1.00  0.00     0.041 C 
ATOM     16  O   UNL     1      34.455  14.255  29.037  1.00  0.00    -0.550 OA
ATOM     17  O   UNL     1      36.045  13.636  27.509  1.00  0.00    -0.550 OA
ENDBRANCH  14  15
ENDBRANCH  13  14
ENDBRANCH  12  13
ENDBRANCH  11  12
ENDBRANCH  10  11
ENDBRANCH   9  10
ENDBRANCH   8   9
ENDBRANCH   7   8
ENDBRANCH   6   7
ENDBRANCH   5   6
ENDBRANCH   4   5
ENDBRANCH   3   4
ENDBRANCH   2   3
ENDBRANCH   1   2
BRANCH   1  18
ATOM     18  C   UNL     1      39.811  13.552  27.448  1.00  0.00     0.000 C 
BRANCH  18  19
ATOM     19  C   UNL     1      41.308  13.881  27.546  1.00  0.00     0.000 C 
BRANCH  19  20
ATOM     20  C   UNL     1      42.164  13.072  26.558  1.00  0.00     0.000 C 
BRANCH  20  21
ATOM     21  C   UNL     1      41.317  12.165  25.648  1.00  0.00     0.000 C 
BRANCH  21  22
ATOM     22  C   UNL     1      41.858  10.728  25.579  1.00  0.00     0.000 C 
BRANCH  22  23
ATOM     23  C   UNL     1      43.307  10.617  26.080  1.00  0.00     0.000 C 
BRANCH  23  24
ATOM     24  C   UNL     1      43.748   9.148  26.164  1.00  0.00    -0.000 C 
BRANCH  24  25
ATOM     25  C   UNL     1      43.889   8.492  24.780  1.00  0.00    -0.000 C 
BRANCH  25  26
ATOM     26  C   UNL     1      45.353   8.360  24.333  1.00  0.00    -0.000 C 
BRANCH  26  27
ATOM     27  C   UNL     1      45.445   8.114  22.821  1.00  0.00    -0.000 C 
BRANCH  27  28
ATOM     28  C   UNL     1      45.500   9.418  22.004  1.00  0.00    -0.000 C 
BRANCH  28  29
ATOM     29  C   UNL     1      44.135   9.930  21.502  1.00  0.00    -0.000 C 
BRANCH  29  30
ATOM     30  C   UNL     1      43.586  11.166  22.240  1.00  0.00    -0.000 C 
BRANCH  30  31
ATOM     31  C   UNL     1      44.542  12.372  22.281  1.00  0.00    -0.003 C 
ATOM     32  C   UNL     1      44.987  12.731  23.698  1.00  0.00     0.004 C 
ENDBRANCH  30  31
ENDBRANCH  29  30
ENDBRANCH  28  29
ENDBRANCH  27  28
ENDBRANCH  26  27
ENDBRANCH  25  26
ENDBRANCH  24  25
ENDBRANCH  23  24
ENDBRANCH  22  23
ENDBRANCH  21  22
ENDBRANCH  20  21
ENDBRANCH  19  20
ENDBRANCH  18  19
ENDBRANCH   1  18
TORSDOF 28
ENDMDL
MODEL 7
REMARK VINA RESULT:    -4.064      1.526      6.028
REMARK INTER + INTRA:         -15.719
REMARK INTER:                 -10.498
REMARK INTRA:                  -5.220
REMARK UNBOUND:                -5.002
REMARK SMILES CCCCCCCCCCCCCCCCCCCCCCCCCCCCCC(=O)[O-]
REMARK SMILES IDX 16 1 17 2 18 3 19 4 20 5 21 6 22 7 23 8 24 9 25 10 26 11
REMARK SMILES IDX 27 12 28 13 29 14 30 15 31 16 32 17 15 18 14 19 13 20 12 21
REMARK SMILES IDX 11 22 10 23 9 24 8 25 7 26 6 27 5 28 4 29 3 30 2 31 1 32
REMARK H PARENT
REMARK Flexibility Score: inf
ROOT
ATOM      1  C   UNL     1      42.726  12.047  25.557  1.00  0.00     0.000 C 
ENDROOT
BRANCH   1   2
ATOM      2  C   UNL     1      42.326  12.141  24.076  1.00  0.00     0.000 C 
BRANCH   2   3
ATOM      3  C   UNL     1      41.100  13.039  23.849  1.00  0.00     0.000 C 
BRANCH   3   4
ATOM      4  C   UNL     1      41.349  14.123  22.785  1.00  0.00     0.000 C 
BRANCH   4   5
ATOM      5  C   UNL     1      41.834  15.446  23.397  1.00  0.00     0.000 C 
BRANCH   5   6
ATOM      6  C   UNL     1      41.315  15.665  24.830  1.00  0.00     0.000 C 
BRANCH   6   7
ATOM      7  C   UNL     1      42.453  15.881  25.840  1.00  0.00     0.000 C 
BRANCH   7   8
ATOM      8  C   UNL     1      42.016  15.601  27.289  1.00  0.00     0.000 C 
BRANCH   8   9
ATOM      9  C   UNL     1      40.804  14.657  27.377  1.00  0.00     0.000 C 
BRANCH   9  10
ATOM     10  C   UNL     1      41.002  13.439  28.297  1.00  0.00     0.000 C 
BRANCH  10  11
ATOM     11  C   UNL     1      39.788  12.493  28.307  1.00  0.00     0.000 C 
BRANCH  11  12
ATOM     12  C   UNL     1      39.133  12.360  26.924  1.00  0.00     0.000 C 
BRANCH  12  13
ATOM     13  C   UNL     1      37.624  12.070  27.013  1.00  0.00     0.006 C 
BRANCH  13  14
ATOM     14  C   UNL     1      37.182  10.990  26.017  1.00  0.00     0.053 C 
BRANCH  14  15
ATOM     15  C   UNL     1      36.990   9.664  26.686  1.00  0.00     0.041 C 
ATOM     16  O   UNL     1      35.988   9.463  27.421  1.00  0.00    -0.550 OA
ATOM     17  O   UNL     1      37.937   8.660  26.525  1.00  0.00    -0.550 OA
ENDBRANCH  14  15
ENDBRANCH  13  14
ENDBRANCH  12  13
ENDBRANCH  11  12
ENDBRANCH  10  11
ENDBRANCH   9  10
ENDBRANCH   8   9
ENDBRANCH   7   8
ENDBRANCH   6   7
ENDBRANCH   5   6
ENDBRANCH   4   5
ENDBRANCH   3   4
ENDBRANCH   2   3
ENDBRANCH   1   2
BRANCH   1  18
ATOM     18  C   UNL     1      44.163  12.535  25.773  1.00  0.00     0.000 C 
BRANCH  18  19
ATOM     19  C   UNL     1      45.014  11.452  26.452  1.00  0.00     0.000 C 
BRANCH  19  20
ATOM     20  C   UNL     1      45.745  10.548  25.446  1.00  0.00     0.000 C 
BRANCH  20  21
ATOM     21  C   UNL     1      45.579   9.052  25.767  1.00  0.00     0.000 C 
BRANCH  21  22
ATOM     22  C   UNL     1      44.931   8.271  24.612  1.00  0.00     0.000 C 
BRANCH  22  23
ATOM     23  C   UNL     1      44.204   9.186  23.613  1.00  0.00     0.000 C 
BRANCH  23  24
ATOM     24  C   UNL     1      44.269   8.607  22.191  1.00  0.00    -0.000 C 
BRANCH  24  25
ATOM     25  C   UNL     1      44.960   9.555  21.197  1.00  0.00    -0.000 C 
BRANCH  25  26
ATOM     26  C   UNL     1      45.857  10.590  21.892  1.00  0.00    -0.000 C 
BRANCH  26  27
ATOM     27  C   UNL     1      45.415  12.019  21.548  1.00  0.00    -0.000 C 
BRANCH  27  28
ATOM     28  C   UNL     1      45.936  13.065  22.550  1.00  0.00    -0.000 C 
BRANCH  28  29
ATOM     29  C   UNL     1      45.064  14.330  22.685  1.00  0.00    -0.000 C 
BRANCH  29  30
ATOM     30  C   UNL     1      45.843  15.656  22.790  1.00  0.00    -0.000 C 
BRANCH  30  31
ATOM     31  C   UNL     1      45.381  16.755  21.816  1.00  0.00    -0.003 C 
ATOM     32  C   UNL     1      44.347  16.258  20.805  1.00  0.00     0.004 C 
ENDBRANCH  30  31
ENDBRANCH  29  30
ENDBRANCH  28  29
ENDBRANCH  27  28
ENDBRANCH  26  27
ENDBRANCH  25  26
ENDBRANCH  24  25
ENDBRANCH  23  24
ENDBRANCH  22  23
ENDBRANCH  21  22
ENDBRANCH  20  21
ENDBRANCH  19  20
ENDBRANCH  18  19
ENDBRANCH   1  18
TORSDOF 28
ENDMDL
MODEL 8
REMARK VINA RESULT:    -4.057      1.743      6.308
REMARK INTER + INTRA:         -15.700
REMARK INTER:                  -9.889
REMARK INTRA:                  -5.811
REMARK UNBOUND:                -5.002
REMARK SMILES CCCCCCCCCCCCCCCCCCCCCCCCCCCCCC(=O)[O-]
REMARK SMILES IDX 16 1 17 2 18 3 19 4 20 5 21 6 22 7 23 8 24 9 25 10 26 11
REMARK SMILES IDX 27 12 28 13 29 14 30 15 31 16 32 17 15 18 14 19 13 20 12 21
REMARK SMILES IDX 11 22 10 23 9 24 8 25 7 26 6 27 5 28 4 29 3 30 2 31 1 32
REMARK H PARENT
REMARK Flexibility Score: inf
ROOT
ATOM      1  C   UNL     1      42.084  11.866  24.538  1.00  0.00     0.000 C 
ENDROOT
BRANCH   1   2
ATOM      2  C   UNL     1      41.071  13.008  24.364  1.00  0.00     0.000 C 
BRANCH   2   3
ATOM      3  C   UNL     1      41.315  13.827  23.086  1.00  0.00     0.000 C 
BRANCH   3   4
ATOM      4  C   UNL     1      41.769  15.266  23.384  1.00  0.00     0.000 C 
BRANCH   4   5
ATOM      5  C   UNL     1      41.429  15.705  24.816  1.00  0.00     0.000 C 
BRANCH   5   6
ATOM      6  C   UNL     1      42.676  16.087  25.634  1.00  0.00     0.000 C 
BRANCH   6   7
ATOM      7  C   UNL     1      42.636  15.520  27.062  1.00  0.00     0.000 C 
BRANCH   7   8
ATOM      8  C   UNL     1      41.222  15.085  27.485  1.00  0.00     0.000 C 
BRANCH   8   9
ATOM      9  C   UNL     1      41.230  14.026  28.601  1.00  0.00     0.000 C 
BRANCH   9  10
ATOM     10  C   UNL     1      40.179  12.913  28.441  1.00  0.00     0.000 C 
BRANCH  10  11
ATOM     11  C   UNL     1      39.148  13.217  27.340  1.00  0.00     0.000 C 
BRANCH  11  12
ATOM     12  C   UNL     1      38.440  11.954  26.829  1.00  0.00     0.000 C 
BRANCH  12  13
ATOM     13  C   UNL     1      36.914  12.018  27.015  1.00  0.00     0.006 C 
BRANCH  13  14
ATOM     14  C   UNL     1      36.520  12.492  28.419  1.00  0.00     0.053 C 
BRANCH  14  15
ATOM     15  C   UNL     1      35.613  13.684  28.368  1.00  0.00     0.041 C 
ATOM     16  O   UNL     1      35.838  14.618  27.555  1.00  0.00    -0.550 OA
ATOM     17  O   UNL     1      34.538  13.777  29.243  1.00  0.00    -0.550 OA
ENDBRANCH  14  15
ENDBRANCH  13  14
ENDBRANCH  12  13
ENDBRANCH  11  12
ENDBRANCH  10  11
ENDBRANCH   9  10
ENDBRANCH   8   9
ENDBRANCH   7   8
ENDBRANCH   6   7
ENDBRANCH   5   6
ENDBRANCH   4   5
ENDBRANCH   3   4
ENDBRANCH   2   3
ENDBRANCH   1   2
BRANCH   1  18
ATOM     18  C   UNL     1      42.995  12.115  25.746  1.00  0.00     0.000 C 
BRANCH  18  19
ATOM     19  C   UNL     1      44.341  12.707  25.303  1.00  0.00     0.000 C 
BRANCH  19  20
ATOM     20  C   UNL     1      45.533  11.791  25.626  1.00  0.00     0.000 C 
BRANCH  20  21
ATOM     21  C   UNL     1      45.100  10.470  26.286  1.00  0.00     0.000 C 
BRANCH  21  22
ATOM     22  C   UNL     1      46.086   9.323  26.010  1.00  0.00     0.000 C 
BRANCH  22  23
ATOM     23  C   UNL     1      45.466   8.202  25.161  1.00  0.00     0.000 C 
BRANCH  23  24
ATOM     24  C   UNL     1      44.020   8.545  24.769  1.00  0.00    -0.000 C 
BRANCH  24  25
ATOM     25  C   UNL     1      43.878   8.897  23.279  1.00  0.00    -0.000 C 
BRANCH  25  26
ATOM     26  C   UNL     1      45.116   8.508  22.458  1.00  0.00    -0.000 C 
BRANCH  26  27
ATOM     27  C   UNL     1      45.827   9.755  21.912  1.00  0.00    -0.000 C 
BRANCH  27  28
ATOM     28  C   UNL     1      44.956  11.023  21.992  1.00  0.00    -0.000 C 
BRANCH  28  29
ATOM     29  C   UNL     1      45.706  12.345  21.733  1.00  0.00    -0.000 C 
BRANCH  29  30
ATOM     30  C   UNL     1      44.865  13.624  21.913  1.00  0.00    -0.000 C 
BRANCH  30  31
ATOM     31  C   UNL     1      45.675  14.932  21.937  1.00  0.00    -0.003 C 
ATOM     32  C   UNL     1      45.454  15.746  23.211  1.00  0.00     0.004 C 
ENDBRANCH  30  31
ENDBRANCH  29  30
ENDBRANCH  28  29
ENDBRANCH  27  28
ENDBRANCH  26  27
ENDBRANCH  25  26
ENDBRANCH  24  25
ENDBRANCH  23  24
ENDBRANCH  22  23
ENDBRANCH  21  22
ENDBRANCH  20  21
ENDBRANCH  19  20
ENDBRANCH  18  19
ENDBRANCH   1  18
TORSDOF 28
ENDMDL
MODEL 9
REMARK VINA RESULT:    -4.048      1.891      5.015
REMARK INTER + INTRA:         -15.677
REMARK INTER:                 -10.992
REMARK INTRA:                  -4.685
REMARK UNBOUND:                -5.002
REMARK SMILES CCCCCCCCCCCCCCCCCCCCCCCCCCCCCC(=O)[O-]
REMARK SMILES IDX 16 1 17 2 18 3 19 4 20 5 21 6 22 7 23 8 24 9 25 10 26 11
REMARK SMILES IDX 27 12 28 13 29 14 30 15 31 16 32 17 15 18 14 19 13 20 12 21
REMARK SMILES IDX 11 22 10 23 9 24 8 25 7 26 6 27 5 28 4 29 3 30 2 31 1 32
REMARK H PARENT
REMARK Flexibility Score: inf
ROOT
ATOM      1  C   UNL     1      42.850  16.729  20.733  1.00  0.00     0.000 C 
ENDROOT
BRANCH   1   2
ATOM      2  C   UNL     1      41.622  16.118  21.425  1.00  0.00     0.000 C 
BRANCH   2   3
ATOM      3  C   UNL     1      41.995  15.244  22.633  1.00  0.00     0.000 C 
BRANCH   3   4
ATOM      4  C   UNL     1      41.308  13.867  22.601  1.00  0.00     0.000 C 
BRANCH   4   5
ATOM      5  C   UNL     1      41.988  12.851  23.532  1.00  0.00     0.000 C 
BRANCH   5   6
ATOM      6  C   UNL     1      42.868  11.842  22.771  1.00  0.00     0.000 C 
BRANCH   6   7
ATOM      7  C   UNL     1      44.367  12.064  23.026  1.00  0.00     0.000 C 
BRANCH   7   8
ATOM      8  C   UNL     1      45.204  11.973  21.738  1.00  0.00     0.000 C 
BRANCH   8   9
ATOM      9  C   UNL     1      45.852  10.590  21.542  1.00  0.00     0.000 C 
BRANCH   9  10
ATOM     10  C   UNL     1      44.987   9.577  20.770  1.00  0.00     0.000 C 
BRANCH  10  11
ATOM     11  C   UNL     1      44.438   8.454  21.667  1.00  0.00     0.000 C 
BRANCH  11  12
ATOM     12  C   UNL     1      45.206   8.328  22.992  1.00  0.00     0.000 C 
BRANCH  12  13
ATOM     13  C   UNL     1      44.290   8.475  24.220  1.00  0.00     0.006 C 
BRANCH  13  14
ATOM     14  C   UNL     1      44.934   9.322  25.324  1.00  0.00     0.053 C 
BRANCH  14  15
ATOM     15  C   UNL     1      43.906  10.055  26.131  1.00  0.00     0.041 C 
ATOM     16  O   UNL     1      42.693  10.020  25.797  1.00  0.00    -0.550 OA
ATOM     17  O   UNL     1      44.294  10.805  27.235  1.00  0.00    -0.550 OA
ENDBRANCH  14  15
ENDBRANCH  13  14
ENDBRANCH  12  13
ENDBRANCH  11  12
ENDBRANCH  10  11
ENDBRANCH   9  10
ENDBRANCH   8   9
ENDBRANCH   7   8
ENDBRANCH   6   7
ENDBRANCH   5   6
ENDBRANCH   4   5
ENDBRANCH   3   4
ENDBRANCH   2   3
ENDBRANCH   1   2
BRANCH   1  18
ATOM     18  C   UNL     1      44.143  16.048  21.201  1.00  0.00     0.000 C 
BRANCH  18  19
ATOM     19  C   UNL     1      45.177  17.090  21.652  1.00  0.00     0.000 C 
BRANCH  19  20
ATOM     20  C   UNL     1      45.628  16.894  23.109  1.00  0.00     0.000 C 
BRANCH  20  21
ATOM     21  C   UNL     1      45.764  15.409  23.490  1.00  0.00     0.000 C 
BRANCH  21  22
ATOM     22  C   UNL     1      45.315  15.128  24.933  1.00  0.00     0.000 C 
BRANCH  22  23
ATOM     23  C   UNL     1      44.086  15.956  25.342  1.00  0.00     0.000 C 
BRANCH  23  24
ATOM     24  C   UNL     1      43.273  15.234  26.427  1.00  0.00    -0.000 C 
BRANCH  24  25
ATOM     25  C   UNL     1      41.812  15.710  26.487  1.00  0.00    -0.000 C 
BRANCH  25  26
ATOM     26  C   UNL     1      40.809  14.577  26.223  1.00  0.00    -0.000 C 
BRANCH  26  27
ATOM     27  C   UNL     1      39.994  14.260  27.485  1.00  0.00    -0.000 C 
BRANCH  27  28
ATOM     28  C   UNL     1      39.088  13.025  27.317  1.00  0.00    -0.000 C 
BRANCH  28  29
ATOM     29  C   UNL     1      39.364  12.182  26.057  1.00  0.00    -0.000 C 
BRANCH  29  30
ATOM     30  C   UNL     1      39.389  10.657  26.279  1.00  0.00    -0.000 C 
BRANCH  30  31
ATOM     31  C   UNL     1      38.209  10.104  27.098  1.00  0.00    -0.003 C 
ATOM     32  C   UNL     1      38.647   9.134  28.195  1.00  0.00     0.004 C 
ENDBRANCH  30  31
ENDBRANCH  29  30
ENDBRANCH  28  29
ENDBRANCH  27  28
ENDBRANCH  26  27
ENDBRANCH  25  26
ENDBRANCH  24  25
ENDBRANCH  23  24
ENDBRANCH  22  23
ENDBRANCH  21  22
ENDBRANCH  20  21
ENDBRANCH  19  20
ENDBRANCH  18  19
ENDBRANCH   1  18
TORSDOF 28
ENDMDL
