MODEL 1
REMARK VINA RESULT:    -3.277      0.000      0.000
REMARK INTER + INTRA:         -10.485
REMARK INTER:                  -7.109
REMARK INTRA:                  -3.376
REMARK UNBOUND:                -3.376
REMARK SMILES CCCCCCCCCCCCCCCCCCCCCC(=O)[O-]
REMARK SMILES IDX 12 1 11 2 10 3 9 4 8 5 7 6 6 7 5 8 4 9 3 10 2 11 1 12 13 13
REMARK SMILES IDX 14 14 15 15 16 16 17 17 18 18 19 19 20 20 21 21 22 22 23 23
REMARK SMILES IDX 24 24
REMARK H PARENT
REMARK Flexibility Score: inf
ROOT
ATOM      1  C   UNL     1       7.106  -4.196  -6.192  1.00  0.00     0.000 C 
ENDROOT
BRANCH   1   2
ATOM      2  C   UNL     1       6.751  -5.684  -6.384  1.00  0.00     0.000 C 
BRANCH   2   3
ATOM      3  C   UNL     1       6.377  -6.087  -7.824  1.00  0.00     0.000 C 
BRANCH   3   4
ATOM      4  C   UNL     1       5.259  -7.142  -7.934  1.00  0.00    -0.000 C 
BRANCH   4   5
ATOM      5  C   UNL     1       3.959  -6.645  -8.597  1.00  0.00    -0.000 C 
BRANCH   5   6
ATOM      6  C   UNL     1       4.014  -5.203  -9.142  1.00  0.00    -0.000 C 
BRANCH   6   7
ATOM      7  C   UNL     1       3.083  -4.203  -8.429  1.00  0.00    -0.000 C 
BRANCH   7   8
ATOM      8  C   UNL     1       2.816  -4.510  -6.942  1.00  0.00    -0.000 C 
BRANCH   8   9
ATOM      9  C   UNL     1       3.649  -3.681  -5.944  1.00  0.00    -0.000 C 
BRANCH   9  10
ATOM     10  C   UNL     1       2.863  -2.598  -5.184  1.00  0.00    -0.000 C 
BRANCH  10  11
ATOM     11  C   UNL     1       1.984  -3.172  -4.065  1.00  0.00    -0.003 C 
ATOM     12  C   UNL     1       2.409  -2.638  -2.701  1.00  0.00     0.004 C 
ENDBRANCH  10  11
ENDBRANCH   9  10
ENDBRANCH   8   9
ENDBRANCH   7   8
ENDBRANCH   6   7
ENDBRANCH   5   6
ENDBRANCH   4   5
ENDBRANCH   3   4
ENDBRANCH   2   3
ENDBRANCH   1   2
BRANCH   1  13
ATOM     13  C   UNL     1       6.941  -3.319  -7.448  1.00  0.00     0.000 C 
BRANCH  13  14
ATOM     14  C   UNL     1       8.052  -2.270  -7.597  1.00  0.00     0.000 C 
BRANCH  14  15
ATOM     15  C   UNL     1       9.266  -2.859  -8.326  1.00  0.00     0.000 C 
BRANCH  15  16
ATOM     16  C   UNL     1       8.831  -3.699  -9.537  1.00  0.00     0.000 C 
BRANCH  16  17
ATOM     17  C   UNL     1       9.641  -5.001  -9.683  1.00  0.00     0.000 C 
BRANCH  17  18
ATOM     18  C   UNL     1      10.060  -5.655  -8.354  1.00  0.00     0.000 C 
BRANCH  18  19
ATOM     19  C   UNL     1       9.787  -7.169  -8.325  1.00  0.00     0.000 C 
BRANCH  19  20
ATOM     20  C   UNL     1       9.708  -7.732  -6.897  1.00  0.00     0.006 C 
BRANCH  20  21
ATOM     21  C   UNL     1       9.036  -9.111  -6.835  1.00  0.00     0.053 C 
BRANCH  21  22
ATOM     22  C   UNL     1       8.216  -9.236  -5.591  1.00  0.00     0.041 C 
ATOM     23  O   UNL     1       8.775  -9.391  -4.475  1.00  0.00    -0.550 OA
ATOM     24  O   UNL     1       6.827  -9.238  -5.673  1.00  0.00    -0.550 OA
ENDBRANCH  21  22
ENDBRANCH  20  21
ENDBRANCH  19  20
ENDBRANCH  18  19
ENDBRANCH  17  18
ENDBRANCH  16  17
ENDBRANCH  15  16
ENDBRANCH  14  15
ENDBRANCH  13  14
ENDBRANCH   1  13
TORSDOF 20
ENDMDL
MODEL 2
REMARK VINA RESULT:    -3.266      1.240      1.758
REMARK INTER + INTRA:         -10.461
REMARK INTER:                  -7.659
REMARK INTRA:                  -2.802
REMARK UNBOUND:                -3.376
REMARK SMILES CCCCCCCCCCCCCCCCCCCCCC(=O)[O-]
REMARK SMILES IDX 12 1 11 2 10 3 9 4 8 5 7 6 6 7 5 8 4 9 3 10 2 11 1 12 13 13
REMARK SMILES IDX 14 14 15 15 16 16 17 17 18 18 19 19 20 20 21 21 22 22 23 23
REMARK SMILES IDX 24 24
REMARK H PARENT
REMARK Flexibility Score: inf
ROOT
ATOM      1  C   UNL     1       6.518  -3.438  -8.928  1.00  0.00     0.000 C 
ENDROOT
BRANCH   1   2
ATOM      2  C   UNL     1       6.786  -4.545  -9.968  1.00  0.00     0.000 C 
BRANCH   2   3
ATOM      3  C   UNL     1       6.647  -5.986  -9.439  1.00  0.00     0.000 C 
BRANCH   3   4
ATOM      4  C   UNL     1       6.355  -6.099  -7.930  1.00  0.00    -0.000 C 
BRANCH   4   5
ATOM      5  C   UNL     1       4.955  -6.639  -7.577  1.00  0.00    -0.000 C 
BRANCH   5   6
ATOM      6  C   UNL     1       3.813  -6.127  -8.477  1.00  0.00    -0.000 C 
BRANCH   6   7
ATOM      7  C   UNL     1       3.176  -4.797  -8.027  1.00  0.00    -0.000 C 
BRANCH   7   8
ATOM      8  C   UNL     1       3.838  -4.143  -6.799  1.00  0.00    -0.000 C 
BRANCH   8   9
ATOM      9  C   UNL     1       2.911  -3.241  -5.960  1.00  0.00    -0.000 C 
BRANCH   9  10
ATOM     10  C   UNL     1       3.204  -3.235  -4.449  1.00  0.00    -0.000 C 
BRANCH  10  11
ATOM     11  C   UNL     1       2.054  -2.643  -3.621  1.00  0.00    -0.003 C 
ATOM     12  C   UNL     1       2.351  -2.730  -2.127  1.00  0.00     0.004 C 
ENDBRANCH  10  11
ENDBRANCH   9  10
ENDBRANCH   8   9
ENDBRANCH   7   8
ENDBRANCH   6   7
ENDBRANCH   5   6
ENDBRANCH   4   5
ENDBRANCH   3   4
ENDBRANCH   2   3
ENDBRANCH   1   2
BRANCH   1  13
ATOM     13  C   UNL     1       7.398  -2.181  -9.073  1.00  0.00     0.000 C 
BRANCH  13  14
ATOM     14  C   UNL     1       8.427  -2.037  -7.943  1.00  0.00     0.000 C 
BRANCH  14  15
ATOM     15  C   UNL     1       8.417  -3.272  -7.033  1.00  0.00     0.000 C 
BRANCH  15  16
ATOM     16  C   UNL     1       9.801  -3.940  -6.990  1.00  0.00     0.000 C 
BRANCH  16  17
ATOM     17  C   UNL     1       9.986  -5.002  -8.091  1.00  0.00     0.000 C 
BRANCH  17  18
ATOM     18  C   UNL     1       9.962  -6.460  -7.594  1.00  0.00     0.000 C 
BRANCH  18  19
ATOM     19  C   UNL     1      10.065  -6.566  -6.063  1.00  0.00     0.000 C 
BRANCH  19  20
ATOM     20  C   UNL     1       8.800  -7.158  -5.421  1.00  0.00     0.006 C 
BRANCH  20  21
ATOM     21  C   UNL     1       8.862  -8.685  -5.278  1.00  0.00     0.053 C 
BRANCH  21  22
ATOM     22  C   UNL     1       7.845  -9.333  -6.163  1.00  0.00     0.041 C 
ATOM     23  O   UNL     1       8.179  -9.785  -7.289  1.00  0.00    -0.550 OA
ATOM     24  O   UNL     1       6.514  -9.390  -5.764  1.00  0.00    -0.550 OA
ENDBRANCH  21  22
ENDBRANCH  20  21
ENDBRANCH  19  20
ENDBRANCH  18  19
ENDBRANCH  17  18
ENDBRANCH  16  17
ENDBRANCH  15  16
ENDBRANCH  14  15
ENDBRANCH  13  14
ENDBRANCH   1  13
TORSDOF 20
ENDMDL
MODEL 3
REMARK VINA RESULT:    -3.253      1.395      2.043
REMARK INTER + INTRA:         -10.432
REMARK INTER:                  -7.674
REMARK INTRA:                  -2.758
REMARK UNBOUND:                -3.376
REMARK SMILES CCCCCCCCCCCCCCCCCCCCCC(=O)[O-]
REMARK SMILES IDX 12 1 11 2 10 3 9 4 8 5 7 6 6 7 5 8 4 9 3 10 2 11 1 12 13 13
REMARK SMILES IDX 14 14 15 15 16 16 17 17 18 18 19 19 20 20 21 21 22 22 23 23
REMARK SMILES IDX 24 24
REMARK H PARENT
REMARK Flexibility Score: inf
ROOT
ATOM      1  C   UNL     1       6.440  -3.042  -7.635  1.00  0.00     0.000 C 
ENDROOT
BRANCH   1   2
ATOM      2  C   UNL     1       5.837  -2.333  -8.864  1.00  0.00     0.000 C 
BRANCH   2   3
ATOM      3  C   UNL     1       5.703  -3.210 -10.125  1.00  0.00     0.000 C 
BRANCH   3   4
ATOM      4  C   UNL     1       5.360  -4.688  -9.855  1.00  0.00    -0.000 C 
BRANCH   4   5
ATOM      5  C   UNL     1       3.854  -5.017  -9.862  1.00  0.00    -0.000 C 
BRANCH   5   6
ATOM      6  C   UNL     1       3.374  -5.897  -8.690  1.00  0.00    -0.000 C 
BRANCH   6   7
ATOM      7  C   UNL     1       3.768  -5.387  -7.290  1.00  0.00    -0.000 C 
BRANCH   7   8
ATOM      8  C   UNL     1       2.997  -4.142  -6.811  1.00  0.00    -0.000 C 
BRANCH   8   9
ATOM      9  C   UNL     1       3.560  -3.473  -5.542  1.00  0.00    -0.000 C 
BRANCH   9  10
ATOM     10  C   UNL     1       2.619  -2.457  -4.869  1.00  0.00    -0.000 C 
BRANCH  10  11
ATOM     11  C   UNL     1       1.871  -3.043  -3.664  1.00  0.00    -0.003 C 
ATOM     12  C   UNL     1       2.539  -2.641  -2.353  1.00  0.00     0.004 C 
ENDBRANCH  10  11
ENDBRANCH   9  10
ENDBRANCH   8   9
ENDBRANCH   7   8
ENDBRANCH   6   7
ENDBRANCH   5   6
ENDBRANCH   4   5
ENDBRANCH   3   4
ENDBRANCH   2   3
ENDBRANCH   1   2
BRANCH   1  13
ATOM     13  C   UNL     1       7.881  -2.625  -7.284  1.00  0.00     0.000 C 
BRANCH  13  14
ATOM     14  C   UNL     1       8.602  -1.923  -8.444  1.00  0.00     0.000 C 
BRANCH  14  15
ATOM     15  C   UNL     1      10.024  -2.470  -8.614  1.00  0.00     0.000 C 
BRANCH  15  16
ATOM     16  C   UNL     1      10.113  -3.420  -9.818  1.00  0.00     0.000 C 
BRANCH  16  17
ATOM     17  C   UNL     1      10.116  -4.906  -9.407  1.00  0.00     0.000 C 
BRANCH  17  18
ATOM     18  C   UNL     1       8.726  -5.496  -9.104  1.00  0.00     0.000 C 
BRANCH  18  19
ATOM     19  C   UNL     1       8.737  -7.033  -9.031  1.00  0.00     0.000 C 
BRANCH  19  20
ATOM     20  C   UNL     1       8.268  -7.566  -7.667  1.00  0.00     0.006 C 
BRANCH  20  21
ATOM     21  C   UNL     1       7.417  -6.551  -6.891  1.00  0.00     0.053 C 
BRANCH  21  22
ATOM     22  C   UNL     1       6.576  -7.249  -5.870  1.00  0.00     0.041 C 
ATOM     23  O   UNL     1       6.490  -8.504  -5.869  1.00  0.00    -0.550 OA
ATOM     24  O   UNL     1       5.841  -6.507  -4.952  1.00  0.00    -0.550 OA
ENDBRANCH  21  22
ENDBRANCH  20  21
ENDBRANCH  19  20
ENDBRANCH  18  19
ENDBRANCH  17  18
ENDBRANCH  16  17
ENDBRANCH  15  16
ENDBRANCH  14  15
ENDBRANCH  13  14
ENDBRANCH   1  13
TORSDOF 20
ENDMDL
MODEL 4
REMARK VINA RESULT:    -3.220      1.370      2.731
REMARK INTER + INTRA:         -10.360
REMARK INTER:                  -7.053
REMARK INTRA:                  -3.307
REMARK UNBOUND:                -3.376
REMARK SMILES CCCCCCCCCCCCCCCCCCCCCC(=O)[O-]
REMARK SMILES IDX 12 1 11 2 10 3 9 4 8 5 7 6 6 7 5 8 4 9 3 10 2 11 1 12 13 13
REMARK SMILES IDX 14 14 15 15 16 16 17 17 18 18 19 19 20 20 21 21 22 22 23 23
REMARK SMILES IDX 24 24
REMARK H PARENT
REMARK Flexibility Score: inf
ROOT
ATOM      1  C   UNL     1       3.280  -4.756  -9.639  1.00  0.00     0.000 C 
ENDROOT
BRANCH   1   2
ATOM      2  C   UNL     1       4.227  -5.944  -9.902  1.00  0.00     0.000 C 
BRANCH   2   3
ATOM      3  C   UNL     1       4.659  -6.725  -8.645  1.00  0.00     0.000 C 
BRANCH   3   4
ATOM      4  C   UNL     1       5.953  -6.220  -7.979  1.00  0.00    -0.000 C 
BRANCH   4   5
ATOM      5  C   UNL     1       6.042  -6.467  -6.460  1.00  0.00    -0.000 C 
BRANCH   5   6
ATOM      6  C   UNL     1       6.065  -5.192  -5.592  1.00  0.00    -0.000 C 
BRANCH   6   7
ATOM      7  C   UNL     1       5.275  -4.000  -6.167  1.00  0.00    -0.000 C 
BRANCH   7   8
ATOM      8  C   UNL     1       3.744  -4.105  -6.023  1.00  0.00    -0.000 C 
BRANCH   8   9
ATOM      9  C   UNL     1       3.031  -2.788  -5.655  1.00  0.00    -0.000 C 
BRANCH   9  10
ATOM     10  C   UNL     1       2.075  -2.880  -4.452  1.00  0.00    -0.000 C 
BRANCH  10  11
ATOM     11  C   UNL     1       2.774  -2.613  -3.112  1.00  0.00    -0.003 C 
ATOM     12  C   UNL     1       1.828  -2.854  -1.940  1.00  0.00     0.004 C 
ENDBRANCH  10  11
ENDBRANCH   9  10
ENDBRANCH   8   9
ENDBRANCH   7   8
ENDBRANCH   6   7
ENDBRANCH   5   6
ENDBRANCH   4   5
ENDBRANCH   3   4
ENDBRANCH   2   3
ENDBRANCH   1   2
BRANCH   1  13
ATOM     13  C   UNL     1       3.927  -3.364  -9.772  1.00  0.00     0.000 C 
BRANCH  13  14
ATOM     14  C   UNL     1       5.439  -3.429 -10.034  1.00  0.00     0.000 C 
BRANCH  14  15
ATOM     15  C   UNL     1       6.137  -2.162  -9.524  1.00  0.00     0.000 C 
BRANCH  15  16
ATOM     16  C   UNL     1       7.414  -2.510  -8.744  1.00  0.00     0.000 C 
BRANCH  16  17
ATOM     17  C   UNL     1       8.136  -3.752  -9.301  1.00  0.00     0.000 C 
BRANCH  17  18
ATOM     18  C   UNL     1       9.465  -4.095  -8.604  1.00  0.00     0.000 C 
BRANCH  18  19
ATOM     19  C   UNL     1       9.283  -4.432  -7.113  1.00  0.00     0.000 C 
BRANCH  19  20
ATOM     20  C   UNL     1      10.125  -5.639  -6.670  1.00  0.00     0.006 C 
BRANCH  20  21
ATOM     21  C   UNL     1       9.576  -6.973  -7.194  1.00  0.00     0.053 C 
BRANCH  21  22
ATOM     22  C   UNL     1       9.305  -7.908  -6.059  1.00  0.00     0.041 C 
ATOM     23  O   UNL     1       9.374  -9.153  -6.231  1.00  0.00    -0.550 OA
ATOM     24  O   UNL     1       8.921  -7.404  -4.821  1.00  0.00    -0.550 OA
ENDBRANCH  21  22
ENDBRANCH  20  21
ENDBRANCH  19  20
ENDBRANCH  18  19
ENDBRANCH  17  18
ENDBRANCH  16  17
ENDBRANCH  15  16
ENDBRANCH  14  15
ENDBRANCH  13  14
ENDBRANCH   1  13
TORSDOF 20
ENDMDL
MODEL 5
REMARK VINA RESULT:    -3.097      2.674      5.863
REMARK INTER + INTRA:         -10.094
REMARK INTER:                  -6.688
REMARK INTRA:                  -3.406
REMARK UNBOUND:                -3.376
REMARK SMILES CCCCCCCCCCCCCCCCCCCCCC(=O)[O-]
REMARK SMILES IDX 12 1 11 2 10 3 9 4 8 5 7 6 6 7 5 8 4 9 3 10 2 11 1 12 13 13
REMARK SMILES IDX 14 14 15 15 16 16 17 17 18 18 19 19 20 20 21 21 22 22 23 23
REMARK SMILES IDX 24 24
REMARK H PARENT
REMARK Flexibility Score: inf
ROOT
ATOM      1  C   UNL     1       8.580  -4.383  -6.686  1.00  0.00     0.000 C 
ENDROOT
BRANCH   1   2
ATOM      2  C   UNL     1       9.835  -4.701  -7.523  1.00  0.00     0.000 C 
BRANCH   2   3
ATOM      3  C   UNL     1       9.557  -5.232  -8.943  1.00  0.00     0.000 C 
BRANCH   3   4
ATOM      4  C   UNL     1       9.687  -6.759  -9.103  1.00  0.00    -0.000 C 
BRANCH   4   5
ATOM      5  C   UNL     1       8.397  -7.480  -9.541  1.00  0.00    -0.000 C 
BRANCH   5   6
ATOM      6  C   UNL     1       7.087  -6.821  -9.062  1.00  0.00    -0.000 C 
BRANCH   6   7
ATOM      7  C   UNL     1       6.148  -7.747  -8.264  1.00  0.00    -0.000 C 
BRANCH   7   8
ATOM      8  C   UNL     1       6.795  -9.051  -7.759  1.00  0.00    -0.000 C 
BRANCH   8   9
ATOM      9  C   UNL     1       7.362  -8.987  -6.327  1.00  0.00    -0.000 C 
BRANCH   9  10
ATOM     10  C   UNL     1       8.892  -9.123  -6.226  1.00  0.00    -0.000 C 
BRANCH  10  11
ATOM     11  C   UNL     1       9.567  -7.867  -5.661  1.00  0.00    -0.003 C 
ATOM     12  C   UNL     1       9.440  -7.809  -4.142  1.00  0.00     0.004 C 
ENDBRANCH  10  11
ENDBRANCH   9  10
ENDBRANCH   8   9
ENDBRANCH   7   8
ENDBRANCH   6   7
ENDBRANCH   5   6
ENDBRANCH   4   5
ENDBRANCH   3   4
ENDBRANCH   2   3
ENDBRANCH   1   2
BRANCH   1  13
ATOM     13  C   UNL     1       7.878  -3.059  -7.041  1.00  0.00     0.000 C 
BRANCH  13  14
ATOM     14  C   UNL     1       8.751  -2.128  -7.895  1.00  0.00     0.000 C 
BRANCH  14  15
ATOM     15  C   UNL     1       7.974  -1.617  -9.115  1.00  0.00     0.000 C 
BRANCH  15  16
ATOM     16  C   UNL     1       6.947  -2.656  -9.592  1.00  0.00     0.000 C 
BRANCH  16  17
ATOM     17  C   UNL     1       5.535  -2.063  -9.769  1.00  0.00     0.000 C 
BRANCH  17  18
ATOM     18  C   UNL     1       4.488  -2.574  -8.763  1.00  0.00     0.000 C 
BRANCH  18  19
ATOM     19  C   UNL     1       4.420  -4.110  -8.705  1.00  0.00     0.000 C 
BRANCH  19  20
ATOM     20  C   UNL     1       4.412  -4.650  -7.266  1.00  0.00     0.006 C 
BRANCH  20  21
ATOM     21  C   UNL     1       4.300  -3.540  -6.213  1.00  0.00     0.053 C 
BRANCH  21  22
ATOM     22  C   UNL     1       2.935  -3.538  -5.601  1.00  0.00     0.041 C 
ATOM     23  O   UNL     1       2.021  -4.254  -6.086  1.00  0.00    -0.550 OA
ATOM     24  O   UNL     1       2.658  -2.701  -4.525  1.00  0.00    -0.550 OA
ENDBRANCH  21  22
ENDBRANCH  20  21
ENDBRANCH  19  20
ENDBRANCH  18  19
ENDBRANCH  17  18
ENDBRANCH  16  17
ENDBRANCH  15  16
ENDBRANCH  14  15
ENDBRANCH  13  14
ENDBRANCH   1  13
TORSDOF 20
ENDMDL
MODEL 6
REMARK VINA RESULT:    -2.984      3.062      6.199
REMARK INTER + INTRA:          -9.849
REMARK INTER:                  -6.610
REMARK INTRA:                  -3.239
REMARK UNBOUND:                -3.376
REMARK SMILES CCCCCCCCCCCCCCCCCCCCCC(=O)[O-]
REMARK SMILES IDX 12 1 11 2 10 3 9 4 8 5 7 6 6 7 5 8 4 9 3 10 2 11 1 12 13 13
REMARK SMILES IDX 14 14 15 15 16 16 17 17 18 18 19 19 20 20 21 21 22 22 23 23
REMARK SMILES IDX 24 24
REMARK H PARENT
REMARK Flexibility Score: inf
ROOT
ATOM      1  C   UNL     1       3.572  -5.420  -8.441  1.00  0.00     0.000 C 
ENDROOT
BRANCH   1   2
ATOM      2  C   UNL     1       3.737  -6.921  -8.126  1.00  0.00     0.000 C 
BRANCH   2   3
ATOM      3  C   UNL     1       5.105  -7.521  -8.502  1.00  0.00     0.000 C 
BRANCH   3   4
ATOM      4  C   UNL     1       5.968  -6.644  -9.430  1.00  0.00    -0.000 C 
BRANCH   4   5
ATOM      5  C   UNL     1       7.297  -7.282  -9.879  1.00  0.00    -0.000 C 
BRANCH   5   6
ATOM      6  C   UNL     1       7.393  -8.806  -9.666  1.00  0.00    -0.000 C 
BRANCH   6   7
ATOM      7  C   UNL     1       8.802  -9.326  -9.319  1.00  0.00    -0.000 C 
BRANCH   7   8
ATOM      8  C   UNL     1       8.898 -10.110  -7.995  1.00  0.00    -0.000 C 
BRANCH   8   9
ATOM      9  C   UNL     1       7.652 -10.021  -7.092  1.00  0.00    -0.000 C 
BRANCH   9  10
ATOM     10  C   UNL     1       7.805  -9.110  -5.860  1.00  0.00    -0.000 C 
BRANCH  10  11
ATOM     11  C   UNL     1       9.225  -8.549  -5.706  1.00  0.00    -0.003 C 
ATOM     12  C   UNL     1       9.419  -7.911  -4.334  1.00  0.00     0.004 C 
ENDBRANCH  10  11
ENDBRANCH   9  10
ENDBRANCH   8   9
ENDBRANCH   7   8
ENDBRANCH   6   7
ENDBRANCH   5   6
ENDBRANCH   4   5
ENDBRANCH   3   4
ENDBRANCH   2   3
ENDBRANCH   1   2
BRANCH   1  13
ATOM     13  C   UNL     1       3.568  -4.492  -7.212  1.00  0.00     0.000 C 
BRANCH  13  14
ATOM     14  C   UNL     1       4.465  -3.259  -7.389  1.00  0.00     0.000 C 
BRANCH  14  15
ATOM     15  C   UNL     1       5.947  -3.644  -7.303  1.00  0.00     0.000 C 
BRANCH  15  16
ATOM     16  C   UNL     1       6.250  -4.394  -5.996  1.00  0.00     0.000 C 
BRANCH  16  17
ATOM     17  C   UNL     1       7.455  -5.346  -6.119  1.00  0.00     0.000 C 
BRANCH  17  18
ATOM     18  C   UNL     1       8.400  -5.045  -7.297  1.00  0.00     0.000 C 
BRANCH  18  19
ATOM     19  C   UNL     1       9.272  -3.801  -7.053  1.00  0.00     0.000 C 
BRANCH  19  20
ATOM     20  C   UNL     1       9.593  -3.038  -8.349  1.00  0.00     0.006 C 
BRANCH  20  21
ATOM     21  C   UNL     1       8.920  -1.660  -8.411  1.00  0.00     0.053 C 
BRANCH  21  22
ATOM     22  C   UNL     1       8.029  -1.568  -9.609  1.00  0.00     0.041 C 
ATOM     23  O   UNL     1       7.770  -0.449 -10.124  1.00  0.00    -0.550 OA
ATOM     24  O   UNL     1       7.438  -2.717 -10.124  1.00  0.00    -0.550 OA
ENDBRANCH  21  22
ENDBRANCH  20  21
ENDBRANCH  19  20
ENDBRANCH  18  19
ENDBRANCH  17  18
ENDBRANCH  16  17
ENDBRANCH  15  16
ENDBRANCH  14  15
ENDBRANCH  13  14
ENDBRANCH   1  13
TORSDOF 20
ENDMDL
MODEL 7
REMARK VINA RESULT:    -2.756      2.748      6.127
REMARK INTER + INTRA:          -9.353
REMARK INTER:                  -6.155
REMARK INTRA:                  -3.198
REMARK UNBOUND:                -3.376
REMARK SMILES CCCCCCCCCCCCCCCCCCCCCC(=O)[O-]
REMARK SMILES IDX 12 1 11 2 10 3 9 4 8 5 7 6 6 7 5 8 4 9 3 10 2 11 1 12 13 13
REMARK SMILES IDX 14 14 15 15 16 16 17 17 18 18 19 19 20 20 21 21 22 22 23 23
REMARK SMILES IDX 24 24
REMARK H PARENT
REMARK Flexibility Score: inf
ROOT
ATOM      1  C   UNL     1       6.634  -5.001  -6.257  1.00  0.00     0.000 C 
ENDROOT
BRANCH   1   2
ATOM      2  C   UNL     1       6.737  -6.131  -5.214  1.00  0.00     0.000 C 
BRANCH   2   3
ATOM      3  C   UNL     1       7.587  -7.343  -5.645  1.00  0.00     0.000 C 
BRANCH   3   4
ATOM      4  C   UNL     1       8.915  -7.510  -4.881  1.00  0.00    -0.000 C 
BRANCH   4   5
ATOM      5  C   UNL     1      10.068  -8.118  -5.705  1.00  0.00    -0.000 C 
BRANCH   5   6
ATOM      6  C   UNL     1       9.945  -9.631  -5.980  1.00  0.00    -0.000 C 
BRANCH   6   7
ATOM      7  C   UNL     1      10.122 -10.040  -7.455  1.00  0.00    -0.000 C 
BRANCH   7   8
ATOM      8  C   UNL     1       9.015  -9.541  -8.405  1.00  0.00    -0.000 C 
BRANCH   8   9
ATOM      9  C   UNL     1       9.429  -8.389  -9.342  1.00  0.00    -0.000 C 
BRANCH   9  10
ATOM     10  C   UNL     1       8.632  -7.085  -9.159  1.00  0.00    -0.000 C 
BRANCH  10  11
ATOM     11  C   UNL     1       7.302  -7.086  -9.926  1.00  0.00    -0.003 C 
ATOM     12  C   UNL     1       6.176  -7.664  -9.074  1.00  0.00     0.004 C 
ENDBRANCH  10  11
ENDBRANCH   9  10
ENDBRANCH   8   9
ENDBRANCH   7   8
ENDBRANCH   6   7
ENDBRANCH   5   6
ENDBRANCH   4   5
ENDBRANCH   3   4
ENDBRANCH   2   3
ENDBRANCH   1   2
BRANCH   1  13
ATOM     13  C   UNL     1       7.983  -4.456  -6.764  1.00  0.00     0.000 C 
BRANCH  13  14
ATOM     14  C   UNL     1       8.050  -2.921  -6.756  1.00  0.00     0.000 C 
BRANCH  14  15
ATOM     15  C   UNL     1       8.947  -2.408  -7.889  1.00  0.00     0.000 C 
BRANCH  15  16
ATOM     16  C   UNL     1       8.108  -1.872  -9.060  1.00  0.00     0.000 C 
BRANCH  16  17
ATOM     17  C   UNL     1       7.795  -2.951 -10.115  1.00  0.00     0.000 C 
BRANCH  17  18
ATOM     18  C   UNL     1       6.360  -3.506 -10.065  1.00  0.00     0.000 C 
BRANCH  18  19
ATOM     19  C   UNL     1       5.370  -2.534  -9.400  1.00  0.00     0.000 C 
BRANCH  19  20
ATOM     20  C   UNL     1       4.127  -3.243  -8.839  1.00  0.00     0.006 C 
BRANCH  20  21
ATOM     21  C   UNL     1       4.352  -4.743  -8.602  1.00  0.00     0.053 C 
BRANCH  21  22
ATOM     22  C   UNL     1       3.386  -5.262  -7.585  1.00  0.00     0.041 C 
ATOM     23  O   UNL     1       2.864  -4.480  -6.748  1.00  0.00    -0.550 OA
ATOM     24  O   UNL     1       3.103  -6.622  -7.527  1.00  0.00    -0.550 OA
ENDBRANCH  21  22
ENDBRANCH  20  21
ENDBRANCH  19  20
ENDBRANCH  18  19
ENDBRANCH  17  18
ENDBRANCH  16  17
ENDBRANCH  15  16
ENDBRANCH  14  15
ENDBRANCH  13  14
ENDBRANCH   1  13
TORSDOF 20
ENDMDL
MODEL 8
REMARK VINA RESULT:    -2.686      1.776      4.957
REMARK INTER + INTRA:          -9.203
REMARK INTER:                  -5.940
REMARK INTRA:                  -3.263
REMARK UNBOUND:                -3.376
REMARK SMILES CCCCCCCCCCCCCCCCCCCCCC(=O)[O-]
REMARK SMILES IDX 12 1 11 2 10 3 9 4 8 5 7 6 6 7 5 8 4 9 3 10 2 11 1 12 13 13
REMARK SMILES IDX 14 14 15 15 16 16 17 17 18 18 19 19 20 20 21 21 22 22 23 23
REMARK SMILES IDX 24 24
REMARK H PARENT
REMARK Flexibility Score: inf
ROOT
ATOM      1  C   UNL     1       3.404  -4.878  -7.584  1.00  0.00     0.000 C 
ENDROOT
BRANCH   1   2
ATOM      2  C   UNL     1       4.140  -3.649  -7.012  1.00  0.00     0.000 C 
BRANCH   2   3
ATOM      3  C   UNL     1       4.659  -2.649  -8.064  1.00  0.00     0.000 C 
BRANCH   3   4
ATOM      4  C   UNL     1       6.071  -2.948  -8.604  1.00  0.00    -0.000 C 
BRANCH   4   5
ATOM      5  C   UNL     1       6.399  -2.297  -9.962  1.00  0.00    -0.000 C 
BRANCH   5   6
ATOM      6  C   UNL     1       7.827  -1.728 -10.084  1.00  0.00    -0.000 C 
BRANCH   6   7
ATOM      7  C   UNL     1       8.532  -1.448  -8.742  1.00  0.00    -0.000 C 
BRANCH   7   8
ATOM      8  C   UNL     1       9.795  -2.291  -8.483  1.00  0.00    -0.000 C 
BRANCH   8   9
ATOM      9  C   UNL     1       9.876  -3.608  -9.280  1.00  0.00    -0.000 C 
BRANCH   9  10
ATOM     10  C   UNL     1       9.074  -4.779  -8.684  1.00  0.00    -0.000 C 
BRANCH  10  11
ATOM     11  C   UNL     1       9.222  -4.890  -7.160  1.00  0.00    -0.003 C 
ATOM     12  C   UNL     1       7.894  -5.256  -6.503  1.00  0.00     0.004 C 
ENDBRANCH  10  11
ENDBRANCH   9  10
ENDBRANCH   8   9
ENDBRANCH   7   8
ENDBRANCH   6   7
ENDBRANCH   5   6
ENDBRANCH   4   5
ENDBRANCH   3   4
ENDBRANCH   2   3
ENDBRANCH   1   2
BRANCH   1  13
ATOM     13  C   UNL     1       4.297  -6.102  -7.859  1.00  0.00     0.000 C 
BRANCH  13  14
ATOM     14  C   UNL     1       3.742  -7.011  -8.966  1.00  0.00     0.000 C 
BRANCH  14  15
ATOM     15  C   UNL     1       4.871  -7.526  -9.867  1.00  0.00     0.000 C 
BRANCH  15  16
ATOM     16  C   UNL     1       6.249  -7.154  -9.297  1.00  0.00     0.000 C 
BRANCH  16  17
ATOM     17  C   UNL     1       7.202  -8.361  -9.202  1.00  0.00     0.000 C 
BRANCH  17  18
ATOM     18  C   UNL     1       8.592  -8.138  -9.825  1.00  0.00     0.000 C 
BRANCH  18  19
ATOM     19  C   UNL     1       9.736  -8.385  -8.827  1.00  0.00     0.000 C 
BRANCH  19  20
ATOM     20  C   UNL     1       9.279  -9.156  -7.578  1.00  0.00     0.006 C 
BRANCH  20  21
ATOM     21  C   UNL     1      10.005  -8.709  -6.302  1.00  0.00     0.053 C 
BRANCH  21  22
ATOM     22  C   UNL     1       9.017  -8.369  -5.231  1.00  0.00     0.041 C 
ATOM     23  O   UNL     1       9.401  -7.829  -4.161  1.00  0.00    -0.550 OA
ATOM     24  O   UNL     1       7.676  -8.700  -5.394  1.00  0.00    -0.550 OA
ENDBRANCH  21  22
ENDBRANCH  20  21
ENDBRANCH  19  20
ENDBRANCH  18  19
ENDBRANCH  17  18
ENDBRANCH  16  17
ENDBRANCH  15  16
ENDBRANCH  14  15
ENDBRANCH  13  14
ENDBRANCH   1  13
TORSDOF 20
ENDMDL
MODEL 9
REMARK VINA RESULT:    -2.653      1.926      4.764
REMARK INTER + INTRA:          -9.131
REMARK INTER:                  -5.616
REMARK INTRA:                  -3.515
REMARK UNBOUND:                -3.376
REMARK SMILES CCCCCCCCCCCCCCCCCCCCCC(=O)[O-]
REMARK SMILES IDX 12 1 11 2 10 3 9 4 8 5 7 6 6 7 5 8 4 9 3 10 2 11 1 12 13 13
REMARK SMILES IDX 14 14 15 15 16 16 17 17 18 18 19 19 20 20 21 21 22 22 23 23
REMARK SMILES IDX 24 24
REMARK H PARENT
REMARK Flexibility Score: inf
ROOT
ATOM      1  C   UNL     1       3.815  -3.624  -6.633  1.00  0.00     0.000 C 
ENDROOT
BRANCH   1   2
ATOM      2  C   UNL     1       4.416  -3.324  -8.021  1.00  0.00     0.000 C 
BRANCH   2   3
ATOM      3  C   UNL     1       3.846  -4.169  -9.177  1.00  0.00     0.000 C 
BRANCH   3   4
ATOM      4  C   UNL     1       4.351  -5.624  -9.228  1.00  0.00    -0.000 C 
BRANCH   4   5
ATOM      5  C   UNL     1       5.585  -5.853 -10.123  1.00  0.00    -0.000 C 
BRANCH   5   6
ATOM      6  C   UNL     1       6.901  -5.257  -9.585  1.00  0.00    -0.000 C 
BRANCH   6   7
ATOM      7  C   UNL     1       8.079  -6.249  -9.504  1.00  0.00    -0.000 C 
BRANCH   7   8
ATOM      8  C   UNL     1       9.447  -5.666  -9.906  1.00  0.00    -0.000 C 
BRANCH   8   9
ATOM      9  C   UNL     1       9.647  -4.175  -9.571  1.00  0.00    -0.000 C 
BRANCH   9  10
ATOM     10  C   UNL     1       9.958  -3.876  -8.093  1.00  0.00    -0.000 C 
BRANCH  10  11
ATOM     11  C   UNL     1       9.041  -2.800  -7.496  1.00  0.00    -0.003 C 
ATOM     12  C   UNL     1       8.368  -1.979  -8.592  1.00  0.00     0.004 C 
ENDBRANCH  10  11
ENDBRANCH   9  10
ENDBRANCH   8   9
ENDBRANCH   7   8
ENDBRANCH   6   7
ENDBRANCH   5   6
ENDBRANCH   4   5
ENDBRANCH   3   4
ENDBRANCH   2   3
ENDBRANCH   1   2
BRANCH   1  13
ATOM     13  C   UNL     1       4.805  -4.206  -5.606  1.00  0.00     0.000 C 
BRANCH  13  14
ATOM     14  C   UNL     1       6.155  -4.594  -6.227  1.00  0.00     0.000 C 
BRANCH  14  15
ATOM     15  C   UNL     1       6.732  -5.840  -5.545  1.00  0.00     0.000 C 
BRANCH  15  16
ATOM     16  C   UNL     1       8.180  -6.096  -5.992  1.00  0.00     0.000 C 
BRANCH  16  17
ATOM     17  C   UNL     1       8.762  -7.400  -5.414  1.00  0.00     0.000 C 
BRANCH  17  18
ATOM     18  C   UNL     1       9.951  -7.983  -6.201  1.00  0.00     0.000 C 
BRANCH  18  19
ATOM     19  C   UNL     1       9.506  -8.866  -7.380  1.00  0.00     0.000 C 
BRANCH  19  20
ATOM     20  C   UNL     1       8.233  -9.671  -7.072  1.00  0.00     0.006 C 
BRANCH  20  21
ATOM     21  C   UNL     1       7.493 -10.125  -8.337  1.00  0.00     0.053 C 
BRANCH  21  22
ATOM     22  C   UNL     1       6.291  -9.268  -8.575  1.00  0.00     0.041 C 
ATOM     23  O   UNL     1       5.826  -8.556  -7.647  1.00  0.00    -0.550 OA
ATOM     24  O   UNL     1       5.650  -9.298  -9.809  1.00  0.00    -0.550 OA
ENDBRANCH  21  22
ENDBRANCH  20  21
ENDBRANCH  19  20
ENDBRANCH  18  19
ENDBRANCH  17  18
ENDBRANCH  16  17
ENDBRANCH  15  16
ENDBRANCH  14  15
ENDBRANCH  13  14
ENDBRANCH   1  13
TORSDOF 20
ENDMDL
