MODEL 1
REMARK VINA RESULT:    -3.603      0.000      0.000
REMARK INTER + INTRA:         -12.405
REMARK INTER:                  -8.236
REMARK INTRA:                  -4.169
REMARK UNBOUND:                -4.169
REMARK SMILES CCCCCCCCCCCCCCCCCCCCCCCC(=O)[O-]
REMARK SMILES IDX 13 1 14 2 15 3 16 4 17 5 18 6 19 7 20 8 21 9 22 10 23 11
REMARK SMILES IDX 24 12 25 13 26 14 12 15 11 16 10 17 9 18 8 19 7 20 6 21 5 22
REMARK SMILES IDX 4 23 3 24 2 25 1 26
REMARK H PARENT
REMARK Flexibility Score: inf
ROOT
ATOM      1  C   UNL     1     302.231 324.352 648.219  1.00  0.00     0.000 C 
ENDROOT
BRANCH   1   2
ATOM      2  C   UNL     1     303.514 323.652 648.707  1.00  0.00     0.000 C 
BRANCH   2   3
ATOM      3  C   UNL     1     303.818 322.323 647.983  1.00  0.00     0.000 C 
BRANCH   3   4
ATOM      4  C   UNL     1     304.716 321.391 648.816  1.00  0.00     0.000 C 
BRANCH   4   5
ATOM      5  C   UNL     1     305.280 322.090 650.073  1.00  0.00     0.000 C 
BRANCH   5   6
ATOM      6  C   UNL     1     306.818 322.082 650.142  1.00  0.00     0.000 C 
BRANCH   6   7
ATOM      7  C   UNL     1     307.517 321.659 648.836  1.00  0.00     0.000 C 
BRANCH   7   8
ATOM      8  C   UNL     1     308.101 322.818 648.003  1.00  0.00     0.000 C 
BRANCH   8   9
ATOM      9  C   UNL     1     307.190 323.337 646.876  1.00  0.00     0.000 C 
BRANCH   9  10
ATOM     10  C   UNL     1     307.016 324.863 646.902  1.00  0.00     0.006 C 
BRANCH  10  11
ATOM     11  C   UNL     1     306.825 325.372 648.335  1.00  0.00     0.053 C 
BRANCH  11  12
ATOM     12  C   UNL     1     307.408 326.741 648.487  1.00  0.00     0.041 C 
ATOM     13  O   UNL     1     307.723 327.173 649.629  1.00  0.00    -0.550 OA
ATOM     14  O   UNL     1     307.659 327.520 647.364  1.00  0.00    -0.550 OA
ENDBRANCH  11  12
ENDBRANCH  10  11
ENDBRANCH   9  10
ENDBRANCH   8   9
ENDBRANCH   7   8
ENDBRANCH   6   7
ENDBRANCH   5   6
ENDBRANCH   4   5
ENDBRANCH   3   4
ENDBRANCH   2   3
ENDBRANCH   1   2
BRANCH   1  15
ATOM     15  C   UNL     1     301.237 323.446 647.473  1.00  0.00     0.000 C 
BRANCH  15  16
ATOM     16  C   UNL     1     299.775 323.873 647.671  1.00  0.00     0.000 C 
BRANCH  16  17
ATOM     17  C   UNL     1     299.450 325.123 646.844  1.00  0.00     0.000 C 
BRANCH  17  18
ATOM     18  C   UNL     1     298.985 324.741 645.432  1.00  0.00    -0.000 C 
BRANCH  18  19
ATOM     19  C   UNL     1     299.233 325.855 644.403  1.00  0.00    -0.000 C 
BRANCH  19  20
ATOM     20  C   UNL     1     300.342 325.500 643.398  1.00  0.00    -0.000 C 
BRANCH  20  21
ATOM     21  C   UNL     1     300.912 324.085 643.635  1.00  0.00    -0.000 C 
BRANCH  21  22
ATOM     22  C   UNL     1     302.421 323.976 643.359  1.00  0.00    -0.000 C 
BRANCH  22  23
ATOM     23  C   UNL     1     303.265 323.980 644.645  1.00  0.00    -0.000 C 
BRANCH  23  24
ATOM     24  C   UNL     1     304.006 325.308 644.862  1.00  0.00    -0.000 C 
BRANCH  24  25
ATOM     25  C   UNL     1     303.161 326.335 645.630  1.00  0.00    -0.003 C 
ATOM     26  C   UNL     1     304.037 327.205 646.527  1.00  0.00     0.004 C 
ENDBRANCH  24  25
ENDBRANCH  23  24
ENDBRANCH  22  23
ENDBRANCH  21  22
ENDBRANCH  20  21
ENDBRANCH  19  20
ENDBRANCH  18  19
ENDBRANCH  17  18
ENDBRANCH  16  17
ENDBRANCH  15  16
ENDBRANCH   1  15
TORSDOF 22
ENDMDL
MODEL 2
REMARK VINA RESULT:    -3.598      4.100      6.682
REMARK INTER + INTRA:         -12.395
REMARK INTER:                  -8.799
REMARK INTRA:                  -3.595
REMARK UNBOUND:                -4.169
REMARK SMILES CCCCCCCCCCCCCCCCCCCCCCCC(=O)[O-]
REMARK SMILES IDX 13 1 14 2 15 3 16 4 17 5 18 6 19 7 20 8 21 9 22 10 23 11
REMARK SMILES IDX 24 12 25 13 26 14 12 15 11 16 10 17 9 18 8 19 7 20 6 21 5 22
REMARK SMILES IDX 4 23 3 24 2 25 1 26
REMARK H PARENT
REMARK Flexibility Score: inf
ROOT
ATOM      1  C   UNL     1     302.362 326.298 643.976  1.00  0.00     0.000 C 
ENDROOT
BRANCH   1   2
ATOM      2  C   UNL     1     302.263 324.770 644.146  1.00  0.00     0.000 C 
BRANCH   2   3
ATOM      3  C   UNL     1     300.903 324.177 643.719  1.00  0.00     0.000 C 
BRANCH   3   4
ATOM      4  C   UNL     1     299.736 325.152 643.952  1.00  0.00     0.000 C 
BRANCH   4   5
ATOM      5  C   UNL     1     298.916 324.793 645.211  1.00  0.00     0.000 C 
BRANCH   5   6
ATOM      6  C   UNL     1     298.956 325.881 646.301  1.00  0.00     0.000 C 
BRANCH   6   7
ATOM      7  C   UNL     1     299.836 325.538 647.517  1.00  0.00     0.000 C 
BRANCH   7   8
ATOM      8  C   UNL     1     300.066 324.031 647.753  1.00  0.00     0.000 C 
BRANCH   8   9
ATOM      9  C   UNL     1     301.491 323.532 647.456  1.00  0.00     0.000 C 
BRANCH   9  10
ATOM     10  C   UNL     1     302.579 324.485 647.971  1.00  0.00     0.006 C 
BRANCH  10  11
ATOM     11  C   UNL     1     303.957 324.098 647.422  1.00  0.00     0.053 C 
BRANCH  11  12
ATOM     12  C   UNL     1     304.742 323.351 648.453  1.00  0.00     0.041 C 
ATOM     13  O   UNL     1     304.323 323.281 649.640  1.00  0.00    -0.550 OA
ATOM     14  O   UNL     1     305.907 322.685 648.093  1.00  0.00    -0.550 OA
ENDBRANCH  11  12
ENDBRANCH  10  11
ENDBRANCH   9  10
ENDBRANCH   8   9
ENDBRANCH   7   8
ENDBRANCH   6   7
ENDBRANCH   5   6
ENDBRANCH   4   5
ENDBRANCH   3   4
ENDBRANCH   2   3
ENDBRANCH   1   2
BRANCH   1  15
ATOM     15  C   UNL     1     302.565 327.087 645.280  1.00  0.00     0.000 C 
BRANCH  15  16
ATOM     16  C   UNL     1     301.562 328.239 645.443  1.00  0.00     0.000 C 
BRANCH  16  17
ATOM     17  C   UNL     1     301.042 328.713 644.080  1.00  0.00     0.000 C 
BRANCH  17  18
ATOM     18  C   UNL     1     299.511 328.828 644.086  1.00  0.00    -0.000 C 
BRANCH  18  19
ATOM     19  C   UNL     1     299.023 330.270 643.878  1.00  0.00    -0.000 C 
BRANCH  19  20
ATOM     20  C   UNL     1     300.000 331.113 643.040  1.00  0.00    -0.000 C 
BRANCH  20  21
ATOM     21  C   UNL     1     299.582 332.598 642.978  1.00  0.00    -0.000 C 
BRANCH  21  22
ATOM     22  C   UNL     1     300.685 333.566 643.435  1.00  0.00    -0.000 C 
BRANCH  22  23
ATOM     23  C   UNL     1     300.326 334.311 644.733  1.00  0.00    -0.000 C 
BRANCH  23  24
ATOM     24  C   UNL     1     301.365 334.098 645.844  1.00  0.00    -0.000 C 
BRANCH  24  25
ATOM     25  C   UNL     1     301.833 332.638 645.942  1.00  0.00    -0.003 C 
ATOM     26  C   UNL     1     302.680 332.416 647.191  1.00  0.00     0.004 C 
ENDBRANCH  24  25
ENDBRANCH  23  24
ENDBRANCH  22  23
ENDBRANCH  21  22
ENDBRANCH  20  21
ENDBRANCH  19  20
ENDBRANCH  18  19
ENDBRANCH  17  18
ENDBRANCH  16  17
ENDBRANCH  15  16
ENDBRANCH   1  15
TORSDOF 22
ENDMDL
MODEL 3
REMARK VINA RESULT:    -3.512      1.449      2.564
REMARK INTER + INTRA:         -12.197
REMARK INTER:                  -8.208
REMARK INTRA:                  -3.989
REMARK UNBOUND:                -4.169
REMARK SMILES CCCCCCCCCCCCCCCCCCCCCCCC(=O)[O-]
REMARK SMILES IDX 13 1 14 2 15 3 16 4 17 5 18 6 19 7 20 8 21 9 22 10 23 11
REMARK SMILES IDX 24 12 25 13 26 14 12 15 11 16 10 17 9 18 8 19 7 20 6 21 5 22
REMARK SMILES IDX 4 23 3 24 2 25 1 26
REMARK H PARENT
REMARK Flexibility Score: inf
ROOT
ATOM      1  C   UNL     1     303.309 322.614 647.761  1.00  0.00     0.000 C 
ENDROOT
BRANCH   1   2
ATOM      2  C   UNL     1     304.127 321.793 648.776  1.00  0.00     0.000 C 
BRANCH   2   3
ATOM      3  C   UNL     1     304.863 322.649 649.829  1.00  0.00     0.000 C 
BRANCH   3   4
ATOM      4  C   UNL     1     305.765 321.807 650.748  1.00  0.00     0.000 C 
BRANCH   4   5
ATOM      5  C   UNL     1     305.849 320.333 650.296  1.00  0.00     0.000 C 
BRANCH   5   6
ATOM      6  C   UNL     1     307.109 320.015 649.468  1.00  0.00     0.000 C 
BRANCH   6   7
ATOM      7  C   UNL     1     306.863 319.875 647.955  1.00  0.00     0.000 C 
BRANCH   7   8
ATOM      8  C   UNL     1     307.694 320.826 647.068  1.00  0.00     0.000 C 
BRANCH   8   9
ATOM      9  C   UNL     1     306.887 321.625 646.029  1.00  0.00     0.000 C 
BRANCH   9  10
ATOM     10  C   UNL     1     306.642 323.081 646.451  1.00  0.00     0.006 C 
BRANCH  10  11
ATOM     11  C   UNL     1     307.920 323.715 647.012  1.00  0.00     0.053 C 
BRANCH  11  12
ATOM     12  C   UNL     1     307.625 324.457 648.278  1.00  0.00     0.041 C 
ATOM     13  O   UNL     1     306.809 325.417 648.275  1.00  0.00    -0.550 OA
ATOM     14  O   UNL     1     308.208 324.052 649.472  1.00  0.00    -0.550 OA
ENDBRANCH  11  12
ENDBRANCH  10  11
ENDBRANCH   9  10
ENDBRANCH   8   9
ENDBRANCH   7   8
ENDBRANCH   6   7
ENDBRANCH   5   6
ENDBRANCH   4   5
ENDBRANCH   3   4
ENDBRANCH   2   3
ENDBRANCH   1   2
BRANCH   1  15
ATOM     15  C   UNL     1     303.200 324.116 648.074  1.00  0.00     0.000 C 
BRANCH  15  16
ATOM     16  C   UNL     1     301.793 324.678 647.821  1.00  0.00     0.000 C 
BRANCH  16  17
ATOM     17  C   UNL     1     300.825 323.567 647.394  1.00  0.00     0.000 C 
BRANCH  17  18
ATOM     18  C   UNL     1     299.402 324.115 647.220  1.00  0.00    -0.000 C 
BRANCH  18  19
ATOM     19  C   UNL     1     299.225 324.906 645.914  1.00  0.00    -0.000 C 
BRANCH  19  20
ATOM     20  C   UNL     1     298.875 326.384 646.156  1.00  0.00    -0.000 C 
BRANCH  20  21
ATOM     21  C   UNL     1     299.894 327.340 645.499  1.00  0.00    -0.000 C 
BRANCH  21  22
ATOM     22  C   UNL     1     300.911 326.625 644.594  1.00  0.00    -0.000 C 
BRANCH  22  23
ATOM     23  C   UNL     1     302.369 326.946 644.964  1.00  0.00    -0.000 C 
BRANCH  23  24
ATOM     24  C   UNL     1     303.316 325.761 644.718  1.00  0.00    -0.000 C 
BRANCH  24  25
ATOM     25  C   UNL     1     302.587 324.531 644.157  1.00  0.00    -0.003 C 
ATOM     26  C   UNL     1     303.498 323.306 644.158  1.00  0.00     0.004 C 
ENDBRANCH  24  25
ENDBRANCH  23  24
ENDBRANCH  22  23
ENDBRANCH  21  22
ENDBRANCH  20  21
ENDBRANCH  19  20
ENDBRANCH  18  19
ENDBRANCH  17  18
ENDBRANCH  16  17
ENDBRANCH  15  16
ENDBRANCH   1  15
TORSDOF 22
ENDMDL
MODEL 4
REMARK VINA RESULT:    -3.500      4.198      6.364
REMARK INTER + INTRA:         -12.171
REMARK INTER:                  -8.779
REMARK INTRA:                  -3.393
REMARK UNBOUND:                -4.169
REMARK SMILES CCCCCCCCCCCCCCCCCCCCCCCC(=O)[O-]
REMARK SMILES IDX 13 1 14 2 15 3 16 4 17 5 18 6 19 7 20 8 21 9 22 10 23 11
REMARK SMILES IDX 24 12 25 13 26 14 12 15 11 16 10 17 9 18 8 19 7 20 6 21 5 22
REMARK SMILES IDX 4 23 3 24 2 25 1 26
REMARK H PARENT
REMARK Flexibility Score: inf
ROOT
ATOM      1  C   UNL     1     303.018 325.461 643.990  1.00  0.00     0.000 C 
ENDROOT
BRANCH   1   2
ATOM      2  C   UNL     1     301.964 324.368 644.256  1.00  0.00     0.000 C 
BRANCH   2   3
ATOM      3  C   UNL     1     300.516 324.805 643.950  1.00  0.00     0.000 C 
BRANCH   3   4
ATOM      4  C   UNL     1     299.509 324.280 644.988  1.00  0.00     0.000 C 
BRANCH   4   5
ATOM      5  C   UNL     1     299.029 325.388 645.951  1.00  0.00     0.000 C 
BRANCH   5   6
ATOM      6  C   UNL     1     299.881 325.503 647.229  1.00  0.00     0.000 C 
BRANCH   6   7
ATOM      7  C   UNL     1     300.485 324.174 647.719  1.00  0.00     0.000 C 
BRANCH   7   8
ATOM      8  C   UNL     1     302.001 324.212 648.003  1.00  0.00     0.000 C 
BRANCH   8   9
ATOM      9  C   UNL     1     302.740 322.879 647.789  1.00  0.00     0.000 C 
BRANCH   9  10
ATOM     10  C   UNL     1     304.042 323.037 646.990  1.00  0.00     0.006 C 
BRANCH  10  11
ATOM     11  C   UNL     1     305.126 323.720 647.830  1.00  0.00     0.053 C 
BRANCH  11  12
ATOM     12  C   UNL     1     305.965 322.699 648.532  1.00  0.00     0.041 C 
ATOM     13  O   UNL     1     306.332 322.891 649.723  1.00  0.00    -0.550 OA
ATOM     14  O   UNL     1     306.295 321.511 647.894  1.00  0.00    -0.550 OA
ENDBRANCH  11  12
ENDBRANCH  10  11
ENDBRANCH   9  10
ENDBRANCH   8   9
ENDBRANCH   7   8
ENDBRANCH   6   7
ENDBRANCH   5   6
ENDBRANCH   4   5
ENDBRANCH   3   4
ENDBRANCH   2   3
ENDBRANCH   1   2
BRANCH   1  15
ATOM     15  C   UNL     1     303.606 326.120 645.249  1.00  0.00     0.000 C 
BRANCH  15  16
ATOM     16  C   UNL     1     302.739 327.272 645.779  1.00  0.00     0.000 C 
BRANCH  16  17
ATOM     17  C   UNL     1     302.236 328.156 644.630  1.00  0.00     0.000 C 
BRANCH  17  18
ATOM     18  C   UNL     1     300.777 328.573 644.858  1.00  0.00    -0.000 C 
BRANCH  18  19
ATOM     19  C   UNL     1     299.909 328.408 643.600  1.00  0.00    -0.000 C 
BRANCH  19  20
ATOM     20  C   UNL     1     298.949 329.590 643.381  1.00  0.00    -0.000 C 
BRANCH  20  21
ATOM     21  C   UNL     1     299.272 330.783 644.306  1.00  0.00    -0.000 C 
BRANCH  21  22
ATOM     22  C   UNL     1     299.696 332.051 643.548  1.00  0.00    -0.000 C 
BRANCH  22  23
ATOM     23  C   UNL     1     300.390 333.083 644.453  1.00  0.00    -0.000 C 
BRANCH  23  24
ATOM     24  C   UNL     1     301.335 334.012 643.674  1.00  0.00    -0.000 C 
BRANCH  24  25
ATOM     25  C   UNL     1     301.338 335.445 644.225  1.00  0.00    -0.003 C 
ATOM     26  C   UNL     1     300.215 335.646 645.239  1.00  0.00     0.004 C 
ENDBRANCH  24  25
ENDBRANCH  23  24
ENDBRANCH  22  23
ENDBRANCH  21  22
ENDBRANCH  20  21
ENDBRANCH  19  20
ENDBRANCH  18  19
ENDBRANCH  17  18
ENDBRANCH  16  17
ENDBRANCH  15  16
ENDBRANCH   1  15
TORSDOF 22
ENDMDL
MODEL 5
REMARK VINA RESULT:    -3.457      2.943      7.119
REMARK INTER + INTRA:         -12.072
REMARK INTER:                  -8.379
REMARK INTRA:                  -3.693
REMARK UNBOUND:                -4.169
REMARK SMILES CCCCCCCCCCCCCCCCCCCCCCCC(=O)[O-]
REMARK SMILES IDX 13 1 14 2 15 3 16 4 17 5 18 6 19 7 20 8 21 9 22 10 23 11
REMARK SMILES IDX 24 12 25 13 26 14 12 15 11 16 10 17 9 18 8 19 7 20 6 21 5 22
REMARK SMILES IDX 4 23 3 24 2 25 1 26
REMARK H PARENT
REMARK Flexibility Score: inf
ROOT
ATOM      1  C   UNL     1     301.304 323.662 647.168  1.00  0.00     0.000 C 
ENDROOT
BRANCH   1   2
ATOM      2  C   UNL     1     299.814 323.652 647.565  1.00  0.00     0.000 C 
BRANCH   2   3
ATOM      3  C   UNL     1     298.949 324.661 646.780  1.00  0.00     0.000 C 
BRANCH   3   4
ATOM      4  C   UNL     1     299.199 324.598 645.264  1.00  0.00     0.000 C 
BRANCH   4   5
ATOM      5  C   UNL     1     299.456 325.994 644.654  1.00  0.00     0.000 C 
BRANCH   5   6
ATOM      6  C   UNL     1     299.976 327.024 645.674  1.00  0.00     0.000 C 
BRANCH   6   7
ATOM      7  C   UNL     1     301.488 327.300 645.592  1.00  0.00     0.000 C 
BRANCH   7   8
ATOM      8  C   UNL     1     302.186 326.746 644.333  1.00  0.00     0.000 C 
BRANCH   8   9
ATOM      9  C   UNL     1     303.185 325.604 644.587  1.00  0.00     0.000 C 
BRANCH   9  10
ATOM     10  C   UNL     1     303.282 324.620 643.412  1.00  0.00     0.006 C 
BRANCH  10  11
ATOM     11  C   UNL     1     302.301 323.456 643.585  1.00  0.00     0.053 C 
BRANCH  11  12
ATOM     12  C   UNL     1     301.373 323.373 642.414  1.00  0.00     0.041 C 
ATOM     13  O   UNL     1     300.941 322.255 642.025  1.00  0.00    -0.550 OA
ATOM     14  O   UNL     1     300.940 324.535 641.786  1.00  0.00    -0.550 OA
ENDBRANCH  11  12
ENDBRANCH  10  11
ENDBRANCH   9  10
ENDBRANCH   8   9
ENDBRANCH   7   8
ENDBRANCH   6   7
ENDBRANCH   5   6
ENDBRANCH   4   5
ENDBRANCH   3   4
ENDBRANCH   2   3
ENDBRANCH   1   2
BRANCH   1  15
ATOM     15  C   UNL     1     302.200 324.571 648.024  1.00  0.00     0.000 C 
BRANCH  15  16
ATOM     16  C   UNL     1     303.501 323.883 648.465  1.00  0.00     0.000 C 
BRANCH  16  17
ATOM     17  C   UNL     1     303.651 322.510 647.798  1.00  0.00     0.000 C 
BRANCH  17  18
ATOM     18  C   UNL     1     304.568 321.597 648.623  1.00  0.00    -0.000 C 
BRANCH  18  19
ATOM     19  C   UNL     1     305.051 322.258 649.923  1.00  0.00    -0.000 C 
BRANCH  19  20
ATOM     20  C   UNL     1     306.340 321.621 650.471  1.00  0.00    -0.000 C 
BRANCH  20  21
ATOM     21  C   UNL     1     307.540 322.589 650.410  1.00  0.00    -0.000 C 
BRANCH  21  22
ATOM     22  C   UNL     1     307.903 323.029 648.983  1.00  0.00    -0.000 C 
BRANCH  22  23
ATOM     23  C   UNL     1     307.981 324.558 648.830  1.00  0.00    -0.000 C 
BRANCH  23  24
ATOM     24  C   UNL     1     306.675 325.165 648.295  1.00  0.00    -0.000 C 
BRANCH  24  25
ATOM     25  C   UNL     1     306.856 326.609 647.802  1.00  0.00    -0.003 C 
ATOM     26  C   UNL     1     305.716 327.018 646.874  1.00  0.00     0.004 C 
ENDBRANCH  24  25
ENDBRANCH  23  24
ENDBRANCH  22  23
ENDBRANCH  21  22
ENDBRANCH  20  21
ENDBRANCH  19  20
ENDBRANCH  18  19
ENDBRANCH  17  18
ENDBRANCH  16  17
ENDBRANCH  15  16
ENDBRANCH   1  15
TORSDOF 22
ENDMDL
MODEL 6
REMARK VINA RESULT:    -3.404      1.663      2.706
REMARK INTER + INTRA:         -11.950
REMARK INTER:                  -8.283
REMARK INTRA:                  -3.667
REMARK UNBOUND:                -4.169
REMARK SMILES CCCCCCCCCCCCCCCCCCCCCCCC(=O)[O-]
REMARK SMILES IDX 13 1 14 2 15 3 16 4 17 5 18 6 19 7 20 8 21 9 22 10 23 11
REMARK SMILES IDX 24 12 25 13 26 14 12 15 11 16 10 17 9 18 8 19 7 20 6 21 5 22
REMARK SMILES IDX 4 23 3 24 2 25 1 26
REMARK H PARENT
REMARK Flexibility Score: inf
ROOT
ATOM      1  C   UNL     1     302.162 324.459 647.850  1.00  0.00     0.000 C 
ENDROOT
BRANCH   1   2
ATOM      2  C   UNL     1     303.360 323.752 648.514  1.00  0.00     0.000 C 
BRANCH   2   3
ATOM      3  C   UNL     1     303.732 322.403 647.863  1.00  0.00     0.000 C 
BRANCH   3   4
ATOM      4  C   UNL     1     304.610 321.530 648.776  1.00  0.00     0.000 C 
BRANCH   4   5
ATOM      5  C   UNL     1     305.159 322.317 649.987  1.00  0.00     0.000 C 
BRANCH   5   6
ATOM      6  C   UNL     1     306.697 322.340 650.058  1.00  0.00     0.000 C 
BRANCH   6   7
ATOM      7  C   UNL     1     307.399 322.565 648.706  1.00  0.00     0.000 C 
BRANCH   7   8
ATOM      8  C   UNL     1     307.135 323.938 648.054  1.00  0.00     0.000 C 
BRANCH   8   9
ATOM      9  C   UNL     1     306.877 323.903 646.537  1.00  0.00     0.000 C 
BRANCH   9  10
ATOM     10  C   UNL     1     305.986 325.057 646.055  1.00  0.00     0.006 C 
BRANCH  10  11
ATOM     11  C   UNL     1     305.842 326.132 647.138  1.00  0.00     0.053 C 
BRANCH  11  12
ATOM     12  C   UNL     1     304.718 327.063 646.806  1.00  0.00     0.041 C 
ATOM     13  O   UNL     1     303.926 326.790 645.864  1.00  0.00    -0.550 OA
ATOM     14  O   UNL     1     304.510 328.203 647.572  1.00  0.00    -0.550 OA
ENDBRANCH  11  12
ENDBRANCH  10  11
ENDBRANCH   9  10
ENDBRANCH   8   9
ENDBRANCH   7   8
ENDBRANCH   6   7
ENDBRANCH   5   6
ENDBRANCH   4   5
ENDBRANCH   3   4
ENDBRANCH   2   3
ENDBRANCH   1   2
BRANCH   1  15
ATOM     15  C   UNL     1     300.925 323.573 647.627  1.00  0.00     0.000 C 
BRANCH  15  16
ATOM     16  C   UNL     1     299.604 324.337 647.808  1.00  0.00     0.000 C 
BRANCH  16  17
ATOM     17  C   UNL     1     299.410 325.373 646.693  1.00  0.00     0.000 C 
BRANCH  17  18
ATOM     18  C   UNL     1     299.101 324.688 645.355  1.00  0.00    -0.000 C 
BRANCH  18  19
ATOM     19  C   UNL     1     299.989 325.197 644.208  1.00  0.00    -0.000 C 
BRANCH  19  20
ATOM     20  C   UNL     1     300.858 324.088 643.591  1.00  0.00    -0.000 C 
BRANCH  20  21
ATOM     21  C   UNL     1     302.263 324.027 644.226  1.00  0.00    -0.000 C 
BRANCH  21  22
ATOM     22  C   UNL     1     303.405 324.189 643.209  1.00  0.00    -0.000 C 
BRANCH  22  23
ATOM     23  C   UNL     1     304.469 323.085 643.325  1.00  0.00    -0.000 C 
BRANCH  23  24
ATOM     24  C   UNL     1     303.913 321.690 642.998  1.00  0.00    -0.000 C 
BRANCH  24  25
ATOM     25  C   UNL     1     303.229 321.636 641.624  1.00  0.00    -0.003 C 
ATOM     26  C   UNL     1     301.850 320.992 641.723  1.00  0.00     0.004 C 
ENDBRANCH  24  25
ENDBRANCH  23  24
ENDBRANCH  22  23
ENDBRANCH  21  22
ENDBRANCH  20  21
ENDBRANCH  19  20
ENDBRANCH  18  19
ENDBRANCH  17  18
ENDBRANCH  16  17
ENDBRANCH  15  16
ENDBRANCH   1  15
TORSDOF 22
ENDMDL
MODEL 7
REMARK VINA RESULT:    -3.393      1.482      2.504
REMARK INTER + INTRA:         -11.926
REMARK INTER:                  -7.864
REMARK INTRA:                  -4.062
REMARK UNBOUND:                -4.169
REMARK SMILES CCCCCCCCCCCCCCCCCCCCCCCC(=O)[O-]
REMARK SMILES IDX 13 1 14 2 15 3 16 4 17 5 18 6 19 7 20 8 21 9 22 10 23 11
REMARK SMILES IDX 24 12 25 13 26 14 12 15 11 16 10 17 9 18 8 19 7 20 6 21 5 22
REMARK SMILES IDX 4 23 3 24 2 25 1 26
REMARK H PARENT
REMARK Flexibility Score: inf
ROOT
ATOM      1  C   UNL     1     303.395 323.946 648.270  1.00  0.00     0.000 C 
ENDROOT
BRANCH   1   2
ATOM      2  C   UNL     1     303.585 322.467 647.881  1.00  0.00     0.000 C 
BRANCH   2   3
ATOM      3  C   UNL     1     304.487 321.674 648.850  1.00  0.00     0.000 C 
BRANCH   3   4
ATOM      4  C   UNL     1     305.058 322.552 649.977  1.00  0.00     0.000 C 
BRANCH   4   5
ATOM      5  C   UNL     1     306.499 322.150 650.360  1.00  0.00     0.000 C 
BRANCH   5   6
ATOM      6  C   UNL     1     307.490 322.219 649.183  1.00  0.00     0.000 C 
BRANCH   6   7
ATOM      7  C   UNL     1     308.457 323.416 649.228  1.00  0.00     0.000 C 
BRANCH   7   8
ATOM      8  C   UNL     1     307.815 324.786 648.926  1.00  0.00     0.000 C 
BRANCH   8   9
ATOM      9  C   UNL     1     306.913 324.826 647.680  1.00  0.00     0.000 C 
BRANCH   9  10
ATOM     10  C   UNL     1     306.330 326.220 647.407  1.00  0.00     0.006 C 
BRANCH  10  11
ATOM     11  C   UNL     1     305.328 326.182 646.248  1.00  0.00     0.053 C 
BRANCH  11  12
ATOM     12  C   UNL     1     305.926 326.789 645.018  1.00  0.00     0.041 C 
ATOM     13  O   UNL     1     305.208 327.007 644.006  1.00  0.00    -0.550 OA
ATOM     14  O   UNL     1     307.263 327.166 645.008  1.00  0.00    -0.550 OA
ENDBRANCH  11  12
ENDBRANCH  10  11
ENDBRANCH   9  10
ENDBRANCH   8   9
ENDBRANCH   7   8
ENDBRANCH   6   7
ENDBRANCH   5   6
ENDBRANCH   4   5
ENDBRANCH   3   4
ENDBRANCH   2   3
ENDBRANCH   1   2
BRANCH   1  15
ATOM     15  C   UNL     1     302.014 324.535 647.938  1.00  0.00     0.000 C 
BRANCH  15  16
ATOM     16  C   UNL     1     300.992 323.465 647.525  1.00  0.00     0.000 C 
BRANCH  16  17
ATOM     17  C   UNL     1     299.557 323.978 647.703  1.00  0.00     0.000 C 
BRANCH  17  18
ATOM     18  C   UNL     1     299.276 325.158 646.762  1.00  0.00    -0.000 C 
BRANCH  18  19
ATOM     19  C   UNL     1     298.921 324.709 645.336  1.00  0.00    -0.000 C 
BRANCH  19  20
ATOM     20  C   UNL     1     299.889 325.266 644.279  1.00  0.00    -0.000 C 
BRANCH  20  21
ATOM     21  C   UNL     1     300.996 324.254 643.912  1.00  0.00    -0.000 C 
BRANCH  21  22
ATOM     22  C   UNL     1     302.412 324.738 644.268  1.00  0.00    -0.000 C 
BRANCH  22  23
ATOM     23  C   UNL     1     303.512 323.968 643.518  1.00  0.00    -0.000 C 
BRANCH  23  24
ATOM     24  C   UNL     1     304.140 322.854 644.370  1.00  0.00    -0.000 C 
BRANCH  24  25
ATOM     25  C   UNL     1     305.657 323.025 644.539  1.00  0.00    -0.003 C 
ATOM     26  C   UNL     1     306.234 321.939 645.443  1.00  0.00     0.004 C 
ENDBRANCH  24  25
ENDBRANCH  23  24
ENDBRANCH  22  23
ENDBRANCH  21  22
ENDBRANCH  20  21
ENDBRANCH  19  20
ENDBRANCH  18  19
ENDBRANCH  17  18
ENDBRANCH  16  17
ENDBRANCH  15  16
ENDBRANCH   1  15
TORSDOF 22
ENDMDL
MODEL 8
REMARK VINA RESULT:    -3.366      2.549      6.968
REMARK INTER + INTRA:         -11.863
REMARK INTER:                  -8.307
REMARK INTRA:                  -3.557
REMARK UNBOUND:                -4.169
REMARK SMILES CCCCCCCCCCCCCCCCCCCCCCCC(=O)[O-]
REMARK SMILES IDX 13 1 14 2 15 3 16 4 17 5 18 6 19 7 20 8 21 9 22 10 23 11
REMARK SMILES IDX 24 12 25 13 26 14 12 15 11 16 10 17 9 18 8 19 7 20 6 21 5 22
REMARK SMILES IDX 4 23 3 24 2 25 1 26
REMARK H PARENT
REMARK Flexibility Score: inf
ROOT
ATOM      1  C   UNL     1     303.376 323.470 647.251  1.00  0.00     0.000 C 
ENDROOT
BRANCH   1   2
ATOM      2  C   UNL     1     302.184 324.314 647.741  1.00  0.00     0.000 C 
BRANCH   2   3
ATOM      3  C   UNL     1     300.808 323.657 647.501  1.00  0.00     0.000 C 
BRANCH   3   4
ATOM      4  C   UNL     1     299.638 324.604 647.819  1.00  0.00     0.000 C 
BRANCH   4   5
ATOM      5  C   UNL     1     298.994 325.189 646.543  1.00  0.00     0.000 C 
BRANCH   5   6
ATOM      6  C   UNL     1     299.318 324.386 645.269  1.00  0.00     0.000 C 
BRANCH   6   7
ATOM      7  C   UNL     1     300.126 325.160 644.211  1.00  0.00     0.000 C 
BRANCH   7   8
ATOM      8  C   UNL     1     301.547 324.620 643.951  1.00  0.00     0.000 C 
BRANCH   8   9
ATOM      9  C   UNL     1     302.687 325.618 644.225  1.00  0.00     0.000 C 
BRANCH   9  10
ATOM     10  C   UNL     1     302.268 326.764 645.156  1.00  0.00     0.006 C 
BRANCH  10  11
ATOM     11  C   UNL     1     302.175 328.090 644.393  1.00  0.00     0.053 C 
BRANCH  11  12
ATOM     12  C   UNL     1     301.139 328.978 645.008  1.00  0.00     0.041 C 
ATOM     13  O   UNL     1     300.016 328.509 645.334  1.00  0.00    -0.550 OA
ATOM     14  O   UNL     1     301.433 330.309 645.273  1.00  0.00    -0.550 OA
ENDBRANCH  11  12
ENDBRANCH  10  11
ENDBRANCH   9  10
ENDBRANCH   8   9
ENDBRANCH   7   8
ENDBRANCH   6   7
ENDBRANCH   5   6
ENDBRANCH   4   5
ENDBRANCH   3   4
ENDBRANCH   2   3
ENDBRANCH   1   2
BRANCH   1  15
ATOM     15  C   UNL     1     303.931 322.468 648.276  1.00  0.00     0.000 C 
BRANCH  15  16
ATOM     16  C   UNL     1     304.645 323.151 649.453  1.00  0.00     0.000 C 
BRANCH  16  17
ATOM     17  C   UNL     1     305.131 322.117 650.476  1.00  0.00     0.000 C 
BRANCH  17  18
ATOM     18  C   UNL     1     306.585 321.711 650.197  1.00  0.00    -0.000 C 
BRANCH  18  19
ATOM     19  C   UNL     1     306.746 320.201 649.964  1.00  0.00    -0.000 C 
BRANCH  19  20
ATOM     20  C   UNL     1     307.428 319.875 648.624  1.00  0.00    -0.000 C 
BRANCH  20  21
ATOM     21  C   UNL     1     306.440 319.925 647.440  1.00  0.00    -0.000 C 
BRANCH  21  22
ATOM     22  C   UNL     1     306.762 321.027 646.417  1.00  0.00    -0.000 C 
BRANCH  22  23
ATOM     23  C   UNL     1     308.236 321.466 646.457  1.00  0.00    -0.000 C 
BRANCH  23  24
ATOM     24  C   UNL     1     308.402 322.990 646.349  1.00  0.00    -0.000 C 
BRANCH  24  25
ATOM     25  C   UNL     1     307.229 323.756 646.979  1.00  0.00    -0.003 C 
ATOM     26  C   UNL     1     307.702 324.621 648.144  1.00  0.00     0.004 C 
ENDBRANCH  24  25
ENDBRANCH  23  24
ENDBRANCH  22  23
ENDBRANCH  21  22
ENDBRANCH  20  21
ENDBRANCH  19  20
ENDBRANCH  18  19
ENDBRANCH  17  18
ENDBRANCH  16  17
ENDBRANCH  15  16
ENDBRANCH   1  15
TORSDOF 22
ENDMDL
MODEL 9
REMARK VINA RESULT:    -3.332      2.382      3.976
REMARK INTER + INTRA:         -11.787
REMARK INTER:                  -7.808
REMARK INTRA:                  -3.978
REMARK UNBOUND:                -4.169
REMARK SMILES CCCCCCCCCCCCCCCCCCCCCCCC(=O)[O-]
REMARK SMILES IDX 13 1 14 2 15 3 16 4 17 5 18 6 19 7 20 8 21 9 22 10 23 11
REMARK SMILES IDX 24 12 25 13 26 14 12 15 11 16 10 17 9 18 8 19 7 20 6 21 5 22
REMARK SMILES IDX 4 23 3 24 2 25 1 26
REMARK H PARENT
REMARK Flexibility Score: inf
ROOT
ATOM      1  C   UNL     1     304.814 321.375 648.288  1.00  0.00     0.000 C 
ENDROOT
BRANCH   1   2
ATOM      2  C   UNL     1     304.976 320.492 649.541  1.00  0.00     0.000 C 
BRANCH   2   3
ATOM      3  C   UNL     1     306.316 320.692 650.281  1.00  0.00     0.000 C 
BRANCH   3   4
ATOM      4  C   UNL     1     306.572 322.164 650.650  1.00  0.00     0.000 C 
BRANCH   4   5
ATOM      5  C   UNL     1     307.645 322.815 649.749  1.00  0.00     0.000 C 
BRANCH   5   6
ATOM      6  C   UNL     1     307.139 324.057 648.991  1.00  0.00     0.000 C 
BRANCH   6   7
ATOM      7  C   UNL     1     307.183 323.934 647.457  1.00  0.00     0.000 C 
BRANCH   7   8
ATOM      8  C   UNL     1     306.554 325.115 646.689  1.00  0.00     0.000 C 
BRANCH   8   9
ATOM      9  C   UNL     1     306.000 324.769 645.296  1.00  0.00     0.000 C 
BRANCH   9  10
ATOM     10  C   UNL     1     305.366 323.372 645.234  1.00  0.00     0.006 C 
BRANCH  10  11
ATOM     11  C   UNL     1     303.933 323.439 644.692  1.00  0.00     0.053 C 
BRANCH  11  12
ATOM     12  C   UNL     1     303.941 323.739 643.226  1.00  0.00     0.041 C 
ATOM     13  O   UNL     1     304.381 322.888 642.407  1.00  0.00    -0.550 OA
ATOM     14  O   UNL     1     303.410 324.935 642.758  1.00  0.00    -0.550 OA
ENDBRANCH  11  12
ENDBRANCH  10  11
ENDBRANCH   9  10
ENDBRANCH   8   9
ENDBRANCH   7   8
ENDBRANCH   6   7
ENDBRANCH   5   6
ENDBRANCH   4   5
ENDBRANCH   3   4
ENDBRANCH   2   3
ENDBRANCH   1   2
BRANCH   1  15
ATOM     15  C   UNL     1     303.476 322.126 648.188  1.00  0.00     0.000 C 
BRANCH  15  16
ATOM     16  C   UNL     1     303.603 323.619 648.522  1.00  0.00     0.000 C 
BRANCH  16  17
ATOM     17  C   UNL     1     302.291 324.360 648.239  1.00  0.00     0.000 C 
BRANCH  17  18
ATOM     18  C   UNL     1     301.296 323.452 647.503  1.00  0.00    -0.000 C 
BRANCH  18  19
ATOM     19  C   UNL     1     299.832 323.823 647.784  1.00  0.00    -0.000 C 
BRANCH  19  20
ATOM     20  C   UNL     1     299.285 324.873 646.801  1.00  0.00    -0.000 C 
BRANCH  20  21
ATOM     21  C   UNL     1     299.407 324.415 645.332  1.00  0.00    -0.000 C 
BRANCH  21  22
ATOM     22  C   UNL     1     300.386 325.262 644.504  1.00  0.00    -0.000 C 
BRANCH  22  23
ATOM     23  C   UNL     1     300.098 326.770 644.597  1.00  0.00    -0.000 C 
BRANCH  23  24
ATOM     24  C   UNL     1     301.257 327.555 645.232  1.00  0.00    -0.000 C 
BRANCH  24  25
ATOM     25  C   UNL     1     302.427 326.649 645.642  1.00  0.00    -0.003 C 
ATOM     26  C   UNL     1     303.554 327.462 646.273  1.00  0.00     0.004 C 
ENDBRANCH  24  25
ENDBRANCH  23  24
ENDBRANCH  22  23
ENDBRANCH  21  22
ENDBRANCH  20  21
ENDBRANCH  19  20
ENDBRANCH  18  19
ENDBRANCH  17  18
ENDBRANCH  16  17
ENDBRANCH  15  16
ENDBRANCH   1  15
TORSDOF 22
ENDMDL
