MODEL 1
REMARK VINA RESULT:    -7.674      0.000      0.000
REMARK INTER + INTRA:         -15.531
REMARK INTER:                 -14.403
REMARK INTRA:                  -1.128
REMARK UNBOUND:                -1.128
REMARK SMILES CCCCCCCCC=CCCCCCCCC(=O)[O-]
REMARK SMILES IDX 10 1 9 2 11 3 12 4 13 5 14 6 15 7 16 8 17 9 18 10 19 11
REMARK SMILES IDX 20 12 8 13 7 14 6 15 5 16 4 17 3 18 2 19 1 20
REMARK H PARENT
REMARK Flexibility Score: inf
ROOT
ATOM      1  C   UNL     1      -5.278 -11.775 -34.600  1.00  0.00    -0.031 C 
ATOM      2  C   UNL     1      -5.178 -12.384 -33.404  1.00  0.00    -0.031 C 
ENDROOT
BRANCH   1   3
ATOM      3  C   UNL     1      -6.119 -12.272 -35.752  1.00  0.00     0.027 C 
BRANCH   3   4
ATOM      4  C   UNL     1      -6.704 -11.114 -36.579  1.00  0.00     0.004 C 
BRANCH   4   5
ATOM      5  C   UNL     1      -6.163 -11.030 -38.019  1.00  0.00     0.000 C 
BRANCH   5   6
ATOM      6  C   UNL     1      -4.632 -10.886 -38.068  1.00  0.00     0.000 C 
BRANCH   6   7
ATOM      7  C   UNL     1      -4.176  -9.450 -38.388  1.00  0.00     0.000 C 
BRANCH   7   8
ATOM      8  C   UNL     1      -2.944  -8.961 -37.599  1.00  0.00     0.006 C 
BRANCH   8   9
ATOM      9  C   UNL     1      -3.121  -8.963 -36.073  1.00  0.00     0.053 C 
BRANCH   9  10
ATOM     10  C   UNL     1      -2.489  -7.765 -35.433  1.00  0.00     0.041 C 
ATOM     11  O   UNL     1      -2.829  -7.415 -34.273  1.00  0.00    -0.550 OA
ATOM     12  O   UNL     1      -1.549  -7.017 -36.130  1.00  0.00    -0.550 OA
ENDBRANCH   9  10
ENDBRANCH   8   9
ENDBRANCH   7   8
ENDBRANCH   6   7
ENDBRANCH   5   6
ENDBRANCH   4   5
ENDBRANCH   3   4
ENDBRANCH   1   3
BRANCH   2  13
ATOM     13  C   UNL     1      -5.965 -13.605 -32.996  1.00  0.00     0.027 C 
BRANCH  13  14
ATOM     14  C   UNL     1      -5.947 -13.830 -31.470  1.00  0.00     0.004 C 
BRANCH  14  15
ATOM     15  C   UNL     1      -4.967 -12.911 -30.721  1.00  0.00     0.000 C 
BRANCH  15  16
ATOM     16  C   UNL     1      -5.627 -12.158 -29.554  1.00  0.00     0.000 C 
BRANCH  16  17
ATOM     17  C   UNL     1      -4.790 -10.962 -29.073  1.00  0.00    -0.000 C 
BRANCH  17  18
ATOM     18  C   UNL     1      -4.964 -10.686 -27.572  1.00  0.00    -0.000 C 
BRANCH  18  19
ATOM     19  C   UNL     1      -4.017  -9.574 -27.105  1.00  0.00    -0.003 C 
ATOM     20  C   UNL     1      -3.364  -8.871 -28.290  1.00  0.00     0.004 C 
ENDBRANCH  18  19
ENDBRANCH  17  18
ENDBRANCH  16  17
ENDBRANCH  15  16
ENDBRANCH  14  15
ENDBRANCH  13  14
ENDBRANCH   2  13
TORSDOF 15
ENDMDL
MODEL 2
REMARK VINA RESULT:    -7.323      2.691      4.965
REMARK INTER + INTRA:         -14.873
REMARK INTER:                 -13.605
REMARK INTRA:                  -1.268
REMARK UNBOUND:                -1.128
REMARK SMILES CCCCCCCCC=CCCCCCCCC(=O)[O-]
REMARK SMILES IDX 10 1 9 2 11 3 12 4 13 5 14 6 15 7 16 8 17 9 18 10 19 11
REMARK SMILES IDX 20 12 8 13 7 14 6 15 5 16 4 17 3 18 2 19 1 20
REMARK H PARENT
REMARK Flexibility Score: inf
ROOT
ATOM      1  C   UNL     1      -3.079  -8.508 -34.931  1.00  0.00    -0.031 C 
ATOM      2  C   UNL     1      -3.287  -7.856 -33.772  1.00  0.00    -0.031 C 
ENDROOT
BRANCH   1   3
ATOM      3  C   UNL     1      -2.159  -8.037 -36.031  1.00  0.00     0.027 C 
BRANCH   3   4
ATOM      4  C   UNL     1      -2.340  -8.853 -37.323  1.00  0.00     0.004 C 
BRANCH   4   5
ATOM      5  C   UNL     1      -3.648  -8.555 -38.080  1.00  0.00     0.000 C 
BRANCH   5   6
ATOM      6  C   UNL     1      -4.204  -9.789 -38.810  1.00  0.00     0.000 C 
BRANCH   6   7
ATOM      7  C   UNL     1      -4.408 -10.996 -37.876  1.00  0.00     0.000 C 
BRANCH   7   8
ATOM      8  C   UNL     1      -5.763 -11.038 -37.141  1.00  0.00     0.006 C 
BRANCH   8   9
ATOM      9  C   UNL     1      -5.658 -11.192 -35.616  1.00  0.00     0.053 C 
BRANCH   9  10
ATOM     10  C   UNL     1      -6.168 -12.521 -35.149  1.00  0.00     0.041 C 
ATOM     11  O   UNL     1      -6.867 -13.234 -35.916  1.00  0.00    -0.550 OA
ATOM     12  O   UNL     1      -5.897 -12.958 -33.859  1.00  0.00    -0.550 OA
ENDBRANCH   9  10
ENDBRANCH   8   9
ENDBRANCH   7   8
ENDBRANCH   6   7
ENDBRANCH   5   6
ENDBRANCH   4   5
ENDBRANCH   3   4
ENDBRANCH   1   3
BRANCH   2  13
ATOM     13  C   UNL     1      -2.559  -6.602 -33.352  1.00  0.00     0.027 C 
BRANCH  13  14
ATOM     14  C   UNL     1      -2.662  -6.346 -31.835  1.00  0.00     0.004 C 
BRANCH  14  15
ATOM     15  C   UNL     1      -3.527  -7.377 -31.090  1.00  0.00     0.000 C 
BRANCH  15  16
ATOM     16  C   UNL     1      -2.942  -7.776 -29.725  1.00  0.00     0.000 C 
BRANCH  16  17
ATOM     17  C   UNL     1      -3.463  -9.135 -29.232  1.00  0.00    -0.000 C 
BRANCH  17  18
ATOM     18  C   UNL     1      -3.656  -9.174 -27.709  1.00  0.00    -0.000 C 
BRANCH  18  19
ATOM     19  C   UNL     1      -4.764 -10.160 -27.321  1.00  0.00    -0.003 C 
ATOM     20  C   UNL     1      -5.138 -11.060 -28.494  1.00  0.00     0.004 C 
ENDBRANCH  18  19
ENDBRANCH  17  18
ENDBRANCH  16  17
ENDBRANCH  15  16
ENDBRANCH  14  15
ENDBRANCH  13  14
ENDBRANCH   2  13
TORSDOF 15
ENDMDL
MODEL 3
REMARK VINA RESULT:    -7.254      2.435      4.882
REMARK INTER + INTRA:         -14.742
REMARK INTER:                 -13.848
REMARK INTRA:                  -0.894
REMARK UNBOUND:                -1.128
REMARK SMILES CCCCCCCCC=CCCCCCCCC(=O)[O-]
REMARK SMILES IDX 10 1 9 2 11 3 12 4 13 5 14 6 15 7 16 8 17 9 18 10 19 11
REMARK SMILES IDX 20 12 8 13 7 14 6 15 5 16 4 17 3 18 2 19 1 20
REMARK H PARENT
REMARK Flexibility Score: inf
ROOT
ATOM      1  C   UNL     1      -2.497  -6.651 -33.326  1.00  0.00    -0.031 C 
ATOM      2  C   UNL     1      -2.642  -6.455 -32.002  1.00  0.00    -0.031 C 
ENDROOT
BRANCH   1   3
ATOM      3  C   UNL     1      -3.207  -7.720 -34.121  1.00  0.00     0.027 C 
BRANCH   3   4
ATOM      4  C   UNL     1      -2.534  -7.968 -35.482  1.00  0.00     0.004 C 
BRANCH   4   5
ATOM      5  C   UNL     1      -3.135  -9.141 -36.279  1.00  0.00     0.000 C 
BRANCH   5   6
ATOM      6  C   UNL     1      -3.163  -8.874 -37.794  1.00  0.00     0.000 C 
BRANCH   6   7
ATOM      7  C   UNL     1      -4.332  -9.580 -38.505  1.00  0.00     0.000 C 
BRANCH   7   8
ATOM      8  C   UNL     1      -4.702 -10.968 -37.943  1.00  0.00     0.006 C 
BRANCH   8   9
ATOM      9  C   UNL     1      -6.167 -11.107 -37.498  1.00  0.00     0.053 C 
BRANCH   9  10
ATOM     10  C   UNL     1      -6.292 -11.842 -36.200  1.00  0.00     0.041 C 
ATOM     11  O   UNL     1      -5.745 -11.387 -35.161  1.00  0.00    -0.550 OA
ATOM     12  O   UNL     1      -6.985 -13.044 -36.143  1.00  0.00    -0.550 OA
ENDBRANCH   9  10
ENDBRANCH   8   9
ENDBRANCH   7   8
ENDBRANCH   6   7
ENDBRANCH   5   6
ENDBRANCH   4   5
ENDBRANCH   3   4
ENDBRANCH   1   3
BRANCH   2  13
ATOM     13  C   UNL     1      -3.610  -7.210 -31.125  1.00  0.00     0.027 C 
BRANCH  13  14
ATOM     14  C   UNL     1      -2.928  -7.805 -29.877  1.00  0.00     0.004 C 
BRANCH  14  15
ATOM     15  C   UNL     1      -3.549  -9.132 -29.405  1.00  0.00     0.000 C 
BRANCH  15  16
ATOM     16  C   UNL     1      -3.594  -9.260 -27.873  1.00  0.00     0.000 C 
BRANCH  16  17
ATOM     17  C   UNL     1      -4.630 -10.290 -27.396  1.00  0.00    -0.000 C 
BRANCH  17  18
ATOM     18  C   UNL     1      -5.484 -10.843 -28.546  1.00  0.00    -0.000 C 
BRANCH  18  19
ATOM     19  C   UNL     1      -5.128 -12.305 -28.840  1.00  0.00    -0.003 C 
ATOM     20  C   UNL     1      -5.273 -12.621 -30.325  1.00  0.00     0.004 C 
ENDBRANCH  18  19
ENDBRANCH  17  18
ENDBRANCH  16  17
ENDBRANCH  15  16
ENDBRANCH  14  15
ENDBRANCH  13  14
ENDBRANCH   2  13
TORSDOF 15
ENDMDL
MODEL 4
REMARK VINA RESULT:    -7.125      2.483      6.949
REMARK INTER + INTRA:         -14.501
REMARK INTER:                 -13.342
REMARK INTRA:                  -1.159
REMARK UNBOUND:                -1.128
REMARK SMILES CCCCCCCCC=CCCCCCCCC(=O)[O-]
REMARK SMILES IDX 10 1 9 2 11 3 12 4 13 5 14 6 15 7 16 8 17 9 18 10 19 11
REMARK SMILES IDX 20 12 8 13 7 14 6 15 5 16 4 17 3 18 2 19 1 20
REMARK H PARENT
REMARK Flexibility Score: inf
ROOT
ATOM      1  C   UNL     1      -6.637 -11.251 -36.274  1.00  0.00    -0.031 C 
ATOM      2  C   UNL     1      -6.224 -11.234 -37.555  1.00  0.00    -0.031 C 
ENDROOT
BRANCH   1   3
ATOM      3  C   UNL     1      -5.721 -11.241 -35.074  1.00  0.00     0.027 C 
BRANCH   3   4
ATOM      4  C   UNL     1      -5.657 -12.617 -34.388  1.00  0.00     0.004 C 
BRANCH   4   5
ATOM      5  C   UNL     1      -5.072 -12.586 -32.964  1.00  0.00     0.000 C 
BRANCH   5   6
ATOM      6  C   UNL     1      -5.736 -13.610 -32.028  1.00  0.00     0.000 C 
BRANCH   6   7
ATOM      7  C   UNL     1      -5.307 -13.445 -30.559  1.00  0.00     0.000 C 
BRANCH   7   8
ATOM      8  C   UNL     1      -5.228 -11.989 -30.056  1.00  0.00     0.006 C 
BRANCH   8   9
ATOM      9  C   UNL     1      -5.080 -11.846 -28.533  1.00  0.00     0.053 C 
BRANCH   9  10
ATOM     10  C   UNL     1      -4.568 -10.494 -28.144  1.00  0.00     0.041 C 
ATOM     11  O   UNL     1      -4.025  -9.752 -29.004  1.00  0.00    -0.550 OA
ATOM     12  O   UNL     1      -4.662 -10.065 -26.826  1.00  0.00    -0.550 OA
ENDBRANCH   9  10
ENDBRANCH   8   9
ENDBRANCH   7   8
ENDBRANCH   6   7
ENDBRANCH   5   6
ENDBRANCH   4   5
ENDBRANCH   3   4
ENDBRANCH   1   3
BRANCH   2  13
ATOM     13  C   UNL     1      -4.784 -11.105 -37.989  1.00  0.00     0.027 C 
BRANCH  13  14
ATOM     14  C   UNL     1      -4.427  -9.666 -38.413  1.00  0.00     0.004 C 
BRANCH  14  15
ATOM     15  C   UNL     1      -2.966  -9.280 -38.124  1.00  0.00     0.000 C 
BRANCH  15  16
ATOM     16  C   UNL     1      -2.833  -8.233 -37.006  1.00  0.00     0.000 C 
BRANCH  16  17
ATOM     17  C   UNL     1      -2.367  -8.843 -35.675  1.00  0.00    -0.000 C 
BRANCH  17  18
ATOM     18  C   UNL     1      -3.249  -8.420 -34.492  1.00  0.00    -0.000 C 
BRANCH  18  19
ATOM     19  C   UNL     1      -2.661  -7.198 -33.778  1.00  0.00    -0.003 C 
ATOM     20  C   UNL     1      -3.257  -7.032 -32.384  1.00  0.00     0.004 C 
ENDBRANCH  18  19
ENDBRANCH  17  18
ENDBRANCH  16  17
ENDBRANCH  15  16
ENDBRANCH  14  15
ENDBRANCH  13  14
ENDBRANCH   2  13
TORSDOF 15
ENDMDL
MODEL 5
REMARK VINA RESULT:    -7.077      2.020      7.319
REMARK INTER + INTRA:         -14.411
REMARK INTER:                 -13.249
REMARK INTRA:                  -1.163
REMARK UNBOUND:                -1.128
REMARK SMILES CCCCCCCCC=CCCCCCCCC(=O)[O-]
REMARK SMILES IDX 10 1 9 2 11 3 12 4 13 5 14 6 15 7 16 8 17 9 18 10 19 11
REMARK SMILES IDX 20 12 8 13 7 14 6 15 5 16 4 17 3 18 2 19 1 20
REMARK H PARENT
REMARK Flexibility Score: inf
ROOT
ATOM      1  C   UNL     1      -5.245 -12.374 -33.756  1.00  0.00    -0.031 C 
ATOM      2  C   UNL     1      -5.301 -11.713 -34.927  1.00  0.00    -0.031 C 
ENDROOT
BRANCH   1   3
ATOM      3  C   UNL     1      -6.138 -13.531 -33.378  1.00  0.00     0.027 C 
BRANCH   3   4
ATOM      4  C   UNL     1      -5.870 -14.019 -31.943  1.00  0.00     0.004 C 
BRANCH   4   5
ATOM      5  C   UNL     1      -5.130 -13.000 -31.057  1.00  0.00     0.000 C 
BRANCH   5   6
ATOM      6  C   UNL     1      -5.961 -12.561 -29.839  1.00  0.00     0.000 C 
BRANCH   6   7
ATOM      7  C   UNL     1      -5.093 -12.211 -28.617  1.00  0.00     0.000 C 
BRANCH   7   8
ATOM      8  C   UNL     1      -5.057 -10.715 -28.242  1.00  0.00     0.006 C 
BRANCH   8   9
ATOM      9  C   UNL     1      -4.402  -9.809 -29.296  1.00  0.00     0.053 C 
BRANCH   9  10
ATOM     10  C   UNL     1      -3.393  -8.883 -28.690  1.00  0.00     0.041 C 
ATOM     11  O   UNL     1      -3.297  -8.784 -27.439  1.00  0.00    -0.550 OA
ATOM     12  O   UNL     1      -2.581  -8.106 -29.506  1.00  0.00    -0.550 OA
ENDBRANCH   9  10
ENDBRANCH   8   9
ENDBRANCH   7   8
ENDBRANCH   6   7
ENDBRANCH   5   6
ENDBRANCH   4   5
ENDBRANCH   3   4
ENDBRANCH   1   3
BRANCH   2  13
ATOM     13  C   UNL     1      -6.198 -12.088 -36.082  1.00  0.00     0.027 C 
BRANCH  13  14
ATOM     14  C   UNL     1      -6.137 -11.060 -37.229  1.00  0.00     0.004 C 
BRANCH  14  15
ATOM     15  C   UNL     1      -4.855 -11.150 -38.074  1.00  0.00     0.000 C 
BRANCH  15  16
ATOM     16  C   UNL     1      -4.410  -9.789 -38.634  1.00  0.00     0.000 C 
BRANCH  16  17
ATOM     17  C   UNL     1      -2.983  -9.410 -38.207  1.00  0.00    -0.000 C 
BRANCH  17  18
ATOM     18  C   UNL     1      -2.957  -8.252 -37.199  1.00  0.00    -0.000 C 
BRANCH  18  19
ATOM     19  C   UNL     1      -2.241  -8.664 -35.908  1.00  0.00    -0.003 C 
ATOM     20  C   UNL     1      -3.217  -8.751 -34.739  1.00  0.00     0.004 C 
ENDBRANCH  18  19
ENDBRANCH  17  18
ENDBRANCH  16  17
ENDBRANCH  15  16
ENDBRANCH  14  15
ENDBRANCH  13  14
ENDBRANCH   2  13
TORSDOF 15
ENDMDL
MODEL 6
REMARK VINA RESULT:    -7.027      2.943      8.581
REMARK INTER + INTRA:         -14.317
REMARK INTER:                 -13.433
REMARK INTRA:                  -0.884
REMARK UNBOUND:                -1.128
REMARK SMILES CCCCCCCCC=CCCCCCCCC(=O)[O-]
REMARK SMILES IDX 10 1 9 2 11 3 12 4 13 5 14 6 15 7 16 8 17 9 18 10 19 11
REMARK SMILES IDX 20 12 8 13 7 14 6 15 5 16 4 17 3 18 2 19 1 20
REMARK H PARENT
REMARK Flexibility Score: inf
ROOT
ATOM      1  C   UNL     1      -2.689  -6.810 -31.178  1.00  0.00    -0.031 C 
ATOM      2  C   UNL     1      -2.660  -6.606 -32.508  1.00  0.00    -0.031 C 
ENDROOT
BRANCH   1   3
ATOM      3  C   UNL     1      -3.463  -7.911 -30.493  1.00  0.00     0.027 C 
BRANCH   3   4
ATOM      4  C   UNL     1      -2.985  -8.136 -29.048  1.00  0.00     0.004 C 
BRANCH   4   5
ATOM      5  C   UNL     1      -3.599  -9.373 -28.365  1.00  0.00     0.000 C 
BRANCH   5   6
ATOM      6  C   UNL     1      -4.358 -10.277 -29.351  1.00  0.00     0.000 C 
BRANCH   6   7
ATOM      7  C   UNL     1      -5.024 -11.484 -28.664  1.00  0.00     0.000 C 
BRANCH   7   8
ATOM      8  C   UNL     1      -5.723 -12.478 -29.614  1.00  0.00     0.006 C 
BRANCH   8   9
ATOM      9  C   UNL     1      -5.062 -12.614 -30.995  1.00  0.00     0.053 C 
BRANCH   9  10
ATOM     10  C   UNL     1      -5.327 -13.952 -31.614  1.00  0.00     0.041 C 
ATOM     11  O   UNL     1      -6.348 -14.127 -32.328  1.00  0.00    -0.550 OA
ATOM     12  O   UNL     1      -4.463 -15.013 -31.376  1.00  0.00    -0.550 OA
ENDBRANCH   9  10
ENDBRANCH   8   9
ENDBRANCH   7   8
ENDBRANCH   6   7
ENDBRANCH   5   6
ENDBRANCH   4   5
ENDBRANCH   3   4
ENDBRANCH   1   3
BRANCH   2  13
ATOM     13  C   UNL     1      -3.316  -7.506 -33.528  1.00  0.00     0.027 C 
BRANCH  13  14
ATOM     14  C   UNL     1      -2.540  -7.545 -34.860  1.00  0.00     0.004 C 
BRANCH  14  15
ATOM     15  C   UNL     1      -2.741  -8.847 -35.655  1.00  0.00     0.000 C 
BRANCH  15  16
ATOM     16  C   UNL     1      -2.502  -8.669 -37.164  1.00  0.00     0.000 C 
BRANCH  16  17
ATOM     17  C   UNL     1      -3.781  -8.870 -37.993  1.00  0.00    -0.000 C 
BRANCH  17  18
ATOM     18  C   UNL     1      -4.010 -10.340 -38.376  1.00  0.00    -0.000 C 
BRANCH  18  19
ATOM     19  C   UNL     1      -5.411 -10.803 -37.962  1.00  0.00    -0.003 C 
ATOM     20  C   UNL     1      -5.450 -11.199 -36.490  1.00  0.00     0.004 C 
ENDBRANCH  18  19
ENDBRANCH  17  18
ENDBRANCH  16  17
ENDBRANCH  15  16
ENDBRANCH  14  15
ENDBRANCH  13  14
ENDBRANCH   2  13
TORSDOF 15
ENDMDL
MODEL 7
REMARK VINA RESULT:    -6.976      2.766      8.243
REMARK INTER + INTRA:         -14.221
REMARK INTER:                 -13.097
REMARK INTRA:                  -1.124
REMARK UNBOUND:                -1.128
REMARK SMILES CCCCCCCCC=CCCCCCCCC(=O)[O-]
REMARK SMILES IDX 10 1 9 2 11 3 12 4 13 5 14 6 15 7 16 8 17 9 18 10 19 11
REMARK SMILES IDX 20 12 8 13 7 14 6 15 5 16 4 17 3 18 2 19 1 20
REMARK H PARENT
REMARK Flexibility Score: inf
ROOT
ATOM      1  C   UNL     1      -3.228  -7.993 -33.883  1.00  0.00    -0.031 C 
ATOM      2  C   UNL     1      -2.916  -8.660 -35.009  1.00  0.00    -0.031 C 
ENDROOT
BRANCH   1   3
ATOM      3  C   UNL     1      -2.597  -6.690 -33.451  1.00  0.00     0.027 C 
BRANCH   3   4
ATOM      4  C   UNL     1      -2.818  -6.413 -31.953  1.00  0.00     0.004 C 
BRANCH   4   5
ATOM      5  C   UNL     1      -3.535  -7.549 -31.200  1.00  0.00     0.000 C 
BRANCH   5   6
ATOM      6  C   UNL     1      -2.711  -8.089 -30.019  1.00  0.00     0.000 C 
BRANCH   6   7
ATOM      7  C   UNL     1      -3.490  -8.076 -28.690  1.00  0.00     0.000 C 
BRANCH   7   8
ATOM      8  C   UNL     1      -3.365  -9.358 -27.843  1.00  0.00     0.006 C 
BRANCH   8   9
ATOM      9  C   UNL     1      -4.694 -10.089 -27.591  1.00  0.00     0.053 C 
BRANCH   9  10
ATOM     10  C   UNL     1      -4.899 -11.224 -28.546  1.00  0.00     0.041 C 
ATOM     11  O   UNL     1      -4.768 -11.041 -29.784  1.00  0.00    -0.550 OA
ATOM     12  O   UNL     1      -5.265 -12.477 -28.071  1.00  0.00    -0.550 OA
ENDBRANCH   9  10
ENDBRANCH   8   9
ENDBRANCH   7   8
ENDBRANCH   6   7
ENDBRANCH   5   6
ENDBRANCH   4   5
ENDBRANCH   3   4
ENDBRANCH   1   3
BRANCH   2  13
ATOM     13  C   UNL     1      -1.958  -8.160 -36.064  1.00  0.00     0.027 C 
BRANCH  13  14
ATOM     14  C   UNL     1      -2.200  -8.821 -37.436  1.00  0.00     0.004 C 
BRANCH  14  15
ATOM     15  C   UNL     1      -3.672  -8.794 -37.884  1.00  0.00     0.000 C 
BRANCH  15  16
ATOM     16  C   UNL     1      -4.102 -10.082 -38.605  1.00  0.00     0.000 C 
BRANCH  16  17
ATOM     17  C   UNL     1      -5.314 -10.756 -37.943  1.00  0.00    -0.000 C 
BRANCH  17  18
ATOM     18  C   UNL     1      -5.112 -10.982 -36.437  1.00  0.00    -0.000 C 
BRANCH  18  19
ATOM     19  C   UNL     1      -5.974 -12.146 -35.937  1.00  0.00    -0.003 C 
ATOM     20  C   UNL     1      -5.728 -12.420 -34.457  1.00  0.00     0.004 C 
ENDBRANCH  18  19
ENDBRANCH  17  18
ENDBRANCH  16  17
ENDBRANCH  15  16
ENDBRANCH  14  15
ENDBRANCH  13  14
ENDBRANCH   2  13
TORSDOF 15
ENDMDL
MODEL 8
REMARK VINA RESULT:    -6.951      1.479      7.030
REMARK INTER + INTRA:         -14.174
REMARK INTER:                 -13.173
REMARK INTRA:                  -1.001
REMARK UNBOUND:                -1.128
REMARK SMILES CCCCCCCCC=CCCCCCCCC(=O)[O-]
REMARK SMILES IDX 10 1 9 2 11 3 12 4 13 5 14 6 15 7 16 8 17 9 18 10 19 11
REMARK SMILES IDX 20 12 8 13 7 14 6 15 5 16 4 17 3 18 2 19 1 20
REMARK H PARENT
REMARK Flexibility Score: inf
ROOT
ATOM      1  C   UNL     1      -5.647 -13.480 -31.149  1.00  0.00    -0.031 C 
ATOM      2  C   UNL     1      -5.764 -13.445 -32.489  1.00  0.00    -0.031 C 
ENDROOT
BRANCH   1   3
ATOM      3  C   UNL     1      -4.828 -12.510 -30.330  1.00  0.00     0.027 C 
BRANCH   3   4
ATOM      4  C   UNL     1      -5.551 -12.095 -29.037  1.00  0.00     0.004 C 
BRANCH   4   5
ATOM      5  C   UNL     1      -5.060 -10.764 -28.438  1.00  0.00     0.000 C 
BRANCH   5   6
ATOM      6  C   UNL     1      -4.220  -9.942 -29.431  1.00  0.00     0.000 C 
BRANCH   6   7
ATOM      7  C   UNL     1      -3.347  -8.878 -28.739  1.00  0.00     0.000 C 
BRANCH   7   8
ATOM      8  C   UNL     1      -2.804  -7.771 -29.665  1.00  0.00     0.006 C 
BRANCH   8   9
ATOM      9  C   UNL     1      -3.575  -7.605 -30.984  1.00  0.00     0.053 C 
BRANCH   9  10
ATOM     10  C   UNL     1      -2.800  -6.815 -31.992  1.00  0.00     0.041 C 
ATOM     11  O   UNL     1      -2.083  -5.849 -31.622  1.00  0.00    -0.550 OA
ATOM     12  O   UNL     1      -2.893  -7.126 -33.343  1.00  0.00    -0.550 OA
ENDBRANCH   9  10
ENDBRANCH   8   9
ENDBRANCH   7   8
ENDBRANCH   6   7
ENDBRANCH   5   6
ENDBRANCH   4   5
ENDBRANCH   3   4
ENDBRANCH   1   3
BRANCH   2  13
ATOM     13  C   UNL     1      -5.174 -12.373 -33.373  1.00  0.00     0.027 C 
BRANCH  13  14
ATOM     14  C   UNL     1      -5.802 -12.365 -34.782  1.00  0.00     0.004 C 
BRANCH  14  15
ATOM     15  C   UNL     1      -5.514 -11.082 -35.580  1.00  0.00     0.000 C 
BRANCH  15  16
ATOM     16  C   UNL     1      -5.929 -11.190 -37.057  1.00  0.00     0.000 C 
BRANCH  16  17
ATOM     17  C   UNL     1      -4.729 -11.128 -38.015  1.00  0.00    -0.000 C 
BRANCH  17  18
ATOM     18  C   UNL     1      -4.406  -9.695 -38.464  1.00  0.00    -0.000 C 
BRANCH  18  19
ATOM     19  C   UNL     1      -2.972  -9.310 -38.084  1.00  0.00    -0.003 C 
ATOM     20  C   UNL     1      -2.929  -8.604 -36.733  1.00  0.00     0.004 C 
ENDBRANCH  18  19
ENDBRANCH  17  18
ENDBRANCH  16  17
ENDBRANCH  15  16
ENDBRANCH  14  15
ENDBRANCH  13  14
ENDBRANCH   2  13
TORSDOF 15
ENDMDL
MODEL 9
REMARK VINA RESULT:    -6.574      2.861      5.469
REMARK INTER + INTRA:         -13.467
REMARK INTER:                 -12.413
REMARK INTRA:                  -1.054
REMARK UNBOUND:                -1.128
REMARK SMILES CCCCCCCCC=CCCCCCCCC(=O)[O-]
REMARK SMILES IDX 10 1 9 2 11 3 12 4 13 5 14 6 15 7 16 8 17 9 18 10 19 11
REMARK SMILES IDX 20 12 8 13 7 14 6 15 5 16 4 17 3 18 2 19 1 20
REMARK H PARENT
REMARK Flexibility Score: inf
ROOT
ATOM      1  C   UNL     1      -2.888  -9.070 -38.029  1.00  0.00    -0.031 C 
ATOM      2  C   UNL     1      -2.350  -8.882 -36.809  1.00  0.00    -0.031 C 
ENDROOT
BRANCH   1   3
ATOM      3  C   UNL     1      -4.344  -9.374 -38.290  1.00  0.00     0.027 C 
BRANCH   3   4
ATOM      4  C   UNL     1      -4.691 -10.840 -37.975  1.00  0.00     0.004 C 
BRANCH   4   5
ATOM      5  C   UNL     1      -6.182 -11.085 -37.676  1.00  0.00     0.000 C 
BRANCH   5   6
ATOM      6  C   UNL     1      -6.483 -11.136 -36.169  1.00  0.00     0.000 C 
BRANCH   6   7
ATOM      7  C   UNL     1      -5.366 -11.819 -35.358  1.00  0.00     0.000 C 
BRANCH   7   8
ATOM      8  C   UNL     1      -5.850 -12.749 -34.227  1.00  0.00     0.006 C 
BRANCH   8   9
ATOM      9  C   UNL     1      -5.107 -12.574 -32.893  1.00  0.00     0.053 C 
BRANCH   9  10
ATOM     10  C   UNL     1      -5.598 -13.527 -31.848  1.00  0.00     0.041 C 
ATOM     11  O   UNL     1      -5.141 -13.469 -30.676  1.00  0.00    -0.550 OA
ATOM     12  O   UNL     1      -6.536 -14.497 -32.174  1.00  0.00    -0.550 OA
ENDBRANCH   9  10
ENDBRANCH   8   9
ENDBRANCH   7   8
ENDBRANCH   6   7
ENDBRANCH   5   6
ENDBRANCH   4   5
ENDBRANCH   3   4
ENDBRANCH   1   3
BRANCH   2  13
ATOM     13  C   UNL     1      -3.138  -8.849 -35.521  1.00  0.00     0.027 C 
BRANCH  13  14
ATOM     14  C   UNL     1      -2.784  -7.627 -34.650  1.00  0.00     0.004 C 
BRANCH  14  15
ATOM     15  C   UNL     1      -3.387  -7.680 -33.236  1.00  0.00     0.000 C 
BRANCH  15  16
ATOM     16  C   UNL     1      -2.893  -6.539 -32.331  1.00  0.00     0.000 C 
BRANCH  16  17
ATOM     17  C   UNL     1      -2.515  -7.023 -30.922  1.00  0.00    -0.000 C 
BRANCH  17  18
ATOM     18  C   UNL     1      -3.595  -7.918 -30.297  1.00  0.00    -0.000 C 
BRANCH  18  19
ATOM     19  C   UNL     1      -3.338  -8.124 -28.800  1.00  0.00    -0.003 C 
ATOM     20  C   UNL     1      -3.590  -9.571 -28.389  1.00  0.00     0.004 C 
ENDBRANCH  18  19
ENDBRANCH  17  18
ENDBRANCH  16  17
ENDBRANCH  15  16
ENDBRANCH  14  15
ENDBRANCH  13  14
ENDBRANCH   2  13
TORSDOF 15
ENDMDL
