MODEL 1
REMARK VINA RESULT:    -2.896      0.000      0.000
REMARK INTER + INTRA:         -12.516
REMARK INTER:                  -7.297
REMARK INTRA:                  -5.219
REMARK UNBOUND:                -5.219
REMARK SMILES CCCCCCCCCCCCCCCCCCCCCCCCCCCC(=O)[O-]
REMARK SMILES IDX 15 1 16 2 17 3 18 4 19 5 20 6 21 7 22 8 23 9 24 10 25 11
REMARK SMILES IDX 26 12 27 13 28 14 29 15 30 16 14 17 13 18 12 19 11 20 10 21
REMARK SMILES IDX 9 22 8 23 7 24 6 25 5 26 4 27 3 28 2 29 1 30
REMARK H PARENT
REMARK Flexibility Score: inf
ROOT
ATOM      1  C   UNL     1      -2.385  10.634  -4.671  1.00  0.00     0.000 C 
ENDROOT
BRANCH   1   2
ATOM      2  C   UNL     1      -3.592  10.235  -3.814  1.00  0.00     0.000 C 
BRANCH   2   3
ATOM      3  C   UNL     1      -4.548   9.335  -4.612  1.00  0.00     0.000 C 
BRANCH   3   4
ATOM      4  C   UNL     1      -3.812   8.391  -5.573  1.00  0.00     0.000 C 
BRANCH   4   5
ATOM      5  C   UNL     1      -4.524   8.251  -6.931  1.00  0.00     0.000 C 
BRANCH   5   6
ATOM      6  C   UNL     1      -3.532   8.334  -8.101  1.00  0.00     0.000 C 
BRANCH   6   7
ATOM      7  C   UNL     1      -2.077   8.070  -7.662  1.00  0.00     0.000 C 
BRANCH   7   8
ATOM      8  C   UNL     1      -1.098   9.111  -8.233  1.00  0.00     0.000 C 
BRANCH   8   9
ATOM      9  C   UNL     1       0.248   9.089  -7.485  1.00  0.00     0.000 C 
BRANCH   9  10
ATOM     10  C   UNL     1       0.810  10.496  -7.232  1.00  0.00     0.000 C 
BRANCH  10  11
ATOM     11  C   UNL     1       1.146  10.737  -5.752  1.00  0.00     0.000 C 
BRANCH  11  12
ATOM     12  C   UNL     1       2.341   9.874  -5.314  1.00  0.00     0.006 C 
BRANCH  12  13
ATOM     13  C   UNL     1       3.477   9.890  -6.346  1.00  0.00     0.053 C 
BRANCH  13  14
ATOM     14  C   UNL     1       4.033   8.518  -6.580  1.00  0.00     0.041 C 
ATOM     15  O   UNL     1       3.266   7.521  -6.613  1.00  0.00    -0.550 OA
ATOM     16  O   UNL     1       5.402   8.340  -6.728  1.00  0.00    -0.550 OA
ENDBRANCH  13  14
ENDBRANCH  12  13
ENDBRANCH  11  12
ENDBRANCH  10  11
ENDBRANCH   9  10
ENDBRANCH   8   9
ENDBRANCH   7   8
ENDBRANCH   6   7
ENDBRANCH   5   6
ENDBRANCH   4   5
ENDBRANCH   3   4
ENDBRANCH   2   3
ENDBRANCH   1   2
BRANCH   1  17
ATOM     17  C   UNL     1      -2.090  12.139  -4.562  1.00  0.00     0.000 C 
BRANCH  17  18
ATOM     18  C   UNL     1      -2.177  12.853  -5.920  1.00  0.00     0.000 C 
BRANCH  18  19
ATOM     19  C   UNL     1      -2.693  11.939  -7.042  1.00  0.00     0.000 C 
BRANCH  19  20
ATOM     20  C   UNL     1      -3.739  12.665  -7.896  1.00  0.00     0.000 C 
BRANCH  20  21
ATOM     21  C   UNL     1      -4.929  11.746  -8.209  1.00  0.00     0.000 C 
BRANCH  21  22
ATOM     22  C   UNL     1      -5.950  11.670  -7.058  1.00  0.00    -0.000 C 
BRANCH  22  23
ATOM     23  C   UNL     1      -6.066  12.943  -6.197  1.00  0.00    -0.000 C 
BRANCH  23  24
ATOM     24  C   UNL     1      -6.287  12.639  -4.705  1.00  0.00    -0.000 C 
BRANCH  24  25
ATOM     25  C   UNL     1      -5.545  13.617  -3.778  1.00  0.00    -0.000 C 
BRANCH  25  26
ATOM     26  C   UNL     1      -6.353  14.014  -2.523  1.00  0.00    -0.000 C 
BRANCH  26  27
ATOM     27  C   UNL     1      -5.435  14.359  -1.338  1.00  0.00    -0.000 C 
BRANCH  27  28
ATOM     28  C   UNL     1      -5.327  13.223  -0.306  1.00  0.00    -0.000 C 
BRANCH  28  29
ATOM     29  C   UNL     1      -4.007  12.433  -0.349  1.00  0.00    -0.003 C 
ATOM     30  C   UNL     1      -2.907  13.147  -1.133  1.00  0.00     0.004 C 
ENDBRANCH  28  29
ENDBRANCH  27  28
ENDBRANCH  26  27
ENDBRANCH  25  26
ENDBRANCH  24  25
ENDBRANCH  23  24
ENDBRANCH  22  23
ENDBRANCH  21  22
ENDBRANCH  20  21
ENDBRANCH  19  20
ENDBRANCH  18  19
ENDBRANCH  17  18
ENDBRANCH   1  17
TORSDOF 26
ENDMDL
MODEL 2
REMARK VINA RESULT:    -2.861      1.831      3.441
REMARK INTER + INTRA:         -12.428
REMARK INTER:                  -6.908
REMARK INTRA:                  -5.519
REMARK UNBOUND:                -5.219
REMARK SMILES CCCCCCCCCCCCCCCCCCCCCCCCCCCC(=O)[O-]
REMARK SMILES IDX 15 1 16 2 17 3 18 4 19 5 20 6 21 7 22 8 23 9 24 10 25 11
REMARK SMILES IDX 26 12 27 13 28 14 29 15 30 16 14 17 13 18 12 19 11 20 10 21
REMARK SMILES IDX 9 22 8 23 7 24 6 25 5 26 4 27 3 28 2 29 1 30
REMARK H PARENT
REMARK Flexibility Score: inf
ROOT
ATOM      1  C   UNL     1      -3.483  10.558  -3.745  1.00  0.00     0.000 C 
ENDROOT
BRANCH   1   2
ATOM      2  C   UNL     1      -2.233  10.807  -4.595  1.00  0.00     0.000 C 
BRANCH   2   3
ATOM      3  C   UNL     1      -1.714  12.239  -4.388  1.00  0.00     0.000 C 
BRANCH   3   4
ATOM      4  C   UNL     1      -2.502  13.279  -5.196  1.00  0.00     0.000 C 
BRANCH   4   5
ATOM      5  C   UNL     1      -2.503  12.982  -6.707  1.00  0.00     0.000 C 
BRANCH   5   6
ATOM      6  C   UNL     1      -3.913  12.643  -7.215  1.00  0.00     0.000 C 
BRANCH   6   7
ATOM      7  C   UNL     1      -3.951  11.327  -8.020  1.00  0.00     0.000 C 
BRANCH   7   8
ATOM      8  C   UNL     1      -2.546  10.860  -8.440  1.00  0.00     0.000 C 
BRANCH   8   9
ATOM      9  C   UNL     1      -2.387   9.337  -8.280  1.00  0.00     0.000 C 
BRANCH   9  10
ATOM     10  C   UNL     1      -1.058   8.944  -7.617  1.00  0.00     0.000 C 
BRANCH  10  11
ATOM     11  C   UNL     1      -0.094  10.132  -7.484  1.00  0.00     0.000 C 
BRANCH  11  12
ATOM     12  C   UNL     1       1.272   9.671  -6.949  1.00  0.00     0.006 C 
BRANCH  12  13
ATOM     13  C   UNL     1       1.511  10.120  -5.502  1.00  0.00     0.053 C 
BRANCH  13  14
ATOM     14  C   UNL     1       2.141  11.478  -5.439  1.00  0.00     0.041 C 
ATOM     15  O   UNL     1       1.790  12.299  -4.552  1.00  0.00    -0.550 OA
ATOM     16  O   UNL     1       3.093  11.846  -6.380  1.00  0.00    -0.550 OA
ENDBRANCH  13  14
ENDBRANCH  12  13
ENDBRANCH  11  12
ENDBRANCH  10  11
ENDBRANCH   9  10
ENDBRANCH   8   9
ENDBRANCH   7   8
ENDBRANCH   6   7
ENDBRANCH   5   6
ENDBRANCH   4   5
ENDBRANCH   3   4
ENDBRANCH   2   3
ENDBRANCH   1   2
BRANCH   1  17
ATOM     17  C   UNL     1      -4.656  10.055  -4.602  1.00  0.00     0.000 C 
BRANCH  17  18
ATOM     18  C   UNL     1      -4.330   8.741  -5.329  1.00  0.00     0.000 C 
BRANCH  18  19
ATOM     19  C   UNL     1      -5.567   8.086  -5.961  1.00  0.00     0.000 C 
BRANCH  19  20
ATOM     20  C   UNL     1      -6.818   8.364  -5.119  1.00  0.00     0.000 C 
BRANCH  20  21
ATOM     21  C   UNL     1      -7.955   8.921  -5.990  1.00  0.00     0.000 C 
BRANCH  21  22
ATOM     22  C   UNL     1      -8.166  10.435  -5.808  1.00  0.00    -0.000 C 
BRANCH  22  23
ATOM     23  C   UNL     1      -7.451  11.328  -6.841  1.00  0.00    -0.000 C 
BRANCH  23  24
ATOM     24  C   UNL     1      -7.620  12.830  -6.554  1.00  0.00    -0.000 C 
BRANCH  24  25
ATOM     25  C   UNL     1      -7.615  13.156  -5.050  1.00  0.00    -0.000 C 
BRANCH  25  26
ATOM     26  C   UNL     1      -6.200  13.357  -4.465  1.00  0.00    -0.000 C 
BRANCH  26  27
ATOM     27  C   UNL     1      -6.244  13.677  -2.961  1.00  0.00    -0.000 C 
BRANCH  27  28
ATOM     28  C   UNL     1      -4.850  13.714  -2.310  1.00  0.00    -0.000 C 
BRANCH  28  29
ATOM     29  C   UNL     1      -4.815  13.290  -0.831  1.00  0.00    -0.003 C 
ATOM     30  C   UNL     1      -3.683  12.313  -0.516  1.00  0.00     0.004 C 
ENDBRANCH  28  29
ENDBRANCH  27  28
ENDBRANCH  26  27
ENDBRANCH  25  26
ENDBRANCH  24  25
ENDBRANCH  23  24
ENDBRANCH  22  23
ENDBRANCH  21  22
ENDBRANCH  20  21
ENDBRANCH  19  20
ENDBRANCH  18  19
ENDBRANCH  17  18
ENDBRANCH   1  17
TORSDOF 26
ENDMDL
MODEL 3
REMARK VINA RESULT:    -2.842      3.259      7.696
REMARK INTER + INTRA:         -12.380
REMARK INTER:                  -7.082
REMARK INTRA:                  -5.298
REMARK UNBOUND:                -5.219
REMARK SMILES CCCCCCCCCCCCCCCCCCCCCCCCCCCC(=O)[O-]
REMARK SMILES IDX 15 1 16 2 17 3 18 4 19 5 20 6 21 7 22 8 23 9 24 10 25 11
REMARK SMILES IDX 26 12 27 13 28 14 29 15 30 16 14 17 13 18 12 19 11 20 10 21
REMARK SMILES IDX 9 22 8 23 7 24 6 25 5 26 4 27 3 28 2 29 1 30
REMARK H PARENT
REMARK Flexibility Score: inf
ROOT
ATOM      1  C   UNL     1      -3.072  11.364  -4.087  1.00  0.00     0.000 C 
ENDROOT
BRANCH   1   2
ATOM      2  C   UNL     1      -3.661  11.936  -2.793  1.00  0.00     0.000 C 
BRANCH   2   3
ATOM      3  C   UNL     1      -2.803  13.102  -2.276  1.00  0.00     0.000 C 
BRANCH   3   4
ATOM      4  C   UNL     1      -3.057  13.415  -0.795  1.00  0.00     0.000 C 
BRANCH   4   5
ATOM      5  C   UNL     1      -4.176  12.549  -0.187  1.00  0.00     0.000 C 
BRANCH   5   6
ATOM      6  C   UNL     1      -5.333  13.409   0.342  1.00  0.00     0.000 C 
BRANCH   6   7
ATOM      7  C   UNL     1      -5.741  14.523  -0.644  1.00  0.00     0.000 C 
BRANCH   7   8
ATOM      8  C   UNL     1      -6.715  14.018  -1.722  1.00  0.00     0.000 C 
BRANCH   8   9
ATOM      9  C   UNL     1      -6.270  14.447  -3.132  1.00  0.00     0.000 C 
BRANCH   9  10
ATOM     10  C   UNL     1      -7.158  13.863  -4.241  1.00  0.00     0.000 C 
BRANCH  10  11
ATOM     11  C   UNL     1      -6.491  12.685  -4.969  1.00  0.00     0.000 C 
BRANCH  11  12
ATOM     12  C   UNL     1      -5.537  13.189  -6.065  1.00  0.00     0.006 C 
BRANCH  12  13
ATOM     13  C   UNL     1      -5.260  12.120  -7.129  1.00  0.00     0.053 C 
BRANCH  13  14
ATOM     14  C   UNL     1      -6.527  11.602  -7.739  1.00  0.00     0.041 C 
ATOM     15  O   UNL     1      -6.784  10.370  -7.715  1.00  0.00    -0.550 OA
ATOM     16  O   UNL     1      -7.406  12.477  -8.363  1.00  0.00    -0.550 OA
ENDBRANCH  13  14
ENDBRANCH  12  13
ENDBRANCH  11  12
ENDBRANCH  10  11
ENDBRANCH   9  10
ENDBRANCH   8   9
ENDBRANCH   7   8
ENDBRANCH   6   7
ENDBRANCH   5   6
ENDBRANCH   4   5
ENDBRANCH   3   4
ENDBRANCH   2   3
ENDBRANCH   1   2
BRANCH   1  17
ATOM     17  C   UNL     1      -3.286   9.844  -4.180  1.00  0.00     0.000 C 
BRANCH  17  18
ATOM     18  C   UNL     1      -4.718   9.480  -4.603  1.00  0.00     0.000 C 
BRANCH  18  19
ATOM     19  C   UNL     1      -4.762   8.361  -5.655  1.00  0.00     0.000 C 
BRANCH  19  20
ATOM     20  C   UNL     1      -3.407   7.650  -5.748  1.00  0.00     0.000 C 
BRANCH  20  21
ATOM     21  C   UNL     1      -2.853   7.706  -7.181  1.00  0.00     0.000 C 
BRANCH  21  22
ATOM     22  C   UNL     1      -3.131   9.050  -7.880  1.00  0.00    -0.000 C 
BRANCH  22  23
ATOM     23  C   UNL     1      -2.010  10.101  -7.756  1.00  0.00    -0.000 C 
BRANCH  23  24
ATOM     24  C   UNL     1      -0.638   9.569  -8.205  1.00  0.00    -0.000 C 
BRANCH  24  25
ATOM     25  C   UNL     1       0.452   9.741  -7.132  1.00  0.00    -0.000 C 
BRANCH  25  26
ATOM     26  C   UNL     1      -0.077  10.315  -5.800  1.00  0.00    -0.000 C 
BRANCH  26  27
ATOM     27  C   UNL     1       0.739  11.535  -5.339  1.00  0.00    -0.000 C 
BRANCH  27  28
ATOM     28  C   UNL     1       0.504  12.784  -6.208  1.00  0.00    -0.000 C 
BRANCH  28  29
ATOM     29  C   UNL     1      -0.668  13.674  -5.756  1.00  0.00    -0.003 C 
ATOM     30  C   UNL     1      -1.837  13.668  -6.740  1.00  0.00     0.004 C 
ENDBRANCH  28  29
ENDBRANCH  27  28
ENDBRANCH  26  27
ENDBRANCH  25  26
ENDBRANCH  24  25
ENDBRANCH  23  24
ENDBRANCH  22  23
ENDBRANCH  21  22
ENDBRANCH  20  21
ENDBRANCH  19  20
ENDBRANCH  18  19
ENDBRANCH  17  18
ENDBRANCH   1  17
TORSDOF 26
ENDMDL
MODEL 4
REMARK VINA RESULT:    -2.841      3.133      6.983
REMARK INTER + INTRA:         -12.377
REMARK INTER:                  -6.356
REMARK INTRA:                  -6.020
REMARK UNBOUND:                -5.219
REMARK SMILES CCCCCCCCCCCCCCCCCCCCCCCCCCCC(=O)[O-]
REMARK SMILES IDX 15 1 16 2 17 3 18 4 19 5 20 6 21 7 22 8 23 9 24 10 25 11
REMARK SMILES IDX 26 12 27 13 28 14 29 15 30 16 14 17 13 18 12 19 11 20 10 21
REMARK SMILES IDX 9 22 8 23 7 24 6 25 5 26 4 27 3 28 2 29 1 30
REMARK H PARENT
REMARK Flexibility Score: inf
ROOT
ATOM      1  C   UNL     1      -4.480   9.095  -4.800  1.00  0.00     0.000 C 
ENDROOT
BRANCH   1   2
ATOM      2  C   UNL     1      -3.336   8.507  -5.633  1.00  0.00     0.000 C 
BRANCH   2   3
ATOM      3  C   UNL     1      -3.735   8.414  -7.114  1.00  0.00     0.000 C 
BRANCH   3   4
ATOM      4  C   UNL     1      -5.002   9.218  -7.439  1.00  0.00     0.000 C 
BRANCH   4   5
ATOM      5  C   UNL     1      -4.690  10.601  -8.040  1.00  0.00     0.000 C 
BRANCH   5   6
ATOM      6  C   UNL     1      -5.618  11.686  -7.472  1.00  0.00     0.000 C 
BRANCH   6   7
ATOM      7  C   UNL     1      -6.879  11.097  -6.808  1.00  0.00     0.000 C 
BRANCH   7   8
ATOM      8  C   UNL     1      -7.328  11.912  -5.583  1.00  0.00     0.000 C 
BRANCH   8   9
ATOM      9  C   UNL     1      -6.244  12.914  -5.144  1.00  0.00     0.000 C 
BRANCH   9  10
ATOM     10  C   UNL     1      -6.607  13.651  -3.846  1.00  0.00     0.000 C 
BRANCH  10  11
ATOM     11  C   UNL     1      -5.377  13.940  -2.971  1.00  0.00     0.000 C 
BRANCH  11  12
ATOM     12  C   UNL     1      -5.595  13.436  -1.536  1.00  0.00     0.006 C 
BRANCH  12  13
ATOM     13  C   UNL     1      -4.364  12.707  -0.982  1.00  0.00     0.053 C 
BRANCH  13  14
ATOM     14  C   UNL     1      -3.427  13.648  -0.289  1.00  0.00     0.041 C 
ATOM     15  O   UNL     1      -2.342  13.979  -0.835  1.00  0.00    -0.550 OA
ATOM     16  O   UNL     1      -3.738  14.133   0.974  1.00  0.00    -0.550 OA
ENDBRANCH  13  14
ENDBRANCH  12  13
ENDBRANCH  11  12
ENDBRANCH  10  11
ENDBRANCH   9  10
ENDBRANCH   8   9
ENDBRANCH   7   8
ENDBRANCH   6   7
ENDBRANCH   5   6
ENDBRANCH   4   5
ENDBRANCH   3   4
ENDBRANCH   2   3
ENDBRANCH   1   2
BRANCH   1  17
ATOM     17  C   UNL     1      -4.010  10.298  -3.967  1.00  0.00     0.000 C 
BRANCH  17  18
ATOM     18  C   UNL     1      -3.116  11.255  -4.771  1.00  0.00     0.000 C 
BRANCH  18  19
ATOM     19  C   UNL     1      -2.101  12.002  -3.894  1.00  0.00     0.000 C 
BRANCH  19  20
ATOM     20  C   UNL     1      -1.933  13.450  -4.371  1.00  0.00     0.000 C 
BRANCH  20  21
ATOM     21  C   UNL     1      -2.809  13.729  -5.602  1.00  0.00     0.000 C 
BRANCH  21  22
ATOM     22  C   UNL     1      -1.995  14.180  -6.829  1.00  0.00    -0.000 C 
BRANCH  22  23
ATOM     23  C   UNL     1      -2.439  13.570  -8.174  1.00  0.00    -0.000 C 
BRANCH  23  24
ATOM     24  C   UNL     1      -1.359  12.679  -8.812  1.00  0.00    -0.000 C 
BRANCH  24  25
ATOM     25  C   UNL     1      -0.471  11.975  -7.772  1.00  0.00    -0.000 C 
BRANCH  25  26
ATOM     26  C   UNL     1      -0.799  10.478  -7.590  1.00  0.00    -0.000 C 
BRANCH  26  27
ATOM     27  C   UNL     1      -0.029   9.863  -6.409  1.00  0.00    -0.000 C 
BRANCH  27  28
ATOM     28  C   UNL     1       0.873  10.875  -5.682  1.00  0.00    -0.000 C 
BRANCH  28  29
ATOM     29  C   UNL     1       2.216  10.308  -5.189  1.00  0.00    -0.003 C 
ATOM     30  C   UNL     1       2.774   9.214  -6.099  1.00  0.00     0.004 C 
ENDBRANCH  28  29
ENDBRANCH  27  28
ENDBRANCH  26  27
ENDBRANCH  25  26
ENDBRANCH  24  25
ENDBRANCH  23  24
ENDBRANCH  22  23
ENDBRANCH  21  22
ENDBRANCH  20  21
ENDBRANCH  19  20
ENDBRANCH  18  19
ENDBRANCH  17  18
ENDBRANCH   1  17
TORSDOF 26
ENDMDL
MODEL 5
REMARK VINA RESULT:    -2.831      2.253      2.603
REMARK INTER + INTRA:         -12.353
REMARK INTER:                  -7.039
REMARK INTRA:                  -5.315
REMARK UNBOUND:                -5.219
REMARK SMILES CCCCCCCCCCCCCCCCCCCCCCCCCCCC(=O)[O-]
REMARK SMILES IDX 15 1 16 2 17 3 18 4 19 5 20 6 21 7 22 8 23 9 24 10 25 11
REMARK SMILES IDX 26 12 27 13 28 14 29 15 30 16 14 17 13 18 12 19 11 20 10 21
REMARK SMILES IDX 9 22 8 23 7 24 6 25 5 26 4 27 3 28 2 29 1 30
REMARK H PARENT
REMARK Flexibility Score: inf
ROOT
ATOM      1  C   UNL     1      -2.273  11.581  -4.161  1.00  0.00     0.000 C 
ENDROOT
BRANCH   1   2
ATOM      2  C   UNL     1      -3.594  11.088  -3.561  1.00  0.00     0.000 C 
BRANCH   2   3
ATOM      3  C   UNL     1      -4.072   9.814  -4.275  1.00  0.00     0.000 C 
BRANCH   3   4
ATOM      4  C   UNL     1      -3.050   9.284  -5.291  1.00  0.00     0.000 C 
BRANCH   4   5
ATOM      5  C   UNL     1      -3.436   7.906  -5.859  1.00  0.00     0.000 C 
BRANCH   5   6
ATOM      6  C   UNL     1      -3.696   7.971  -7.372  1.00  0.00     0.000 C 
BRANCH   6   7
ATOM      7  C   UNL     1      -2.751   8.954  -8.092  1.00  0.00     0.000 C 
BRANCH   7   8
ATOM      8  C   UNL     1      -1.291   8.473  -8.082  1.00  0.00     0.000 C 
BRANCH   8   9
ATOM      9  C   UNL     1      -0.309   9.652  -7.950  1.00  0.00     0.000 C 
BRANCH   9  10
ATOM     10  C   UNL     1       0.149   9.886  -6.503  1.00  0.00     0.000 C 
BRANCH  10  11
ATOM     11  C   UNL     1       1.446  10.707  -6.422  1.00  0.00     0.000 C 
BRANCH  11  12
ATOM     12  C   UNL     1       1.410  11.671  -5.225  1.00  0.00     0.006 C 
BRANCH  12  13
ATOM     13  C   UNL     1       1.837  13.093  -5.611  1.00  0.00     0.053 C 
BRANCH  13  14
ATOM     14  C   UNL     1       1.979  13.976  -4.409  1.00  0.00     0.041 C 
ATOM     15  O   UNL     1       3.092  14.085  -3.831  1.00  0.00    -0.550 OA
ATOM     16  O   UNL     1       0.874  14.650  -3.908  1.00  0.00    -0.550 OA
ENDBRANCH  13  14
ENDBRANCH  12  13
ENDBRANCH  11  12
ENDBRANCH  10  11
ENDBRANCH   9  10
ENDBRANCH   8   9
ENDBRANCH   7   8
ENDBRANCH   6   7
ENDBRANCH   5   6
ENDBRANCH   4   5
ENDBRANCH   3   4
ENDBRANCH   2   3
ENDBRANCH   1   2
BRANCH   1  17
ATOM     17  C   UNL     1      -2.313  13.090  -4.452  1.00  0.00     0.000 C 
BRANCH  17  18
ATOM     18  C   UNL     1      -1.803  13.428  -5.861  1.00  0.00     0.000 C 
BRANCH  18  19
ATOM     19  C   UNL     1      -2.435  12.550  -6.952  1.00  0.00     0.000 C 
BRANCH  19  20
ATOM     20  C   UNL     1      -3.834  13.062  -7.317  1.00  0.00     0.000 C 
BRANCH  20  21
ATOM     21  C   UNL     1      -4.874  11.935  -7.223  1.00  0.00     0.000 C 
BRANCH  21  22
ATOM     22  C   UNL     1      -6.015  12.250  -6.237  1.00  0.00    -0.000 C 
BRANCH  22  23
ATOM     23  C   UNL     1      -5.799  13.498  -5.359  1.00  0.00    -0.000 C 
BRANCH  23  24
ATOM     24  C   UNL     1      -6.484  13.391  -3.986  1.00  0.00    -0.000 C 
BRANCH  24  25
ATOM     25  C   UNL     1      -5.639  13.986  -2.847  1.00  0.00    -0.000 C 
BRANCH  25  26
ATOM     26  C   UNL     1      -6.350  13.973  -1.476  1.00  0.00    -0.000 C 
BRANCH  26  27
ATOM     27  C   UNL     1      -5.346  13.927  -0.312  1.00  0.00    -0.000 C 
BRANCH  27  28
ATOM     28  C   UNL     1      -4.468  12.663  -0.319  1.00  0.00    -0.000 C 
BRANCH  28  29
ATOM     29  C   UNL     1      -2.954  12.928  -0.393  1.00  0.00    -0.003 C 
ATOM     30  C   UNL     1      -2.497  14.052   0.536  1.00  0.00     0.004 C 
ENDBRANCH  28  29
ENDBRANCH  27  28
ENDBRANCH  26  27
ENDBRANCH  25  26
ENDBRANCH  24  25
ENDBRANCH  23  24
ENDBRANCH  22  23
ENDBRANCH  21  22
ENDBRANCH  20  21
ENDBRANCH  19  20
ENDBRANCH  18  19
ENDBRANCH  17  18
ENDBRANCH   1  17
TORSDOF 26
ENDMDL
MODEL 6
REMARK VINA RESULT:    -2.830      3.513      8.015
REMARK INTER + INTRA:         -12.350
REMARK INTER:                  -7.127
REMARK INTRA:                  -5.223
REMARK UNBOUND:                -5.219
REMARK SMILES CCCCCCCCCCCCCCCCCCCCCCCCCCCC(=O)[O-]
REMARK SMILES IDX 15 1 16 2 17 3 18 4 19 5 20 6 21 7 22 8 23 9 24 10 25 11
REMARK SMILES IDX 26 12 27 13 28 14 29 15 30 16 14 17 13 18 12 19 11 20 10 21
REMARK SMILES IDX 9 22 8 23 7 24 6 25 5 26 4 27 3 28 2 29 1 30
REMARK H PARENT
REMARK Flexibility Score: inf
ROOT
ATOM      1  C   UNL     1      -3.109  12.385  -5.174  1.00  0.00     0.000 C 
ENDROOT
BRANCH   1   2
ATOM      2  C   UNL     1      -2.730  13.830  -4.833  1.00  0.00     0.000 C 
BRANCH   2   3
ATOM      3  C   UNL     1      -1.982  13.892  -3.493  1.00  0.00     0.000 C 
BRANCH   3   4
ATOM      4  C   UNL     1      -2.822  14.520  -2.371  1.00  0.00     0.000 C 
BRANCH   4   5
ATOM      5  C   UNL     1      -2.571  13.864  -1.001  1.00  0.00     0.000 C 
BRANCH   5   6
ATOM      6  C   UNL     1      -3.681  12.865  -0.640  1.00  0.00     0.000 C 
BRANCH   6   7
ATOM      7  C   UNL     1      -4.843  12.882  -1.654  1.00  0.00     0.000 C 
BRANCH   7   8
ATOM      8  C   UNL     1      -6.044  13.700  -1.150  1.00  0.00     0.000 C 
BRANCH   8   9
ATOM      9  C   UNL     1      -6.855  14.291  -2.318  1.00  0.00     0.000 C 
BRANCH   9  10
ATOM     10  C   UNL     1      -6.268  13.933  -3.691  1.00  0.00     0.000 C 
BRANCH  10  11
ATOM     11  C   UNL     1      -7.346  13.822  -4.781  1.00  0.00     0.000 C 
BRANCH  11  12
ATOM     12  C   UNL     1      -7.204  12.504  -5.559  1.00  0.00     0.006 C 
BRANCH  12  13
ATOM     13  C   UNL     1      -8.535  11.749  -5.669  1.00  0.00     0.053 C 
BRANCH  13  14
ATOM     14  C   UNL     1      -8.336  10.339  -6.135  1.00  0.00     0.041 C 
ATOM     15  O   UNL     1      -8.698   9.376  -5.410  1.00  0.00    -0.550 OA
ATOM     16  O   UNL     1      -7.720  10.090  -7.353  1.00  0.00    -0.550 OA
ENDBRANCH  13  14
ENDBRANCH  12  13
ENDBRANCH  11  12
ENDBRANCH  10  11
ENDBRANCH   9  10
ENDBRANCH   8   9
ENDBRANCH   7   8
ENDBRANCH   6   7
ENDBRANCH   5   6
ENDBRANCH   4   5
ENDBRANCH   3   4
ENDBRANCH   2   3
ENDBRANCH   1   2
BRANCH   1  17
ATOM     17  C   UNL     1      -2.463  11.388  -4.198  1.00  0.00     0.000 C 
BRANCH  17  18
ATOM     18  C   UNL     1      -3.439  10.287  -3.754  1.00  0.00     0.000 C 
BRANCH  18  19
ATOM     19  C   UNL     1      -4.742  10.282  -4.567  1.00  0.00     0.000 C 
BRANCH  19  20
ATOM     20  C   UNL     1      -5.251   8.849  -4.767  1.00  0.00     0.000 C 
BRANCH  20  21
ATOM     21  C   UNL     1      -4.807   8.292  -6.128  1.00  0.00     0.000 C 
BRANCH  21  22
ATOM     22  C   UNL     1      -3.425   7.615  -6.079  1.00  0.00    -0.000 C 
BRANCH  22  23
ATOM     23  C   UNL     1      -2.457   8.013  -7.211  1.00  0.00    -0.000 C 
BRANCH  23  24
ATOM     24  C   UNL     1      -2.611   9.481  -7.642  1.00  0.00    -0.000 C 
BRANCH  24  25
ATOM     25  C   UNL     1      -1.281  10.254  -7.624  1.00  0.00    -0.000 C 
BRANCH  25  26
ATOM     26  C   UNL     1      -0.322   9.808  -6.499  1.00  0.00    -0.000 C 
BRANCH  26  27
ATOM     27  C   UNL     1       1.103  10.344  -6.716  1.00  0.00    -0.000 C 
BRANCH  27  28
ATOM     28  C   UNL     1       1.664  11.085  -5.490  1.00  0.00    -0.000 C 
BRANCH  28  29
ATOM     29  C   UNL     1       0.945  12.402  -5.144  1.00  0.00    -0.003 C 
ATOM     30  C   UNL     1       0.749  13.312  -6.356  1.00  0.00     0.004 C 
ENDBRANCH  28  29
ENDBRANCH  27  28
ENDBRANCH  26  27
ENDBRANCH  25  26
ENDBRANCH  24  25
ENDBRANCH  23  24
ENDBRANCH  22  23
ENDBRANCH  21  22
ENDBRANCH  20  21
ENDBRANCH  19  20
ENDBRANCH  18  19
ENDBRANCH  17  18
ENDBRANCH   1  17
TORSDOF 26
ENDMDL
MODEL 7
REMARK VINA RESULT:    -2.816      2.952      7.667
REMARK INTER + INTRA:         -12.315
REMARK INTER:                  -6.938
REMARK INTRA:                  -5.378
REMARK UNBOUND:                -5.219
REMARK SMILES CCCCCCCCCCCCCCCCCCCCCCCCCCCC(=O)[O-]
REMARK SMILES IDX 15 1 16 2 17 3 18 4 19 5 20 6 21 7 22 8 23 9 24 10 25 11
REMARK SMILES IDX 26 12 27 13 28 14 29 15 30 16 14 17 13 18 12 19 11 20 10 21
REMARK SMILES IDX 9 22 8 23 7 24 6 25 5 26 4 27 3 28 2 29 1 30
REMARK H PARENT
REMARK Flexibility Score: inf
ROOT
ATOM      1  C   UNL     1      -4.812   8.800  -5.460  1.00  0.00     0.000 C 
ENDROOT
BRANCH   1   2
ATOM      2  C   UNL     1      -3.563   7.954  -5.733  1.00  0.00     0.000 C 
BRANCH   2   3
ATOM      3  C   UNL     1      -3.239   7.937  -7.234  1.00  0.00     0.000 C 
BRANCH   3   4
ATOM      4  C   UNL     1      -4.138   8.878  -8.048  1.00  0.00     0.000 C 
BRANCH   4   5
ATOM      5  C   UNL     1      -3.335   9.864  -8.916  1.00  0.00     0.000 C 
BRANCH   5   6
ATOM      6  C   UNL     1      -3.237  11.248  -8.257  1.00  0.00     0.000 C 
BRANCH   6   7
ATOM      7  C   UNL     1      -4.588  11.728  -7.686  1.00  0.00     0.000 C 
BRANCH   7   8
ATOM      8  C   UNL     1      -4.456  13.047  -6.906  1.00  0.00     0.000 C 
BRANCH   8   9
ATOM      9  C   UNL     1      -5.685  13.302  -6.015  1.00  0.00     0.000 C 
BRANCH   9  10
ATOM     10  C   UNL     1      -5.322  13.958  -4.674  1.00  0.00     0.000 C 
BRANCH  10  11
ATOM     11  C   UNL     1      -5.913  13.204  -3.472  1.00  0.00     0.000 C 
BRANCH  11  12
ATOM     12  C   UNL     1      -5.531  13.894  -2.152  1.00  0.00     0.006 C 
BRANCH  12  13
ATOM     13  C   UNL     1      -4.780  12.952  -1.201  1.00  0.00     0.053 C 
BRANCH  13  14
ATOM     14  C   UNL     1      -3.339  13.338  -1.061  1.00  0.00     0.041 C 
ATOM     15  O   UNL     1      -2.638  12.844  -0.140  1.00  0.00    -0.550 OA
ATOM     16  O   UNL     1      -2.782  14.269  -1.927  1.00  0.00    -0.550 OA
ENDBRANCH  13  14
ENDBRANCH  12  13
ENDBRANCH  11  12
ENDBRANCH  10  11
ENDBRANCH   9  10
ENDBRANCH   8   9
ENDBRANCH   7   8
ENDBRANCH   6   7
ENDBRANCH   5   6
ENDBRANCH   4   5
ENDBRANCH   3   4
ENDBRANCH   2   3
ENDBRANCH   1   2
BRANCH   1  17
ATOM     17  C   UNL     1      -4.535   9.892  -4.414  1.00  0.00     0.000 C 
BRANCH  17  18
ATOM     18  C   UNL     1      -3.033  10.089  -4.156  1.00  0.00     0.000 C 
BRANCH  18  19
ATOM     19  C   UNL     1      -2.608  11.564  -4.199  1.00  0.00     0.000 C 
BRANCH  19  20
ATOM     20  C   UNL     1      -1.287  11.727  -4.959  1.00  0.00     0.000 C 
BRANCH  20  21
ATOM     21  C   UNL     1      -0.797  10.377  -5.506  1.00  0.00     0.000 C 
BRANCH  21  22
ATOM     22  C   UNL     1      -0.123  10.496  -6.886  1.00  0.00    -0.000 C 
BRANCH  22  23
ATOM     23  C   UNL     1       0.201   9.157  -7.578  1.00  0.00    -0.000 C 
BRANCH  23  24
ATOM     24  C   UNL     1       0.844   9.339  -8.964  1.00  0.00    -0.000 C 
BRANCH  24  25
ATOM     25  C   UNL     1       2.379   9.415  -8.906  1.00  0.00    -0.000 C 
BRANCH  25  26
ATOM     26  C   UNL     1       3.049   8.091  -8.480  1.00  0.00    -0.000 C 
BRANCH  26  27
ATOM     27  C   UNL     1       4.016   8.294  -7.301  1.00  0.00    -0.000 C 
BRANCH  27  28
ATOM     28  C   UNL     1       3.315   8.266  -5.931  1.00  0.00    -0.000 C 
BRANCH  28  29
ATOM     29  C   UNL     1       3.096   9.648  -5.288  1.00  0.00    -0.003 C 
ATOM     30  C   UNL     1       4.029  10.722  -5.847  1.00  0.00     0.004 C 
ENDBRANCH  28  29
ENDBRANCH  27  28
ENDBRANCH  26  27
ENDBRANCH  25  26
ENDBRANCH  24  25
ENDBRANCH  23  24
ENDBRANCH  22  23
ENDBRANCH  21  22
ENDBRANCH  20  21
ENDBRANCH  19  20
ENDBRANCH  18  19
ENDBRANCH  17  18
ENDBRANCH   1  17
TORSDOF 26
ENDMDL
MODEL 8
REMARK VINA RESULT:    -2.769      1.455      3.312
REMARK INTER + INTRA:         -12.197
REMARK INTER:                  -7.490
REMARK INTRA:                  -4.707
REMARK UNBOUND:                -5.219
REMARK SMILES CCCCCCCCCCCCCCCCCCCCCCCCCCCC(=O)[O-]
REMARK SMILES IDX 15 1 16 2 17 3 18 4 19 5 20 6 21 7 22 8 23 9 24 10 25 11
REMARK SMILES IDX 26 12 27 13 28 14 29 15 30 16 14 17 13 18 12 19 11 20 10 21
REMARK SMILES IDX 9 22 8 23 7 24 6 25 5 26 4 27 3 28 2 29 1 30
REMARK H PARENT
REMARK Flexibility Score: inf
ROOT
ATOM      1  C   UNL     1      -2.536   8.935  -6.327  1.00  0.00     0.000 C 
ENDROOT
BRANCH   1   2
ATOM      2  C   UNL     1      -2.764  10.326  -5.725  1.00  0.00     0.000 C 
BRANCH   2   3
ATOM      3  C   UNL     1      -3.112  10.219  -4.232  1.00  0.00     0.000 C 
BRANCH   3   4
ATOM      4  C   UNL     1      -3.814  11.475  -3.694  1.00  0.00     0.000 C 
BRANCH   4   5
ATOM      5  C   UNL     1      -3.520  12.728  -4.540  1.00  0.00     0.000 C 
BRANCH   5   6
ATOM      6  C   UNL     1      -2.607  13.712  -3.793  1.00  0.00     0.000 C 
BRANCH   6   7
ATOM      7  C   UNL     1      -1.135  13.609  -4.243  1.00  0.00     0.000 C 
BRANCH   7   8
ATOM      8  C   UNL     1      -0.967  13.869  -5.750  1.00  0.00     0.000 C 
BRANCH   8   9
ATOM      9  C   UNL     1      -0.178  12.736  -6.433  1.00  0.00     0.000 C 
BRANCH   9  10
ATOM     10  C   UNL     1       0.451  11.760  -5.429  1.00  0.00     0.000 C 
BRANCH  10  11
ATOM     11  C   UNL     1       1.451  10.798  -6.091  1.00  0.00     0.000 C 
BRANCH  11  12
ATOM     12  C   UNL     1       2.508  10.325  -5.080  1.00  0.00     0.006 C 
BRANCH  12  13
ATOM     13  C   UNL     1       3.830   9.944  -5.757  1.00  0.00     0.053 C 
BRANCH  13  14
ATOM     14  C   UNL     1       4.093   8.472  -5.673  1.00  0.00     0.041 C 
ATOM     15  O   UNL     1       5.069   8.039  -5.007  1.00  0.00    -0.550 OA
ATOM     16  O   UNL     1       3.278   7.581  -6.358  1.00  0.00    -0.550 OA
ENDBRANCH  13  14
ENDBRANCH  12  13
ENDBRANCH  11  12
ENDBRANCH  10  11
ENDBRANCH   9  10
ENDBRANCH   8   9
ENDBRANCH   7   8
ENDBRANCH   6   7
ENDBRANCH   5   6
ENDBRANCH   4   5
ENDBRANCH   3   4
ENDBRANCH   2   3
ENDBRANCH   1   2
BRANCH   1  17
ATOM     17  C   UNL     1      -3.524   7.904  -5.756  1.00  0.00     0.000 C 
BRANCH  17  18
ATOM     18  C   UNL     1      -4.913   8.005  -6.403  1.00  0.00     0.000 C 
BRANCH  18  19
ATOM     19  C   UNL     1      -6.045   8.117  -5.370  1.00  0.00     0.000 C 
BRANCH  19  20
ATOM     20  C   UNL     1      -6.662   9.521  -5.390  1.00  0.00     0.000 C 
BRANCH  20  21
ATOM     21  C   UNL     1      -6.291  10.266  -6.682  1.00  0.00     0.000 C 
BRANCH  21  22
ATOM     22  C   UNL     1      -6.425  11.795  -6.553  1.00  0.00    -0.000 C 
BRANCH  22  23
ATOM     23  C   UNL     1      -7.139  12.288  -5.280  1.00  0.00    -0.000 C 
BRANCH  23  24
ATOM     24  C   UNL     1      -7.430  13.799  -5.303  1.00  0.00    -0.000 C 
BRANCH  24  25
ATOM     25  C   UNL     1      -6.597  14.584  -4.275  1.00  0.00    -0.000 C 
BRANCH  25  26
ATOM     26  C   UNL     1      -6.868  14.172  -2.813  1.00  0.00    -0.000 C 
BRANCH  26  27
ATOM     27  C   UNL     1      -5.617  14.331  -1.932  1.00  0.00    -0.000 C 
BRANCH  27  28
ATOM     28  C   UNL     1      -5.690  13.522  -0.625  1.00  0.00    -0.000 C 
BRANCH  28  29
ATOM     29  C   UNL     1      -4.435  12.689  -0.309  1.00  0.00    -0.003 C 
ATOM     30  C   UNL     1      -3.191  13.546  -0.079  1.00  0.00     0.004 C 
ENDBRANCH  28  29
ENDBRANCH  27  28
ENDBRANCH  26  27
ENDBRANCH  25  26
ENDBRANCH  24  25
ENDBRANCH  23  24
ENDBRANCH  22  23
ENDBRANCH  21  22
ENDBRANCH  20  21
ENDBRANCH  19  20
ENDBRANCH  18  19
ENDBRANCH  17  18
ENDBRANCH   1  17
TORSDOF 26
ENDMDL
MODEL 9
REMARK VINA RESULT:    -2.721      3.698      8.014
REMARK INTER + INTRA:         -12.075
REMARK INTER:                  -8.407
REMARK INTRA:                  -3.668
REMARK UNBOUND:                -5.219
REMARK SMILES CCCCCCCCCCCCCCCCCCCCCCCCCCCC(=O)[O-]
REMARK SMILES IDX 15 1 16 2 17 3 18 4 19 5 20 6 21 7 22 8 23 9 24 10 25 11
REMARK SMILES IDX 26 12 27 13 28 14 29 15 30 16 14 17 13 18 12 19 11 20 10 21
REMARK SMILES IDX 9 22 8 23 7 24 6 25 5 26 4 27 3 28 2 29 1 30
REMARK H PARENT
REMARK Flexibility Score: inf
ROOT
ATOM      1  C   UNL     1      -3.407  12.753  -2.076  1.00  0.00     0.000 C 
ENDROOT
BRANCH   1   2
ATOM      2  C   UNL     1      -3.873  12.321  -0.681  1.00  0.00     0.000 C 
BRANCH   2   3
ATOM      3  C   UNL     1      -5.021  13.218  -0.192  1.00  0.00     0.000 C 
BRANCH   3   4
ATOM      4  C   UNL     1      -5.469  14.239  -1.248  1.00  0.00     0.000 C 
BRANCH   4   5
ATOM      5  C   UNL     1      -7.001  14.361  -1.344  1.00  0.00     0.000 C 
BRANCH   5   6
ATOM      6  C   UNL     1      -7.468  14.472  -2.804  1.00  0.00     0.000 C 
BRANCH   6   7
ATOM      7  C   UNL     1      -6.442  13.890  -3.798  1.00  0.00     0.000 C 
BRANCH   7   8
ATOM      8  C   UNL     1      -7.118  13.209  -5.001  1.00  0.00     0.000 C 
BRANCH   8   9
ATOM      9  C   UNL     1      -6.465  11.852  -5.321  1.00  0.00     0.000 C 
BRANCH   9  10
ATOM     10  C   UNL     1      -7.474  10.812  -5.831  1.00  0.00     0.000 C 
BRANCH  10  11
ATOM     11  C   UNL     1      -6.812   9.467  -6.169  1.00  0.00     0.000 C 
BRANCH  11  12
ATOM     12  C   UNL     1      -7.662   8.294  -5.655  1.00  0.00     0.006 C 
BRANCH  12  13
ATOM     13  C   UNL     1      -7.005   7.578  -4.468  1.00  0.00     0.053 C 
BRANCH  13  14
ATOM     14  C   UNL     1      -7.949   6.621  -3.805  1.00  0.00     0.041 C 
ATOM     15  O   UNL     1      -8.414   6.879  -2.665  1.00  0.00    -0.550 OA
ATOM     16  O   UNL     1      -8.287   5.431  -4.434  1.00  0.00    -0.550 OA
ENDBRANCH  13  14
ENDBRANCH  12  13
ENDBRANCH  11  12
ENDBRANCH  10  11
ENDBRANCH   9  10
ENDBRANCH   8   9
ENDBRANCH   7   8
ENDBRANCH   6   7
ENDBRANCH   5   6
ENDBRANCH   4   5
ENDBRANCH   3   4
ENDBRANCH   2   3
ENDBRANCH   1   2
BRANCH   1  17
ATOM     17  C   UNL     1      -3.542  11.609  -3.094  1.00  0.00     0.000 C 
BRANCH  17  18
ATOM     18  C   UNL     1      -2.468  11.672  -4.191  1.00  0.00     0.000 C 
BRANCH  18  19
ATOM     19  C   UNL     1      -2.403  10.391  -5.037  1.00  0.00     0.000 C 
BRANCH  19  20
ATOM     20  C   UNL     1      -3.597   9.479  -4.732  1.00  0.00     0.000 C 
BRANCH  20  21
ATOM     21  C   UNL     1      -3.434   8.111  -5.415  1.00  0.00     0.000 C 
BRANCH  21  22
ATOM     22  C   UNL     1      -3.386   8.208  -6.951  1.00  0.00    -0.000 C 
BRANCH  22  23
ATOM     23  C   UNL     1      -2.338   7.307  -7.634  1.00  0.00    -0.000 C 
BRANCH  23  24
ATOM     24  C   UNL     1      -1.172   8.103  -8.246  1.00  0.00    -0.000 C 
BRANCH  24  25
ATOM     25  C   UNL     1      -1.434   9.619  -8.280  1.00  0.00    -0.000 C 
BRANCH  25  26
ATOM     26  C   UNL     1      -0.165  10.460  -8.537  1.00  0.00    -0.000 C 
BRANCH  26  27
ATOM     27  C   UNL     1      -0.104  11.696  -7.622  1.00  0.00    -0.000 C 
BRANCH  27  28
ATOM     28  C   UNL     1       1.148  11.724  -6.727  1.00  0.00    -0.000 C 
BRANCH  28  29
ATOM     29  C   UNL     1       1.117  10.746  -5.539  1.00  0.00    -0.003 C 
ATOM     30  C   UNL     1       2.143   9.621  -5.665  1.00  0.00     0.004 C 
ENDBRANCH  28  29
ENDBRANCH  27  28
ENDBRANCH  26  27
ENDBRANCH  25  26
ENDBRANCH  24  25
ENDBRANCH  23  24
ENDBRANCH  22  23
ENDBRANCH  21  22
ENDBRANCH  20  21
ENDBRANCH  19  20
ENDBRANCH  18  19
ENDBRANCH  17  18
ENDBRANCH   1  17
TORSDOF 26
ENDMDL
