MODEL 1
REMARK VINA RESULT:    -5.323      0.000      0.000
REMARK INTER + INTRA:          -8.615
REMARK INTER:                  -7.813
REMARK INTRA:                  -0.803
REMARK UNBOUND:                -0.803
REMARK SMILES O=c1c(O[C@@H]2O[C@H](CO)[C@@H](O)[C@@H](O)[C@H]2O)c(-c2ccc(O)c(O)c2)oc2cc(O)cc(O)c12
REMARK SMILES IDX 4 1 3 2 16 3 25 4 2 5 26 6 1 7 33 8 27 9 31 10 28 11 30 12
REMARK SMILES IDX 17 13 18 14 19 15 20 16 24 17 22 18 21 19 23 21 32 23 29 25
REMARK SMILES IDX 5 27 14 28 6 29 12 30 7 31 10 32 15 33 13 35 8 37 9 38 11 40
REMARK H PARENT 21 20 23 22 32 24 29 26 15 34 13 36 9 39 11 41
REMARK Flexibility Score: inf
ROOT
ATOM      1  O   UNL     1      21.155  19.576  20.053  1.00  0.00    -0.454 OA
ENDROOT
BRANCH   1   2
ATOM      2  C   UNL     1      20.786  18.638  21.023  1.00  0.00     0.214 A 
ATOM      3  C   UNL     1      21.686  17.659  21.476  1.00  0.00     0.180 A 
ATOM      4  O   UNL     1      21.328  16.821  22.442  1.00  0.00    -0.452 OA
ATOM      5  C   UNL     1      19.499  18.681  21.568  1.00  0.00     0.239 A 
ATOM      6  C   UNL     1      20.119  16.828  22.996  1.00  0.00     0.146 A 
ATOM      7  O   UNL     1      18.683  19.548  21.151  1.00  0.00    -0.285 OA
ATOM      8  C   UNL     1      19.141  17.766  22.578  1.00  0.00     0.111 A 
ATOM      9  C   UNL     1      19.809  15.882  23.979  1.00  0.00     0.094 A 
ATOM     10  C   UNL     1      17.861  17.746  23.179  1.00  0.00     0.134 A 
ATOM     11  C   UNL     1      18.528  15.842  24.543  1.00  0.00     0.123 A 
ATOM     12  C   UNL     1      17.567  16.779  24.151  1.00  0.00     0.093 A 
BRANCH   3  13
ATOM     13  C   UNL     1      23.019  17.519  20.868  1.00  0.00     0.025 A 
ATOM     14  C   UNL     1      24.110  18.227  21.387  1.00  0.00     0.016 A 
ATOM     15  C   UNL     1      25.357  18.145  20.760  1.00  0.00     0.051 A 
ATOM     16  C   UNL     1      25.528  17.336  19.626  1.00  0.00     0.157 A 
ATOM     17  C   UNL     1      23.193  16.698  19.743  1.00  0.00     0.062 A 
ATOM     18  C   UNL     1      24.439  16.605  19.120  1.00  0.00     0.158 A 
BRANCH  16  19
ATOM     19  O   UNL     1      26.774  17.253  19.006  1.00  0.00    -0.504 OA
ATOM     20  H   UNL     1      27.092  16.403  18.559  1.00  0.00     0.293 HD
ENDBRANCH  16  19
BRANCH  18  21
ATOM     21  O   UNL     1      24.581  15.775  18.005  1.00  0.00    -0.504 OA
ATOM     22  H   UNL     1      23.826  15.624  17.350  1.00  0.00     0.293 HD
ENDBRANCH  18  21
ENDBRANCH   3  13
BRANCH  10  23
ATOM     23  O   UNL     1      16.876  18.662  22.804  1.00  0.00    -0.507 OA
ATOM     24  H   UNL     1      17.021  19.662  22.871  1.00  0.00     0.293 HD
ENDBRANCH  10  23
BRANCH  11  25
ATOM     25  O   UNL     1      18.196  14.875  25.489  1.00  0.00    -0.508 OA
ATOM     26  H   UNL     1      17.267  14.469  25.538  1.00  0.00     0.293 HD
ENDBRANCH  11  25
ENDBRANCH   1   2
BRANCH   1  27
ATOM     27  C   UNL     1      20.931  20.972  20.237  1.00  0.00     0.339 C 
ATOM     28  C   UNL     1      22.279  21.667  20.496  1.00  0.00     0.214 C 
ATOM     29  O   UNL     1      20.333  21.490  19.063  1.00  0.00    -0.332 OA
ATOM     30  C   UNL     1      22.060  23.182  20.642  1.00  0.00     0.180 C 
ATOM     31  C   UNL     1      19.973  22.850  19.235  1.00  0.00     0.179 C 
ATOM     32  C   UNL     1      21.238  23.716  19.446  1.00  0.00     0.177 C 
BRANCH  28  33
ATOM     33  O   UNL     1      22.879  21.174  21.666  1.00  0.00    -0.384 OA
ATOM     34  H   UNL     1      22.366  20.365  21.933  1.00  0.00     0.211 HD
ENDBRANCH  28  33
BRANCH  30  35
ATOM     35  O   UNL     1      21.398  23.446  21.856  1.00  0.00    -0.387 OA
ATOM     36  H   UNL     1      21.451  24.422  22.015  1.00  0.00     0.211 HD
ENDBRANCH  30  35
BRANCH  31  37
ATOM     37  C   UNL     1      19.208  23.304  17.979  1.00  0.00     0.191 C 
BRANCH  37  38
ATOM     38  O   UNL     1      18.463  24.466  18.242  1.00  0.00    -0.394 OA
ATOM     39  H   UNL     1      17.895  24.632  17.444  1.00  0.00     0.210 HD
ENDBRANCH  37  38
ENDBRANCH  31  37
BRANCH  32  40
ATOM     40  O   UNL     1      20.872  25.054  19.667  1.00  0.00    -0.387 OA
ATOM     41  H   UNL     1      21.027  25.240  20.631  1.00  0.00     0.211 HD
ENDBRANCH  32  40
ENDBRANCH   1  27
TORSDOF 12
ENDMDL
MODEL 2
REMARK VINA RESULT:    -4.906      2.532      7.284
REMARK INTER + INTRA:          -8.004
REMARK INTER:                  -7.125
REMARK INTRA:                  -0.879
REMARK UNBOUND:                -0.803
REMARK SMILES O=c1c(O[C@@H]2O[C@H](CO)[C@@H](O)[C@@H](O)[C@H]2O)c(-c2ccc(O)c(O)c2)oc2cc(O)cc(O)c12
REMARK SMILES IDX 4 1 3 2 16 3 25 4 2 5 26 6 1 7 33 8 27 9 31 10 28 11 30 12
REMARK SMILES IDX 17 13 18 14 19 15 20 16 24 17 22 18 21 19 23 21 32 23 29 25
REMARK SMILES IDX 5 27 14 28 6 29 12 30 7 31 10 32 15 33 13 35 8 37 9 38 11 40
REMARK H PARENT 21 20 23 22 32 24 29 26 15 34 13 36 9 39 11 41
REMARK Flexibility Score: inf
ROOT
ATOM      1  O   UNL     1      17.759  17.831  19.593  1.00  0.00    -0.454 OA
ENDROOT
BRANCH   1   2
ATOM      2  C   UNL     1      18.198  19.088  20.025  1.00  0.00     0.214 A 
ATOM      3  C   UNL     1      18.538  19.324  21.367  1.00  0.00     0.180 A 
ATOM      4  O   UNL     1      19.011  20.509  21.737  1.00  0.00    -0.452 OA
ATOM      5  C   UNL     1      18.319  20.130  19.101  1.00  0.00     0.239 A 
ATOM      6  C   UNL     1      19.150  21.527  20.893  1.00  0.00     0.146 A 
ATOM      7  O   UNL     1      17.998  19.926  17.899  1.00  0.00    -0.285 OA
ATOM      8  C   UNL     1      18.805  21.383  19.526  1.00  0.00     0.111 A 
ATOM      9  C   UNL     1      19.616  22.756  21.373  1.00  0.00     0.094 A 
ATOM     10  C   UNL     1      18.955  22.485  18.653  1.00  0.00     0.134 A 
ATOM     11  C   UNL     1      19.727  23.855  20.513  1.00  0.00     0.123 A 
ATOM     12  C   UNL     1      19.410  23.712  19.158  1.00  0.00     0.093 A 
BRANCH   3  13
ATOM     13  C   UNL     1      18.343  18.283  22.391  1.00  0.00     0.025 A 
ATOM     14  C   UNL     1      17.062  17.785  22.657  1.00  0.00     0.016 A 
ATOM     15  C   UNL     1      16.876  16.850  23.680  1.00  0.00     0.051 A 
ATOM     16  C   UNL     1      17.971  16.389  24.426  1.00  0.00     0.157 A 
ATOM     17  C   UNL     1      19.442  17.811  23.127  1.00  0.00     0.062 A 
ATOM     18  C   UNL     1      19.261  16.870  24.142  1.00  0.00     0.158 A 
BRANCH  16  19
ATOM     19  O   UNL     1      17.782  15.453  25.442  1.00  0.00    -0.504 OA
ATOM     20  H   UNL     1      18.215  15.558  26.350  1.00  0.00     0.293 HD
ENDBRANCH  16  19
BRANCH  18  21
ATOM     21  O   UNL     1      20.375  16.415  24.853  1.00  0.00    -0.504 OA
ATOM     22  H   UNL     1      20.546  15.431  25.006  1.00  0.00     0.293 HD
ENDBRANCH  18  21
ENDBRANCH   3  13
BRANCH  10  23
ATOM     23  O   UNL     1      18.639  22.377  17.297  1.00  0.00    -0.507 OA
ATOM     24  H   UNL     1      18.822  23.128  16.642  1.00  0.00     0.293 HD
ENDBRANCH  10  23
BRANCH  11  25
ATOM     25  O   UNL     1      20.147  25.095  20.990  1.00  0.00    -0.508 OA
ATOM     26  H   UNL     1      21.128  25.354  21.021  1.00  0.00     0.293 HD
ENDBRANCH  11  25
ENDBRANCH   1   2
BRANCH   1  27
ATOM     27  C   UNL     1      18.654  16.881  19.022  1.00  0.00     0.339 C 
ATOM     28  C   UNL     1      18.777  17.151  17.512  1.00  0.00     0.214 C 
ATOM     29  O   UNL     1      19.917  17.020  19.646  1.00  0.00    -0.332 OA
ATOM     30  C   UNL     1      19.782  16.167  16.891  1.00  0.00     0.180 C 
ATOM     31  C   UNL     1      20.814  16.015  19.205  1.00  0.00     0.179 C 
ATOM     32  C   UNL     1      21.104  16.183  17.694  1.00  0.00     0.177 C 
BRANCH  28  33
ATOM     33  O   UNL     1      17.534  17.004  16.875  1.00  0.00    -0.384 OA
ATOM     34  H   UNL     1      16.909  16.623  17.548  1.00  0.00     0.211 HD
ENDBRANCH  28  33
BRANCH  30  35
ATOM     35  O   UNL     1      19.226  14.875  16.875  1.00  0.00    -0.387 OA
ATOM     36  H   UNL     1      19.764  14.329  16.247  1.00  0.00     0.211 HD
ENDBRANCH  30  35
BRANCH  31  37
ATOM     37  C   UNL     1      22.113  16.142  20.023  1.00  0.00     0.191 C 
BRANCH  37  38
ATOM     38  O   UNL     1      23.120  16.762  19.266  1.00  0.00    -0.394 OA
ATOM     39  H   UNL     1      23.918  16.836  19.852  1.00  0.00     0.210 HD
ENDBRANCH  37  38
ENDBRANCH  31  37
BRANCH  32  40
ATOM     40  O   UNL     1      21.953  15.154  17.251  1.00  0.00    -0.387 OA
ATOM     41  H   UNL     1      22.634  15.577  16.663  1.00  0.00     0.211 HD
ENDBRANCH  32  40
ENDBRANCH   1  27
TORSDOF 12
ENDMDL
MODEL 3
REMARK VINA RESULT:    -4.798      1.939      7.084
REMARK INTER + INTRA:          -7.845
REMARK INTER:                  -6.318
REMARK INTRA:                  -1.528
REMARK UNBOUND:                -0.803
REMARK SMILES O=c1c(O[C@@H]2O[C@H](CO)[C@@H](O)[C@@H](O)[C@H]2O)c(-c2ccc(O)c(O)c2)oc2cc(O)cc(O)c12
REMARK SMILES IDX 4 1 3 2 16 3 25 4 2 5 26 6 1 7 33 8 27 9 31 10 28 11 30 12
REMARK SMILES IDX 17 13 18 14 19 15 20 16 24 17 22 18 21 19 23 21 32 23 29 25
REMARK SMILES IDX 5 27 14 28 6 29 12 30 7 31 10 32 15 33 13 35 8 37 9 38 11 40
REMARK H PARENT 21 20 23 22 32 24 29 26 15 34 13 36 9 39 11 41
REMARK Flexibility Score: inf
ROOT
ATOM      1  O   UNL     1      21.717  18.630  21.412  1.00  0.00    -0.454 OA
ENDROOT
BRANCH   1   2
ATOM      2  C   UNL     1      20.974  19.748  21.018  1.00  0.00     0.214 A 
ATOM      3  C   UNL     1      19.569  19.734  21.023  1.00  0.00     0.180 A 
ATOM      4  O   UNL     1      18.890  20.830  20.703  1.00  0.00    -0.452 OA
ATOM      5  C   UNL     1      21.639  20.913  20.625  1.00  0.00     0.239 A 
ATOM      6  C   UNL     1      19.479  21.962  20.330  1.00  0.00     0.146 A 
ATOM      7  O   UNL     1      22.900  20.923  20.603  1.00  0.00    -0.285 OA
ATOM      8  C   UNL     1      20.893  22.055  20.271  1.00  0.00     0.111 A 
ATOM      9  C   UNL     1      18.688  23.058  19.967  1.00  0.00     0.094 A 
ATOM     10  C   UNL     1      21.491  23.269  19.864  1.00  0.00     0.134 A 
ATOM     11  C   UNL     1      19.285  24.246  19.528  1.00  0.00     0.123 A 
ATOM     12  C   UNL     1      20.680  24.351  19.490  1.00  0.00     0.093 A 
BRANCH   3  13
ATOM     13  C   UNL     1      18.827  18.503  21.343  1.00  0.00     0.025 A 
ATOM     14  C   UNL     1      18.297  18.311  22.625  1.00  0.00     0.016 A 
ATOM     15  C   UNL     1      17.657  17.109  22.942  1.00  0.00     0.051 A 
ATOM     16  C   UNL     1      17.520  16.102  21.974  1.00  0.00     0.157 A 
ATOM     17  C   UNL     1      18.677  17.503  20.370  1.00  0.00     0.062 A 
ATOM     18  C   UNL     1      18.029  16.305  20.679  1.00  0.00     0.158 A 
BRANCH  16  19
ATOM     19  O   UNL     1      16.877  14.907  22.293  1.00  0.00    -0.504 OA
ATOM     20  H   UNL     1      16.277  14.431  21.631  1.00  0.00     0.293 HD
ENDBRANCH  16  19
BRANCH  18  21
ATOM     21  O   UNL     1      17.890  15.331  19.687  1.00  0.00    -0.504 OA
ATOM     22  H   UNL     1      17.951  14.344  19.895  1.00  0.00     0.293 HD
ENDBRANCH  18  21
ENDBRANCH   3  13
BRANCH  10  23
ATOM     23  O   UNL     1      22.880  23.403  19.807  1.00  0.00    -0.507 OA
ATOM     24  H   UNL     1      23.357  23.684  18.959  1.00  0.00     0.293 HD
ENDBRANCH  10  23
BRANCH  11  25
ATOM     25  O   UNL     1      18.507  25.328  19.122  1.00  0.00    -0.508 OA
ATOM     26  H   UNL     1      18.576  26.236  19.569  1.00  0.00     0.293 HD
ENDBRANCH  11  25
ENDBRANCH   1   2
BRANCH   1  27
ATOM     27  C   UNL     1      22.531  17.909  20.491  1.00  0.00     0.339 C 
ATOM     28  C   UNL     1      23.854  17.529  21.181  1.00  0.00     0.214 C 
ATOM     29  O   UNL     1      21.836  16.742  20.094  1.00  0.00    -0.332 OA
ATOM     30  C   UNL     1      24.721  16.703  20.216  1.00  0.00     0.180 C 
ATOM     31  C   UNL     1      22.547  16.048  19.082  1.00  0.00     0.179 C 
ATOM     32  C   UNL     1      23.897  15.532  19.634  1.00  0.00     0.177 C 
BRANCH  28  33
ATOM     33  O   UNL     1      24.562  18.677  21.569  1.00  0.00    -0.384 OA
ATOM     34  H   UNL     1      24.454  19.344  20.839  1.00  0.00     0.211 HD
ENDBRANCH  28  33
BRANCH  30  35
ATOM     35  O   UNL     1      25.198  17.534  19.186  1.00  0.00    -0.387 OA
ATOM     36  H   UNL     1      24.417  18.007  18.802  1.00  0.00     0.211 HD
ENDBRANCH  30  35
BRANCH  31  37
ATOM     37  C   UNL     1      21.672  14.875  18.602  1.00  0.00     0.191 C 
BRANCH  37  38
ATOM     38  O   UNL     1      20.448  15.340  18.095  1.00  0.00    -0.394 OA
ATOM     39  H   UNL     1      20.591  15.544  17.134  1.00  0.00     0.210 HD
ENDBRANCH  37  38
ENDBRANCH  31  37
BRANCH  32  40
ATOM     40  O   UNL     1      24.618  14.890  18.613  1.00  0.00    -0.387 OA
ATOM     41  H   UNL     1      25.493  14.623  19.004  1.00  0.00     0.211 HD
ENDBRANCH  32  40
ENDBRANCH   1  27
TORSDOF 12
ENDMDL
MODEL 4
REMARK VINA RESULT:    -4.692      1.756      6.282
REMARK INTER + INTRA:          -7.689
REMARK INTER:                  -7.774
REMARK INTRA:                   0.086
REMARK UNBOUND:                -0.803
REMARK SMILES O=c1c(O[C@@H]2O[C@H](CO)[C@@H](O)[C@@H](O)[C@H]2O)c(-c2ccc(O)c(O)c2)oc2cc(O)cc(O)c12
REMARK SMILES IDX 4 1 3 2 16 3 25 4 2 5 26 6 1 7 33 8 27 9 31 10 28 11 30 12
REMARK SMILES IDX 17 13 18 14 19 15 20 16 24 17 22 18 21 19 23 21 32 23 29 25
REMARK SMILES IDX 5 27 14 28 6 29 12 30 7 31 10 32 15 33 13 35 8 37 9 38 11 40
REMARK H PARENT 21 20 23 22 32 24 29 26 15 34 13 36 9 39 11 41
REMARK Flexibility Score: inf
ROOT
ATOM      1  O   UNL     1      20.343  17.769  20.907  1.00  0.00    -0.454 OA
ENDROOT
BRANCH   1   2
ATOM      2  C   UNL     1      20.503  19.159  20.898  1.00  0.00     0.214 A 
ATOM      3  C   UNL     1      21.757  19.751  20.679  1.00  0.00     0.180 A 
ATOM      4  O   UNL     1      21.868  21.073  20.614  1.00  0.00    -0.452 OA
ATOM      5  C   UNL     1      19.390  19.981  21.096  1.00  0.00     0.239 A 
ATOM      6  C   UNL     1      20.837  21.895  20.788  1.00  0.00     0.146 A 
ATOM      7  O   UNL     1      18.265  19.452  21.310  1.00  0.00    -0.285 OA
ATOM      8  C   UNL     1      19.540  21.381  21.041  1.00  0.00     0.111 A 
ATOM      9  C   UNL     1      21.049  23.278  20.747  1.00  0.00     0.094 A 
ATOM     10  C   UNL     1      18.465  22.278  21.230  1.00  0.00     0.134 A 
ATOM     11  C   UNL     1      19.987  24.162  20.973  1.00  0.00     0.123 A 
ATOM     12  C   UNL     1      18.701  23.660  21.200  1.00  0.00     0.093 A 
BRANCH   3  13
ATOM     13  C   UNL     1      22.971  18.927  20.555  1.00  0.00     0.025 A 
ATOM     14  C   UNL     1      24.237  19.512  20.665  1.00  0.00     0.016 A 
ATOM     15  C   UNL     1      25.384  18.736  20.474  1.00  0.00     0.051 A 
ATOM     16  C   UNL     1      25.273  17.364  20.197  1.00  0.00     0.157 A 
ATOM     17  C   UNL     1      22.859  17.552  20.293  1.00  0.00     0.062 A 
ATOM     18  C   UNL     1      24.002  16.770  20.112  1.00  0.00     0.158 A 
BRANCH  16  19
ATOM     19  O   UNL     1      26.420  16.592  20.012  1.00  0.00    -0.504 OA
ATOM     20  H   UNL     1      27.048  16.750  19.235  1.00  0.00     0.293 HD
ENDBRANCH  16  19
BRANCH  18  21
ATOM     21  O   UNL     1      23.858  15.404  19.859  1.00  0.00    -0.504 OA
ATOM     22  H   UNL     1      23.767  15.041  18.920  1.00  0.00     0.293 HD
ENDBRANCH  18  21
ENDBRANCH   3  13
BRANCH  10  23
ATOM     23  O   UNL     1      17.171  21.810  21.468  1.00  0.00    -0.507 OA
ATOM     24  H   UNL     1      16.351  22.329  21.178  1.00  0.00     0.293 HD
ENDBRANCH  10  23
BRANCH  11  25
ATOM     25  O   UNL     1      20.195  25.539  20.979  1.00  0.00    -0.508 OA
ATOM     26  H   UNL     1      19.749  26.152  20.304  1.00  0.00     0.293 HD
ENDBRANCH  11  25
ENDBRANCH   1   2
BRANCH   1  27
ATOM     27  C   UNL     1      19.527  17.115  21.875  1.00  0.00     0.339 C 
ATOM     28  C   UNL     1      19.713  15.593  21.744  1.00  0.00     0.214 C 
ATOM     29  O   UNL     1      19.925  17.545  23.164  1.00  0.00    -0.332 OA
ATOM     30  C   UNL     1      18.880  14.875  22.820  1.00  0.00     0.180 C 
ATOM     31  C   UNL     1      19.065  17.022  24.162  1.00  0.00     0.179 C 
ATOM     32  C   UNL     1      19.179  15.479  24.211  1.00  0.00     0.177 C 
BRANCH  28  33
ATOM     33  O   UNL     1      19.309  15.148  20.475  1.00  0.00    -0.384 OA
ATOM     34  H   UNL     1      18.394  15.505  20.322  1.00  0.00     0.211 HD
ENDBRANCH  28  33
BRANCH  30  35
ATOM     35  O   UNL     1      17.513  14.994  22.510  1.00  0.00    -0.387 OA
ATOM     36  H   UNL     1      17.189  14.093  22.255  1.00  0.00     0.211 HD
ENDBRANCH  30  35
BRANCH  31  37
ATOM     37  C   UNL     1      19.470  17.639  25.513  1.00  0.00     0.191 C 
BRANCH  37  38
ATOM     38  O   UNL     1      20.336  16.782  26.213  1.00  0.00    -0.394 OA
ATOM     39  H   UNL     1      19.971  15.863  26.121  1.00  0.00     0.210 HD
ENDBRANCH  37  38
ENDBRANCH  31  37
BRANCH  32  40
ATOM     40  O   UNL     1      18.287  14.963  25.166  1.00  0.00    -0.387 OA
ATOM     41  H   UNL     1      17.699  14.317  24.692  1.00  0.00     0.211 HD
ENDBRANCH  32  40
ENDBRANCH   1  27
TORSDOF 12
ENDMDL
MODEL 5
REMARK VINA RESULT:    -4.573      1.748      6.025
REMARK INTER + INTRA:          -7.514
REMARK INTER:                  -6.563
REMARK INTRA:                  -0.951
REMARK UNBOUND:                -0.803
REMARK SMILES O=c1c(O[C@@H]2O[C@H](CO)[C@@H](O)[C@@H](O)[C@H]2O)c(-c2ccc(O)c(O)c2)oc2cc(O)cc(O)c12
REMARK SMILES IDX 4 1 3 2 16 3 25 4 2 5 26 6 1 7 33 8 27 9 31 10 28 11 30 12
REMARK SMILES IDX 17 13 18 14 19 15 20 16 24 17 22 18 21 19 23 21 32 23 29 25
REMARK SMILES IDX 5 27 14 28 6 29 12 30 7 31 10 32 15 33 13 35 8 37 9 38 11 40
REMARK H PARENT 21 20 23 22 32 24 29 26 15 34 13 36 9 39 11 41
REMARK Flexibility Score: inf
ROOT
ATOM      1  O   UNL     1      21.192  19.063  21.741  1.00  0.00    -0.454 OA
ENDROOT
BRANCH   1   2
ATOM      2  C   UNL     1      22.071  18.161  21.132  1.00  0.00     0.214 A 
ATOM      3  C   UNL     1      21.737  16.806  20.973  1.00  0.00     0.180 A 
ATOM      4  O   UNL     1      22.565  15.986  20.336  1.00  0.00    -0.452 OA
ATOM      5  C   UNL     1      23.304  18.616  20.656  1.00  0.00     0.239 A 
ATOM      6  C   UNL     1      23.745  16.374  19.860  1.00  0.00     0.146 A 
ATOM      7  O   UNL     1      23.614  19.829  20.813  1.00  0.00    -0.285 OA
ATOM      8  C   UNL     1      24.172  17.719  20.002  1.00  0.00     0.111 A 
ATOM      9  C   UNL     1      24.576  15.435  19.240  1.00  0.00     0.094 A 
ATOM     10  C   UNL     1      25.434  18.101  19.493  1.00  0.00     0.134 A 
ATOM     11  C   UNL     1      25.841  15.812  18.772  1.00  0.00     0.123 A 
ATOM     12  C   UNL     1      26.258  17.142  18.888  1.00  0.00     0.093 A 
BRANCH   3  13
ATOM     13  C   UNL     1      20.490  16.264  21.537  1.00  0.00     0.025 A 
ATOM     14  C   UNL     1      19.412  15.953  20.700  1.00  0.00     0.016 A 
ATOM     15  C   UNL     1      18.207  15.508  21.250  1.00  0.00     0.051 A 
ATOM     16  C   UNL     1      18.079  15.345  22.638  1.00  0.00     0.157 A 
ATOM     17  C   UNL     1      20.368  16.087  22.925  1.00  0.00     0.062 A 
ATOM     18  C   UNL     1      19.170  15.632  23.478  1.00  0.00     0.158 A 
BRANCH  16  19
ATOM     19  O   UNL     1      16.876  14.896  23.183  1.00  0.00    -0.504 OA
ATOM     20  H   UNL     1      16.274  15.506  23.720  1.00  0.00     0.293 HD
ENDBRANCH  16  19
BRANCH  18  21
ATOM     21  O   UNL     1      19.081  15.461  24.861  1.00  0.00    -0.504 OA
ATOM     22  H   UNL     1      19.215  14.559  25.298  1.00  0.00     0.293 HD
ENDBRANCH  18  21
ENDBRANCH   3  13
BRANCH  10  23
ATOM     23  O   UNL     1      25.883  19.419  19.602  1.00  0.00    -0.507 OA
ATOM     24  H   UNL     1      25.244  20.196  19.720  1.00  0.00     0.293 HD
ENDBRANCH  10  23
BRANCH  11  25
ATOM     25  O   UNL     1      26.695  14.875  18.193  1.00  0.00    -0.508 OA
ATOM     26  H   UNL     1      27.671  14.800  18.462  1.00  0.00     0.293 HD
ENDBRANCH  11  25
ENDBRANCH   1   2
BRANCH   1  27
ATOM     27  C   UNL     1      20.392  19.961  20.975  1.00  0.00     0.339 C 
ATOM     28  C   UNL     1      19.044  20.166  21.688  1.00  0.00     0.214 C 
ATOM     29  O   UNL     1      21.079  21.195  20.869  1.00  0.00    -0.332 OA
ATOM     30  C   UNL     1      18.191  21.176  20.902  1.00  0.00     0.180 C 
ATOM     31  C   UNL     1      20.387  22.088  20.013  1.00  0.00     0.179 C 
ATOM     32  C   UNL     1      19.013  22.456  20.621  1.00  0.00     0.177 C 
BRANCH  28  33
ATOM     33  O   UNL     1      18.344  18.952  21.789  1.00  0.00    -0.384 OA
ATOM     34  H   UNL     1      17.588  19.001  21.145  1.00  0.00     0.211 HD
ENDBRANCH  28  33
BRANCH  30  35
ATOM     35  O   UNL     1      17.760  20.590  19.698  1.00  0.00    -0.387 OA
ATOM     36  H   UNL     1      18.520  20.623  19.064  1.00  0.00     0.211 HD
ENDBRANCH  30  35
BRANCH  31  37
ATOM     37  C   UNL     1      21.255  23.348  19.835  1.00  0.00     0.191 C 
BRANCH  37  38
ATOM     38  O   UNL     1      22.617  23.010  19.777  1.00  0.00    -0.394 OA
ATOM     39  H   UNL     1      22.689  22.050  20.020  1.00  0.00     0.210 HD
ENDBRANCH  37  38
ENDBRANCH  31  37
BRANCH  32  40
ATOM     40  O   UNL     1      18.311  23.301  19.745  1.00  0.00    -0.387 OA
ATOM     41  H   UNL     1      18.256  24.191  20.185  1.00  0.00     0.211 HD
ENDBRANCH  32  40
ENDBRANCH   1  27
TORSDOF 12
ENDMDL
MODEL 6
REMARK VINA RESULT:    -4.541      1.895      5.925
REMARK INTER + INTRA:          -7.467
REMARK INTER:                  -6.857
REMARK INTRA:                  -0.611
REMARK UNBOUND:                -0.803
REMARK SMILES O=c1c(O[C@@H]2O[C@H](CO)[C@@H](O)[C@@H](O)[C@H]2O)c(-c2ccc(O)c(O)c2)oc2cc(O)cc(O)c12
REMARK SMILES IDX 4 1 3 2 16 3 25 4 2 5 26 6 1 7 33 8 27 9 31 10 28 11 30 12
REMARK SMILES IDX 17 13 18 14 19 15 20 16 24 17 22 18 21 19 23 21 32 23 29 25
REMARK SMILES IDX 5 27 14 28 6 29 12 30 7 31 10 32 15 33 13 35 8 37 9 38 11 40
REMARK H PARENT 21 20 23 22 32 24 29 26 15 34 13 36 9 39 11 41
REMARK Flexibility Score: inf
ROOT
ATOM      1  O   UNL     1      22.120  18.689  22.075  1.00  0.00    -0.454 OA
ENDROOT
BRANCH   1   2
ATOM      2  C   UNL     1      22.755  17.885  21.122  1.00  0.00     0.214 A 
ATOM      3  C   UNL     1      22.091  16.809  20.511  1.00  0.00     0.180 A 
ATOM      4  O   UNL     1      22.698  16.102  19.565  1.00  0.00    -0.452 OA
ATOM      5  C   UNL     1      24.074  18.166  20.754  1.00  0.00     0.239 A 
ATOM      6  C   UNL     1      23.948  16.335  19.176  1.00  0.00     0.146 A 
ATOM      7  O   UNL     1      24.679  19.121  21.313  1.00  0.00    -0.285 OA
ATOM      8  C   UNL     1      24.700  17.386  19.761  1.00  0.00     0.111 A 
ATOM      9  C   UNL     1      24.528  15.515  18.202  1.00  0.00     0.094 A 
ATOM     10  C   UNL     1      26.030  17.606  19.334  1.00  0.00     0.134 A 
ATOM     11  C   UNL     1      25.858  15.714  17.811  1.00  0.00     0.123 A 
ATOM     12  C   UNL     1      26.597  16.764  18.368  1.00  0.00     0.093 A 
BRANCH   3  13
ATOM     13  C   UNL     1      20.734  16.422  20.931  1.00  0.00     0.025 A 
ATOM     14  C   UNL     1      20.506  15.934  22.223  1.00  0.00     0.016 A 
ATOM     15  C   UNL     1      19.228  15.501  22.590  1.00  0.00     0.051 A 
ATOM     16  C   UNL     1      18.165  15.576  21.676  1.00  0.00     0.157 A 
ATOM     17  C   UNL     1      19.668  16.511  20.021  1.00  0.00     0.062 A 
ATOM     18  C   UNL     1      18.388  16.089  20.387  1.00  0.00     0.158 A 
BRANCH  16  19
ATOM     19  O   UNL     1      16.891  15.147  22.047  1.00  0.00    -0.504 OA
ATOM     20  H   UNL     1      16.229  14.795  21.368  1.00  0.00     0.293 HD
ENDBRANCH  16  19
BRANCH  18  21
ATOM     21  O   UNL     1      17.347  16.196  19.461  1.00  0.00    -0.504 OA
ATOM     22  H   UNL     1      17.432  16.755  18.623  1.00  0.00     0.293 HD
ENDBRANCH  18  21
ENDBRANCH   3  13
BRANCH  10  23
ATOM     23  O   UNL     1      26.797  18.640  19.876  1.00  0.00    -0.507 OA
ATOM     24  H   UNL     1      26.487  19.173  20.680  1.00  0.00     0.293 HD
ENDBRANCH  10  23
BRANCH  11  25
ATOM     25  O   UNL     1      26.458  14.875  16.875  1.00  0.00    -0.508 OA
ATOM     26  H   UNL     1      26.568  15.147  15.903  1.00  0.00     0.293 HD
ENDBRANCH  11  25
ENDBRANCH   1   2
BRANCH   1  27
ATOM     27  C   UNL     1      21.381  19.850  21.704  1.00  0.00     0.339 C 
ATOM     28  C   UNL     1      22.362  20.951  21.265  1.00  0.00     0.214 C 
ATOM     29  O   UNL     1      20.519  19.511  20.633  1.00  0.00    -0.332 OA
ATOM     30  C   UNL     1      21.576  22.192  20.808  1.00  0.00     0.180 C 
ATOM     31  C   UNL     1      19.668  20.595  20.304  1.00  0.00     0.179 C 
ATOM     32  C   UNL     1      20.502  21.787  19.773  1.00  0.00     0.177 C 
BRANCH  28  33
ATOM     33  O   UNL     1      23.216  21.309  22.320  1.00  0.00    -0.384 OA
ATOM     34  H   UNL     1      23.717  22.115  22.025  1.00  0.00     0.211 HD
ENDBRANCH  28  33
BRANCH  30  35
ATOM     35  O   UNL     1      20.983  22.808  21.925  1.00  0.00    -0.387 OA
ATOM     36  H   UNL     1      20.882  23.770  21.713  1.00  0.00     0.211 HD
ENDBRANCH  30  35
BRANCH  31  37
ATOM     37  C   UNL     1      18.671  20.113  19.235  1.00  0.00     0.191 C 
BRANCH  37  38
ATOM     38  O   UNL     1      18.920  20.738  18.002  1.00  0.00    -0.394 OA
ATOM     39  H   UNL     1      18.125  20.577  17.429  1.00  0.00     0.210 HD
ENDBRANCH  37  38
ENDBRANCH  31  37
BRANCH  32  40
ATOM     40  O   UNL     1      19.659  22.876  19.496  1.00  0.00    -0.387 OA
ATOM     41  H   UNL     1      20.229  23.586  19.096  1.00  0.00     0.211 HD
ENDBRANCH  32  40
ENDBRANCH   1  27
TORSDOF 12
ENDMDL
MODEL 7
REMARK VINA RESULT:    -4.506      1.446      7.251
REMARK INTER + INTRA:          -7.417
REMARK INTER:                  -8.113
REMARK INTRA:                   0.696
REMARK UNBOUND:                -0.803
REMARK SMILES O=c1c(O[C@@H]2O[C@H](CO)[C@@H](O)[C@@H](O)[C@H]2O)c(-c2ccc(O)c(O)c2)oc2cc(O)cc(O)c12
REMARK SMILES IDX 4 1 3 2 16 3 25 4 2 5 26 6 1 7 33 8 27 9 31 10 28 11 30 12
REMARK SMILES IDX 17 13 18 14 19 15 20 16 24 17 22 18 21 19 23 21 32 23 29 25
REMARK SMILES IDX 5 27 14 28 6 29 12 30 7 31 10 32 15 33 13 35 8 37 9 38 11 40
REMARK H PARENT 21 20 23 22 32 24 29 26 15 34 13 36 9 39 11 41
REMARK Flexibility Score: inf
ROOT
ATOM      1  O   UNL     1      21.861  18.362  22.187  1.00  0.00    -0.454 OA
ENDROOT
BRANCH   1   2
ATOM      2  C   UNL     1      21.088  19.332  21.540  1.00  0.00     0.214 A 
ATOM      3  C   UNL     1      19.686  19.251  21.509  1.00  0.00     0.180 A 
ATOM      4  O   UNL     1      18.975  20.219  20.941  1.00  0.00    -0.452 OA
ATOM      5  C   UNL     1      21.719  20.415  20.921  1.00  0.00     0.239 A 
ATOM      6  C   UNL     1      19.530  21.272  20.347  1.00  0.00     0.146 A 
ATOM      7  O   UNL     1      22.979  20.481  20.932  1.00  0.00    -0.285 OA
ATOM      8  C   UNL     1      20.940  21.417  20.309  1.00  0.00     0.111 A 
ATOM      9  C   UNL     1      18.709  22.224  19.734  1.00  0.00     0.094 A 
ATOM     10  C   UNL     1      21.502  22.542  19.664  1.00  0.00     0.134 A 
ATOM     11  C   UNL     1      19.272  23.317  19.064  1.00  0.00     0.123 A 
ATOM     12  C   UNL     1      20.662  23.478  19.043  1.00  0.00     0.093 A 
BRANCH   3  13
ATOM     13  C   UNL     1      18.984  18.084  22.069  1.00  0.00     0.025 A 
ATOM     14  C   UNL     1      17.907  17.511  21.382  1.00  0.00     0.016 A 
ATOM     15  C   UNL     1      17.200  16.449  21.954  1.00  0.00     0.051 A 
ATOM     16  C   UNL     1      17.580  15.937  23.204  1.00  0.00     0.157 A 
ATOM     17  C   UNL     1      19.374  17.563  23.313  1.00  0.00     0.062 A 
ATOM     18  C   UNL     1      18.677  16.496  23.883  1.00  0.00     0.158 A 
BRANCH  16  19
ATOM     19  O   UNL     1      16.875  14.875  23.770  1.00  0.00    -0.504 OA
ATOM     20  H   UNL     1      16.145  15.025  24.453  1.00  0.00     0.293 HD
ENDBRANCH  16  19
BRANCH  18  21
ATOM     21  O   UNL     1      19.094  15.996  25.119  1.00  0.00    -0.504 OA
ATOM     22  H   UNL     1      19.489  15.070  25.216  1.00  0.00     0.293 HD
ENDBRANCH  18  21
ENDBRANCH   3  13
BRANCH  10  23
ATOM     23  O   UNL     1      22.885  22.727  19.617  1.00  0.00    -0.507 OA
ATOM     24  H   UNL     1      23.307  23.644  19.704  1.00  0.00     0.293 HD
ENDBRANCH  10  23
BRANCH  11  25
ATOM     25  O   UNL     1      18.466  24.247  18.413  1.00  0.00    -0.508 OA
ATOM     26  H   UNL     1      17.458  24.263  18.535  1.00  0.00     0.293 HD
ENDBRANCH  11  25
ENDBRANCH   1   2
BRANCH   1  27
ATOM     27  C   UNL     1      22.740  17.501  21.467  1.00  0.00     0.339 C 
ATOM     28  C   UNL     1      22.015  16.978  20.214  1.00  0.00     0.214 C 
ATOM     29  O   UNL     1      23.887  18.241  21.092  1.00  0.00    -0.332 OA
ATOM     30  C   UNL     1      22.970  16.091  19.397  1.00  0.00     0.180 C 
ATOM     31  C   UNL     1      24.853  17.404  20.480  1.00  0.00     0.179 C 
ATOM     32  C   UNL     1      24.303  16.835  19.150  1.00  0.00     0.177 C 
BRANCH  28  33
ATOM     33  O   UNL     1      20.881  16.229  20.569  1.00  0.00    -0.384 OA
ATOM     34  H   UNL     1      20.716  15.587  19.828  1.00  0.00     0.211 HD
ENDBRANCH  28  33
BRANCH  30  35
ATOM     35  O   UNL     1      23.195  14.885  20.086  1.00  0.00    -0.387 OA
ATOM     36  H   UNL     1      22.451  14.271  19.858  1.00  0.00     0.211 HD
ENDBRANCH  30  35
BRANCH  31  37
ATOM     37  C   UNL     1      26.120  18.242  20.227  1.00  0.00     0.191 C 
BRANCH  37  38
ATOM     38  O   UNL     1      27.273  17.445  20.326  1.00  0.00    -0.394 OA
ATOM     39  H   UNL     1      28.000  18.027  20.669  1.00  0.00     0.210 HD
ENDBRANCH  37  38
ENDBRANCH  31  37
BRANCH  32  40
ATOM     40  O   UNL     1      25.244  15.966  18.574  1.00  0.00    -0.387 OA
ATOM     41  H   UNL     1      24.808  15.552  17.782  1.00  0.00     0.211 HD
ENDBRANCH  32  40
ENDBRANCH   1  27
TORSDOF 12
ENDMDL
MODEL 8
REMARK VINA RESULT:    -3.332      1.836      7.510
REMARK INTER + INTRA:          -5.693
REMARK INTER:                  -6.233
REMARK INTRA:                   0.540
REMARK UNBOUND:                -0.803
REMARK SMILES O=c1c(O[C@@H]2O[C@H](CO)[C@@H](O)[C@@H](O)[C@H]2O)c(-c2ccc(O)c(O)c2)oc2cc(O)cc(O)c12
REMARK SMILES IDX 4 1 3 2 16 3 25 4 2 5 26 6 1 7 33 8 27 9 31 10 28 11 30 12
REMARK SMILES IDX 17 13 18 14 19 15 20 16 24 17 22 18 21 19 23 21 32 23 29 25
REMARK SMILES IDX 5 27 14 28 6 29 12 30 7 31 10 32 15 33 13 35 8 37 9 38 11 40
REMARK H PARENT 21 20 23 22 32 24 29 26 15 34 13 36 9 39 11 41
REMARK Flexibility Score: inf
ROOT
ATOM      1  O   UNL     1      19.523  18.122  20.754  1.00  0.00    -0.454 OA
ENDROOT
BRANCH   1   2
ATOM      2  C   UNL     1      20.907  18.316  20.675  1.00  0.00     0.214 A 
ATOM      3  C   UNL     1      21.482  19.581  20.874  1.00  0.00     0.180 A 
ATOM      4  O   UNL     1      22.802  19.724  20.854  1.00  0.00    -0.452 OA
ATOM      5  C   UNL     1      21.740  17.226  20.408  1.00  0.00     0.239 A 
ATOM      6  C   UNL     1      23.636  18.716  20.612  1.00  0.00     0.146 A 
ATOM      7  O   UNL     1      21.225  16.091  20.211  1.00  0.00    -0.285 OA
ATOM      8  C   UNL     1      23.137  17.410  20.373  1.00  0.00     0.111 A 
ATOM      9  C   UNL     1      25.013  18.961  20.566  1.00  0.00     0.094 A 
ATOM     10  C   UNL     1      24.045  16.360  20.110  1.00  0.00     0.134 A 
ATOM     11  C   UNL     1      25.905  17.924  20.267  1.00  0.00     0.123 A 
ATOM     12  C   UNL     1      25.420  16.629  20.054  1.00  0.00     0.093 A 
BRANCH   3  13
ATOM     13  C   UNL     1      20.639  20.772  21.070  1.00  0.00     0.025 A 
ATOM     14  C   UNL     1      19.257  20.702  20.859  1.00  0.00     0.016 A 
ATOM     15  C   UNL     1      18.474  21.855  20.976  1.00  0.00     0.051 A 
ATOM     16  C   UNL     1      19.063  23.079  21.330  1.00  0.00     0.157 A 
ATOM     17  C   UNL     1      21.228  21.993  21.437  1.00  0.00     0.062 A 
ATOM     18  C   UNL     1      20.447  23.144  21.566  1.00  0.00     0.158 A 
BRANCH  16  19
ATOM     19  O   UNL     1      18.278  24.225  21.450  1.00  0.00    -0.504 OA
ATOM     20  H   UNL     1      17.327  24.186  21.793  1.00  0.00     0.293 HD
ENDBRANCH  16  19
BRANCH  18  21
ATOM     21  O   UNL     1      21.061  24.343  21.939  1.00  0.00    -0.504 OA
ATOM     22  H   UNL     1      20.801  24.837  22.781  1.00  0.00     0.293 HD
ENDBRANCH  18  21
ENDBRANCH   3  13
BRANCH  10  23
ATOM     23  O   UNL     1      23.593  15.058  19.884  1.00  0.00    -0.507 OA
ATOM     24  H   UNL     1      24.232  14.290  19.714  1.00  0.00     0.293 HD
ENDBRANCH  10  23
BRANCH  11  25
ATOM     25  O   UNL     1      27.274  18.166  20.175  1.00  0.00    -0.508 OA
ATOM     26  H   UNL     1      27.787  18.633  20.916  1.00  0.00     0.293 HD
ENDBRANCH  11  25
ENDBRANCH   1   2
BRANCH   1  27
ATOM     27  C   UNL     1      18.927  17.415  21.839  1.00  0.00     0.339 C 
ATOM     28  C   UNL     1      19.050  15.903  21.582  1.00  0.00     0.214 C 
ATOM     29  O   UNL     1      19.607  17.764  23.031  1.00  0.00    -0.332 OA
ATOM     30  C   UNL     1      18.459  15.127  22.771  1.00  0.00     0.180 C 
ATOM     31  C   UNL     1      18.977  17.186  24.161  1.00  0.00     0.179 C 
ATOM     32  C   UNL     1      19.069  15.643  24.095  1.00  0.00     0.177 C 
BRANCH  28  33
ATOM     33  O   UNL     1      18.369  15.539  20.409  1.00  0.00    -0.384 OA
ATOM     34  H   UNL     1      17.398  15.652  20.593  1.00  0.00     0.211 HD
ENDBRANCH  28  33
BRANCH  30  35
ATOM     35  O   UNL     1      17.060  15.272  22.778  1.00  0.00    -0.387 OA
ATOM     36  H   UNL     1      16.827  15.840  23.556  1.00  0.00     0.211 HD
ENDBRANCH  30  35
BRANCH  31  37
ATOM     37  C   UNL     1      19.681  17.717  25.424  1.00  0.00     0.191 C 
BRANCH  37  38
ATOM     38  O   UNL     1      20.397  16.692  26.063  1.00  0.00    -0.394 OA
ATOM     39  H   UNL     1      21.242  17.094  26.396  1.00  0.00     0.210 HD
ENDBRANCH  37  38
ENDBRANCH  31  37
BRANCH  32  40
ATOM     40  O   UNL     1      18.398  15.075  25.192  1.00  0.00    -0.387 OA
ATOM     41  H   UNL     1      17.481  14.847  24.882  1.00  0.00     0.211 HD
ENDBRANCH  32  40
ENDBRANCH   1  27
TORSDOF 12
ENDMDL
MODEL 9
REMARK VINA RESULT:    -3.325      1.434      6.185
REMARK INTER + INTRA:          -5.683
REMARK INTER:                  -5.669
REMARK INTRA:                  -0.015
REMARK UNBOUND:                -0.803
REMARK SMILES O=c1c(O[C@@H]2O[C@H](CO)[C@@H](O)[C@@H](O)[C@H]2O)c(-c2ccc(O)c(O)c2)oc2cc(O)cc(O)c12
REMARK SMILES IDX 4 1 3 2 16 3 25 4 2 5 26 6 1 7 33 8 27 9 31 10 28 11 30 12
REMARK SMILES IDX 17 13 18 14 19 15 20 16 24 17 22 18 21 19 23 21 32 23 29 25
REMARK SMILES IDX 5 27 14 28 6 29 12 30 7 31 10 32 15 33 13 35 8 37 9 38 11 40
REMARK H PARENT 21 20 23 22 32 24 29 26 15 34 13 36 9 39 11 41
REMARK Flexibility Score: inf
ROOT
ATOM      1  O   UNL     1      22.488  18.557  20.339  1.00  0.00    -0.454 OA
ENDROOT
BRANCH   1   2
ATOM      2  C   UNL     1      21.386  18.296  21.161  1.00  0.00     0.214 A 
ATOM      3  C   UNL     1      20.255  19.129  21.157  1.00  0.00     0.180 A 
ATOM      4  O   UNL     1      19.199  18.823  21.902  1.00  0.00    -0.452 OA
ATOM      5  C   UNL     1      21.399  17.174  21.995  1.00  0.00     0.239 A 
ATOM      6  C   UNL     1      19.162  17.763  22.705  1.00  0.00     0.146 A 
ATOM      7  O   UNL     1      22.420  16.434  22.013  1.00  0.00    -0.285 OA
ATOM      8  C   UNL     1      20.272  16.885  22.789  1.00  0.00     0.111 A 
ATOM      9  C   UNL     1      18.026  17.536  23.489  1.00  0.00     0.094 A 
ATOM     10  C   UNL     1      20.208  15.771  23.657  1.00  0.00     0.134 A 
ATOM     11  C   UNL     1      17.983  16.453  24.375  1.00  0.00     0.123 A 
ATOM     12  C   UNL     1      19.066  15.570  24.446  1.00  0.00     0.093 A 
BRANCH   3  13
ATOM     13  C   UNL     1      20.232  20.369  20.363  1.00  0.00     0.025 A 
ATOM     14  C   UNL     1      19.182  20.617  19.471  1.00  0.00     0.016 A 
ATOM     15  C   UNL     1      19.205  21.761  18.668  1.00  0.00     0.051 A 
ATOM     16  C   UNL     1      20.264  22.677  18.769  1.00  0.00     0.157 A 
ATOM     17  C   UNL     1      21.285  21.291  20.475  1.00  0.00     0.062 A 
ATOM     18  C   UNL     1      21.306  22.441  19.682  1.00  0.00     0.158 A 
BRANCH  16  19
ATOM     19  O   UNL     1      20.281  23.819  17.969  1.00  0.00    -0.504 OA
ATOM     20  H   UNL     1      19.724  24.634  18.192  1.00  0.00     0.293 HD
ENDBRANCH  16  19
BRANCH  18  21
ATOM     21  O   UNL     1      22.363  23.343  19.822  1.00  0.00    -0.504 OA
ATOM     22  H   UNL     1      23.180  23.128  20.377  1.00  0.00     0.293 HD
ENDBRANCH  18  21
ENDBRANCH   3  13
BRANCH  10  23
ATOM     23  O   UNL     1      21.275  14.875  23.758  1.00  0.00    -0.507 OA
ATOM     24  H   UNL     1      21.171  13.890  23.547  1.00  0.00     0.293 HD
ENDBRANCH  10  23
BRANCH  11  25
ATOM     25  O   UNL     1      16.875  16.244  25.192  1.00  0.00    -0.508 OA
ATOM     26  H   UNL     1      16.923  16.356  26.200  1.00  0.00     0.293 HD
ENDBRANCH  11  25
ENDBRANCH   1   2
BRANCH   1  27
ATOM     27  C   UNL     1      23.562  17.629  20.210  1.00  0.00     0.339 C 
ATOM     28  C   UNL     1      23.481  16.954  18.830  1.00  0.00     0.214 C 
ATOM     29  O   UNL     1      24.783  18.335  20.336  1.00  0.00    -0.332 OA
ATOM     30  C   UNL     1      24.667  15.990  18.655  1.00  0.00     0.180 C 
ATOM     31  C   UNL     1      25.886  17.445  20.341  1.00  0.00     0.179 C 
ATOM     32  C   UNL     1      25.992  16.718  18.979  1.00  0.00     0.177 C 
BRANCH  28  33
ATOM     33  O   UNL     1      22.281  16.238  18.694  1.00  0.00    -0.384 OA
ATOM     34  H   UNL     1      21.615  16.863  18.301  1.00  0.00     0.211 HD
ENDBRANCH  28  33
BRANCH  30  35
ATOM     35  O   UNL     1      24.493  14.876  19.496  1.00  0.00    -0.387 OA
ATOM     36  H   UNL     1      25.131  14.973  20.249  1.00  0.00     0.211 HD
ENDBRANCH  30  35
BRANCH  31  37
ATOM     37  C   UNL     1      27.160  18.263  20.619  1.00  0.00     0.191 C 
BRANCH  37  38
ATOM     38  O   UNL     1      28.161  17.453  21.179  1.00  0.00    -0.394 OA
ATOM     39  H   UNL     1      28.712  18.036  21.765  1.00  0.00     0.210 HD
ENDBRANCH  37  38
ENDBRANCH  31  37
BRANCH  32  40
ATOM     40  O   UNL     1      27.055  15.799  19.007  1.00  0.00    -0.387 OA
ATOM     41  H   UNL     1      26.659  14.896  18.883  1.00  0.00     0.211 HD
ENDBRANCH  32  40
ENDBRANCH   1  27
TORSDOF 12
ENDMDL
