MODEL 1
REMARK VINA RESULT:    -3.940      0.000      0.000
REMARK INTER + INTRA:         -10.146
REMARK INTER:                  -7.625
REMARK INTRA:                  -2.521
REMARK UNBOUND:                -2.521
REMARK SMILES CCCCCCCCCCCCCCCCCC(=O)[O-]
REMARK SMILES IDX 10 1 11 2 12 3 13 4 14 5 15 6 16 7 17 8 18 9 19 10 20 11
REMARK SMILES IDX 9 12 8 13 7 14 6 15 5 16 4 17 3 18 2 19 1 20
REMARK H PARENT
REMARK Flexibility Score: inf
ROOT
ATOM      1  C   UNL     1       2.257  15.129  10.895  1.00  0.00     0.000 C 
ENDROOT
BRANCH   1   2
ATOM      2  C   UNL     1       2.660  14.590  12.277  1.00  0.00     0.000 C 
BRANCH   2   3
ATOM      3  C   UNL     1       4.111  14.940  12.646  1.00  0.00     0.000 C 
BRANCH   3   4
ATOM      4  C   UNL     1       5.122  13.895  12.146  1.00  0.00     0.000 C 
BRANCH   4   5
ATOM      5  C   UNL     1       5.046  12.552  12.903  1.00  0.00     0.000 C 
BRANCH   5   6
ATOM      6  C   UNL     1       6.433  12.038  13.316  1.00  0.00     0.000 C 
BRANCH   6   7
ATOM      7  C   UNL     1       7.356  11.904  12.096  1.00  0.00     0.006 C 
BRANCH   7   8
ATOM      8  C   UNL     1       6.855  10.849  11.101  1.00  0.00     0.053 C 
BRANCH   8   9
ATOM      9  C   UNL     1       7.973  10.282  10.281  1.00  0.00     0.041 C 
ATOM     10  O   UNL     1       8.690   9.355  10.742  1.00  0.00    -0.550 OA
ATOM     11  O   UNL     1       8.239  10.794   9.018  1.00  0.00    -0.550 OA
ENDBRANCH   8   9
ENDBRANCH   7   8
ENDBRANCH   6   7
ENDBRANCH   5   6
ENDBRANCH   4   5
ENDBRANCH   3   4
ENDBRANCH   2   3
ENDBRANCH   1   2
BRANCH   1  12
ATOM     12  C   UNL     1       1.729  14.023   9.964  1.00  0.00     0.000 C 
BRANCH  12  13
ATOM     13  C   UNL     1       2.569  13.874   8.685  1.00  0.00    -0.000 C 
BRANCH  13  14
ATOM     14  C   UNL     1       3.929  13.203   8.948  1.00  0.00    -0.000 C 
BRANCH  14  15
ATOM     15  C   UNL     1       4.115  11.910   8.139  1.00  0.00    -0.000 C 
BRANCH  15  16
ATOM     16  C   UNL     1       3.261  10.744   8.670  1.00  0.00    -0.000 C 
BRANCH  16  17
ATOM     17  C   UNL     1       3.305  10.646  10.209  1.00  0.00    -0.000 C 
BRANCH  17  18
ATOM     18  C   UNL     1       1.948  10.293  10.842  1.00  0.00    -0.000 C 
BRANCH  18  19
ATOM     19  C   UNL     1       1.851  10.706  12.316  1.00  0.00    -0.003 C 
ATOM     20  C   UNL     1       0.560  11.473  12.589  1.00  0.00     0.004 C 
ENDBRANCH  18  19
ENDBRANCH  17  18
ENDBRANCH  16  17
ENDBRANCH  15  16
ENDBRANCH  14  15
ENDBRANCH  13  14
ENDBRANCH  12  13
ENDBRANCH   1  12
TORSDOF 16
ENDMDL
MODEL 2
REMARK VINA RESULT:    -3.932      2.518      5.397
REMARK INTER + INTRA:         -10.131
REMARK INTER:                  -8.152
REMARK INTRA:                  -1.979
REMARK UNBOUND:                -2.521
REMARK SMILES CCCCCCCCCCCCCCCCCC(=O)[O-]
REMARK SMILES IDX 10 1 11 2 12 3 13 4 14 5 15 6 16 7 17 8 18 9 19 10 20 11
REMARK SMILES IDX 9 12 8 13 7 14 6 15 5 16 4 17 3 18 2 19 1 20
REMARK H PARENT
REMARK Flexibility Score: inf
ROOT
ATOM      1  C   UNL     1       2.399  14.143  11.195  1.00  0.00     0.000 C 
ENDROOT
BRANCH   1   2
ATOM      2  C   UNL     1       1.866  14.940   9.995  1.00  0.00     0.000 C 
BRANCH   2   3
ATOM      3  C   UNL     1       1.449  14.034   8.824  1.00  0.00     0.000 C 
BRANCH   3   4
ATOM      4  C   UNL     1       2.550  13.889   7.760  1.00  0.00     0.000 C 
BRANCH   4   5
ATOM      5  C   UNL     1       3.621  12.838   8.122  1.00  0.00     0.000 C 
BRANCH   5   6
ATOM      6  C   UNL     1       3.039  11.418   8.196  1.00  0.00     0.000 C 
BRANCH   6   7
ATOM      7  C   UNL     1       3.439  10.728   9.508  1.00  0.00     0.006 C 
BRANCH   7   8
ATOM      8  C   UNL     1       2.325   9.824  10.053  1.00  0.00     0.053 C 
BRANCH   8   9
ATOM      9  C   UNL     1       1.705  10.391  11.293  1.00  0.00     0.041 C 
ATOM     10  O   UNL     1       2.330  10.356  12.386  1.00  0.00    -0.550 OA
ATOM     11  O   UNL     1       0.429  10.936  11.247  1.00  0.00    -0.550 OA
ENDBRANCH   8   9
ENDBRANCH   7   8
ENDBRANCH   6   7
ENDBRANCH   5   6
ENDBRANCH   4   5
ENDBRANCH   3   4
ENDBRANCH   2   3
ENDBRANCH   1   2
BRANCH   1  12
ATOM     12  C   UNL     1       3.244  15.008  12.146  1.00  0.00     0.000 C 
BRANCH  12  13
ATOM     13  C   UNL     1       4.515  14.289  12.629  1.00  0.00    -0.000 C 
BRANCH  13  14
ATOM     14  C   UNL     1       5.161  13.432  11.526  1.00  0.00    -0.000 C 
BRANCH  14  15
ATOM     15  C   UNL     1       5.635  12.065  12.043  1.00  0.00    -0.000 C 
BRANCH  15  16
ATOM     16  C   UNL     1       7.157  12.006  12.272  1.00  0.00    -0.000 C 
BRANCH  16  17
ATOM     17  C   UNL     1       7.948  12.507  11.045  1.00  0.00    -0.000 C 
BRANCH  17  18
ATOM     18  C   UNL     1       8.499  11.373  10.164  1.00  0.00    -0.000 C 
BRANCH  18  19
ATOM     19  C   UNL     1       8.611  10.037  10.911  1.00  0.00    -0.003 C 
ATOM     20  C   UNL     1       7.883   8.925  10.163  1.00  0.00     0.004 C 
ENDBRANCH  18  19
ENDBRANCH  17  18
ENDBRANCH  16  17
ENDBRANCH  15  16
ENDBRANCH  14  15
ENDBRANCH  13  14
ENDBRANCH  12  13
ENDBRANCH   1  12
TORSDOF 16
ENDMDL
MODEL 3
REMARK VINA RESULT:    -3.896      1.508      2.634
REMARK INTER + INTRA:         -10.061
REMARK INTER:                  -7.345
REMARK INTRA:                  -2.715
REMARK UNBOUND:                -2.521
REMARK SMILES CCCCCCCCCCCCCCCCCC(=O)[O-]
REMARK SMILES IDX 10 1 11 2 12 3 13 4 14 5 15 6 16 7 17 8 18 9 19 10 20 11
REMARK SMILES IDX 9 12 8 13 7 14 6 15 5 16 4 17 3 18 2 19 1 20
REMARK H PARENT
REMARK Flexibility Score: inf
ROOT
ATOM      1  C   UNL     1       4.355  14.897  12.346  1.00  0.00     0.000 C 
ENDROOT
BRANCH   1   2
ATOM      2  C   UNL     1       4.057  14.424  13.777  1.00  0.00     0.000 C 
BRANCH   2   3
ATOM      3  C   UNL     1       4.245  12.908  13.948  1.00  0.00     0.000 C 
BRANCH   3   4
ATOM      4  C   UNL     1       5.724  12.499  14.058  1.00  0.00     0.000 C 
BRANCH   4   5
ATOM      5  C   UNL     1       6.251  11.756  12.812  1.00  0.00     0.000 C 
BRANCH   5   6
ATOM      6  C   UNL     1       7.514  12.414  12.234  1.00  0.00     0.000 C 
BRANCH   6   7
ATOM      7  C   UNL     1       7.798  11.906  10.813  1.00  0.00     0.006 C 
BRANCH   7   8
ATOM      8  C   UNL     1       7.326  10.460  10.606  1.00  0.00     0.053 C 
BRANCH   8   9
ATOM      9  C   UNL     1       7.097  10.152   9.159  1.00  0.00     0.041 C 
ATOM     10  O   UNL     1       7.919  10.545   8.289  1.00  0.00    -0.550 OA
ATOM     11  O   UNL     1       5.964   9.452   8.767  1.00  0.00    -0.550 OA
ENDBRANCH   8   9
ENDBRANCH   7   8
ENDBRANCH   6   7
ENDBRANCH   5   6
ENDBRANCH   4   5
ENDBRANCH   3   4
ENDBRANCH   2   3
ENDBRANCH   1   2
BRANCH   1  12
ATOM     12  C   UNL     1       3.614  14.064  11.285  1.00  0.00     0.000 C 
BRANCH  12  13
ATOM     13  C   UNL     1       4.550  13.537  10.185  1.00  0.00    -0.000 C 
BRANCH  13  14
ATOM     14  C   UNL     1       4.031  12.238   9.544  1.00  0.00    -0.000 C 
BRANCH  14  15
ATOM     15  C   UNL     1       3.319  11.324  10.554  1.00  0.00    -0.000 C 
BRANCH  15  16
ATOM     16  C   UNL     1       1.981  10.776  10.023  1.00  0.00    -0.000 C 
BRANCH  16  17
ATOM     17  C   UNL     1       0.829  11.787  10.197  1.00  0.00    -0.000 C 
BRANCH  17  18
ATOM     18  C   UNL     1       0.647  12.725   8.992  1.00  0.00    -0.000 C 
BRANCH  18  19
ATOM     19  C   UNL     1       0.151  14.122   9.392  1.00  0.00    -0.003 C 
ATOM     20  C   UNL     1       1.151  15.199   8.984  1.00  0.00     0.004 C 
ENDBRANCH  18  19
ENDBRANCH  17  18
ENDBRANCH  16  17
ENDBRANCH  15  16
ENDBRANCH  14  15
ENDBRANCH  13  14
ENDBRANCH  12  13
ENDBRANCH   1  12
TORSDOF 16
ENDMDL
MODEL 4
REMARK VINA RESULT:    -3.894      1.549      2.823
REMARK INTER + INTRA:         -10.057
REMARK INTER:                  -7.286
REMARK INTRA:                  -2.771
REMARK UNBOUND:                -2.521
REMARK SMILES CCCCCCCCCCCCCCCCCC(=O)[O-]
REMARK SMILES IDX 10 1 11 2 12 3 13 4 14 5 15 6 16 7 17 8 18 9 19 10 20 11
REMARK SMILES IDX 9 12 8 13 7 14 6 15 5 16 4 17 3 18 2 19 1 20
REMARK H PARENT
REMARK Flexibility Score: inf
ROOT
ATOM      1  C   UNL     1       3.975  14.715  12.673  1.00  0.00     0.000 C 
ENDROOT
BRANCH   1   2
ATOM      2  C   UNL     1       4.631  13.339  12.858  1.00  0.00     0.000 C 
BRANCH   2   3
ATOM      3  C   UNL     1       5.866  13.149  11.962  1.00  0.00     0.000 C 
BRANCH   3   4
ATOM      4  C   UNL     1       6.953  12.281  12.619  1.00  0.00     0.000 C 
BRANCH   4   5
ATOM      5  C   UNL     1       7.714  11.386  11.617  1.00  0.00     0.000 C 
BRANCH   5   6
ATOM      6  C   UNL     1       6.816  10.907  10.466  1.00  0.00     0.000 C 
BRANCH   6   7
ATOM      7  C   UNL     1       7.645  10.606   9.210  1.00  0.00     0.006 C 
BRANCH   7   8
ATOM      8  C   UNL     1       6.788  10.044   8.068  1.00  0.00     0.053 C 
BRANCH   8   9
ATOM      9  C   UNL     1       6.199   8.712   8.418  1.00  0.00     0.041 C 
ATOM     10  O   UNL     1       4.967   8.503   8.259  1.00  0.00    -0.550 OA
ATOM     11  O   UNL     1       7.004   7.711   8.942  1.00  0.00    -0.550 OA
ENDBRANCH   8   9
ENDBRANCH   7   8
ENDBRANCH   6   7
ENDBRANCH   5   6
ENDBRANCH   4   5
ENDBRANCH   3   4
ENDBRANCH   2   3
ENDBRANCH   1   2
BRANCH   1  12
ATOM     12  C   UNL     1       2.505  14.610  12.226  1.00  0.00     0.000 C 
BRANCH  12  13
ATOM     13  C   UNL     1       2.247  15.291  10.872  1.00  0.00    -0.000 C 
BRANCH  13  14
ATOM     14  C   UNL     1       1.492  14.379   9.889  1.00  0.00    -0.000 C 
BRANCH  14  15
ATOM     15  C   UNL     1       2.306  14.074   8.623  1.00  0.00    -0.000 C 
BRANCH  15  16
ATOM     16  C   UNL     1       3.669  13.426   8.930  1.00  0.00    -0.000 C 
BRANCH  16  17
ATOM     17  C   UNL     1       3.757  11.979   8.402  1.00  0.00    -0.000 C 
BRANCH  17  18
ATOM     18  C   UNL     1       2.809  11.004   9.121  1.00  0.00    -0.000 C 
BRANCH  18  19
ATOM     19  C   UNL     1       3.103  10.883  10.622  1.00  0.00    -0.003 C 
ATOM     20  C   UNL     1       1.824  11.005  11.445  1.00  0.00     0.004 C 
ENDBRANCH  18  19
ENDBRANCH  17  18
ENDBRANCH  16  17
ENDBRANCH  15  16
ENDBRANCH  14  15
ENDBRANCH  13  14
ENDBRANCH  12  13
ENDBRANCH   1  12
TORSDOF 16
ENDMDL
MODEL 5
REMARK VINA RESULT:    -3.882      2.756      5.492
REMARK INTER + INTRA:         -10.035
REMARK INTER:                  -7.477
REMARK INTRA:                  -2.559
REMARK UNBOUND:                -2.521
REMARK SMILES CCCCCCCCCCCCCCCCCC(=O)[O-]
REMARK SMILES IDX 10 1 11 2 12 3 13 4 14 5 15 6 16 7 17 8 18 9 19 10 20 11
REMARK SMILES IDX 9 12 8 13 7 14 6 15 5 16 4 17 3 18 2 19 1 20
REMARK H PARENT
REMARK Flexibility Score: inf
ROOT
ATOM      1  C   UNL     1       2.716  14.495  11.945  1.00  0.00     0.000 C 
ENDROOT
BRANCH   1   2
ATOM      2  C   UNL     1       1.969  13.422  12.752  1.00  0.00     0.000 C 
BRANCH   2   3
ATOM      3  C   UNL     1       1.205  12.435  11.855  1.00  0.00     0.000 C 
BRANCH   3   4
ATOM      4  C   UNL     1       1.805  11.019  11.880  1.00  0.00     0.000 C 
BRANCH   4   5
ATOM      5  C   UNL     1       2.770  10.739  10.707  1.00  0.00     0.000 C 
BRANCH   5   6
ATOM      6  C   UNL     1       2.373  11.499   9.433  1.00  0.00     0.000 C 
BRANCH   6   7
ATOM      7  C   UNL     1       3.615  11.947   8.649  1.00  0.00     0.006 C 
BRANCH   7   8
ATOM      8  C   UNL     1       3.634  13.462   8.406  1.00  0.00     0.053 C 
BRANCH   8   9
ATOM      9  C   UNL     1       2.356  13.943   7.790  1.00  0.00     0.041 C 
ATOM     10  O   UNL     1       1.571  14.673   8.450  1.00  0.00    -0.550 OA
ATOM     11  O   UNL     1       2.022  13.566   6.497  1.00  0.00    -0.550 OA
ENDBRANCH   8   9
ENDBRANCH   7   8
ENDBRANCH   6   7
ENDBRANCH   5   6
ENDBRANCH   4   5
ENDBRANCH   3   4
ENDBRANCH   2   3
ENDBRANCH   1   2
BRANCH   1  12
ATOM     12  C   UNL     1       4.119  14.782  12.509  1.00  0.00     0.000 C 
BRANCH  12  13
ATOM     13  C   UNL     1       5.242  14.233  11.613  1.00  0.00    -0.000 C 
BRANCH  13  14
ATOM     14  C   UNL     1       5.509  12.738  11.854  1.00  0.00    -0.000 C 
BRANCH  14  15
ATOM     15  C   UNL     1       6.011  12.450  13.278  1.00  0.00    -0.000 C 
BRANCH  15  16
ATOM     16  C   UNL     1       7.478  11.983  13.311  1.00  0.00    -0.000 C 
BRANCH  16  17
ATOM     17  C   UNL     1       8.126  12.003  11.911  1.00  0.00    -0.000 C 
BRANCH  17  18
ATOM     18  C   UNL     1       8.646  10.629  11.455  1.00  0.00    -0.000 C 
BRANCH  18  19
ATOM     19  C   UNL     1       8.340  10.334   9.980  1.00  0.00    -0.003 C 
ATOM     20  C   UNL     1       6.844  10.139   9.757  1.00  0.00     0.004 C 
ENDBRANCH  18  19
ENDBRANCH  17  18
ENDBRANCH  16  17
ENDBRANCH  15  16
ENDBRANCH  14  15
ENDBRANCH  13  14
ENDBRANCH  12  13
ENDBRANCH   1  12
TORSDOF 16
ENDMDL
MODEL 6
REMARK VINA RESULT:    -3.881      1.460      2.999
REMARK INTER + INTRA:         -10.032
REMARK INTER:                  -7.194
REMARK INTRA:                  -2.838
REMARK UNBOUND:                -2.521
REMARK SMILES CCCCCCCCCCCCCCCCCC(=O)[O-]
REMARK SMILES IDX 10 1 11 2 12 3 13 4 14 5 15 6 16 7 17 8 18 9 19 10 20 11
REMARK SMILES IDX 9 12 8 13 7 14 6 15 5 16 4 17 3 18 2 19 1 20
REMARK H PARENT
REMARK Flexibility Score: inf
ROOT
ATOM      1  C   UNL     1       1.113  12.535  11.866  1.00  0.00     0.000 C 
ENDROOT
BRANCH   1   2
ATOM      2  C   UNL     1       2.386  12.978  12.602  1.00  0.00     0.000 C 
BRANCH   2   3
ATOM      3  C   UNL     1       3.011  14.243  11.991  1.00  0.00     0.000 C 
BRANCH   3   4
ATOM      4  C   UNL     1       4.539  14.145  11.848  1.00  0.00     0.000 C 
BRANCH   4   5
ATOM      5  C   UNL     1       5.202  13.256  12.923  1.00  0.00     0.000 C 
BRANCH   5   6
ATOM      6  C   UNL     1       6.009  12.103  12.307  1.00  0.00     0.000 C 
BRANCH   6   7
ATOM      7  C   UNL     1       7.517  12.344  12.458  1.00  0.00     0.006 C 
BRANCH   7   8
ATOM      8  C   UNL     1       8.236  12.407  11.104  1.00  0.00     0.053 C 
BRANCH   8   9
ATOM      9  C   UNL     1       9.538  11.667  11.130  1.00  0.00     0.041 C 
ATOM     10  O   UNL     1      10.622  12.298  11.241  1.00  0.00    -0.550 OA
ATOM     11  O   UNL     1       9.555  10.284  11.008  1.00  0.00    -0.550 OA
ENDBRANCH   8   9
ENDBRANCH   7   8
ENDBRANCH   6   7
ENDBRANCH   5   6
ENDBRANCH   4   5
ENDBRANCH   3   4
ENDBRANCH   2   3
ENDBRANCH   1   2
BRANCH   1  12
ATOM     12  C   UNL     1       1.340  11.281  11.002  1.00  0.00     0.000 C 
BRANCH  12  13
ATOM     13  C   UNL     1       2.777  10.745  11.103  1.00  0.00    -0.000 C 
BRANCH  13  14
ATOM     14  C   UNL     1       3.489  10.711   9.739  1.00  0.00    -0.000 C 
BRANCH  14  15
ATOM     15  C   UNL     1       2.824  11.629   8.702  1.00  0.00    -0.000 C 
BRANCH  15  16
ATOM     16  C   UNL     1       3.606  12.934   8.471  1.00  0.00    -0.000 C 
BRANCH  16  17
ATOM     17  C   UNL     1       2.676  14.116   8.123  1.00  0.00    -0.000 C 
BRANCH  17  18
ATOM     18  C   UNL     1       1.183  13.802   8.320  1.00  0.00    -0.000 C 
BRANCH  18  19
ATOM     19  C   UNL     1       0.479  14.805   9.244  1.00  0.00    -0.003 C 
ATOM     20  C   UNL     1       1.249  16.120   9.316  1.00  0.00     0.004 C 
ENDBRANCH  18  19
ENDBRANCH  17  18
ENDBRANCH  16  17
ENDBRANCH  15  16
ENDBRANCH  14  15
ENDBRANCH  13  14
ENDBRANCH  12  13
ENDBRANCH   1  12
TORSDOF 16
ENDMDL
MODEL 7
REMARK VINA RESULT:    -3.861      2.930      5.572
REMARK INTER + INTRA:          -9.994
REMARK INTER:                  -7.338
REMARK INTRA:                  -2.655
REMARK UNBOUND:                -2.521
REMARK SMILES CCCCCCCCCCCCCCCCCC(=O)[O-]
REMARK SMILES IDX 10 1 11 2 12 3 13 4 14 5 15 6 16 7 17 8 18 9 19 10 20 11
REMARK SMILES IDX 9 12 8 13 7 14 6 15 5 16 4 17 3 18 2 19 1 20
REMARK H PARENT
REMARK Flexibility Score: inf
ROOT
ATOM      1  C   UNL     1       3.504  12.537  11.137  1.00  0.00     0.000 C 
ENDROOT
BRANCH   1   2
ATOM      2  C   UNL     1       2.278  13.445  11.317  1.00  0.00     0.000 C 
BRANCH   2   3
ATOM      3  C   UNL     1       2.582  14.918  10.996  1.00  0.00     0.000 C 
BRANCH   3   4
ATOM      4  C   UNL     1       1.645  15.501   9.925  1.00  0.00     0.000 C 
BRANCH   4   5
ATOM      5  C   UNL     1       1.132  14.449   8.918  1.00  0.00     0.000 C 
BRANCH   5   6
ATOM      6  C   UNL     1       2.144  14.177   7.795  1.00  0.00     0.000 C 
BRANCH   6   7
ATOM      7  C   UNL     1       2.255  12.674   7.505  1.00  0.00     0.006 C 
BRANCH   7   8
ATOM      8  C   UNL     1       0.881  11.996   7.413  1.00  0.00     0.053 C 
BRANCH   8   9
ATOM      9  C   UNL     1       0.848  10.701   8.164  1.00  0.00     0.041 C 
ATOM     10  O   UNL     1       0.720   9.612   7.544  1.00  0.00    -0.550 OA
ATOM     11  O   UNL     1       0.935  10.697   9.550  1.00  0.00    -0.550 OA
ENDBRANCH   8   9
ENDBRANCH   7   8
ENDBRANCH   6   7
ENDBRANCH   5   6
ENDBRANCH   4   5
ENDBRANCH   3   4
ENDBRANCH   2   3
ENDBRANCH   1   2
BRANCH   1  12
ATOM     12  C   UNL     1       4.708  13.288  10.540  1.00  0.00     0.000 C 
BRANCH  12  13
ATOM     13  C   UNL     1       5.958  13.207  11.431  1.00  0.00    -0.000 C 
BRANCH  13  14
ATOM     14  C   UNL     1       6.141  11.816  12.064  1.00  0.00    -0.000 C 
BRANCH  14  15
ATOM     15  C   UNL     1       7.582  11.297  11.942  1.00  0.00    -0.000 C 
BRANCH  15  16
ATOM     16  C   UNL     1       7.735  10.207  10.865  1.00  0.00    -0.000 C 
BRANCH  16  17
ATOM     17  C   UNL     1       8.067  10.801   9.480  1.00  0.00    -0.000 C 
BRANCH  17  18
ATOM     18  C   UNL     1       7.001  10.505   8.412  1.00  0.00    -0.000 C 
BRANCH  18  19
ATOM     19  C   UNL     1       5.916   9.537   8.904  1.00  0.00    -0.003 C 
ATOM     20  C   UNL     1       4.523  10.039   8.537  1.00  0.00     0.004 C 
ENDBRANCH  18  19
ENDBRANCH  17  18
ENDBRANCH  16  17
ENDBRANCH  15  16
ENDBRANCH  14  15
ENDBRANCH  13  14
ENDBRANCH  12  13
ENDBRANCH   1  12
TORSDOF 16
ENDMDL
MODEL 8
REMARK VINA RESULT:    -3.852      2.173      5.718
REMARK INTER + INTRA:          -9.977
REMARK INTER:                  -7.554
REMARK INTRA:                  -2.423
REMARK UNBOUND:                -2.521
REMARK SMILES CCCCCCCCCCCCCCCCCC(=O)[O-]
REMARK SMILES IDX 10 1 11 2 12 3 13 4 14 5 15 6 16 7 17 8 18 9 19 10 20 11
REMARK SMILES IDX 9 12 8 13 7 14 6 15 5 16 4 17 3 18 2 19 1 20
REMARK H PARENT
REMARK Flexibility Score: inf
ROOT
ATOM      1  C   UNL     1       6.393  12.216  12.900  1.00  0.00     0.000 C 
ENDROOT
BRANCH   1   2
ATOM      2  C   UNL     1       6.519  12.543  11.404  1.00  0.00     0.000 C 
BRANCH   2   3
ATOM      3  C   UNL     1       5.866  13.886  11.037  1.00  0.00     0.000 C 
BRANCH   3   4
ATOM      4  C   UNL     1       4.697  14.255  11.966  1.00  0.00     0.000 C 
BRANCH   4   5
ATOM      5  C   UNL     1       3.325  14.257  11.257  1.00  0.00     0.000 C 
BRANCH   5   6
ATOM      6  C   UNL     1       2.438  13.085  11.703  1.00  0.00     0.000 C 
BRANCH   6   7
ATOM      7  C   UNL     1       2.172  12.122  10.536  1.00  0.00     0.006 C 
BRANCH   7   8
ATOM      8  C   UNL     1       3.318  11.121  10.335  1.00  0.00     0.053 C 
BRANCH   8   9
ATOM      9  C   UNL     1       3.802  11.108   8.918  1.00  0.00     0.041 C 
ATOM     10  O   UNL     1       3.868  10.023   8.281  1.00  0.00    -0.550 OA
ATOM     11  O   UNL     1       4.203  12.289   8.308  1.00  0.00    -0.550 OA
ENDBRANCH   8   9
ENDBRANCH   7   8
ENDBRANCH   6   7
ENDBRANCH   5   6
ENDBRANCH   4   5
ENDBRANCH   3   4
ENDBRANCH   2   3
ENDBRANCH   1   2
BRANCH   1  12
ATOM     12  C   UNL     1       7.759  11.969  13.564  1.00  0.00     0.000 C 
BRANCH  12  13
ATOM     13  C   UNL     1       8.934  12.145  12.588  1.00  0.00    -0.000 C 
BRANCH  13  14
ATOM     14  C   UNL     1      10.169  11.326  12.998  1.00  0.00    -0.000 C 
BRANCH  14  15
ATOM     15  C   UNL     1      10.598  10.321  11.918  1.00  0.00    -0.000 C 
BRANCH  15  16
ATOM     16  C   UNL     1       9.680  10.346  10.681  1.00  0.00    -0.000 C 
BRANCH  16  17
ATOM     17  C   UNL     1       8.834   9.062  10.559  1.00  0.00    -0.000 C 
BRANCH  17  18
ATOM     18  C   UNL     1       7.413   9.311  10.025  1.00  0.00    -0.000 C 
BRANCH  18  19
ATOM     19  C   UNL     1       7.290   9.061   8.515  1.00  0.00    -0.003 C 
ATOM     20  C   UNL     1       7.365  10.369   7.733  1.00  0.00     0.004 C 
ENDBRANCH  18  19
ENDBRANCH  17  18
ENDBRANCH  16  17
ENDBRANCH  15  16
ENDBRANCH  14  15
ENDBRANCH  13  14
ENDBRANCH  12  13
ENDBRANCH   1  12
TORSDOF 16
ENDMDL
MODEL 9
REMARK VINA RESULT:    -3.782      1.557      3.316
REMARK INTER + INTRA:          -9.841
REMARK INTER:                  -7.408
REMARK INTRA:                  -2.433
REMARK UNBOUND:                -2.521
REMARK SMILES CCCCCCCCCCCCCCCCCC(=O)[O-]
REMARK SMILES IDX 10 1 11 2 12 3 13 4 14 5 15 6 16 7 17 8 18 9 19 10 20 11
REMARK SMILES IDX 9 12 8 13 7 14 6 15 5 16 4 17 3 18 2 19 1 20
REMARK H PARENT
REMARK Flexibility Score: inf
ROOT
ATOM      1  C   UNL     1       3.938  13.280  12.047  1.00  0.00     0.000 C 
ENDROOT
BRANCH   1   2
ATOM      2  C   UNL     1       5.433  13.362  12.390  1.00  0.00     0.000 C 
BRANCH   2   3
ATOM      3  C   UNL     1       5.968  12.062  13.012  1.00  0.00     0.000 C 
BRANCH   3   4
ATOM      4  C   UNL     1       7.456  11.823  12.708  1.00  0.00     0.000 C 
BRANCH   4   5
ATOM      5  C   UNL     1       7.891  12.336  11.319  1.00  0.00     0.000 C 
BRANCH   5   6
ATOM      6  C   UNL     1       7.656  11.294  10.214  1.00  0.00     0.000 C 
BRANCH   6   7
ATOM      7  C   UNL     1       8.299   9.949  10.582  1.00  0.00     0.006 C 
BRANCH   7   8
ATOM      8  C   UNL     1       7.521   8.757  10.007  1.00  0.00     0.053 C 
BRANCH   8   9
ATOM      9  C   UNL     1       7.365   8.858   8.521  1.00  0.00     0.041 C 
ATOM     10  O   UNL     1       6.218   8.851   8.002  1.00  0.00    -0.550 OA
ATOM     11  O   UNL     1       8.487   8.937   7.707  1.00  0.00    -0.550 OA
ENDBRANCH   8   9
ENDBRANCH   7   8
ENDBRANCH   6   7
ENDBRANCH   5   6
ENDBRANCH   4   5
ENDBRANCH   3   4
ENDBRANCH   2   3
ENDBRANCH   1   2
BRANCH   1  12
ATOM     12  C   UNL     1       3.400  11.840  12.103  1.00  0.00     0.000 C 
BRANCH  12  13
ATOM     13  C   UNL     1       2.908  11.337  10.736  1.00  0.00    -0.000 C 
BRANCH  13  14
ATOM     14  C   UNL     1       4.066  11.015   9.775  1.00  0.00    -0.000 C 
BRANCH  14  15
ATOM     15  C   UNL     1       3.891  11.675   8.398  1.00  0.00    -0.000 C 
BRANCH  15  16
ATOM     16  C   UNL     1       3.868  13.213   8.471  1.00  0.00    -0.000 C 
BRANCH  16  17
ATOM     17  C   UNL     1       2.716  13.817   7.642  1.00  0.00    -0.000 C 
BRANCH  17  18
ATOM     18  C   UNL     1       1.320  13.464   8.180  1.00  0.00    -0.000 C 
BRANCH  18  19
ATOM     19  C   UNL     1       0.946  14.260   9.438  1.00  0.00    -0.003 C 
ATOM     20  C   UNL     1       1.204  15.750   9.243  1.00  0.00     0.004 C 
ENDBRANCH  18  19
ENDBRANCH  17  18
ENDBRANCH  16  17
ENDBRANCH  15  16
ENDBRANCH  14  15
ENDBRANCH  13  14
ENDBRANCH  12  13
ENDBRANCH   1  12
TORSDOF 16
ENDMDL
