MODEL 1
REMARK VINA RESULT:    -4.622      0.000      0.000
REMARK INTER + INTRA:          -5.147
REMARK INTER:                  -5.568
REMARK INTRA:                   0.420
REMARK UNBOUND:                 0.420
REMARK SMILES O=c1c(O)c(-c2ccc(O)c(O)c2)oc2cc(O)cc(O)c12
REMARK SMILES IDX 5 1 3 2 2 3 1 4 22 5 20 6 19 7 17 8 16 9 15 10 14 11 6 12
REMARK SMILES IDX 7 13 8 14 9 15 13 16 11 17 10 18 12 20 4 22 21 24 18 26
REMARK H PARENT 10 19 12 21 4 23 21 25 18 27
REMARK Flexibility Score: inf
ROOT
ATOM      1  C   UNL     1       0.127   2.814  23.840  1.00  0.00     0.180 A 
ATOM      2  C   UNL     1       0.153   2.876  25.244  1.00  0.00     0.208 A 
ATOM      3  C   UNL     1       0.436   4.102  25.866  1.00  0.00     0.238 A 
ATOM      4  O   UNL     1       0.404   4.164  27.123  1.00  0.00    -0.285 OA
ATOM      5  C   UNL     1       0.706   5.247  25.077  1.00  0.00     0.111 A 
ATOM      6  C   UNL     1       1.044   6.531  25.601  1.00  0.00     0.134 A 
ATOM      7  C   UNL     1       1.162   7.622  24.732  1.00  0.00     0.093 A 
ATOM      8  C   UNL     1       1.019   7.462  23.351  1.00  0.00     0.123 A 
ATOM      9  C   UNL     1       0.747   6.201  22.826  1.00  0.00     0.094 A 
ATOM     10  C   UNL     1       0.588   5.100  23.671  1.00  0.00     0.146 A 
ATOM     11  O   UNL     1       0.319   3.918  23.129  1.00  0.00    -0.452 OA
ENDROOT
BRANCH   1  12
ATOM     12  C   UNL     1      -0.140   1.552  23.112  1.00  0.00     0.025 A 
ATOM     13  C   UNL     1      -0.846   0.523  23.750  1.00  0.00     0.016 A 
ATOM     14  C   UNL     1      -1.125  -0.667  23.075  1.00  0.00     0.051 A 
ATOM     15  C   UNL     1      -0.721  -0.847  21.749  1.00  0.00     0.157 A 
ATOM     16  C   UNL     1       0.249   1.384  21.772  1.00  0.00     0.062 A 
ATOM     17  C   UNL     1      -0.031   0.195  21.085  1.00  0.00     0.158 A 
BRANCH  15  18
ATOM     18  O   UNL     1      -1.025  -2.063  21.133  1.00  0.00    -0.504 OA
ATOM     19  H   UNL     1      -1.760  -2.182  20.451  1.00  0.00     0.293 HD
ENDBRANCH  15  18
BRANCH  17  20
ATOM     20  O   UNL     1       0.387   0.096  19.757  1.00  0.00    -0.504 OA
ATOM     21  H   UNL     1       0.120  -0.654  19.136  1.00  0.00     0.293 HD
ENDBRANCH  17  20
ENDBRANCH   1  12
BRANCH   2  22
ATOM     22  O   UNL     1      -0.138   1.739  26.003  1.00  0.00    -0.502 OA
ATOM     23  H   UNL     1       0.210   1.611  26.946  1.00  0.00     0.293 HD
ENDBRANCH   2  22
BRANCH   6  24
ATOM     24  O   UNL     1       1.300   6.779  26.953  1.00  0.00    -0.507 OA
ATOM     25  H   UNL     1       1.893   7.518  27.299  1.00  0.00     0.293 HD
ENDBRANCH   6  24
BRANCH   8  26
ATOM     26  O   UNL     1       1.154   8.551  22.492  1.00  0.00    -0.508 OA
ATOM     27  H   UNL     1       0.856   8.502  21.524  1.00  0.00     0.293 HD
ENDBRANCH   8  26
TORSDOF 6
ENDMDL
MODEL 2
REMARK VINA RESULT:    -4.035      1.946      7.283
REMARK INTER + INTRA:          -4.440
REMARK INTER:                  -4.150
REMARK INTRA:                  -0.290
REMARK UNBOUND:                 0.420
REMARK SMILES O=c1c(O)c(-c2ccc(O)c(O)c2)oc2cc(O)cc(O)c12
REMARK SMILES IDX 5 1 3 2 2 3 1 4 22 5 20 6 19 7 17 8 16 9 15 10 14 11 6 12
REMARK SMILES IDX 7 13 8 14 9 15 13 16 11 17 10 18 12 20 4 22 21 24 18 26
REMARK H PARENT 10 19 12 21 4 23 21 25 18 27
REMARK Flexibility Score: inf
ROOT
ATOM      1  C   UNL     1      -0.321   2.919  23.312  1.00  0.00     0.180 A 
ATOM      2  C   UNL     1      -0.527   3.159  21.943  1.00  0.00     0.208 A 
ATOM      3  C   UNL     1      -0.774   2.072  21.090  1.00  0.00     0.238 A 
ATOM      4  O   UNL     1      -1.011   2.298  19.875  1.00  0.00    -0.285 OA
ATOM      5  C   UNL     1      -0.794   0.756  21.614  1.00  0.00     0.111 A 
ATOM      6  C   UNL     1      -0.994  -0.423  20.835  1.00  0.00     0.134 A 
ATOM      7  C   UNL     1      -1.125  -1.660  21.477  1.00  0.00     0.093 A 
ATOM      8  C   UNL     1      -0.998  -1.769  22.864  1.00  0.00     0.123 A 
ATOM      9  C   UNL     1      -0.744  -0.632  23.627  1.00  0.00     0.094 A 
ATOM     10  C   UNL     1      -0.644   0.622  23.018  1.00  0.00     0.146 A 
ATOM     11  O   UNL     1      -0.412   1.681  23.784  1.00  0.00    -0.452 OA
ENDROOT
BRANCH   1  12
ATOM     12  C   UNL     1      -0.032   4.012  24.269  1.00  0.00     0.025 A 
ATOM     13  C   UNL     1      -1.087   4.786  24.773  1.00  0.00     0.016 A 
ATOM     14  C   UNL     1      -0.838   5.808  25.690  1.00  0.00     0.051 A 
ATOM     15  C   UNL     1       0.462   6.066  26.136  1.00  0.00     0.157 A 
ATOM     16  C   UNL     1       1.272   4.254  24.731  1.00  0.00     0.062 A 
ATOM     17  C   UNL     1       1.532   5.275  25.656  1.00  0.00     0.158 A 
BRANCH  15  18
ATOM     18  O   UNL     1       0.644   7.108  27.050  1.00  0.00    -0.504 OA
ATOM     19  H   UNL     1       1.500   7.636  27.140  1.00  0.00     0.293 HD
ENDBRANCH  15  18
BRANCH  17  20
ATOM     20  O   UNL     1       2.852   5.460  26.068  1.00  0.00    -0.504 OA
ATOM     21  H   UNL     1       3.252   5.031  26.891  1.00  0.00     0.293 HD
ENDBRANCH  17  20
ENDBRANCH   1  12
BRANCH   2  22
ATOM     22  O   UNL     1      -0.525   4.467  21.451  1.00  0.00    -0.502 OA
ATOM     23  H   UNL     1      -0.119   5.241  21.964  1.00  0.00     0.293 HD
ENDBRANCH   2  22
BRANCH   6  24
ATOM     24  O   UNL     1      -1.042  -0.437  19.438  1.00  0.00    -0.507 OA
ATOM     25  H   UNL     1      -1.446   0.292  18.869  1.00  0.00     0.293 HD
ENDBRANCH   6  24
BRANCH   8  26
ATOM     26  O   UNL     1      -1.114  -3.007  23.494  1.00  0.00    -0.508 OA
ATOM     27  H   UNL     1      -0.877  -3.868  23.016  1.00  0.00     0.293 HD
ENDBRANCH   8  26
TORSDOF 6
ENDMDL
MODEL 3
REMARK VINA RESULT:    -3.883      5.980      8.463
REMARK INTER + INTRA:          -4.257
REMARK INTER:                  -4.721
REMARK INTRA:                   0.464
REMARK UNBOUND:                 0.420
REMARK SMILES O=c1c(O)c(-c2ccc(O)c(O)c2)oc2cc(O)cc(O)c12
REMARK SMILES IDX 5 1 3 2 2 3 1 4 22 5 20 6 19 7 17 8 16 9 15 10 14 11 6 12
REMARK SMILES IDX 7 13 8 14 9 15 13 16 11 17 10 18 12 20 4 22 21 24 18 26
REMARK H PARENT 10 19 12 21 4 23 21 25 18 27
REMARK Flexibility Score: inf
ROOT
ATOM      1  C   UNL     1      -0.823   2.988  17.102  1.00  0.00     0.180 A 
ATOM      2  C   UNL     1      -0.650   2.203  15.949  1.00  0.00     0.208 A 
ATOM      3  C   UNL     1      -0.629   2.830  14.693  1.00  0.00     0.238 A 
ATOM      4  O   UNL     1      -0.420   2.128  13.670  1.00  0.00    -0.285 OA
ATOM      5  C   UNL     1      -0.800   4.234  14.604  1.00  0.00     0.111 A 
ATOM      6  C   UNL     1      -0.836   4.969  13.382  1.00  0.00     0.134 A 
ATOM      7  C   UNL     1      -0.879   6.368  13.420  1.00  0.00     0.093 A 
ATOM      8  C   UNL     1      -0.951   7.055  14.635  1.00  0.00     0.123 A 
ATOM      9  C   UNL     1      -0.976   6.342  15.831  1.00  0.00     0.094 A 
ATOM     10  C   UNL     1      -0.899   4.947  15.827  1.00  0.00     0.146 A 
ATOM     11  O   UNL     1      -0.914   4.308  16.990  1.00  0.00    -0.452 OA
ENDROOT
BRANCH   1  12
ATOM     12  C   UNL     1      -0.879   2.396  18.457  1.00  0.00     0.025 A 
ATOM     13  C   UNL     1      -1.043   3.232  19.570  1.00  0.00     0.016 A 
ATOM     14  C   UNL     1      -1.118   2.692  20.855  1.00  0.00     0.051 A 
ATOM     15  C   UNL     1      -1.049   1.310  21.054  1.00  0.00     0.157 A 
ATOM     16  C   UNL     1      -0.832   1.005  18.651  1.00  0.00     0.062 A 
ATOM     17  C   UNL     1      -0.911   0.453  19.937  1.00  0.00     0.158 A 
BRANCH  15  18
ATOM     18  O   UNL     1      -1.124   0.834  22.366  1.00  0.00    -0.504 OA
ATOM     19  H   UNL     1      -0.493   0.149  22.754  1.00  0.00     0.293 HD
ENDBRANCH  15  18
BRANCH  17  20
ATOM     20  O   UNL     1      -0.855  -0.937  20.054  1.00  0.00    -0.504 OA
ATOM     21  H   UNL     1      -0.766  -1.426  20.933  1.00  0.00     0.293 HD
ENDBRANCH  17  20
ENDBRANCH   1  12
BRANCH   2  22
ATOM     22  O   UNL     1      -0.462   0.822  16.061  1.00  0.00    -0.502 OA
ATOM     23  H   UNL     1      -0.404   0.214  15.253  1.00  0.00     0.293 HD
ENDBRANCH   2  22
BRANCH   6  24
ATOM     24  O   UNL     1      -0.862   4.378  12.116  1.00  0.00    -0.507 OA
ATOM     25  H   UNL     1      -0.427   3.498  11.883  1.00  0.00     0.293 HD
ENDBRANCH   6  24
BRANCH   8  26
ATOM     26  O   UNL     1      -1.009   8.447  14.662  1.00  0.00    -0.508 OA
ATOM     27  H   UNL     1      -1.597   8.965  14.020  1.00  0.00     0.293 HD
ENDBRANCH   8  26
TORSDOF 6
ENDMDL
MODEL 4
REMARK VINA RESULT:    -3.544      6.337      9.001
REMARK INTER + INTRA:          -3.849
REMARK INTER:                  -4.322
REMARK INTRA:                   0.474
REMARK UNBOUND:                 0.420
REMARK SMILES O=c1c(O)c(-c2ccc(O)c(O)c2)oc2cc(O)cc(O)c12
REMARK SMILES IDX 5 1 3 2 2 3 1 4 22 5 20 6 19 7 17 8 16 9 15 10 14 11 6 12
REMARK SMILES IDX 7 13 8 14 9 15 13 16 11 17 10 18 12 20 4 22 21 24 18 26
REMARK H PARENT 10 19 12 21 4 23 21 25 18 27
REMARK Flexibility Score: inf
ROOT
ATOM      1  C   UNL     1      -1.041   3.138  16.986  1.00  0.00     0.180 A 
ATOM      2  C   UNL     1      -1.025   4.543  16.950  1.00  0.00     0.208 A 
ATOM      3  C   UNL     1      -0.980   5.194  15.707  1.00  0.00     0.238 A 
ATOM      4  O   UNL     1      -1.021   6.451  15.681  1.00  0.00    -0.285 OA
ATOM      5  C   UNL     1      -0.933   4.431  14.515  1.00  0.00     0.111 A 
ATOM      6  C   UNL     1      -0.845   4.985  13.202  1.00  0.00     0.134 A 
ATOM      7  C   UNL     1      -0.937   4.140  12.090  1.00  0.00     0.093 A 
ATOM      8  C   UNL     1      -1.049   2.756  12.243  1.00  0.00     0.123 A 
ATOM      9  C   UNL     1      -1.077   2.201  13.520  1.00  0.00     0.094 A 
ATOM     10  C   UNL     1      -1.023   3.021  14.650  1.00  0.00     0.146 A 
ATOM     11  O   UNL     1      -1.063   2.452  15.849  1.00  0.00    -0.452 OA
ENDROOT
BRANCH   1  12
ATOM     12  C   UNL     1      -1.064   2.382  18.258  1.00  0.00     0.025 A 
ATOM     13  C   UNL     1      -1.001   0.982  18.231  1.00  0.00     0.016 A 
ATOM     14  C   UNL     1      -1.001   0.251  19.420  1.00  0.00     0.051 A 
ATOM     15  C   UNL     1      -1.048   0.901  20.658  1.00  0.00     0.157 A 
ATOM     16  C   UNL     1      -1.089   3.039  19.500  1.00  0.00     0.062 A 
ATOM     17  C   UNL     1      -1.085   2.314  20.699  1.00  0.00     0.158 A 
BRANCH  15  18
ATOM     18  O   UNL     1      -1.053   0.111  21.810  1.00  0.00    -0.504 OA
ATOM     19  H   UNL     1      -1.300   0.453  22.727  1.00  0.00     0.293 HD
ENDBRANCH  15  18
BRANCH  17  20
ATOM     20  O   UNL     1      -1.114   3.034  21.895  1.00  0.00    -0.504 OA
ATOM     21  H   UNL     1      -1.961   3.268  22.393  1.00  0.00     0.293 HD
ENDBRANCH  17  20
ENDBRANCH   1  12
BRANCH   2  22
ATOM     22  O   UNL     1      -1.094   5.276  18.139  1.00  0.00    -0.502 OA
ATOM     23  H   UNL     1      -1.957   5.682  18.479  1.00  0.00     0.293 HD
ENDBRANCH   2  22
BRANCH   6  24
ATOM     24  O   UNL     1      -0.638   6.342  12.940  1.00  0.00    -0.507 OA
ATOM     25  H   UNL     1      -1.235   6.913  12.360  1.00  0.00     0.293 HD
ENDBRANCH   6  24
BRANCH   8  26
ATOM     26  O   UNL     1      -1.125   1.921  11.129  1.00  0.00    -0.508 OA
ATOM     27  H   UNL     1      -0.412   1.933  10.409  1.00  0.00     0.293 HD
ENDBRANCH   8  26
TORSDOF 6
ENDMDL
MODEL 5
REMARK VINA RESULT:    -3.196      1.490      6.672
REMARK INTER + INTRA:          -3.429
REMARK INTER:                  -3.172
REMARK INTRA:                  -0.257
REMARK UNBOUND:                 0.420
REMARK SMILES O=c1c(O)c(-c2ccc(O)c(O)c2)oc2cc(O)cc(O)c12
REMARK SMILES IDX 5 1 3 2 2 3 1 4 22 5 20 6 19 7 17 8 16 9 15 10 14 11 6 12
REMARK SMILES IDX 7 13 8 14 9 15 13 16 11 17 10 18 12 20 4 22 21 24 18 26
REMARK H PARENT 10 19 12 21 4 23 21 25 18 27
REMARK Flexibility Score: inf
ROOT
ATOM      1  C   UNL     1       0.317   3.595  23.527  1.00  0.00     0.180 A 
ATOM      2  C   UNL     1       0.278   2.646  24.563  1.00  0.00     0.208 A 
ATOM      3  C   UNL     1      -0.086   1.324  24.262  1.00  0.00     0.238 A 
ATOM      4  O   UNL     1      -0.067   0.467  25.184  1.00  0.00    -0.285 OA
ATOM      5  C   UNL     1      -0.423   0.971  22.932  1.00  0.00     0.111 A 
ATOM      6  C   UNL     1      -0.844  -0.329  22.521  1.00  0.00     0.134 A 
ATOM      7  C   UNL     1      -1.025  -0.597  21.159  1.00  0.00     0.093 A 
ATOM      8  C   UNL     1      -0.863   0.406  20.200  1.00  0.00     0.123 A 
ATOM      9  C   UNL     1      -0.509   1.692  20.597  1.00  0.00     0.094 A 
ATOM     10  C   UNL     1      -0.286   1.982  21.945  1.00  0.00     0.146 A 
ATOM     11  O   UNL     1       0.061   3.219  22.280  1.00  0.00    -0.452 OA
ENDROOT
BRANCH   1  12
ATOM     12  C   UNL     1       0.668   5.013  23.771  1.00  0.00     0.025 A 
ATOM     13  C   UNL     1      -0.347   5.979  23.810  1.00  0.00     0.016 A 
ATOM     14  C   UNL     1      -0.040   7.318  24.058  1.00  0.00     0.051 A 
ATOM     15  C   UNL     1       1.281   7.717  24.288  1.00  0.00     0.157 A 
ATOM     16  C   UNL     1       1.993   5.406  24.023  1.00  0.00     0.062 A 
ATOM     17  C   UNL     1       2.311   6.747  24.277  1.00  0.00     0.158 A 
BRANCH  15  18
ATOM     18  O   UNL     1       1.522   9.073  24.523  1.00  0.00    -0.504 OA
ATOM     19  H   UNL     1       2.213   9.418  25.172  1.00  0.00     0.293 HD
ENDBRANCH  15  18
BRANCH  17  20
ATOM     20  O   UNL     1       3.649   7.066  24.516  1.00  0.00    -0.504 OA
ATOM     21  H   UNL     1       4.428   6.525  24.169  1.00  0.00     0.293 HD
ENDBRANCH  17  20
ENDBRANCH   1  12
BRANCH   2  22
ATOM     22  O   UNL     1       0.635   3.011  25.864  1.00  0.00    -0.502 OA
ATOM     23  H   UNL     1       1.118   3.876  26.073  1.00  0.00     0.293 HD
ENDBRANCH   2  22
BRANCH   6  24
ATOM     24  O   UNL     1      -1.125  -1.374  23.406  1.00  0.00    -0.507 OA
ATOM     25  H   UNL     1      -1.149  -2.350  23.153  1.00  0.00     0.293 HD
ENDBRANCH   6  24
BRANCH   8  26
ATOM     26  O   UNL     1      -1.060   0.134  18.847  1.00  0.00    -0.508 OA
ATOM     27  H   UNL     1      -1.767   0.619  18.307  1.00  0.00     0.293 HD
ENDBRANCH   8  26
TORSDOF 6
ENDMDL
MODEL 6
REMARK VINA RESULT:    -2.799      2.218      2.984
REMARK INTER + INTRA:          -2.951
REMARK INTER:                  -3.472
REMARK INTRA:                   0.521
REMARK UNBOUND:                 0.420
REMARK SMILES O=c1c(O)c(-c2ccc(O)c(O)c2)oc2cc(O)cc(O)c12
REMARK SMILES IDX 5 1 3 2 2 3 1 4 22 5 20 6 19 7 17 8 16 9 15 10 14 11 6 12
REMARK SMILES IDX 7 13 8 14 9 15 13 16 11 17 10 18 12 20 4 22 21 24 18 26
REMARK H PARENT 10 19 12 21 4 23 21 25 18 27
REMARK Flexibility Score: inf
ROOT
ATOM      1  C   UNL     1      -0.632   2.808  22.031  1.00  0.00     0.180 A 
ATOM      2  C   UNL     1      -0.736   1.979  23.162  1.00  0.00     0.208 A 
ATOM      3  C   UNL     1      -0.597   2.546  24.438  1.00  0.00     0.238 A 
ATOM      4  O   UNL     1      -0.745   1.808  25.447  1.00  0.00    -0.285 OA
ATOM      5  C   UNL     1      -0.339   3.932  24.569  1.00  0.00     0.111 A 
ATOM      6  C   UNL     1      -0.141   4.606  25.811  1.00  0.00     0.134 A 
ATOM      7  C   UNL     1      -0.022   6.001  25.828  1.00  0.00     0.093 A 
ATOM      8  C   UNL     1      -0.030   6.739  24.642  1.00  0.00     0.123 A 
ATOM      9  C   UNL     1      -0.164   6.085  23.421  1.00  0.00     0.094 A 
ATOM     10  C   UNL     1      -0.320   4.697  23.374  1.00  0.00     0.146 A 
ATOM     11  O   UNL     1      -0.455   4.114  22.188  1.00  0.00    -0.452 OA
ENDROOT
BRANCH   1  12
ATOM     12  C   UNL     1      -0.743   2.278  20.653  1.00  0.00     0.025 A 
ATOM     13  C   UNL     1      -0.778   0.892  20.446  1.00  0.00     0.016 A 
ATOM     14  C   UNL     1      -0.902   0.373  19.157  1.00  0.00     0.051 A 
ATOM     15  C   UNL     1      -1.010   1.224  18.052  1.00  0.00     0.157 A 
ATOM     16  C   UNL     1      -0.873   3.136  19.548  1.00  0.00     0.062 A 
ATOM     17  C   UNL     1      -1.003   2.625  18.250  1.00  0.00     0.158 A 
BRANCH  15  18
ATOM     18  O   UNL     1      -1.125   0.640  16.787  1.00  0.00    -0.504 OA
ATOM     19  H   UNL     1      -0.759   1.052  15.941  1.00  0.00     0.293 HD
ENDBRANCH  15  18
BRANCH  17  20
ATOM     20  O   UNL     1      -1.125   3.536  17.199  1.00  0.00    -0.504 OA
ATOM     21  H   UNL     1      -0.340   3.972  16.737  1.00  0.00     0.293 HD
ENDBRANCH  17  20
ENDBRANCH   1  12
BRANCH   2  22
ATOM     22  O   UNL     1      -1.012   0.617  23.011  1.00  0.00    -0.502 OA
ATOM     23  H   UNL     1      -1.951   0.242  23.075  1.00  0.00     0.293 HD
ENDBRANCH   2  22
BRANCH   6  24
ATOM     24  O   UNL     1      -0.024   3.954  27.042  1.00  0.00    -0.507 OA
ATOM     25  H   UNL     1      -0.374   3.028  27.238  1.00  0.00     0.293 HD
ENDBRANCH   6  24
BRANCH   8  26
ATOM     26  O   UNL     1       0.104   8.127  24.668  1.00  0.00    -0.508 OA
ATOM     27  H   UNL     1       0.775   8.583  25.275  1.00  0.00     0.293 HD
ENDBRANCH   8  26
TORSDOF 6
ENDMDL
