MODEL 1
REMARK VINA RESULT:    -3.171      0.000      0.000
REMARK INTER + INTRA:         -11.227
REMARK INTER:                  -7.992
REMARK INTRA:                  -3.235
REMARK UNBOUND:                -3.235
REMARK SMILES CCCCCCCCCCCCCCCCCCCCCCCCCCCC(=O)[O-]
REMARK SMILES IDX 15 1 16 2 17 3 18 4 19 5 20 6 21 7 22 8 23 9 24 10 25 11
REMARK SMILES IDX 26 12 27 13 28 14 29 15 30 16 14 17 13 18 12 19 11 20 10 21
REMARK SMILES IDX 9 22 8 23 7 24 6 25 5 26 4 27 3 28 2 29 1 30
REMARK H PARENT
REMARK Flexibility Score: inf
ROOT
ATOM      1  C   UNL     1      47.002  53.882  26.454  1.00  0.00     0.000 C 
ENDROOT
BRANCH   1   2
ATOM      2  C   UNL     1      48.358  53.202  26.742  1.00  0.00     0.000 C 
BRANCH   2   3
ATOM      3  C   UNL     1      49.027  52.579  25.502  1.00  0.00     0.000 C 
BRANCH   3   4
ATOM      4  C   UNL     1      49.774  53.568  24.586  1.00  0.00     0.000 C 
BRANCH   4   5
ATOM      5  C   UNL     1      50.889  54.381  25.273  1.00  0.00     0.000 C 
BRANCH   5   6
ATOM      6  C   UNL     1      52.227  54.419  24.511  1.00  0.00     0.000 C 
BRANCH   6   7
ATOM      7  C   UNL     1      52.990  53.076  24.528  1.00  0.00     0.000 C 
BRANCH   7   8
ATOM      8  C   UNL     1      54.176  53.063  23.547  1.00  0.00     0.000 C 
BRANCH   8   9
ATOM      9  C   UNL     1      53.796  52.494  22.170  1.00  0.00     0.000 C 
BRANCH   9  10
ATOM     10  C   UNL     1      52.290  52.226  22.034  1.00  0.00     0.000 C 
BRANCH  10  11
ATOM     11  C   UNL     1      51.637  53.236  21.079  1.00  0.00     0.000 C 
BRANCH  11  12
ATOM     12  C   UNL     1      52.610  53.757  20.009  1.00  0.00     0.006 C 
BRANCH  12  13
ATOM     13  C   UNL     1      52.271  55.181  19.542  1.00  0.00     0.053 C 
BRANCH  13  14
ATOM     14  C   UNL     1      52.242  56.119  20.708  1.00  0.00     0.041 C 
ATOM     15  O   UNL     1      53.272  56.294  21.411  1.00  0.00    -0.550 OA
ATOM     16  O   UNL     1      51.063  56.781  21.036  1.00  0.00    -0.550 OA
ENDBRANCH  13  14
ENDBRANCH  12  13
ENDBRANCH  11  12
ENDBRANCH  10  11
ENDBRANCH   9  10
ENDBRANCH   8   9
ENDBRANCH   7   8
ENDBRANCH   6   7
ENDBRANCH   5   6
ENDBRANCH   4   5
ENDBRANCH   3   4
ENDBRANCH   2   3
ENDBRANCH   1   2
BRANCH   1  17
ATOM     17  C   UNL     1      46.066  53.012  25.594  1.00  0.00     0.000 C 
BRANCH  17  18
ATOM     18  C   UNL     1      45.986  51.560  26.115  1.00  0.00     0.000 C 
BRANCH  18  19
ATOM     19  C   UNL     1      45.893  50.515  24.989  1.00  0.00     0.000 C 
BRANCH  19  20
ATOM     20  C   UNL     1      47.028  49.477  25.050  1.00  0.00     0.000 C 
BRANCH  20  21
ATOM     21  C   UNL     1      46.746  48.353  26.061  1.00  0.00     0.000 C 
BRANCH  21  22
ATOM     22  C   UNL     1      47.338  47.002  25.632  1.00  0.00    -0.000 C 
BRANCH  22  23
ATOM     23  C   UNL     1      48.321  47.183  24.466  1.00  0.00    -0.000 C 
BRANCH  23  24
ATOM     24  C   UNL     1      49.794  47.082  24.900  1.00  0.00    -0.000 C 
BRANCH  24  25
ATOM     25  C   UNL     1      50.823  47.567  23.856  1.00  0.00    -0.000 C 
BRANCH  25  26
ATOM     26  C   UNL     1      50.670  49.036  23.422  1.00  0.00    -0.000 C 
BRANCH  26  27
ATOM     27  C   UNL     1      50.742  49.270  21.901  1.00  0.00    -0.000 C 
BRANCH  27  28
ATOM     28  C   UNL     1      49.529  50.040  21.337  1.00  0.00    -0.000 C 
BRANCH  28  29
ATOM     29  C   UNL     1      48.634  50.615  22.444  1.00  0.00    -0.003 C 
ATOM     30  C   UNL     1      48.359  52.100  22.213  1.00  0.00     0.004 C 
ENDBRANCH  28  29
ENDBRANCH  27  28
ENDBRANCH  26  27
ENDBRANCH  25  26
ENDBRANCH  24  25
ENDBRANCH  23  24
ENDBRANCH  22  23
ENDBRANCH  21  22
ENDBRANCH  20  21
ENDBRANCH  19  20
ENDBRANCH  18  19
ENDBRANCH  17  18
ENDBRANCH   1  17
TORSDOF 26
ENDMDL
MODEL 2
REMARK VINA RESULT:    -3.074      1.722      4.126
REMARK INTER + INTRA:         -10.982
REMARK INTER:                  -7.217
REMARK INTRA:                  -3.766
REMARK UNBOUND:                -3.235
REMARK SMILES CCCCCCCCCCCCCCCCCCCCCCCCCCCC(=O)[O-]
REMARK SMILES IDX 15 1 16 2 17 3 18 4 19 5 20 6 21 7 22 8 23 9 24 10 25 11
REMARK SMILES IDX 26 12 27 13 28 14 29 15 30 16 14 17 13 18 12 19 11 20 10 21
REMARK SMILES IDX 9 22 8 23 7 24 6 25 5 26 4 27 3 28 2 29 1 30
REMARK H PARENT
REMARK Flexibility Score: inf
ROOT
ATOM      1  C   UNL     1      49.559  53.245  24.971  1.00  0.00     0.000 C 
ENDROOT
BRANCH   1   2
ATOM      2  C   UNL     1      49.830  52.151  23.915  1.00  0.00     0.000 C 
BRANCH   2   3
ATOM      3  C   UNL     1      49.482  52.566  22.473  1.00  0.00     0.000 C 
BRANCH   3   4
ATOM      4  C   UNL     1      49.416  51.415  21.451  1.00  0.00     0.000 C 
BRANCH   4   5
ATOM      5  C   UNL     1      50.736  51.117  20.714  1.00  0.00     0.000 C 
BRANCH   5   6
ATOM      6  C   UNL     1      52.003  51.221  21.584  1.00  0.00     0.000 C 
BRANCH   6   7
ATOM      7  C   UNL     1      53.005  52.290  21.097  1.00  0.00     0.000 C 
BRANCH   7   8
ATOM      8  C   UNL     1      52.575  52.933  19.766  1.00  0.00     0.000 C 
BRANCH   8   9
ATOM      9  C   UNL     1      52.032  54.360  19.948  1.00  0.00     0.000 C 
BRANCH   9  10
ATOM     10  C   UNL     1      52.803  55.156  21.012  1.00  0.00     0.000 C 
BRANCH  10  11
ATOM     11  C   UNL     1      52.090  55.090  22.371  1.00  0.00     0.000 C 
BRANCH  11  12
ATOM     12  C   UNL     1      53.070  55.024  23.554  1.00  0.00     0.006 C 
BRANCH  12  13
ATOM     13  C   UNL     1      52.738  53.891  24.536  1.00  0.00     0.053 C 
BRANCH  13  14
ATOM     14  C   UNL     1      53.812  52.849  24.512  1.00  0.00     0.041 C 
ATOM     15  O   UNL     1      53.758  51.861  25.292  1.00  0.00    -0.550 OA
ATOM     16  O   UNL     1      54.890  52.984  23.644  1.00  0.00    -0.550 OA
ENDBRANCH  13  14
ENDBRANCH  12  13
ENDBRANCH  11  12
ENDBRANCH  10  11
ENDBRANCH   9  10
ENDBRANCH   8   9
ENDBRANCH   7   8
ENDBRANCH   6   7
ENDBRANCH   5   6
ENDBRANCH   4   5
ENDBRANCH   3   4
ENDBRANCH   2   3
ENDBRANCH   1   2
BRANCH   1  17
ATOM     17  C   UNL     1      48.877  52.697  26.240  1.00  0.00     0.000 C 
BRANCH  17  18
ATOM     18  C   UNL     1      47.744  53.624  26.733  1.00  0.00     0.000 C 
BRANCH  18  19
ATOM     19  C   UNL     1      46.730  53.983  25.633  1.00  0.00     0.000 C 
BRANCH  19  20
ATOM     20  C   UNL     1      45.876  52.778  25.200  1.00  0.00     0.000 C 
BRANCH  20  21
ATOM     21  C   UNL     1      46.210  52.298  23.778  1.00  0.00     0.000 C 
BRANCH  21  22
ATOM     22  C   UNL     1      46.507  50.792  23.711  1.00  0.00    -0.000 C 
BRANCH  22  23
ATOM     23  C   UNL     1      45.887  50.059  24.910  1.00  0.00    -0.000 C 
BRANCH  23  24
ATOM     24  C   UNL     1      46.940  49.483  25.873  1.00  0.00    -0.000 C 
BRANCH  24  25
ATOM     25  C   UNL     1      46.846  47.961  26.117  1.00  0.00    -0.000 C 
BRANCH  25  26
ATOM     26  C   UNL     1      47.423  47.082  24.993  1.00  0.00    -0.000 C 
BRANCH  26  27
ATOM     27  C   UNL     1      48.946  47.200  24.800  1.00  0.00    -0.000 C 
BRANCH  27  28
ATOM     28  C   UNL     1      49.380  48.506  24.098  1.00  0.00    -0.000 C 
BRANCH  28  29
ATOM     29  C   UNL     1      50.602  48.305  23.191  1.00  0.00    -0.003 C 
ATOM     30  C   UNL     1      51.486  47.169  23.702  1.00  0.00     0.004 C 
ENDBRANCH  28  29
ENDBRANCH  27  28
ENDBRANCH  26  27
ENDBRANCH  25  26
ENDBRANCH  24  25
ENDBRANCH  23  24
ENDBRANCH  22  23
ENDBRANCH  21  22
ENDBRANCH  20  21
ENDBRANCH  19  20
ENDBRANCH  18  19
ENDBRANCH  17  18
ENDBRANCH   1  17
TORSDOF 26
ENDMDL
MODEL 3
REMARK VINA RESULT:    -2.544      1.638      4.893
REMARK INTER + INTRA:          -9.645
REMARK INTER:                  -6.749
REMARK INTRA:                  -2.896
REMARK UNBOUND:                -3.235
REMARK SMILES CCCCCCCCCCCCCCCCCCCCCCCCCCCC(=O)[O-]
REMARK SMILES IDX 15 1 16 2 17 3 18 4 19 5 20 6 21 7 22 8 23 9 24 10 25 11
REMARK SMILES IDX 26 12 27 13 28 14 29 15 30 16 14 17 13 18 12 19 11 20 10 21
REMARK SMILES IDX 9 22 8 23 7 24 6 25 5 26 4 27 3 28 2 29 1 30
REMARK H PARENT
REMARK Flexibility Score: inf
ROOT
ATOM      1  C   UNL     1      49.983  46.875  24.561  1.00  0.00     0.000 C 
ENDROOT
BRANCH   1   2
ATOM      2  C   UNL     1      51.171  47.417  23.735  1.00  0.00     0.000 C 
BRANCH   2   3
ATOM      3  C   UNL     1      50.999  48.872  23.261  1.00  0.00     0.000 C 
BRANCH   3   4
ATOM      4  C   UNL     1      49.936  49.091  22.167  1.00  0.00     0.000 C 
BRANCH   4   5
ATOM      5  C   UNL     1      50.203  50.280  21.224  1.00  0.00     0.000 C 
BRANCH   5   6
ATOM      6  C   UNL     1      51.691  50.569  20.949  1.00  0.00     0.000 C 
BRANCH   6   7
ATOM      7  C   UNL     1      52.141  51.978  21.391  1.00  0.00     0.000 C 
BRANCH   7   8
ATOM      8  C   UNL     1      52.901  52.726  20.279  1.00  0.00     0.000 C 
BRANCH   8   9
ATOM      9  C   UNL     1      52.307  54.114  19.990  1.00  0.00     0.000 C 
BRANCH   9  10
ATOM     10  C   UNL     1      51.767  54.803  21.253  1.00  0.00     0.000 C 
BRANCH  10  11
ATOM     11  C   UNL     1      52.753  55.863  21.764  1.00  0.00     0.000 C 
BRANCH  11  12
ATOM     12  C   UNL     1      53.518  55.410  23.018  1.00  0.00     0.006 C 
BRANCH  12  13
ATOM     13  C   UNL     1      52.773  54.323  23.806  1.00  0.00     0.053 C 
BRANCH  13  14
ATOM     14  C   UNL     1      53.710  53.219  24.186  1.00  0.00     0.041 C 
ATOM     15  O   UNL     1      54.658  52.898  23.421  1.00  0.00    -0.550 OA
ATOM     16  O   UNL     1      53.518  52.525  25.375  1.00  0.00    -0.550 OA
ENDBRANCH  13  14
ENDBRANCH  12  13
ENDBRANCH  11  12
ENDBRANCH  10  11
ENDBRANCH   9  10
ENDBRANCH   8   9
ENDBRANCH   7   8
ENDBRANCH   6   7
ENDBRANCH   5   6
ENDBRANCH   4   5
ENDBRANCH   3   4
ENDBRANCH   2   3
ENDBRANCH   1   2
BRANCH   1  17
ATOM     17  C   UNL     1      48.687  47.679  24.343  1.00  0.00     0.000 C 
BRANCH  17  18
ATOM     18  C   UNL     1      47.719  47.549  25.540  1.00  0.00     0.000 C 
BRANCH  18  19
ATOM     19  C   UNL     1      46.529  48.521  25.467  1.00  0.00     0.000 C 
BRANCH  19  20
ATOM     20  C   UNL     1      46.955  49.952  25.093  1.00  0.00     0.000 C 
BRANCH  20  21
ATOM     21  C   UNL     1      45.876  50.996  25.425  1.00  0.00     0.000 C 
BRANCH  21  22
ATOM     22  C   UNL     1      45.944  52.234  24.519  1.00  0.00    -0.000 C 
BRANCH  22  23
ATOM     23  C   UNL     1      45.878  53.524  25.350  1.00  0.00    -0.000 C 
BRANCH  23  24
ATOM     24  C   UNL     1      46.243  53.305  26.829  1.00  0.00    -0.000 C 
BRANCH  24  25
ATOM     25  C   UNL     1      47.755  53.207  27.126  1.00  0.00    -0.000 C 
BRANCH  25  26
ATOM     26  C   UNL     1      48.677  53.544  25.940  1.00  0.00    -0.000 C 
BRANCH  26  27
ATOM     27  C   UNL     1      49.741  52.475  25.627  1.00  0.00    -0.000 C 
BRANCH  27  28
ATOM     28  C   UNL     1      50.057  52.342  24.121  1.00  0.00    -0.000 C 
BRANCH  28  29
ATOM     29  C   UNL     1      49.229  53.307  23.261  1.00  0.00    -0.003 C 
ATOM     30  C   UNL     1      48.567  52.576  22.095  1.00  0.00     0.004 C 
ENDBRANCH  28  29
ENDBRANCH  27  28
ENDBRANCH  26  27
ENDBRANCH  25  26
ENDBRANCH  24  25
ENDBRANCH  23  24
ENDBRANCH  22  23
ENDBRANCH  21  22
ENDBRANCH  20  21
ENDBRANCH  19  20
ENDBRANCH  18  19
ENDBRANCH  17  18
ENDBRANCH   1  17
TORSDOF 26
ENDMDL
MODEL 4
REMARK VINA RESULT:    -2.482      0.962      4.050
REMARK INTER + INTRA:          -9.490
REMARK INTER:                  -7.516
REMARK INTRA:                  -1.975
REMARK UNBOUND:                -3.235
REMARK SMILES CCCCCCCCCCCCCCCCCCCCCCCCCCCC(=O)[O-]
REMARK SMILES IDX 15 1 16 2 17 3 18 4 19 5 20 6 21 7 22 8 23 9 24 10 25 11
REMARK SMILES IDX 26 12 27 13 28 14 29 15 30 16 14 17 13 18 12 19 11 20 10 21
REMARK SMILES IDX 9 22 8 23 7 24 6 25 5 26 4 27 3 28 2 29 1 30
REMARK H PARENT
REMARK Flexibility Score: inf
ROOT
ATOM      1  C   UNL     1      50.099  51.147  21.270  1.00  0.00     0.000 C 
ENDROOT
BRANCH   1   2
ATOM      2  C   UNL     1      48.782  51.656  21.896  1.00  0.00     0.000 C 
BRANCH   2   3
ATOM      3  C   UNL     1      48.936  52.936  22.737  1.00  0.00     0.000 C 
BRANCH   3   4
ATOM      4  C   UNL     1      50.357  53.214  23.266  1.00  0.00     0.000 C 
BRANCH   4   5
ATOM      5  C   UNL     1      50.435  53.613  24.753  1.00  0.00     0.000 C 
BRANCH   5   6
ATOM      6  C   UNL     1      51.501  54.673  25.084  1.00  0.00     0.000 C 
BRANCH   6   7
ATOM      7  C   UNL     1      52.870  54.407  24.422  1.00  0.00     0.000 C 
BRANCH   7   8
ATOM      8  C   UNL     1      53.514  53.097  24.913  1.00  0.00     0.000 C 
BRANCH   8   9
ATOM      9  C   UNL     1      53.995  52.206  23.756  1.00  0.00     0.000 C 
BRANCH   9  10
ATOM     10  C   UNL     1      54.094  52.966  22.424  1.00  0.00     0.000 C 
BRANCH  10  11
ATOM     11  C   UNL     1      53.224  52.300  21.348  1.00  0.00     0.000 C 
BRANCH  11  12
ATOM     12  C   UNL     1      52.627  53.313  20.356  1.00  0.00     0.006 C 
BRANCH  12  13
ATOM     13  C   UNL     1      51.911  54.477  21.056  1.00  0.00     0.053 C 
BRANCH  13  14
ATOM     14  C   UNL     1      52.456  55.787  20.580  1.00  0.00     0.041 C 
ATOM     15  O   UNL     1      52.530  56.035  19.347  1.00  0.00    -0.550 OA
ATOM     16  O   UNL     1      52.910  56.726  21.500  1.00  0.00    -0.550 OA
ENDBRANCH  13  14
ENDBRANCH  12  13
ENDBRANCH  11  12
ENDBRANCH  10  11
ENDBRANCH   9  10
ENDBRANCH   8   9
ENDBRANCH   7   8
ENDBRANCH   6   7
ENDBRANCH   5   6
ENDBRANCH   4   5
ENDBRANCH   3   4
ENDBRANCH   2   3
ENDBRANCH   1   2
BRANCH   1  17
ATOM     17  C   UNL     1      50.275  49.622  21.402  1.00  0.00     0.000 C 
BRANCH  17  18
ATOM     18  C   UNL     1      50.743  49.214  22.817  1.00  0.00     0.000 C 
BRANCH  18  19
ATOM     19  C   UNL     1      51.067  47.715  22.941  1.00  0.00     0.000 C 
BRANCH  19  20
ATOM     20  C   UNL     1      51.028  47.221  24.398  1.00  0.00     0.000 C 
BRANCH  20  21
ATOM     21  C   UNL     1      49.597  46.945  24.889  1.00  0.00     0.000 C 
BRANCH  21  22
ATOM     22  C   UNL     1      48.596  48.024  24.447  1.00  0.00    -0.000 C 
BRANCH  22  23
ATOM     23  C   UNL     1      47.464  48.172  25.474  1.00  0.00    -0.000 C 
BRANCH  23  24
ATOM     24  C   UNL     1      46.448  49.264  25.096  1.00  0.00    -0.000 C 
BRANCH  24  25
ATOM     25  C   UNL     1      47.061  50.631  24.720  1.00  0.00    -0.000 C 
BRANCH  25  26
ATOM     26  C   UNL     1      46.047  51.705  24.286  1.00  0.00    -0.000 C 
BRANCH  26  27
ATOM     27  C   UNL     1      45.953  52.920  25.228  1.00  0.00    -0.000 C 
BRANCH  27  28
ATOM     28  C   UNL     1      45.992  52.545  26.725  1.00  0.00    -0.000 C 
BRANCH  28  29
ATOM     29  C   UNL     1      47.159  53.214  27.467  1.00  0.00    -0.003 C 
ATOM     30  C   UNL     1      48.456  53.094  26.671  1.00  0.00     0.004 C 
ENDBRANCH  28  29
ENDBRANCH  27  28
ENDBRANCH  26  27
ENDBRANCH  25  26
ENDBRANCH  24  25
ENDBRANCH  23  24
ENDBRANCH  22  23
ENDBRANCH  21  22
ENDBRANCH  20  21
ENDBRANCH  19  20
ENDBRANCH  18  19
ENDBRANCH  17  18
ENDBRANCH   1  17
TORSDOF 26
ENDMDL
MODEL 5
REMARK VINA RESULT:    -2.324      1.038      4.719
REMARK INTER + INTRA:          -9.093
REMARK INTER:                  -8.452
REMARK INTRA:                  -0.641
REMARK UNBOUND:                -3.235
REMARK SMILES CCCCCCCCCCCCCCCCCCCCCCCCCCCC(=O)[O-]
REMARK SMILES IDX 15 1 16 2 17 3 18 4 19 5 20 6 21 7 22 8 23 9 24 10 25 11
REMARK SMILES IDX 26 12 27 13 28 14 29 15 30 16 14 17 13 18 12 19 11 20 10 21
REMARK SMILES IDX 9 22 8 23 7 24 6 25 5 26 4 27 3 28 2 29 1 30
REMARK H PARENT
REMARK Flexibility Score: inf
ROOT
ATOM      1  C   UNL     1      50.027  47.179  25.009  1.00  0.00     0.000 C 
ENDROOT
BRANCH   1   2
ATOM      2  C   UNL     1      50.963  47.096  23.784  1.00  0.00     0.000 C 
BRANCH   2   3
ATOM      3  C   UNL     1      50.987  48.370  22.920  1.00  0.00     0.000 C 
BRANCH   3   4
ATOM      4  C   UNL     1      49.618  49.038  22.688  1.00  0.00     0.000 C 
BRANCH   4   5
ATOM      5  C   UNL     1      49.442  50.417  23.353  1.00  0.00     0.000 C 
BRANCH   5   6
ATOM      6  C   UNL     1      48.191  51.197  22.908  1.00  0.00     0.000 C 
BRANCH   6   7
ATOM      7  C   UNL     1      48.485  52.304  21.873  1.00  0.00     0.000 C 
BRANCH   7   8
ATOM      8  C   UNL     1      49.971  52.354  21.473  1.00  0.00     0.000 C 
BRANCH   8   9
ATOM      9  C   UNL     1      50.383  51.167  20.587  1.00  0.00     0.000 C 
BRANCH   9  10
ATOM     10  C   UNL     1      51.907  51.038  20.441  1.00  0.00     0.000 C 
BRANCH  10  11
ATOM     11  C   UNL     1      52.631  52.090  21.293  1.00  0.00     0.000 C 
BRANCH  11  12
ATOM     12  C   UNL     1      52.784  53.438  20.571  1.00  0.00     0.006 C 
BRANCH  12  13
ATOM     13  C   UNL     1      52.799  54.631  21.538  1.00  0.00     0.053 C 
BRANCH  13  14
ATOM     14  C   UNL     1      52.532  55.905  20.800  1.00  0.00     0.041 C 
ATOM     15  O   UNL     1      52.247  55.882  19.573  1.00  0.00    -0.550 OA
ATOM     16  O   UNL     1      52.626  57.124  21.463  1.00  0.00    -0.550 OA
ENDBRANCH  13  14
ENDBRANCH  12  13
ENDBRANCH  11  12
ENDBRANCH  10  11
ENDBRANCH   9  10
ENDBRANCH   8   9
ENDBRANCH   7   8
ENDBRANCH   6   7
ENDBRANCH   5   6
ENDBRANCH   4   5
ENDBRANCH   3   4
ENDBRANCH   2   3
ENDBRANCH   1   2
BRANCH   1  17
ATOM     17  C   UNL     1      48.535  47.175  24.624  1.00  0.00     0.000 C 
BRANCH  17  18
ATOM     18  C   UNL     1      47.625  46.876  25.836  1.00  0.00     0.000 C 
BRANCH  18  19
ATOM     19  C   UNL     1      46.620  48.002  26.134  1.00  0.00     0.000 C 
BRANCH  19  20
ATOM     20  C   UNL     1      46.849  49.247  25.258  1.00  0.00     0.000 C 
BRANCH  20  21
ATOM     21  C   UNL     1      46.145  50.496  25.813  1.00  0.00     0.000 C 
BRANCH  21  22
ATOM     22  C   UNL     1      45.876  51.557  24.735  1.00  0.00    -0.000 C 
BRANCH  22  23
ATOM     23  C   UNL     1      46.117  52.970  25.287  1.00  0.00    -0.000 C 
BRANCH  23  24
ATOM     24  C   UNL     1      47.026  52.983  26.529  1.00  0.00    -0.000 C 
BRANCH  24  25
ATOM     25  C   UNL     1      48.473  52.502  26.290  1.00  0.00    -0.000 C 
BRANCH  25  26
ATOM     26  C   UNL     1      49.500  53.619  26.030  1.00  0.00    -0.000 C 
BRANCH  26  27
ATOM     27  C   UNL     1      50.051  53.666  24.593  1.00  0.00    -0.000 C 
BRANCH  27  28
ATOM     28  C   UNL     1      51.532  54.096  24.514  1.00  0.00    -0.000 C 
BRANCH  28  29
ATOM     29  C   UNL     1      52.486  53.011  25.033  1.00  0.00    -0.003 C 
ATOM     30  C   UNL     1      53.765  52.959  24.200  1.00  0.00     0.004 C 
ENDBRANCH  28  29
ENDBRANCH  27  28
ENDBRANCH  26  27
ENDBRANCH  25  26
ENDBRANCH  24  25
ENDBRANCH  23  24
ENDBRANCH  22  23
ENDBRANCH  21  22
ENDBRANCH  20  21
ENDBRANCH  19  20
ENDBRANCH  18  19
ENDBRANCH  17  18
ENDBRANCH   1  17
TORSDOF 26
ENDMDL
MODEL 6
REMARK VINA RESULT:    -2.128      3.480      5.799
REMARK INTER + INTRA:          -8.597
REMARK INTER:                  -5.340
REMARK INTRA:                  -3.257
REMARK UNBOUND:                -3.235
REMARK SMILES CCCCCCCCCCCCCCCCCCCCCCCCCCCC(=O)[O-]
REMARK SMILES IDX 15 1 16 2 17 3 18 4 19 5 20 6 21 7 22 8 23 9 24 10 25 11
REMARK SMILES IDX 26 12 27 13 28 14 29 15 30 16 14 17 13 18 12 19 11 20 10 21
REMARK SMILES IDX 9 22 8 23 7 24 6 25 5 26 4 27 3 28 2 29 1 30
REMARK H PARENT
REMARK Flexibility Score: inf
ROOT
ATOM      1  C   UNL     1      52.950  53.379  24.278  1.00  0.00     0.000 C 
ENDROOT
BRANCH   1   2
ATOM      2  C   UNL     1      52.720  54.828  23.796  1.00  0.00     0.000 C 
BRANCH   2   3
ATOM      3  C   UNL     1      53.413  55.168  22.463  1.00  0.00     0.000 C 
BRANCH   3   4
ATOM      4  C   UNL     1      52.471  55.540  21.302  1.00  0.00     0.000 C 
BRANCH   4   5
ATOM      5  C   UNL     1      51.819  54.345  20.580  1.00  0.00     0.000 C 
BRANCH   5   6
ATOM      6  C   UNL     1      52.684  53.072  20.520  1.00  0.00     0.000 C 
BRANCH   6   7
ATOM      7  C   UNL     1      52.034  51.847  21.200  1.00  0.00     0.000 C 
BRANCH   7   8
ATOM      8  C   UNL     1      50.549  52.081  21.534  1.00  0.00     0.000 C 
BRANCH   8   9
ATOM      9  C   UNL     1      49.608  51.237  20.660  1.00  0.00     0.000 C 
BRANCH   9  10
ATOM     10  C   UNL     1      50.365  50.333  19.675  1.00  0.00     0.000 C 
BRANCH  10  11
ATOM     11  C   UNL     1      49.984  50.662  18.225  1.00  0.00     0.000 C 
BRANCH  11  12
ATOM     12  C   UNL     1      48.833  49.790  17.699  1.00  0.00     0.006 C 
BRANCH  12  13
ATOM     13  C   UNL     1      49.032  49.363  16.237  1.00  0.00     0.053 C 
BRANCH  13  14
ATOM     14  C   UNL     1      48.715  47.909  16.070  1.00  0.00     0.041 C 
ATOM     15  O   UNL     1      49.643  47.063  15.970  1.00  0.00    -0.550 OA
ATOM     16  O   UNL     1      47.390  47.492  15.998  1.00  0.00    -0.550 OA
ENDBRANCH  13  14
ENDBRANCH  12  13
ENDBRANCH  11  12
ENDBRANCH  10  11
ENDBRANCH   9  10
ENDBRANCH   8   9
ENDBRANCH   7   8
ENDBRANCH   6   7
ENDBRANCH   5   6
ENDBRANCH   4   5
ENDBRANCH   3   4
ENDBRANCH   2   3
ENDBRANCH   1   2
BRANCH   1  17
ATOM     17  C   UNL     1      51.659  52.702  24.777  1.00  0.00     0.000 C 
BRANCH  17  18
ATOM     18  C   UNL     1      50.472  53.689  24.831  1.00  0.00     0.000 C 
BRANCH  18  19
ATOM     19  C   UNL     1      49.118  52.998  25.065  1.00  0.00     0.000 C 
BRANCH  19  20
ATOM     20  C   UNL     1      48.473  53.397  26.405  1.00  0.00     0.000 C 
BRANCH  20  21
ATOM     21  C   UNL     1      46.983  53.026  26.477  1.00  0.00     0.000 C 
BRANCH  21  22
ATOM     22  C   UNL     1      46.228  53.332  25.174  1.00  0.00    -0.000 C 
BRANCH  22  23
ATOM     23  C   UNL     1      45.904  52.038  24.413  1.00  0.00    -0.000 C 
BRANCH  23  24
ATOM     24  C   UNL     1      45.943  50.787  25.310  1.00  0.00    -0.000 C 
BRANCH  24  25
ATOM     25  C   UNL     1      46.999  49.731  24.920  1.00  0.00    -0.000 C 
BRANCH  25  26
ATOM     26  C   UNL     1      47.925  50.130  23.757  1.00  0.00    -0.000 C 
BRANCH  26  27
ATOM     27  C   UNL     1      49.378  49.639  23.892  1.00  0.00    -0.000 C 
BRANCH  27  28
ATOM     28  C   UNL     1      49.589  48.192  23.395  1.00  0.00    -0.000 C 
BRANCH  28  29
ATOM     29  C   UNL     1      49.649  47.180  24.549  1.00  0.00    -0.003 C 
ATOM     30  C   UNL     1      48.253  46.879  25.090  1.00  0.00     0.004 C 
ENDBRANCH  28  29
ENDBRANCH  27  28
ENDBRANCH  26  27
ENDBRANCH  25  26
ENDBRANCH  24  25
ENDBRANCH  23  24
ENDBRANCH  22  23
ENDBRANCH  21  22
ENDBRANCH  20  21
ENDBRANCH  19  20
ENDBRANCH  18  19
ENDBRANCH  17  18
ENDBRANCH   1  17
TORSDOF 26
ENDMDL
MODEL 7
REMARK VINA RESULT:    -2.069      2.363      5.663
REMARK INTER + INTRA:          -8.449
REMARK INTER:                  -4.990
REMARK INTRA:                  -3.459
REMARK UNBOUND:                -3.235
REMARK SMILES CCCCCCCCCCCCCCCCCCCCCCCCCCCC(=O)[O-]
REMARK SMILES IDX 15 1 16 2 17 3 18 4 19 5 20 6 21 7 22 8 23 9 24 10 25 11
REMARK SMILES IDX 26 12 27 13 28 14 29 15 30 16 14 17 13 18 12 19 11 20 10 21
REMARK SMILES IDX 9 22 8 23 7 24 6 25 5 26 4 27 3 28 2 29 1 30
REMARK H PARENT
REMARK Flexibility Score: inf
ROOT
ATOM      1  C   UNL     1      52.998  52.120  20.889  1.00  0.00     0.000 C 
ENDROOT
BRANCH   1   2
ATOM      2  C   UNL     1      52.314  53.280  20.134  1.00  0.00     0.000 C 
BRANCH   2   3
ATOM      3  C   UNL     1      51.482  54.214  21.033  1.00  0.00     0.000 C 
BRANCH   3   4
ATOM      4  C   UNL     1      51.653  55.721  20.760  1.00  0.00     0.000 C 
BRANCH   4   5
ATOM      5  C   UNL     1      53.032  56.301  21.131  1.00  0.00     0.000 C 
BRANCH   5   6
ATOM      6  C   UNL     1      53.403  56.189  22.621  1.00  0.00     0.000 C 
BRANCH   6   7
ATOM      7  C   UNL     1      53.691  54.744  23.083  1.00  0.00     0.000 C 
BRANCH   7   8
ATOM      8  C   UNL     1      53.017  54.412  24.427  1.00  0.00     0.000 C 
BRANCH   8   9
ATOM      9  C   UNL     1      52.710  52.914  24.579  1.00  0.00     0.000 C 
BRANCH   9  10
ATOM     10  C   UNL     1      51.212  52.599  24.441  1.00  0.00     0.000 C 
BRANCH  10  11
ATOM     11  C   UNL     1      50.367  53.868  24.618  1.00  0.00     0.000 C 
BRANCH  11  12
ATOM     12  C   UNL     1      49.572  53.874  25.934  1.00  0.00     0.006 C 
BRANCH  12  13
ATOM     13  C   UNL     1      48.596  52.693  26.043  1.00  0.00     0.053 C 
BRANCH  13  14
ATOM     14  C   UNL     1      47.257  53.165  26.519  1.00  0.00     0.041 C 
ATOM     15  O   UNL     1      46.710  54.168  25.988  1.00  0.00    -0.550 OA
ATOM     16  O   UNL     1      46.624  52.511  27.570  1.00  0.00    -0.550 OA
ENDBRANCH  13  14
ENDBRANCH  12  13
ENDBRANCH  11  12
ENDBRANCH  10  11
ENDBRANCH   9  10
ENDBRANCH   8   9
ENDBRANCH   7   8
ENDBRANCH   6   7
ENDBRANCH   5   6
ENDBRANCH   4   5
ENDBRANCH   3   4
ENDBRANCH   2   3
ENDBRANCH   1   2
BRANCH   1  17
ATOM     17  C   UNL     1      51.992  51.180  21.581  1.00  0.00     0.000 C 
BRANCH  17  18
ATOM     18  C   UNL     1      51.032  50.515  20.569  1.00  0.00     0.000 C 
BRANCH  18  19
ATOM     19  C   UNL     1      49.630  50.252  21.144  1.00  0.00     0.000 C 
BRANCH  19  20
ATOM     20  C   UNL     1      49.333  51.104  22.391  1.00  0.00     0.000 C 
BRANCH  20  21
ATOM     21  C   UNL     1      48.350  52.251  22.102  1.00  0.00     0.000 C 
BRANCH  21  22
ATOM     22  C   UNL     1      47.248  52.376  23.165  1.00  0.00    -0.000 C 
BRANCH  22  23
ATOM     23  C   UNL     1      46.308  51.162  23.121  1.00  0.00    -0.000 C 
BRANCH  23  24
ATOM     24  C   UNL     1      46.113  50.502  24.498  1.00  0.00    -0.000 C 
BRANCH  24  25
ATOM     25  C   UNL     1      47.347  49.758  25.052  1.00  0.00    -0.000 C 
BRANCH  25  26
ATOM     26  C   UNL     1      47.162  48.242  25.246  1.00  0.00    -0.000 C 
BRANCH  26  27
ATOM     27  C   UNL     1      48.285  47.374  24.648  1.00  0.00    -0.000 C 
BRANCH  27  28
ATOM     28  C   UNL     1      49.491  48.191  24.136  1.00  0.00    -0.000 C 
BRANCH  28  29
ATOM     29  C   UNL     1      50.824  47.456  24.335  1.00  0.00    -0.003 C 
ATOM     30  C   UNL     1      51.539  47.242  23.003  1.00  0.00     0.004 C 
ENDBRANCH  28  29
ENDBRANCH  27  28
ENDBRANCH  26  27
ENDBRANCH  25  26
ENDBRANCH  24  25
ENDBRANCH  23  24
ENDBRANCH  22  23
ENDBRANCH  21  22
ENDBRANCH  20  21
ENDBRANCH  19  20
ENDBRANCH  18  19
ENDBRANCH  17  18
ENDBRANCH   1  17
TORSDOF 26
ENDMDL
MODEL 8
REMARK VINA RESULT:    -1.902      2.385      3.608
REMARK INTER + INTRA:          -8.028
REMARK INTER:                  -5.791
REMARK INTRA:                  -2.238
REMARK UNBOUND:                -3.235
REMARK SMILES CCCCCCCCCCCCCCCCCCCCCCCCCCCC(=O)[O-]
REMARK SMILES IDX 15 1 16 2 17 3 18 4 19 5 20 6 21 7 22 8 23 9 24 10 25 11
REMARK SMILES IDX 26 12 27 13 28 14 29 15 30 16 14 17 13 18 12 19 11 20 10 21
REMARK SMILES IDX 9 22 8 23 7 24 6 25 5 26 4 27 3 28 2 29 1 30
REMARK H PARENT
REMARK Flexibility Score: inf
ROOT
ATOM      1  C   UNL     1      45.911  52.380  25.424  1.00  0.00     0.000 C 
ENDROOT
BRANCH   1   2
ATOM      2  C   UNL     1      46.693  53.482  26.171  1.00  0.00     0.000 C 
BRANCH   2   3
ATOM      3  C   UNL     1      48.034  53.012  26.766  1.00  0.00     0.000 C 
BRANCH   3   4
ATOM      4  C   UNL     1      49.294  53.614  26.115  1.00  0.00     0.000 C 
BRANCH   4   5
ATOM      5  C   UNL     1      49.449  53.335  24.607  1.00  0.00     0.000 C 
BRANCH   5   6
ATOM      6  C   UNL     1      50.895  53.097  24.137  1.00  0.00     0.000 C 
BRANCH   6   7
ATOM      7  C   UNL     1      51.890  54.177  24.616  1.00  0.00     0.000 C 
BRANCH   7   8
ATOM      8  C   UNL     1      53.352  53.699  24.546  1.00  0.00     0.000 C 
BRANCH   8   9
ATOM      9  C   UNL     1      53.849  53.531  23.101  1.00  0.00     0.000 C 
BRANCH   9  10
ATOM     10  C   UNL     1      53.080  52.446  22.332  1.00  0.00     0.000 C 
BRANCH  10  11
ATOM     11  C   UNL     1      53.162  52.684  20.818  1.00  0.00     0.000 C 
BRANCH  11  12
ATOM     12  C   UNL     1      52.004  53.546  20.288  1.00  0.00     0.006 C 
BRANCH  12  13
ATOM     13  C   UNL     1      52.469  54.923  19.792  1.00  0.00     0.053 C 
BRANCH  13  14
ATOM     14  C   UNL     1      52.248  55.960  20.850  1.00  0.00     0.041 C 
ATOM     15  O   UNL     1      51.204  56.663  20.843  1.00  0.00    -0.550 OA
ATOM     16  O   UNL     1      53.213  56.167  21.830  1.00  0.00    -0.550 OA
ENDBRANCH  13  14
ENDBRANCH  12  13
ENDBRANCH  11  12
ENDBRANCH  10  11
ENDBRANCH   9  10
ENDBRANCH   8   9
ENDBRANCH   7   8
ENDBRANCH   6   7
ENDBRANCH   5   6
ENDBRANCH   4   5
ENDBRANCH   3   4
ENDBRANCH   2   3
ENDBRANCH   1   2
BRANCH   1  17
ATOM     17  C   UNL     1      45.875  51.045  26.192  1.00  0.00     0.000 C 
BRANCH  17  18
ATOM     18  C   UNL     1      46.340  49.861  25.315  1.00  0.00     0.000 C 
BRANCH  18  19
ATOM     19  C   UNL     1      47.044  50.303  24.021  1.00  0.00     0.000 C 
BRANCH  19  20
ATOM     20  C   UNL     1      48.577  50.312  24.154  1.00  0.00     0.000 C 
BRANCH  20  21
ATOM     21  C   UNL     1      49.226  49.036  23.591  1.00  0.00     0.000 C 
BRANCH  21  22
ATOM     22  C   UNL     1      50.340  49.332  22.576  1.00  0.00    -0.000 C 
BRANCH  22  23
ATOM     23  C   UNL     1      49.934  50.478  21.637  1.00  0.00    -0.000 C 
BRANCH  23  24
ATOM     24  C   UNL     1      50.507  50.323  20.217  1.00  0.00    -0.000 C 
BRANCH  24  25
ATOM     25  C   UNL     1      49.525  50.656  19.073  1.00  0.00    -0.000 C 
BRANCH  25  26
ATOM     26  C   UNL     1      49.916  50.095  17.693  1.00  0.00    -0.000 C 
BRANCH  26  27
ATOM     27  C   UNL     1      48.783  49.362  16.951  1.00  0.00    -0.000 C 
BRANCH  27  28
ATOM     28  C   UNL     1      49.286  48.266  15.986  1.00  0.00    -0.000 C 
BRANCH  28  29
ATOM     29  C   UNL     1      48.418  47.000  16.033  1.00  0.00    -0.003 C 
ATOM     30  C   UNL     1      46.937  47.353  16.153  1.00  0.00     0.004 C 
ENDBRANCH  28  29
ENDBRANCH  27  28
ENDBRANCH  26  27
ENDBRANCH  25  26
ENDBRANCH  24  25
ENDBRANCH  23  24
ENDBRANCH  22  23
ENDBRANCH  21  22
ENDBRANCH  20  21
ENDBRANCH  19  20
ENDBRANCH  18  19
ENDBRANCH  17  18
ENDBRANCH   1  17
TORSDOF 26
ENDMDL
