MODEL 1
REMARK VINA RESULT:    -6.072      0.000      0.000
REMARK INTER + INTRA:          -6.649
REMARK INTER:                  -6.605
REMARK INTRA:                  -0.044
REMARK UNBOUND:                -0.044
REMARK SMILES COc1cc2ccc(=O)oc2cc1O
REMARK SMILES IDX 3 1 13 2 12 3 11 4 5 5 4 6 6 7 7 8 8 9 9 10 10 11 2 12 1 13
REMARK SMILES IDX 14 14
REMARK H PARENT 14 15
REMARK Flexibility Score: inf
ROOT
ATOM      1  C   UNL     1      12.561  10.783  14.192  1.00  0.00     0.161 A 
ATOM      2  C   UNL     1      11.919  11.526  15.202  1.00  0.00     0.161 A 
ATOM      3  C   UNL     1      10.546  11.367  15.430  1.00  0.00     0.098 A 
ATOM      4  C   UNL     1       9.801  10.472  14.659  1.00  0.00     0.142 A 
ATOM      5  C   UNL     1      10.434   9.724  13.644  1.00  0.00     0.022 A 
ATOM      6  C   UNL     1      11.808   9.880  13.413  1.00  0.00     0.062 A 
ATOM      7  C   UNL     1       9.661   8.836  12.890  1.00  0.00     0.019 A 
ATOM      8  C   UNL     1       8.298   8.717  13.158  1.00  0.00     0.094 A 
ATOM      9  C   UNL     1       7.738   9.491  14.180  1.00  0.00     0.336 A 
ATOM     10  O   UNL     1       6.510   9.398  14.437  1.00  0.00    -0.246 OA
ATOM     11  O   UNL     1       8.497  10.328  14.882  1.00  0.00    -0.423 OA
ENDROOT
BRANCH   1  12
ATOM     12  O   UNL     1      13.939  10.967  13.990  1.00  0.00    -0.493 OA
ATOM     13  C   UNL     1      14.767  10.093  13.230  1.00  0.00     0.278 C 
ENDBRANCH   1  12
BRANCH   2  14
ATOM     14  O   UNL     1      12.629  12.429  15.993  1.00  0.00    -0.504 OA
ATOM     15  H   UNL     1      13.500  12.845  15.687  1.00  0.00     0.293 HD
ENDBRANCH   2  14
TORSDOF 2
ENDMDL
MODEL 2
REMARK VINA RESULT:    -5.430      1.766      4.831
REMARK INTER + INTRA:          -5.950
REMARK INTER:                  -5.898
REMARK INTRA:                  -0.052
REMARK UNBOUND:                -0.044
REMARK SMILES COc1cc2ccc(=O)oc2cc1O
REMARK SMILES IDX 3 1 13 2 12 3 11 4 5 5 4 6 6 7 7 8 8 9 9 10 10 11 2 12 1 13
REMARK SMILES IDX 14 14
REMARK H PARENT 14 15
REMARK Flexibility Score: inf
ROOT
ATOM      1  C   UNL     1       9.856   9.501  14.297  1.00  0.00     0.161 A 
ATOM      2  C   UNL     1      10.815  10.076  15.153  1.00  0.00     0.161 A 
ATOM      3  C   UNL     1      12.042  10.516  14.642  1.00  0.00     0.098 A 
ATOM      4  C   UNL     1      12.328  10.388  13.281  1.00  0.00     0.142 A 
ATOM      5  C   UNL     1      11.375   9.811  12.416  1.00  0.00     0.022 A 
ATOM      6  C   UNL     1      10.144   9.371  12.923  1.00  0.00     0.062 A 
ATOM      7  C   UNL     1      11.691   9.697  11.058  1.00  0.00     0.019 A 
ATOM      8  C   UNL     1      12.927  10.150  10.602  1.00  0.00     0.094 A 
ATOM      9  C   UNL     1      13.824  10.711  11.519  1.00  0.00     0.336 A 
ATOM     10  O   UNL     1      14.945  11.125  11.127  1.00  0.00    -0.246 OA
ATOM     11  O   UNL     1      13.498  10.807  12.805  1.00  0.00    -0.423 OA
ENDROOT
BRANCH   1  12
ATOM     12  O   UNL     1       8.635   9.071  14.843  1.00  0.00    -0.493 OA
ATOM     13  C   UNL     1       7.354   9.410  14.322  1.00  0.00     0.278 C 
ENDBRANCH   1  12
BRANCH   2  14
ATOM     14  O   UNL     1      10.566  10.223  16.517  1.00  0.00    -0.504 OA
ATOM     15  H   UNL     1       9.636  10.392  16.881  1.00  0.00     0.293 HD
ENDBRANCH   2  14
TORSDOF 2
ENDMDL
MODEL 3
REMARK VINA RESULT:    -5.163      1.802      2.774
REMARK INTER + INTRA:          -5.660
REMARK INTER:                  -5.607
REMARK INTRA:                  -0.052
REMARK UNBOUND:                -0.044
REMARK SMILES COc1cc2ccc(=O)oc2cc1O
REMARK SMILES IDX 3 1 13 2 12 3 11 4 5 5 4 6 6 7 7 8 8 9 9 10 10 11 2 12 1 13
REMARK SMILES IDX 14 14
REMARK H PARENT 14 15
REMARK Flexibility Score: inf
ROOT
ATOM      1  C   UNL     1      12.966   9.769  12.715  1.00  0.00     0.161 A 
ATOM      2  C   UNL     1      12.133   9.616  11.589  1.00  0.00     0.161 A 
ATOM      3  C   UNL     1      10.748   9.492  11.749  1.00  0.00     0.098 A 
ATOM      4  C   UNL     1      10.179   9.517  13.023  1.00  0.00     0.142 A 
ATOM      5  C   UNL     1      11.004   9.667  14.157  1.00  0.00     0.022 A 
ATOM      6  C   UNL     1      12.391   9.793  14.002  1.00  0.00     0.062 A 
ATOM      7  C   UNL     1      10.404   9.688  15.421  1.00  0.00     0.019 A 
ATOM      8  C   UNL     1       9.020   9.560  15.523  1.00  0.00     0.094 A 
ATOM      9  C   UNL     1       8.264   9.413  14.354  1.00  0.00     0.336 A 
ATOM     10  O   UNL     1       7.013   9.295  14.426  1.00  0.00    -0.246 OA
ATOM     11  O   UNL     1       8.861   9.396  13.165  1.00  0.00    -0.423 OA
ENDROOT
BRANCH   1  12
ATOM     12  O   UNL     1      14.352   9.891  12.518  1.00  0.00    -0.493 OA
ATOM     13  C   UNL     1      15.262   8.796  12.484  1.00  0.00     0.278 C 
ENDBRANCH   1  12
BRANCH   2  14
ATOM     14  O   UNL     1      12.665   9.588  10.300  1.00  0.00    -0.504 OA
ATOM     15  H   UNL     1      13.652   9.726  10.119  1.00  0.00     0.293 HD
ENDBRANCH   2  14
TORSDOF 2
ENDMDL
MODEL 4
REMARK VINA RESULT:    -5.128     11.844     12.820
REMARK INTER + INTRA:          -5.622
REMARK INTER:                  -5.578
REMARK INTRA:                  -0.044
REMARK UNBOUND:                -0.044
REMARK SMILES COc1cc2ccc(=O)oc2cc1O
REMARK SMILES IDX 3 1 13 2 12 3 11 4 5 5 4 6 6 7 7 8 8 9 9 10 10 11 2 12 1 13
REMARK SMILES IDX 14 14
REMARK H PARENT 14 15
REMARK Flexibility Score: inf
ROOT
ATOM      1  C   UNL     1       4.639   4.129  22.685  1.00  0.00     0.161 A 
ATOM      2  C   UNL     1       3.770   4.916  21.905  1.00  0.00     0.161 A 
ATOM      3  C   UNL     1       3.398   6.195  22.339  1.00  0.00     0.098 A 
ATOM      4  C   UNL     1       3.883   6.701  23.546  1.00  0.00     0.142 A 
ATOM      5  C   UNL     1       4.753   5.919  24.335  1.00  0.00     0.022 A 
ATOM      6  C   UNL     1       5.129   4.639  23.905  1.00  0.00     0.062 A 
ATOM      7  C   UNL     1       5.222   6.454  25.540  1.00  0.00     0.019 A 
ATOM      8  C   UNL     1       4.820   7.732  25.924  1.00  0.00     0.094 A 
ATOM      9  C   UNL     1       3.954   8.450  25.091  1.00  0.00     0.336 A 
ATOM     10  O   UNL     1       3.579   9.604  25.420  1.00  0.00    -0.246 OA
ATOM     11  O   UNL     1       3.523   7.917  23.950  1.00  0.00    -0.423 OA
ENDROOT
BRANCH   1  12
ATOM     12  O   UNL     1       4.992   2.851  22.220  1.00  0.00    -0.493 OA
ATOM     13  C   UNL     1       5.702   1.881  22.985  1.00  0.00     0.278 C 
ENDBRANCH   1  12
BRANCH   2  14
ATOM     14  O   UNL     1       3.266   4.446  20.693  1.00  0.00    -0.504 OA
ATOM     15  H   UNL     1       2.272   4.372  20.514  1.00  0.00     0.293 HD
ENDBRANCH   2  14
TORSDOF 2
ENDMDL
MODEL 5
REMARK VINA RESULT:    -5.092      1.438      5.415
REMARK INTER + INTRA:          -5.583
REMARK INTER:                  -5.531
REMARK INTRA:                  -0.052
REMARK UNBOUND:                -0.044
REMARK SMILES COc1cc2ccc(=O)oc2cc1O
REMARK SMILES IDX 3 1 13 2 12 3 11 4 5 5 4 6 6 7 7 8 8 9 9 10 10 11 2 12 1 13
REMARK SMILES IDX 14 14
REMARK H PARENT 14 15
REMARK Flexibility Score: inf
ROOT
ATOM      1  C   UNL     1       8.445   9.244  14.212  1.00  0.00     0.161 A 
ATOM      2  C   UNL     1       8.781   8.958  12.874  1.00  0.00     0.161 A 
ATOM      3  C   UNL     1      10.058   9.263  12.387  1.00  0.00     0.098 A 
ATOM      4  C   UNL     1      11.010   9.853  13.221  1.00  0.00     0.142 A 
ATOM      5  C   UNL     1      10.683  10.145  14.561  1.00  0.00     0.022 A 
ATOM      6  C   UNL     1       9.406   9.840  15.053  1.00  0.00     0.062 A 
ATOM      7  C   UNL     1      11.658  10.736  15.371  1.00  0.00     0.019 A 
ATOM      8  C   UNL     1      12.914  11.019  14.836  1.00  0.00     0.094 A 
ATOM      9  C   UNL     1      13.166  10.702  13.496  1.00  0.00     0.336 A 
ATOM     10  O   UNL     1      14.293  10.951  12.994  1.00  0.00    -0.246 OA
ATOM     11  O   UNL     1      12.220  10.141  12.748  1.00  0.00    -0.423 OA
ENDROOT
BRANCH   1  12
ATOM     12  O   UNL     1       7.155   8.925  14.667  1.00  0.00    -0.493 OA
ATOM     13  C   UNL     1       6.038   9.806  14.610  1.00  0.00     0.278 C 
ENDBRANCH   1  12
BRANCH   2  14
ATOM     14  O   UNL     1       7.857   8.368  12.011  1.00  0.00    -0.504 OA
ATOM     15  H   UNL     1       7.408   8.886  11.265  1.00  0.00     0.293 HD
ENDBRANCH   2  14
TORSDOF 2
ENDMDL
MODEL 6
REMARK VINA RESULT:    -5.000      2.038      5.190
REMARK INTER + INTRA:          -5.482
REMARK INTER:                  -5.438
REMARK INTRA:                  -0.044
REMARK UNBOUND:                -0.044
REMARK SMILES COc1cc2ccc(=O)oc2cc1O
REMARK SMILES IDX 3 1 13 2 12 3 11 4 5 5 4 6 6 7 7 8 8 9 9 10 10 11 2 12 1 13
REMARK SMILES IDX 14 14
REMARK H PARENT 14 15
REMARK Flexibility Score: inf
ROOT
ATOM      1  C   UNL     1      10.198   9.541  14.462  1.00  0.00     0.161 A 
ATOM      2  C   UNL     1       9.616   9.292  13.203  1.00  0.00     0.161 A 
ATOM      3  C   UNL     1      10.394   9.365  12.041  1.00  0.00     0.098 A 
ATOM      4  C   UNL     1      11.751   9.684  12.118  1.00  0.00     0.142 A 
ATOM      5  C   UNL     1      12.342   9.936  13.373  1.00  0.00     0.022 A 
ATOM      6  C   UNL     1      11.568   9.864  14.539  1.00  0.00     0.062 A 
ATOM      7  C   UNL     1      13.704  10.253  13.417  1.00  0.00     0.019 A 
ATOM      8  C   UNL     1      14.432  10.312  12.229  1.00  0.00     0.094 A 
ATOM      9  C   UNL     1      13.778  10.050  11.020  1.00  0.00     0.336 A 
ATOM     10  O   UNL     1      14.417  10.099   9.937  1.00  0.00    -0.246 OA
ATOM     11  O   UNL     1      12.482   9.751  11.007  1.00  0.00    -0.423 OA
ENDROOT
BRANCH   1  12
ATOM     12  O   UNL     1       9.389   9.460  15.607  1.00  0.00    -0.493 OA
ATOM     13  C   UNL     1       9.882   9.425  16.943  1.00  0.00     0.278 C 
ENDBRANCH   1  12
BRANCH   2  14
ATOM     14  O   UNL     1       8.264   8.970  13.086  1.00  0.00    -0.504 OA
ATOM     15  H   UNL     1       7.951   8.041  12.833  1.00  0.00     0.293 HD
ENDBRANCH   2  14
TORSDOF 2
ENDMDL
MODEL 7
REMARK VINA RESULT:    -4.867      2.010      2.966
REMARK INTER + INTRA:          -5.337
REMARK INTER:                  -5.307
REMARK INTRA:                  -0.031
REMARK UNBOUND:                -0.044
REMARK SMILES COc1cc2ccc(=O)oc2cc1O
REMARK SMILES IDX 3 1 13 2 12 3 11 4 5 5 4 6 6 7 7 8 8 9 9 10 10 11 2 12 1 13
REMARK SMILES IDX 14 14
REMARK H PARENT 14 15
REMARK Flexibility Score: inf
ROOT
ATOM      1  C   UNL     1      13.526   9.956  11.575  1.00  0.00     0.161 A 
ATOM      2  C   UNL     1      14.169  10.213  12.802  1.00  0.00     0.161 A 
ATOM      3  C   UNL     1      13.443  10.182  13.999  1.00  0.00     0.098 A 
ATOM      4  C   UNL     1      12.076   9.897  13.989  1.00  0.00     0.142 A 
ATOM      5  C   UNL     1      11.423   9.639  12.766  1.00  0.00     0.022 A 
ATOM      6  C   UNL     1      12.146   9.668  11.565  1.00  0.00     0.062 A 
ATOM      7  C   UNL     1      10.053   9.356  12.789  1.00  0.00     0.019 A 
ATOM      8  C   UNL     1       9.377   9.338  14.008  1.00  0.00     0.094 A 
ATOM      9  C   UNL     1      10.091   9.605  15.182  1.00  0.00     0.336 A 
ATOM     10  O   UNL     1       9.500   9.594  16.292  1.00  0.00    -0.246 OA
ATOM     11  O   UNL     1      11.394   9.871  15.131  1.00  0.00    -0.423 OA
ENDROOT
BRANCH   1  12
ATOM     12  O   UNL     1      14.285   9.995  10.394  1.00  0.00    -0.493 OA
ATOM     13  C   UNL     1      15.035   8.899   9.880  1.00  0.00     0.278 C 
ENDBRANCH   1  12
BRANCH   2  14
ATOM     14  O   UNL     1      15.533  10.501  12.853  1.00  0.00    -0.504 OA
ATOM     15  H   UNL     1      16.072  10.709  12.021  1.00  0.00     0.293 HD
ENDBRANCH   2  14
TORSDOF 2
ENDMDL
MODEL 8
REMARK VINA RESULT:    -4.815      3.422      4.696
REMARK INTER + INTRA:          -5.281
REMARK INTER:                  -5.218
REMARK INTRA:                  -0.063
REMARK UNBOUND:                -0.044
REMARK SMILES COc1cc2ccc(=O)oc2cc1O
REMARK SMILES IDX 3 1 13 2 12 3 11 4 5 5 4 6 6 7 7 8 8 9 9 10 10 11 2 12 1 13
REMARK SMILES IDX 14 14
REMARK H PARENT 14 15
REMARK Flexibility Score: inf
ROOT
ATOM      1  C   UNL     1      14.662   8.550  11.857  1.00  0.00     0.161 A 
ATOM      2  C   UNL     1      14.875   8.250  13.217  1.00  0.00     0.161 A 
ATOM      3  C   UNL     1      14.331   9.070  14.213  1.00  0.00     0.098 A 
ATOM      4  C   UNL     1      13.574  10.191  13.870  1.00  0.00     0.142 A 
ATOM      5  C   UNL     1      13.356  10.501  12.511  1.00  0.00     0.022 A 
ATOM      6  C   UNL     1      13.898   9.683  11.511  1.00  0.00     0.062 A 
ATOM      7  C   UNL     1      12.593  11.632  12.199  1.00  0.00     0.019 A 
ATOM      8  C   UNL     1      12.075  12.414  13.230  1.00  0.00     0.094 A 
ATOM      9  C   UNL     1      12.333  12.046  14.556  1.00  0.00     0.336 A 
ATOM     10  O   UNL     1      11.874  12.739  15.500  1.00  0.00    -0.246 OA
ATOM     11  O   UNL     1      13.062  10.965  14.824  1.00  0.00    -0.423 OA
ENDROOT
BRANCH   1  12
ATOM     12  O   UNL     1      15.223   7.706  10.884  1.00  0.00    -0.493 OA
ATOM     13  C   UNL     1      16.472   7.935  10.240  1.00  0.00     0.278 C 
ENDBRANCH   1  12
BRANCH   2  14
ATOM     14  O   UNL     1      15.625   7.138  13.600  1.00  0.00    -0.504 OA
ATOM     15  H   UNL     1      15.434   6.625  14.452  1.00  0.00     0.293 HD
ENDBRANCH   2  14
TORSDOF 2
ENDMDL
