MODEL 1
REMARK VINA RESULT:    -7.395      0.000      0.000
REMARK INTER + INTRA:          -8.710
REMARK INTER:                  -8.908
REMARK INTRA:                   0.198
REMARK UNBOUND:                 0.198
REMARK SMILES O=c1c(O)c(-c2ccc(O)c(O)c2)oc2cc(O)cc(O)c12
REMARK SMILES IDX 5 1 3 2 2 3 1 4 22 5 20 6 19 7 17 8 16 9 15 10 14 11 6 12
REMARK SMILES IDX 7 13 8 14 9 15 13 16 11 17 10 18 12 20 4 22 21 24 18 26
REMARK H PARENT 10 19 12 21 4 23 21 25 18 27
REMARK Flexibility Score: inf
ROOT
ATOM      1  C   UNL     1     -23.016  84.992 -23.352  1.00  0.00     0.180 A 
ATOM      2  C   UNL     1     -23.810  84.361 -24.329  1.00  0.00     0.208 A 
ATOM      3  C   UNL     1     -24.183  85.086 -25.471  1.00  0.00     0.238 A 
ATOM      4  O   UNL     1     -24.885  84.528 -26.357  1.00  0.00    -0.285 OA
ATOM      5  C   UNL     1     -23.775  86.429 -25.609  1.00  0.00     0.111 A 
ATOM      6  C   UNL     1     -24.111  87.230 -26.727  1.00  0.00     0.134 A 
ATOM      7  C   UNL     1     -23.673  88.562 -26.786  1.00  0.00     0.093 A 
ATOM      8  C   UNL     1     -22.909  89.106 -25.752  1.00  0.00     0.123 A 
ATOM      9  C   UNL     1     -22.573  88.320 -24.645  1.00  0.00     0.094 A 
ATOM     10  C   UNL     1     -22.999  86.990 -24.568  1.00  0.00     0.146 A 
ATOM     11  O   UNL     1     -22.661  86.264 -23.509  1.00  0.00    -0.452 OA
ENDROOT
BRANCH   1  12
ATOM     12  C   UNL     1     -22.565  84.288 -22.129  1.00  0.00     0.025 A 
ATOM     13  C   UNL     1     -22.375  85.015 -20.946  1.00  0.00     0.016 A 
ATOM     14  C   UNL     1     -21.933  84.375 -19.786  1.00  0.00     0.051 A 
ATOM     15  C   UNL     1     -21.657  83.003 -19.789  1.00  0.00     0.157 A 
ATOM     16  C   UNL     1     -22.268  82.915 -22.141  1.00  0.00     0.062 A 
ATOM     17  C   UNL     1     -21.820  82.264 -20.985  1.00  0.00     0.158 A 
BRANCH  15  18
ATOM     18  O   UNL     1     -21.225  82.422 -18.595  1.00  0.00    -0.504 OA
ATOM     19  H   UNL     1     -21.416  82.803 -17.680  1.00  0.00     0.293 HD
ENDBRANCH  15  18
BRANCH  17  20
ATOM     20  O   UNL     1     -21.546  80.898 -21.069  1.00  0.00    -0.504 OA
ATOM     21  H   UNL     1     -22.252  80.177 -21.036  1.00  0.00     0.293 HD
ENDBRANCH  17  20
ENDBRANCH   1  12
BRANCH   2  22
ATOM     22  O   UNL     1     -24.243  83.046 -24.144  1.00  0.00    -0.502 OA
ATOM     23  H   UNL     1     -24.884  82.784 -23.406  1.00  0.00     0.293 HD
ENDBRANCH   2  22
BRANCH   6  24
ATOM     24  O   UNL     1     -24.873  86.715 -27.776  1.00  0.00    -0.507 OA
ATOM     25  H   UNL     1     -24.526  85.973 -28.373  1.00  0.00     0.293 HD
ENDBRANCH   6  24
BRANCH   8  26
ATOM     26  O   UNL     1     -22.488  90.432 -25.834  1.00  0.00    -0.508 OA
ATOM     27  H   UNL     1     -22.471  90.929 -26.717  1.00  0.00     0.293 HD
ENDBRANCH   8  26
TORSDOF 6
ENDMDL
MODEL 2
REMARK VINA RESULT:    -7.277      1.290      2.839
REMARK INTER + INTRA:          -8.568
REMARK INTER:                  -8.534
REMARK INTRA:                  -0.034
REMARK UNBOUND:                 0.198
REMARK SMILES O=c1c(O)c(-c2ccc(O)c(O)c2)oc2cc(O)cc(O)c12
REMARK SMILES IDX 5 1 3 2 2 3 1 4 22 5 20 6 19 7 17 8 16 9 15 10 14 11 6 12
REMARK SMILES IDX 7 13 8 14 9 15 13 16 11 17 10 18 12 20 4 22 21 24 18 26
REMARK H PARENT 10 19 12 21 4 23 21 25 18 27
REMARK Flexibility Score: inf
ROOT
ATOM      1  C   UNL     1     -22.687  85.236 -23.024  1.00  0.00     0.180 A 
ATOM      2  C   UNL     1     -21.962  86.381 -23.407  1.00  0.00     0.208 A 
ATOM      3  C   UNL     1     -22.389  87.110 -24.528  1.00  0.00     0.238 A 
ATOM      4  O   UNL     1     -21.753  88.143 -24.874  1.00  0.00    -0.285 OA
ATOM      5  C   UNL     1     -23.515  86.674 -25.256  1.00  0.00     0.111 A 
ATOM      6  C   UNL     1     -24.007  87.350 -26.399  1.00  0.00     0.134 A 
ATOM      7  C   UNL     1     -25.130  86.847 -27.074  1.00  0.00     0.093 A 
ATOM      8  C   UNL     1     -25.767  85.687 -26.631  1.00  0.00     0.123 A 
ATOM      9  C   UNL     1     -25.286  85.015 -25.503  1.00  0.00     0.094 A 
ATOM     10  C   UNL     1     -24.170  85.501 -24.815  1.00  0.00     0.146 A 
ATOM     11  O   UNL     1     -23.736  84.847 -23.742  1.00  0.00    -0.452 OA
ENDROOT
BRANCH   1  12
ATOM     12  C   UNL     1     -22.312  84.426 -21.842  1.00  0.00     0.025 A 
ATOM     13  C   UNL     1     -22.163  85.053 -20.597  1.00  0.00     0.016 A 
ATOM     14  C   UNL     1     -21.791  84.312 -19.473  1.00  0.00     0.051 A 
ATOM     15  C   UNL     1     -21.546  82.938 -19.573  1.00  0.00     0.157 A 
ATOM     16  C   UNL     1     -22.046  83.051 -21.950  1.00  0.00     0.062 A 
ATOM     17  C   UNL     1     -21.669  82.300 -20.830  1.00  0.00     0.158 A 
BRANCH  15  18
ATOM     18  O   UNL     1     -21.186  82.253 -18.410  1.00  0.00    -0.504 OA
ATOM     19  H   UNL     1     -20.849  81.302 -18.397  1.00  0.00     0.293 HD
ENDBRANCH  15  18
BRANCH  17  20
ATOM     20  O   UNL     1     -21.422  80.938 -21.010  1.00  0.00    -0.504 OA
ATOM     21  H   UNL     1     -20.601  80.568 -21.468  1.00  0.00     0.293 HD
ENDBRANCH  17  20
ENDBRANCH   1  12
BRANCH   2  22
ATOM     22  O   UNL     1     -20.820  86.763 -22.699  1.00  0.00    -0.502 OA
ATOM     23  H   UNL     1     -20.067  86.117 -22.493  1.00  0.00     0.293 HD
ENDBRANCH   2  22
BRANCH   6  24
ATOM     24  O   UNL     1     -23.392  88.511 -26.867  1.00  0.00    -0.507 OA
ATOM     25  H   UNL     1     -23.769  89.038 -27.646  1.00  0.00     0.293 HD
ENDBRANCH   6  24
BRANCH   8  26
ATOM     26  O   UNL     1     -26.879  85.208 -27.320  1.00  0.00    -0.508 OA
ATOM     27  H   UNL     1     -27.820  85.354 -26.974  1.00  0.00     0.293 HD
ENDBRANCH   8  26
TORSDOF 6
ENDMDL
MODEL 3
REMARK VINA RESULT:    -7.257      1.573      3.158
REMARK INTER + INTRA:          -8.543
REMARK INTER:                  -8.218
REMARK INTRA:                  -0.325
REMARK UNBOUND:                 0.198
REMARK SMILES O=c1c(O)c(-c2ccc(O)c(O)c2)oc2cc(O)cc(O)c12
REMARK SMILES IDX 5 1 3 2 2 3 1 4 22 5 20 6 19 7 17 8 16 9 15 10 14 11 6 12
REMARK SMILES IDX 7 13 8 14 9 15 13 16 11 17 10 18 12 20 4 22 21 24 18 26
REMARK H PARENT 10 19 12 21 4 23 21 25 18 27
REMARK Flexibility Score: inf
ROOT
ATOM      1  C   UNL     1     -22.773  85.431 -23.955  1.00  0.00     0.180 A 
ATOM      2  C   UNL     1     -22.009  86.593 -23.729  1.00  0.00     0.208 A 
ATOM      3  C   UNL     1     -22.263  87.734 -24.506  1.00  0.00     0.238 A 
ATOM      4  O   UNL     1     -21.592  88.782 -24.304  1.00  0.00    -0.285 OA
ATOM      5  C   UNL     1     -23.257  87.690 -25.505  1.00  0.00     0.111 A 
ATOM      6  C   UNL     1     -23.571  88.795 -26.333  1.00  0.00     0.134 A 
ATOM      7  C   UNL     1     -24.570  88.668 -27.311  1.00  0.00     0.093 A 
ATOM      8  C   UNL     1     -25.256  87.464 -27.477  1.00  0.00     0.123 A 
ATOM      9  C   UNL     1     -24.950  86.369 -26.662  1.00  0.00     0.094 A 
ATOM     10  C   UNL     1     -23.960  86.475 -25.680  1.00  0.00     0.146 A 
ATOM     11  O   UNL     1     -23.693  85.423 -24.915  1.00  0.00    -0.452 OA
ENDROOT
BRANCH   1  12
ATOM     12  C   UNL     1     -22.579  84.195 -23.164  1.00  0.00     0.025 A 
ATOM     13  C   UNL     1     -21.639  83.245 -23.589  1.00  0.00     0.016 A 
ATOM     14  C   UNL     1     -21.453  82.064 -22.868  1.00  0.00     0.051 A 
ATOM     15  C   UNL     1     -22.210  81.800 -21.722  1.00  0.00     0.157 A 
ATOM     16  C   UNL     1     -23.356  83.924 -22.025  1.00  0.00     0.062 A 
ATOM     17  C   UNL     1     -23.180  82.739 -21.298  1.00  0.00     0.158 A 
BRANCH  15  18
ATOM     18  O   UNL     1     -21.970  80.604 -21.042  1.00  0.00    -0.504 OA
ATOM     19  H   UNL     1     -21.436  79.836 -21.422  1.00  0.00     0.293 HD
ENDBRANCH  15  18
BRANCH  17  20
ATOM     20  O   UNL     1     -23.986  82.536 -20.176  1.00  0.00    -0.504 OA
ATOM     21  H   UNL     1     -24.381  81.644 -19.918  1.00  0.00     0.293 HD
ENDBRANCH  17  20
ENDBRANCH   1  12
BRANCH   2  22
ATOM     22  O   UNL     1     -20.996  86.594 -22.767  1.00  0.00    -0.502 OA
ATOM     23  H   UNL     1     -20.023  86.751 -23.003  1.00  0.00     0.293 HD
ENDBRANCH   2  22
BRANCH   6  24
ATOM     24  O   UNL     1     -22.903  90.011 -26.192  1.00  0.00    -0.507 OA
ATOM     25  H   UNL     1     -21.994  90.171 -26.610  1.00  0.00     0.293 HD
ENDBRANCH   6  24
BRANCH   8  26
ATOM     26  O   UNL     1     -26.241  87.365 -28.457  1.00  0.00    -0.508 OA
ATOM     27  H   UNL     1     -27.225  87.321 -28.217  1.00  0.00     0.293 HD
ENDBRANCH   8  26
TORSDOF 6
ENDMDL
MODEL 4
REMARK VINA RESULT:    -7.134      6.364      9.468
REMARK INTER + INTRA:          -8.395
REMARK INTER:                  -8.166
REMARK INTRA:                  -0.229
REMARK UNBOUND:                 0.198
REMARK SMILES O=c1c(O)c(-c2ccc(O)c(O)c2)oc2cc(O)cc(O)c12
REMARK SMILES IDX 5 1 3 2 2 3 1 4 22 5 20 6 19 7 17 8 16 9 15 10 14 11 6 12
REMARK SMILES IDX 7 13 8 14 9 15 13 16 11 17 10 18 12 20 4 22 21 24 18 26
REMARK H PARENT 10 19 12 21 4 23 21 25 18 27
REMARK Flexibility Score: inf
ROOT
ATOM      1  C   UNL     1     -24.979  91.890 -28.612  1.00  0.00     0.180 A 
ATOM      2  C   UNL     1     -25.561  92.667 -27.591  1.00  0.00     0.208 A 
ATOM      3  C   UNL     1     -25.538  94.066 -27.707  1.00  0.00     0.238 A 
ATOM      4  O   UNL     1     -26.066  94.771 -26.804  1.00  0.00    -0.285 OA
ATOM      5  C   UNL     1     -24.920  94.663 -28.825  1.00  0.00     0.111 A 
ATOM      6  C   UNL     1     -24.851  96.064 -29.014  1.00  0.00     0.134 A 
ATOM      7  C   UNL     1     -24.210  96.581 -30.151  1.00  0.00     0.093 A 
ATOM      8  C   UNL     1     -23.638  95.728 -31.096  1.00  0.00     0.123 A 
ATOM      9  C   UNL     1     -23.704  94.343 -30.915  1.00  0.00     0.094 A 
ATOM     10  C   UNL     1     -24.339  93.807 -29.790  1.00  0.00     0.146 A 
ATOM     11  O   UNL     1     -24.393  92.488 -29.644  1.00  0.00    -0.452 OA
ENDROOT
BRANCH   1  12
ATOM     12  C   UNL     1     -24.981  90.410 -28.571  1.00  0.00     0.025 A 
ATOM     13  C   UNL     1     -26.185  89.717 -28.761  1.00  0.00     0.016 A 
ATOM     14  C   UNL     1     -26.213  88.322 -28.708  1.00  0.00     0.051 A 
ATOM     15  C   UNL     1     -25.046  87.594 -28.450  1.00  0.00     0.157 A 
ATOM     16  C   UNL     1     -23.812  89.683 -28.291  1.00  0.00     0.062 A 
ATOM     17  C   UNL     1     -23.831  88.284 -28.231  1.00  0.00     0.158 A 
BRANCH  15  18
ATOM     18  O   UNL     1     -25.140  86.200 -28.418  1.00  0.00    -0.504 OA
ATOM     19  H   UNL     1     -25.741  85.689 -27.788  1.00  0.00     0.293 HD
ENDBRANCH  15  18
BRANCH  17  20
ATOM     20  O   UNL     1     -22.631  87.626 -27.949  1.00  0.00    -0.504 OA
ATOM     21  H   UNL     1     -22.486  86.635 -28.079  1.00  0.00     0.293 HD
ENDBRANCH  17  20
ENDBRANCH   1  12
BRANCH   2  22
ATOM     22  O   UNL     1     -26.123  92.052 -26.469  1.00  0.00    -0.502 OA
ATOM     23  H   UNL     1     -27.091  92.187 -26.204  1.00  0.00     0.293 HD
ENDBRANCH   2  22
BRANCH   6  24
ATOM     24  O   UNL     1     -25.411  96.943 -28.087  1.00  0.00    -0.507 OA
ATOM     25  H   UNL     1     -25.838  96.612 -27.230  1.00  0.00     0.293 HD
ENDBRANCH   6  24
BRANCH   8  26
ATOM     26  O   UNL     1     -23.007  96.267 -32.215  1.00  0.00    -0.508 OA
ATOM     27  H   UNL     1     -22.337  95.731 -32.756  1.00  0.00     0.293 HD
ENDBRANCH   8  26
TORSDOF 6
ENDMDL
MODEL 5
REMARK VINA RESULT:    -7.105      6.260      9.637
REMARK INTER + INTRA:          -8.360
REMARK INTER:                  -8.030
REMARK INTRA:                  -0.330
REMARK UNBOUND:                 0.198
REMARK SMILES O=c1c(O)c(-c2ccc(O)c(O)c2)oc2cc(O)cc(O)c12
REMARK SMILES IDX 5 1 3 2 2 3 1 4 22 5 20 6 19 7 17 8 16 9 15 10 14 11 6 12
REMARK SMILES IDX 7 13 8 14 9 15 13 16 11 17 10 18 12 20 4 22 21 24 18 26
REMARK H PARENT 10 19 12 21 4 23 21 25 18 27
REMARK Flexibility Score: inf
ROOT
ATOM      1  C   UNL     1     -24.204  91.565 -29.903  1.00  0.00     0.180 A 
ATOM      2  C   UNL     1     -23.560  91.867 -31.119  1.00  0.00     0.208 A 
ATOM      3  C   UNL     1     -23.390  93.212 -31.481  1.00  0.00     0.238 A 
ATOM      4  O   UNL     1     -22.806  93.493 -32.562  1.00  0.00    -0.285 OA
ATOM      5  C   UNL     1     -23.882  94.229 -30.636  1.00  0.00     0.111 A 
ATOM      6  C   UNL     1     -23.755  95.608 -30.930  1.00  0.00     0.134 A 
ATOM      7  C   UNL     1     -24.278  96.559 -30.041  1.00  0.00     0.093 A 
ATOM      8  C   UNL     1     -24.925  96.160 -28.870  1.00  0.00     0.123 A 
ATOM      9  C   UNL     1     -25.053  94.799 -28.574  1.00  0.00     0.094 A 
ATOM     10  C   UNL     1     -24.537  93.835 -29.446  1.00  0.00     0.146 A 
ATOM     11  O   UNL     1     -24.667  92.550 -29.138  1.00  0.00    -0.452 OA
ENDROOT
BRANCH   1  12
ATOM     12  C   UNL     1     -24.403  90.172 -29.442  1.00  0.00     0.025 A 
ATOM     13  C   UNL     1     -25.632  89.539 -29.673  1.00  0.00     0.016 A 
ATOM     14  C   UNL     1     -25.848  88.232 -29.231  1.00  0.00     0.051 A 
ATOM     15  C   UNL     1     -24.850  87.539 -28.537  1.00  0.00     0.157 A 
ATOM     16  C   UNL     1     -23.406  89.487 -28.727  1.00  0.00     0.062 A 
ATOM     17  C   UNL     1     -23.615  88.177 -28.276  1.00  0.00     0.158 A 
BRANCH  15  18
ATOM     18  O   UNL     1     -25.126  86.232 -28.129  1.00  0.00    -0.504 OA
ATOM     19  H   UNL     1     -24.458  85.631 -27.669  1.00  0.00     0.293 HD
ENDBRANCH  15  18
BRANCH  17  20
ATOM     20  O   UNL     1     -22.580  87.557 -27.573  1.00  0.00    -0.504 OA
ATOM     21  H   UNL     1     -21.844  87.019 -28.009  1.00  0.00     0.293 HD
ENDBRANCH  17  20
ENDBRANCH   1  12
BRANCH   2  22
ATOM     22  O   UNL     1     -23.128  90.840 -31.962  1.00  0.00    -0.502 OA
ATOM     23  H   UNL     1     -23.098  89.871 -31.667  1.00  0.00     0.293 HD
ENDBRANCH   2  22
BRANCH   6  24
ATOM     24  O   UNL     1     -23.115  96.038 -32.093  1.00  0.00    -0.507 OA
ATOM     25  H   UNL     1     -22.328  96.676 -32.063  1.00  0.00     0.293 HD
ENDBRANCH   6  24
BRANCH   8  26
ATOM     26  O   UNL     1     -25.437  97.125 -28.006  1.00  0.00    -0.508 OA
ATOM     27  H   UNL     1     -26.054  96.877 -27.241  1.00  0.00     0.293 HD
ENDBRANCH   8  26
TORSDOF 6
ENDMDL
MODEL 6
REMARK VINA RESULT:    -7.102      1.434      6.686
REMARK INTER + INTRA:          -8.357
REMARK INTER:                  -8.077
REMARK INTRA:                  -0.279
REMARK UNBOUND:                 0.198
REMARK SMILES O=c1c(O)c(-c2ccc(O)c(O)c2)oc2cc(O)cc(O)c12
REMARK SMILES IDX 5 1 3 2 2 3 1 4 22 5 20 6 19 7 17 8 16 9 15 10 14 11 6 12
REMARK SMILES IDX 7 13 8 14 9 15 13 16 11 17 10 18 12 20 4 22 21 24 18 26
REMARK H PARENT 10 19 12 21 4 23 21 25 18 27
REMARK Flexibility Score: inf
ROOT
ATOM      1  C   UNL     1     -23.553  85.294 -23.772  1.00  0.00     0.180 A 
ATOM      2  C   UNL     1     -23.562  84.165 -24.613  1.00  0.00     0.208 A 
ATOM      3  C   UNL     1     -23.145  82.930 -24.094  1.00  0.00     0.238 A 
ATOM      4  O   UNL     1     -23.159  81.909 -24.835  1.00  0.00    -0.285 OA
ATOM      5  C   UNL     1     -22.707  82.847 -22.756  1.00  0.00     0.111 A 
ATOM      6  C   UNL     1     -22.266  81.642 -22.158  1.00  0.00     0.134 A 
ATOM      7  C   UNL     1     -21.838  81.645 -20.822  1.00  0.00     0.093 A 
ATOM      8  C   UNL     1     -21.841  82.824 -20.076  1.00  0.00     0.123 A 
ATOM      9  C   UNL     1     -22.276  84.018 -20.660  1.00  0.00     0.094 A 
ATOM     10  C   UNL     1     -22.708  84.036 -21.990  1.00  0.00     0.146 A 
ATOM     11  O   UNL     1     -23.121  85.182 -22.520  1.00  0.00    -0.452 OA
ENDROOT
BRANCH   1  12
ATOM     12  C   UNL     1     -23.998  86.627 -24.240  1.00  0.00     0.025 A 
ATOM     13  C   UNL     1     -25.369  86.890 -24.367  1.00  0.00     0.016 A 
ATOM     14  C   UNL     1     -25.811  88.134 -24.824  1.00  0.00     0.051 A 
ATOM     15  C   UNL     1     -24.895  89.130 -25.178  1.00  0.00     0.157 A 
ATOM     16  C   UNL     1     -23.076  87.618 -24.614  1.00  0.00     0.062 A 
ATOM     17  C   UNL     1     -23.508  88.867 -25.078  1.00  0.00     0.158 A 
BRANCH  15  18
ATOM     18  O   UNL     1     -25.401  90.355 -25.621  1.00  0.00    -0.504 OA
ATOM     19  H   UNL     1     -26.384  90.549 -25.740  1.00  0.00     0.293 HD
ENDBRANCH  15  18
BRANCH  17  20
ATOM     20  O   UNL     1     -22.536  89.805 -25.431  1.00  0.00    -0.504 OA
ATOM     21  H   UNL     1     -22.506  90.280 -26.321  1.00  0.00     0.293 HD
ENDBRANCH  17  20
ENDBRANCH   1  12
BRANCH   2  22
ATOM     22  O   UNL     1     -23.953  84.283 -25.949  1.00  0.00    -0.502 OA
ATOM     23  H   UNL     1     -23.782  83.554 -26.632  1.00  0.00     0.293 HD
ENDBRANCH   2  22
BRANCH   6  24
ATOM     24  O   UNL     1     -22.251  80.447 -22.878  1.00  0.00    -0.507 OA
ATOM     25  H   UNL     1     -23.005  79.773 -22.809  1.00  0.00     0.293 HD
ENDBRANCH   6  24
BRANCH   8  26
ATOM     26  O   UNL     1     -21.410  82.800 -18.751  1.00  0.00    -0.508 OA
ATOM     27  H   UNL     1     -21.542  83.594 -18.135  1.00  0.00     0.293 HD
ENDBRANCH   8  26
TORSDOF 6
ENDMDL
MODEL 7
REMARK VINA RESULT:    -6.800      4.940      8.233
REMARK INTER + INTRA:          -7.994
REMARK INTER:                  -7.672
REMARK INTRA:                  -0.322
REMARK UNBOUND:                 0.198
REMARK SMILES O=c1c(O)c(-c2ccc(O)c(O)c2)oc2cc(O)cc(O)c12
REMARK SMILES IDX 5 1 3 2 2 3 1 4 22 5 20 6 19 7 17 8 16 9 15 10 14 11 6 12
REMARK SMILES IDX 7 13 8 14 9 15 13 16 11 17 10 18 12 20 4 22 21 24 18 26
REMARK H PARENT 10 19 12 21 4 23 21 25 18 27
REMARK Flexibility Score: inf
ROOT
ATOM      1  C   UNL     1     -24.178  91.271 -28.156  1.00  0.00     0.180 A 
ATOM      2  C   UNL     1     -23.672  91.090 -29.458  1.00  0.00     0.208 A 
ATOM      3  C   UNL     1     -23.603  92.197 -30.318  1.00  0.00     0.238 A 
ATOM      4  O   UNL     1     -23.142  92.049 -31.482  1.00  0.00    -0.285 OA
ATOM      5  C   UNL     1     -24.058  93.456 -29.872  1.00  0.00     0.111 A 
ATOM      6  C   UNL     1     -24.027  94.620 -30.679  1.00  0.00     0.134 A 
ATOM      7  C   UNL     1     -24.506  95.834 -30.164  1.00  0.00     0.093 A 
ATOM      8  C   UNL     1     -25.014  95.907 -28.866  1.00  0.00     0.123 A 
ATOM      9  C   UNL     1     -25.047  94.761 -28.065  1.00  0.00     0.094 A 
ATOM     10  C   UNL     1     -24.573  93.541 -28.558  1.00  0.00     0.146 A 
ATOM     11  O   UNL     1     -24.610  92.469 -27.775  1.00  0.00    -0.452 OA
ENDROOT
BRANCH   1  12
ATOM     12  C   UNL     1     -24.264  90.157 -27.183  1.00  0.00     0.025 A 
ATOM     13  C   UNL     1     -25.493  89.515 -26.977  1.00  0.00     0.016 A 
ATOM     14  C   UNL     1     -25.600  88.475 -26.052  1.00  0.00     0.051 A 
ATOM     15  C   UNL     1     -24.490  88.068 -25.304  1.00  0.00     0.157 A 
ATOM     16  C   UNL     1     -23.152  89.764 -26.419  1.00  0.00     0.062 A 
ATOM     17  C   UNL     1     -23.251  88.725 -25.485  1.00  0.00     0.158 A 
BRANCH  15  18
ATOM     18  O   UNL     1     -24.663  87.016 -24.400  1.00  0.00    -0.504 OA
ATOM     19  H   UNL     1     -24.807  86.055 -24.673  1.00  0.00     0.293 HD
ENDBRANCH  15  18
BRANCH  17  20
ATOM     20  O   UNL     1     -22.106  88.387 -24.762  1.00  0.00    -0.504 OA
ATOM     21  H   UNL     1     -22.112  88.107 -23.792  1.00  0.00     0.293 HD
ENDBRANCH  17  20
ENDBRANCH   1  12
BRANCH   2  22
ATOM     22  O   UNL     1     -23.275  89.823 -29.891  1.00  0.00    -0.502 OA
ATOM     23  H   UNL     1     -22.359  89.646 -30.283  1.00  0.00     0.293 HD
ENDBRANCH   2  22
BRANCH   6  24
ATOM     24  O   UNL     1     -23.526  94.579 -31.979  1.00  0.00    -0.507 OA
ATOM     25  H   UNL     1     -22.551  94.376 -32.169  1.00  0.00     0.293 HD
ENDBRANCH   6  24
BRANCH   8  26
ATOM     26  O   UNL     1     -25.485  97.125 -28.380  1.00  0.00    -0.508 OA
ATOM     27  H   UNL     1     -24.860  97.903 -28.205  1.00  0.00     0.293 HD
ENDBRANCH   8  26
TORSDOF 6
ENDMDL
MODEL 8
REMARK VINA RESULT:    -6.794      1.244      1.805
REMARK INTER + INTRA:          -7.986
REMARK INTER:                  -7.781
REMARK INTRA:                  -0.205
REMARK UNBOUND:                 0.198
REMARK SMILES O=c1c(O)c(-c2ccc(O)c(O)c2)oc2cc(O)cc(O)c12
REMARK SMILES IDX 5 1 3 2 2 3 1 4 22 5 20 6 19 7 17 8 16 9 15 10 14 11 6 12
REMARK SMILES IDX 7 13 8 14 9 15 13 16 11 17 10 18 12 20 4 22 21 24 18 26
REMARK H PARENT 10 19 12 21 4 23 21 25 18 27
REMARK Flexibility Score: inf
ROOT
ATOM      1  C   UNL     1     -23.538  85.152 -23.373  1.00  0.00     0.180 A 
ATOM      2  C   UNL     1     -24.861  84.951 -23.816  1.00  0.00     0.208 A 
ATOM      3  C   UNL     1     -25.451  85.914 -24.648  1.00  0.00     0.238 A 
ATOM      4  O   UNL     1     -26.630  85.740 -25.059  1.00  0.00    -0.285 OA
ATOM      5  C   UNL     1     -24.722  87.068 -25.006  1.00  0.00     0.111 A 
ATOM      6  C   UNL     1     -25.246  88.088 -25.836  1.00  0.00     0.134 A 
ATOM      7  C   UNL     1     -24.458  89.209 -26.140  1.00  0.00     0.093 A 
ATOM      8  C   UNL     1     -23.165  89.331 -25.630  1.00  0.00     0.123 A 
ATOM      9  C   UNL     1     -22.642  88.326 -24.809  1.00  0.00     0.094 A 
ATOM     10  C   UNL     1     -23.409  87.200 -24.496  1.00  0.00     0.146 A 
ATOM     11  O   UNL     1     -22.887  86.258 -23.719  1.00  0.00    -0.452 OA
ENDROOT
BRANCH   1  12
ATOM     12  C   UNL     1     -22.840  84.172 -22.510  1.00  0.00     0.025 A 
ATOM     13  C   UNL     1     -22.497  82.916 -23.031  1.00  0.00     0.016 A 
ATOM     14  C   UNL     1     -21.855  81.970 -22.230  1.00  0.00     0.051 A 
ATOM     15  C   UNL     1     -21.559  82.251 -20.892  1.00  0.00     0.157 A 
ATOM     16  C   UNL     1     -22.563  84.449 -21.161  1.00  0.00     0.062 A 
ATOM     17  C   UNL     1     -21.924  83.505 -20.347  1.00  0.00     0.158 A 
BRANCH  15  18
ATOM     18  O   UNL     1     -20.909  81.264 -20.146  1.00  0.00    -0.504 OA
ATOM     19  H   UNL     1     -20.165  81.451 -19.490  1.00  0.00     0.293 HD
ENDBRANCH  15  18
BRANCH  17  20
ATOM     20  O   UNL     1     -21.678  83.849 -19.017  1.00  0.00    -0.504 OA
ATOM     21  H   UNL     1     -22.127  83.408 -18.227  1.00  0.00     0.293 HD
ENDBRANCH  17  20
ENDBRANCH   1  12
BRANCH   2  22
ATOM     22  O   UNL     1     -25.578  83.824 -23.406  1.00  0.00    -0.502 OA
ATOM     23  H   UNL     1     -25.508  82.933 -23.881  1.00  0.00     0.293 HD
ENDBRANCH   2  22
BRANCH   6  24
ATOM     24  O   UNL     1     -26.535  87.995 -26.360  1.00  0.00    -0.507 OA
ATOM     25  H   UNL     1     -26.764  87.343 -27.102  1.00  0.00     0.293 HD
ENDBRANCH   6  24
BRANCH   8  26
ATOM     26  O   UNL     1     -22.405  90.455 -25.945  1.00  0.00    -0.508 OA
ATOM     27  H   UNL     1     -22.776  91.392 -25.840  1.00  0.00     0.293 HD
ENDBRANCH   8  26
TORSDOF 6
ENDMDL
MODEL 9
REMARK VINA RESULT:    -6.630      1.958      7.503
REMARK INTER + INTRA:          -7.788
REMARK INTER:                  -7.474
REMARK INTRA:                  -0.314
REMARK UNBOUND:                 0.198
REMARK SMILES O=c1c(O)c(-c2ccc(O)c(O)c2)oc2cc(O)cc(O)c12
REMARK SMILES IDX 5 1 3 2 2 3 1 4 22 5 20 6 19 7 17 8 16 9 15 10 14 11 6 12
REMARK SMILES IDX 7 13 8 14 9 15 13 16 11 17 10 18 12 20 4 22 21 24 18 26
REMARK H PARENT 10 19 12 21 4 23 21 25 18 27
REMARK Flexibility Score: inf
ROOT
ATOM      1  C   UNL     1     -23.415  86.950 -25.139  1.00  0.00     0.180 A 
ATOM      2  C   UNL     1     -22.285  87.166 -24.327  1.00  0.00     0.208 A 
ATOM      3  C   UNL     1     -21.967  86.219 -23.342  1.00  0.00     0.238 A 
ATOM      4  O   UNL     1     -20.951  86.397 -22.616  1.00  0.00    -0.285 OA
ATOM      5  C   UNL     1     -22.791  85.088 -23.170  1.00  0.00     0.111 A 
ATOM      6  C   UNL     1     -22.542  84.089 -22.197  1.00  0.00     0.134 A 
ATOM      7  C   UNL     1     -23.415  82.997 -22.083  1.00  0.00     0.093 A 
ATOM      8  C   UNL     1     -24.527  82.884 -22.919  1.00  0.00     0.123 A 
ATOM      9  C   UNL     1     -24.778  83.866 -23.882  1.00  0.00     0.094 A 
ATOM     10  C   UNL     1     -23.919  84.962 -24.013  1.00  0.00     0.146 A 
ATOM     11  O   UNL     1     -24.177  85.878 -24.939  1.00  0.00    -0.452 OA
ENDROOT
BRANCH   1  12
ATOM     12  C   UNL     1     -23.804  87.892 -26.214  1.00  0.00     0.025 A 
ATOM     13  C   UNL     1     -23.354  87.668 -27.522  1.00  0.00     0.016 A 
ATOM     14  C   UNL     1     -23.694  88.554 -28.547  1.00  0.00     0.051 A 
ATOM     15  C   UNL     1     -24.472  89.686 -28.283  1.00  0.00     0.157 A 
ATOM     16  C   UNL     1     -24.568  89.039 -25.941  1.00  0.00     0.062 A 
ATOM     17  C   UNL     1     -24.910  89.936 -26.961  1.00  0.00     0.158 A 
BRANCH  15  18
ATOM     18  O   UNL     1     -24.783  90.529 -29.354  1.00  0.00    -0.504 OA
ATOM     19  H   UNL     1     -25.672  90.530 -29.832  1.00  0.00     0.293 HD
ENDBRANCH  15  18
BRANCH  17  20
ATOM     20  O   UNL     1     -25.673  91.054 -26.619  1.00  0.00    -0.504 OA
ATOM     21  H   UNL     1     -25.573  91.961 -27.052  1.00  0.00     0.293 HD
ENDBRANCH  17  20
ENDBRANCH   1  12
BRANCH   2  22
ATOM     22  O   UNL     1     -21.514  88.321 -24.485  1.00  0.00    -0.502 OA
ATOM     23  H   UNL     1     -20.679  88.342 -25.058  1.00  0.00     0.293 HD
ENDBRANCH   2  22
BRANCH   6  24
ATOM     24  O   UNL     1     -21.439  84.174 -21.347  1.00  0.00    -0.507 OA
ATOM     25  H   UNL     1     -20.558  83.728 -21.571  1.00  0.00     0.293 HD
ENDBRANCH   6  24
BRANCH   8  26
ATOM     26  O   UNL     1     -25.379  81.790 -22.785  1.00  0.00    -0.508 OA
ATOM     27  H   UNL     1     -25.709  81.272 -23.591  1.00  0.00     0.293 HD
ENDBRANCH   8  26
TORSDOF 6
ENDMDL
