MODEL 1
REMARK VINA RESULT:    -3.027      0.000      0.000
REMARK INTER + INTRA:         -12.271
REMARK INTER:                  -7.629
REMARK INTRA:                  -4.642
REMARK UNBOUND:                -4.642
REMARK SMILES CCCCCCCCCCCCCCCCCCCCCCCCCCCC(=O)[O-]
REMARK SMILES IDX 15 1 16 2 17 3 18 4 19 5 20 6 21 7 22 8 23 9 24 10 25 11
REMARK SMILES IDX 26 12 27 13 28 14 29 15 30 16 14 17 13 18 12 19 11 20 10 21
REMARK SMILES IDX 9 22 8 23 7 24 6 25 5 26 4 27 3 28 2 29 1 30
REMARK H PARENT
REMARK Flexibility Score: inf
ROOT
ATOM      1  C   UNL     1       7.845   6.097  -5.397  1.00  0.00     0.000 C 
ENDROOT
BRANCH   1   2
ATOM      2  C   UNL     1       7.347   5.150  -6.504  1.00  0.00     0.000 C 
BRANCH   2   3
ATOM      3  C   UNL     1       8.337   5.025  -7.673  1.00  0.00     0.000 C 
BRANCH   3   4
ATOM      4  C   UNL     1       7.706   5.372  -9.035  1.00  0.00     0.000 C 
BRANCH   4   5
ATOM      5  C   UNL     1       6.868   6.668  -9.063  1.00  0.00     0.000 C 
BRANCH   5   6
ATOM      6  C   UNL     1       5.396   6.489  -9.476  1.00  0.00     0.000 C 
BRANCH   6   7
ATOM      7  C   UNL     1       5.022   5.069  -9.941  1.00  0.00     0.000 C 
BRANCH   7   8
ATOM      8  C   UNL     1       3.952   4.384  -9.062  1.00  0.00     0.000 C 
BRANCH   8   9
ATOM      9  C   UNL     1       4.561   3.385  -8.062  1.00  0.00     0.000 C 
BRANCH   9  10
ATOM     10  C   UNL     1       5.009   2.077  -8.735  1.00  0.00     0.000 C 
BRANCH  10  11
ATOM     11  C   UNL     1       6.497   1.768  -8.488  1.00  0.00     0.000 C 
BRANCH  11  12
ATOM     12  C   UNL     1       6.820   1.569  -6.995  1.00  0.00     0.006 C 
BRANCH  12  13
ATOM     13  C   UNL     1       5.868   0.606  -6.269  1.00  0.00     0.053 C 
BRANCH  13  14
ATOM     14  C   UNL     1       6.134  -0.830  -6.620  1.00  0.00     0.041 C 
ATOM     15  O   UNL     1       5.379  -1.438  -7.426  1.00  0.00    -0.550 OA
ATOM     16  O   UNL     1       7.222  -1.493  -6.064  1.00  0.00    -0.550 OA
ENDBRANCH  13  14
ENDBRANCH  12  13
ENDBRANCH  11  12
ENDBRANCH  10  11
ENDBRANCH   9  10
ENDBRANCH   8   9
ENDBRANCH   7   8
ENDBRANCH   6   7
ENDBRANCH   5   6
ENDBRANCH   4   5
ENDBRANCH   3   4
ENDBRANCH   2   3
ENDBRANCH   1   2
BRANCH   1  17
ATOM     17  C   UNL     1       9.323   6.523  -5.510  1.00  0.00     0.000 C 
BRANCH  17  18
ATOM     18  C   UNL     1       9.559   8.044  -5.601  1.00  0.00     0.000 C 
BRANCH  18  19
ATOM     19  C   UNL     1       8.696   8.771  -6.651  1.00  0.00     0.000 C 
BRANCH  19  20
ATOM     20  C   UNL     1       7.615   9.709  -6.075  1.00  0.00     0.000 C 
BRANCH  20  21
ATOM     21  C   UNL     1       6.161   9.307  -6.386  1.00  0.00     0.000 C 
BRANCH  21  22
ATOM     22  C   UNL     1       5.152   9.868  -5.367  1.00  0.00    -0.000 C 
BRANCH  22  23
ATOM     23  C   UNL     1       5.710   9.899  -3.932  1.00  0.00    -0.000 C 
BRANCH  23  24
ATOM     24  C   UNL     1       5.285   8.717  -3.037  1.00  0.00    -0.000 C 
BRANCH  24  25
ATOM     25  C   UNL     1       6.424   7.764  -2.633  1.00  0.00    -0.000 C 
BRANCH  25  26
ATOM     26  C   UNL     1       7.744   8.500  -2.360  1.00  0.00    -0.000 C 
BRANCH  26  27
ATOM     27  C   UNL     1       8.266   8.187  -0.949  1.00  0.00    -0.000 C 
BRANCH  27  28
ATOM     28  C   UNL     1       7.897   9.271   0.081  1.00  0.00    -0.000 C 
BRANCH  28  29
ATOM     29  C   UNL     1       6.669   8.951   0.950  1.00  0.00    -0.003 C 
ATOM     30  C   UNL     1       5.427   9.745   0.543  1.00  0.00     0.004 C 
ENDBRANCH  28  29
ENDBRANCH  27  28
ENDBRANCH  26  27
ENDBRANCH  25  26
ENDBRANCH  24  25
ENDBRANCH  23  24
ENDBRANCH  22  23
ENDBRANCH  21  22
ENDBRANCH  20  21
ENDBRANCH  19  20
ENDBRANCH  18  19
ENDBRANCH  17  18
ENDBRANCH   1  17
TORSDOF 26
ENDMDL
MODEL 2
REMARK VINA RESULT:    -3.008      1.476      3.912
REMARK INTER + INTRA:         -12.222
REMARK INTER:                  -7.513
REMARK INTRA:                  -4.709
REMARK UNBOUND:                -4.642
REMARK SMILES CCCCCCCCCCCCCCCCCCCCCCCCCCCC(=O)[O-]
REMARK SMILES IDX 15 1 16 2 17 3 18 4 19 5 20 6 21 7 22 8 23 9 24 10 25 11
REMARK SMILES IDX 26 12 27 13 28 14 29 15 30 16 14 17 13 18 12 19 11 20 10 21
REMARK SMILES IDX 9 22 8 23 7 24 6 25 5 26 4 27 3 28 2 29 1 30
REMARK H PARENT
REMARK Flexibility Score: inf
ROOT
ATOM      1  C   UNL     1       5.244   4.164  -6.257  1.00  0.00     0.000 C 
ENDROOT
BRANCH   1   2
ATOM      2  C   UNL     1       6.128   5.425  -6.271  1.00  0.00     0.000 C 
BRANCH   2   3
ATOM      3  C   UNL     1       6.343   6.018  -4.869  1.00  0.00     0.000 C 
BRANCH   3   4
ATOM      4  C   UNL     1       7.817   6.362  -4.582  1.00  0.00     0.000 C 
BRANCH   4   5
ATOM      5  C   UNL     1       8.701   6.574  -5.829  1.00  0.00     0.000 C 
BRANCH   5   6
ATOM      6  C   UNL     1       9.580   5.374  -6.223  1.00  0.00     0.000 C 
BRANCH   6   7
ATOM      7  C   UNL     1       9.711   5.136  -7.739  1.00  0.00     0.000 C 
BRANCH   7   8
ATOM      8  C   UNL     1       8.870   3.951  -8.262  1.00  0.00     0.000 C 
BRANCH   8   9
ATOM      9  C   UNL     1       8.604   2.891  -7.179  1.00  0.00     0.000 C 
BRANCH   9  10
ATOM     10  C   UNL     1       8.662   1.456  -7.732  1.00  0.00     0.000 C 
BRANCH  10  11
ATOM     11  C   UNL     1       7.415   1.096  -8.561  1.00  0.00     0.000 C 
BRANCH  11  12
ATOM     12  C   UNL     1       6.733  -0.195  -8.073  1.00  0.00     0.006 C 
BRANCH  12  13
ATOM     13  C   UNL     1       7.550  -0.986  -7.039  1.00  0.00     0.053 C 
BRANCH  13  14
ATOM     14  C   UNL     1       6.879  -1.028  -5.696  1.00  0.00     0.041 C 
ATOM     15  O   UNL     1       6.441   0.030  -5.171  1.00  0.00    -0.550 OA
ATOM     16  O   UNL     1       6.730  -2.239  -5.030  1.00  0.00    -0.550 OA
ENDBRANCH  13  14
ENDBRANCH  12  13
ENDBRANCH  11  12
ENDBRANCH  10  11
ENDBRANCH   9  10
ENDBRANCH   8   9
ENDBRANCH   7   8
ENDBRANCH   6   7
ENDBRANCH   5   6
ENDBRANCH   4   5
ENDBRANCH   3   4
ENDBRANCH   2   3
ENDBRANCH   1   2
BRANCH   1  17
ATOM     17  C   UNL     1       4.656   3.756  -7.623  1.00  0.00     0.000 C 
BRANCH  17  18
ATOM     18  C   UNL     1       5.350   4.386  -8.846  1.00  0.00     0.000 C 
BRANCH  18  19
ATOM     19  C   UNL     1       4.531   5.475  -9.566  1.00  0.00     0.000 C 
BRANCH  19  20
ATOM     20  C   UNL     1       5.199   6.865  -9.626  1.00  0.00     0.000 C 
BRANCH  20  21
ATOM     21  C   UNL     1       6.733   6.864  -9.486  1.00  0.00     0.000 C 
BRANCH  21  22
ATOM     22  C   UNL     1       7.268   8.097  -8.735  1.00  0.00    -0.000 C 
BRANCH  22  23
ATOM     23  C   UNL     1       6.165   8.856  -7.976  1.00  0.00    -0.000 C 
BRANCH  23  24
ATOM     24  C   UNL     1       6.582   9.418  -6.602  1.00  0.00    -0.000 C 
BRANCH  24  25
ATOM     25  C   UNL     1       5.455   9.488  -5.557  1.00  0.00    -0.000 C 
BRANCH  25  26
ATOM     26  C   UNL     1       5.974   9.783  -4.142  1.00  0.00    -0.000 C 
BRANCH  26  27
ATOM     27  C   UNL     1       5.299   8.870  -3.107  1.00  0.00    -0.000 C 
BRANCH  27  28
ATOM     28  C   UNL     1       5.997   8.900  -1.735  1.00  0.00    -0.000 C 
BRANCH  28  29
ATOM     29  C   UNL     1       6.688   7.587  -1.328  1.00  0.00    -0.003 C 
ATOM     30  C   UNL     1       7.113   7.567   0.140  1.00  0.00     0.004 C 
ENDBRANCH  28  29
ENDBRANCH  27  28
ENDBRANCH  26  27
ENDBRANCH  25  26
ENDBRANCH  24  25
ENDBRANCH  23  24
ENDBRANCH  22  23
ENDBRANCH  21  22
ENDBRANCH  20  21
ENDBRANCH  19  20
ENDBRANCH  18  19
ENDBRANCH  17  18
ENDBRANCH   1  17
TORSDOF 26
ENDMDL
MODEL 3
REMARK VINA RESULT:    -2.974      3.730      8.271
REMARK INTER + INTRA:         -12.136
REMARK INTER:                  -7.196
REMARK INTRA:                  -4.940
REMARK UNBOUND:                -4.642
REMARK SMILES CCCCCCCCCCCCCCCCCCCCCCCCCCCC(=O)[O-]
REMARK SMILES IDX 15 1 16 2 17 3 18 4 19 5 20 6 21 7 22 8 23 9 24 10 25 11
REMARK SMILES IDX 26 12 27 13 28 14 29 15 30 16 14 17 13 18 12 19 11 20 10 21
REMARK SMILES IDX 9 22 8 23 7 24 6 25 5 26 4 27 3 28 2 29 1 30
REMARK H PARENT
REMARK Flexibility Score: inf
ROOT
ATOM      1  C   UNL     1       9.009   5.627  -5.522  1.00  0.00     0.000 C 
ENDROOT
BRANCH   1   2
ATOM      2  C   UNL     1      10.065   6.306  -6.414  1.00  0.00     0.000 C 
BRANCH   2   3
ATOM      3  C   UNL     1       9.681   6.301  -7.902  1.00  0.00     0.000 C 
BRANCH   3   4
ATOM      4  C   UNL     1       9.097   7.646  -8.376  1.00  0.00     0.000 C 
BRANCH   4   5
ATOM      5  C   UNL     1       9.490   8.873  -7.526  1.00  0.00     0.000 C 
BRANCH   5   6
ATOM      6  C   UNL     1       8.313   9.653  -6.915  1.00  0.00     0.000 C 
BRANCH   6   7
ATOM      7  C   UNL     1       6.989   9.545  -7.694  1.00  0.00     0.000 C 
BRANCH   7   8
ATOM      8  C   UNL     1       5.730   9.759  -6.824  1.00  0.00     0.000 C 
BRANCH   8   9
ATOM      9  C   UNL     1       6.055   9.826  -5.322  1.00  0.00     0.000 C 
BRANCH   9  10
ATOM     10  C   UNL     1       4.860   9.423  -4.442  1.00  0.00     0.000 C 
BRANCH  10  11
ATOM     11  C   UNL     1       5.139   9.623  -2.942  1.00  0.00     0.000 C 
BRANCH  11  12
ATOM     12  C   UNL     1       6.500   9.047  -2.511  1.00  0.00     0.006 C 
BRANCH  12  13
ATOM     13  C   UNL     1       6.437   8.153  -1.261  1.00  0.00     0.053 C 
BRANCH  13  14
ATOM     14  C   UNL     1       6.481   8.950   0.011  1.00  0.00     0.041 C 
ATOM     15  O   UNL     1       7.585   9.226   0.551  1.00  0.00    -0.550 OA
ATOM     16  O   UNL     1       5.301   9.396   0.594  1.00  0.00    -0.550 OA
ENDBRANCH  13  14
ENDBRANCH  12  13
ENDBRANCH  11  12
ENDBRANCH  10  11
ENDBRANCH   9  10
ENDBRANCH   8   9
ENDBRANCH   7   8
ENDBRANCH   6   7
ENDBRANCH   5   6
ENDBRANCH   4   5
ENDBRANCH   3   4
ENDBRANCH   2   3
ENDBRANCH   1   2
BRANCH   1  17
ATOM     17  C   UNL     1       7.899   6.557  -4.992  1.00  0.00     0.000 C 
BRANCH  17  18
ATOM     18  C   UNL     1       6.462   6.118  -5.334  1.00  0.00     0.000 C 
BRANCH  18  19
ATOM     19  C   UNL     1       6.164   5.999  -6.842  1.00  0.00     0.000 C 
BRANCH  19  20
ATOM     20  C   UNL     1       5.618   4.628  -7.295  1.00  0.00     0.000 C 
BRANCH  20  21
ATOM     21  C   UNL     1       6.588   3.444  -7.123  1.00  0.00     0.000 C 
BRANCH  21  22
ATOM     22  C   UNL     1       7.342   3.091  -8.417  1.00  0.00    -0.000 C 
BRANCH  22  23
ATOM     23  C   UNL     1       8.565   2.191  -8.168  1.00  0.00    -0.000 C 
BRANCH  23  24
ATOM     24  C   UNL     1       9.142   2.248  -6.738  1.00  0.00    -0.000 C 
BRANCH  24  25
ATOM     25  C   UNL     1       9.467   0.880  -6.114  1.00  0.00    -0.000 C 
BRANCH  25  26
ATOM     26  C   UNL     1       8.570  -0.246  -6.649  1.00  0.00    -0.000 C 
BRANCH  26  27
ATOM     27  C   UNL     1       7.405  -0.525  -5.686  1.00  0.00    -0.000 C 
BRANCH  27  28
ATOM     28  C   UNL     1       6.038  -0.116  -6.263  1.00  0.00    -0.000 C 
BRANCH  28  29
ATOM     29  C   UNL     1       5.586  -0.920  -7.495  1.00  0.00    -0.003 C 
ATOM     30  C   UNL     1       5.529  -0.078  -8.769  1.00  0.00     0.004 C 
ENDBRANCH  28  29
ENDBRANCH  27  28
ENDBRANCH  26  27
ENDBRANCH  25  26
ENDBRANCH  24  25
ENDBRANCH  23  24
ENDBRANCH  22  23
ENDBRANCH  21  22
ENDBRANCH  20  21
ENDBRANCH  19  20
ENDBRANCH  18  19
ENDBRANCH  17  18
ENDBRANCH   1  17
TORSDOF 26
ENDMDL
MODEL 4
REMARK VINA RESULT:    -2.905      3.267      8.697
REMARK INTER + INTRA:         -11.962
REMARK INTER:                  -7.416
REMARK INTRA:                  -4.545
REMARK UNBOUND:                -4.642
REMARK SMILES CCCCCCCCCCCCCCCCCCCCCCCCCCCC(=O)[O-]
REMARK SMILES IDX 15 1 16 2 17 3 18 4 19 5 20 6 21 7 22 8 23 9 24 10 25 11
REMARK SMILES IDX 26 12 27 13 28 14 29 15 30 16 14 17 13 18 12 19 11 20 10 21
REMARK SMILES IDX 9 22 8 23 7 24 6 25 5 26 4 27 3 28 2 29 1 30
REMARK H PARENT
REMARK Flexibility Score: inf
ROOT
ATOM      1  C   UNL     1       4.559   3.567  -7.688  1.00  0.00     0.000 C 
ENDROOT
BRANCH   1   2
ATOM      2  C   UNL     1       5.534   3.760  -6.512  1.00  0.00     0.000 C 
BRANCH   2   3
ATOM      3  C   UNL     1       6.005   5.215  -6.359  1.00  0.00     0.000 C 
BRANCH   3   4
ATOM      4  C   UNL     1       7.523   5.380  -6.560  1.00  0.00     0.000 C 
BRANCH   4   5
ATOM      5  C   UNL     1       7.951   5.949  -7.930  1.00  0.00     0.000 C 
BRANCH   5   6
ATOM      6  C   UNL     1       7.072   7.091  -8.469  1.00  0.00     0.000 C 
BRANCH   6   7
ATOM      7  C   UNL     1       7.425   8.491  -7.932  1.00  0.00     0.000 C 
BRANCH   7   8
ATOM      8  C   UNL     1       6.202   9.306  -7.456  1.00  0.00     0.000 C 
BRANCH   8   9
ATOM      9  C   UNL     1       5.826   9.008  -5.994  1.00  0.00     0.000 C 
BRANCH   9  10
ATOM     10  C   UNL     1       6.394  10.051  -5.016  1.00  0.00     0.000 C 
BRANCH  10  11
ATOM     11  C   UNL     1       7.112   9.403  -3.818  1.00  0.00     0.000 C 
BRANCH  11  12
ATOM     12  C   UNL     1       7.106   7.865  -3.886  1.00  0.00     0.006 C 
BRANCH  12  13
ATOM     13  C   UNL     1       6.442   7.185  -2.677  1.00  0.00     0.053 C 
BRANCH  13  14
ATOM     14  C   UNL     1       7.213   7.402  -1.407  1.00  0.00     0.041 C 
ATOM     15  O   UNL     1       6.626   7.364  -0.293  1.00  0.00    -0.550 OA
ATOM     16  O   UNL     1       8.583   7.634  -1.455  1.00  0.00    -0.550 OA
ENDBRANCH  13  14
ENDBRANCH  12  13
ENDBRANCH  11  12
ENDBRANCH  10  11
ENDBRANCH   9  10
ENDBRANCH   8   9
ENDBRANCH   7   8
ENDBRANCH   6   7
ENDBRANCH   5   6
ENDBRANCH   4   5
ENDBRANCH   3   4
ENDBRANCH   2   3
ENDBRANCH   1   2
BRANCH   1  17
ATOM     17  C   UNL     1       5.025   2.579  -8.776  1.00  0.00     0.000 C 
BRANCH  17  18
ATOM     18  C   UNL     1       6.277   3.016  -9.562  1.00  0.00     0.000 C 
BRANCH  18  19
ATOM     19  C   UNL     1       7.498   2.089  -9.402  1.00  0.00     0.000 C 
BRANCH  19  20
ATOM     20  C   UNL     1       8.863   2.806  -9.360  1.00  0.00     0.000 C 
BRANCH  20  21
ATOM     21  C   UNL     1       9.726   2.507  -8.120  1.00  0.00     0.000 C 
BRANCH  21  22
ATOM     22  C   UNL     1       8.891   2.104  -6.891  1.00  0.00    -0.000 C 
BRANCH  22  23
ATOM     23  C   UNL     1       9.379   0.795  -6.243  1.00  0.00    -0.000 C 
BRANCH  23  24
ATOM     24  C   UNL     1       8.437  -0.414  -6.415  1.00  0.00    -0.000 C 
BRANCH  24  25
ATOM     25  C   UNL     1       7.083  -0.292  -5.693  1.00  0.00    -0.000 C 
BRANCH  25  26
ATOM     26  C   UNL     1       5.904  -0.139  -6.666  1.00  0.00    -0.000 C 
BRANCH  26  27
ATOM     27  C   UNL     1       5.432  -1.509  -7.177  1.00  0.00    -0.000 C 
BRANCH  27  28
ATOM     28  C   UNL     1       5.124  -1.512  -8.686  1.00  0.00    -0.000 C 
BRANCH  28  29
ATOM     29  C   UNL     1       6.330  -1.217  -9.595  1.00  0.00    -0.003 C 
ATOM     30  C   UNL     1       7.423  -2.281  -9.501  1.00  0.00     0.004 C 
ENDBRANCH  28  29
ENDBRANCH  27  28
ENDBRANCH  26  27
ENDBRANCH  25  26
ENDBRANCH  24  25
ENDBRANCH  23  24
ENDBRANCH  22  23
ENDBRANCH  21  22
ENDBRANCH  20  21
ENDBRANCH  19  20
ENDBRANCH  18  19
ENDBRANCH  17  18
ENDBRANCH   1  17
TORSDOF 26
ENDMDL
MODEL 5
REMARK VINA RESULT:    -2.860      3.298      8.345
REMARK INTER + INTRA:         -11.850
REMARK INTER:                  -7.605
REMARK INTRA:                  -4.246
REMARK UNBOUND:                -4.642
REMARK SMILES CCCCCCCCCCCCCCCCCCCCCCCCCCCC(=O)[O-]
REMARK SMILES IDX 15 1 16 2 17 3 18 4 19 5 20 6 21 7 22 8 23 9 24 10 25 11
REMARK SMILES IDX 26 12 27 13 28 14 29 15 30 16 14 17 13 18 12 19 11 20 10 21
REMARK SMILES IDX 9 22 8 23 7 24 6 25 5 26 4 27 3 28 2 29 1 30
REMARK H PARENT
REMARK Flexibility Score: inf
ROOT
ATOM      1  C   UNL     1       4.397   3.285  -8.561  1.00  0.00     0.000 C 
ENDROOT
BRANCH   1   2
ATOM      2  C   UNL     1       4.068   4.441  -9.524  1.00  0.00     0.000 C 
BRANCH   2   3
ATOM      3  C   UNL     1       5.320   5.186 -10.014  1.00  0.00     0.000 C 
BRANCH   3   4
ATOM      4  C   UNL     1       5.240   6.707  -9.789  1.00  0.00     0.000 C 
BRANCH   4   5
ATOM      5  C   UNL     1       6.564   7.386  -9.377  1.00  0.00     0.000 C 
BRANCH   5   6
ATOM      6  C   UNL     1       6.441   8.445  -8.267  1.00  0.00     0.000 C 
BRANCH   6   7
ATOM      7  C   UNL     1       7.646   8.523  -7.310  1.00  0.00     0.000 C 
BRANCH   7   8
ATOM      8  C   UNL     1       7.323   9.181  -5.950  1.00  0.00     0.000 C 
BRANCH   8   9
ATOM      9  C   UNL     1       5.867   8.945  -5.510  1.00  0.00     0.000 C 
BRANCH   9  10
ATOM     10  C   UNL     1       5.744   8.687  -3.998  1.00  0.00     0.000 C 
BRANCH  10  11
ATOM     11  C   UNL     1       6.662   7.548  -3.520  1.00  0.00     0.000 C 
BRANCH  11  12
ATOM     12  C   UNL     1       6.498   7.245  -2.019  1.00  0.00     0.006 C 
BRANCH  12  13
ATOM     13  C   UNL     1       7.520   7.958  -1.119  1.00  0.00     0.053 C 
BRANCH  13  14
ATOM     14  C   UNL     1       7.192   7.813   0.340  1.00  0.00     0.041 C 
ATOM     15  O   UNL     1       7.010   8.834   1.055  1.00  0.00    -0.550 OA
ATOM     16  O   UNL     1       7.076   6.548   0.905  1.00  0.00    -0.550 OA
ENDBRANCH  13  14
ENDBRANCH  12  13
ENDBRANCH  11  12
ENDBRANCH  10  11
ENDBRANCH   9  10
ENDBRANCH   8   9
ENDBRANCH   7   8
ENDBRANCH   6   7
ENDBRANCH   5   6
ENDBRANCH   4   5
ENDBRANCH   3   4
ENDBRANCH   2   3
ENDBRANCH   1   2
BRANCH   1  17
ATOM     17  C   UNL     1       4.133   3.575  -7.070  1.00  0.00     0.000 C 
BRANCH  17  18
ATOM     18  C   UNL     1       5.398   3.744  -6.205  1.00  0.00     0.000 C 
BRANCH  18  19
ATOM     19  C   UNL     1       6.158   5.068  -6.422  1.00  0.00     0.000 C 
BRANCH  19  20
ATOM     20  C   UNL     1       7.617   4.914  -6.899  1.00  0.00     0.000 C 
BRANCH  20  21
ATOM     21  C   UNL     1       8.068   3.469  -7.183  1.00  0.00     0.000 C 
BRANCH  21  22
ATOM     22  C   UNL     1       8.077   3.126  -8.683  1.00  0.00    -0.000 C 
BRANCH  22  23
ATOM     23  C   UNL     1       9.042   1.976  -9.025  1.00  0.00    -0.000 C 
BRANCH  23  24
ATOM     24  C   UNL     1       8.368   0.676  -9.511  1.00  0.00    -0.000 C 
BRANCH  24  25
ATOM     25  C   UNL     1       6.907   0.831  -9.966  1.00  0.00    -0.000 C 
BRANCH  25  26
ATOM     26  C   UNL     1       5.903   0.331  -8.916  1.00  0.00    -0.000 C 
BRANCH  26  27
ATOM     27  C   UNL     1       6.441  -0.911  -8.189  1.00  0.00    -0.000 C 
BRANCH  27  28
ATOM     28  C   UNL     1       5.948  -1.014  -6.734  1.00  0.00    -0.000 C 
BRANCH  28  29
ATOM     29  C   UNL     1       6.635  -0.055  -5.745  1.00  0.00    -0.003 C 
ATOM     30  C   UNL     1       8.153  -0.008  -5.918  1.00  0.00     0.004 C 
ENDBRANCH  28  29
ENDBRANCH  27  28
ENDBRANCH  26  27
ENDBRANCH  25  26
ENDBRANCH  24  25
ENDBRANCH  23  24
ENDBRANCH  22  23
ENDBRANCH  21  22
ENDBRANCH  20  21
ENDBRANCH  19  20
ENDBRANCH  18  19
ENDBRANCH  17  18
ENDBRANCH   1  17
TORSDOF 26
ENDMDL
MODEL 6
REMARK VINA RESULT:    -2.847      1.667      3.716
REMARK INTER + INTRA:         -11.818
REMARK INTER:                  -7.682
REMARK INTRA:                  -4.136
REMARK UNBOUND:                -4.642
REMARK SMILES CCCCCCCCCCCCCCCCCCCCCCCCCCCC(=O)[O-]
REMARK SMILES IDX 15 1 16 2 17 3 18 4 19 5 20 6 21 7 22 8 23 9 24 10 25 11
REMARK SMILES IDX 26 12 27 13 28 14 29 15 30 16 14 17 13 18 12 19 11 20 10 21
REMARK SMILES IDX 9 22 8 23 7 24 6 25 5 26 4 27 3 28 2 29 1 30
REMARK H PARENT
REMARK Flexibility Score: inf
ROOT
ATOM      1  C   UNL     1       5.185   2.461  -8.105  1.00  0.00     0.000 C 
ENDROOT
BRANCH   1   2
ATOM      2  C   UNL     1       5.821   2.662  -9.493  1.00  0.00     0.000 C 
BRANCH   2   3
ATOM      3  C   UNL     1       5.959   4.144  -9.877  1.00  0.00     0.000 C 
BRANCH   3   4
ATOM      4  C   UNL     1       7.393   4.679  -9.704  1.00  0.00     0.000 C 
BRANCH   4   5
ATOM      5  C   UNL     1       8.503   3.606  -9.704  1.00  0.00     0.000 C 
BRANCH   5   6
ATOM      6  C   UNL     1       9.507   3.700  -8.541  1.00  0.00     0.000 C 
BRANCH   6   7
ATOM      7  C   UNL     1       8.930   3.348  -7.157  1.00  0.00     0.000 C 
BRANCH   7   8
ATOM      8  C   UNL     1       8.511   1.868  -7.011  1.00  0.00     0.000 C 
BRANCH   8   9
ATOM      9  C   UNL     1       9.706   0.904  -7.104  1.00  0.00     0.000 C 
BRANCH   9  10
ATOM     10  C   UNL     1       9.450  -0.259  -8.079  1.00  0.00     0.000 C 
BRANCH  10  11
ATOM     11  C   UNL     1       8.020  -0.243  -8.649  1.00  0.00     0.000 C 
BRANCH  11  12
ATOM     12  C   UNL     1       7.189  -1.457  -8.196  1.00  0.00     0.006 C 
BRANCH  12  13
ATOM     13  C   UNL     1       6.021  -1.105  -7.259  1.00  0.00     0.053 C 
BRANCH  13  14
ATOM     14  C   UNL     1       6.442  -1.059  -5.818  1.00  0.00     0.041 C 
ATOM     15  O   UNL     1       6.424   0.031  -5.186  1.00  0.00    -0.550 OA
ATOM     16  O   UNL     1       6.843  -2.222  -5.172  1.00  0.00    -0.550 OA
ENDBRANCH  13  14
ENDBRANCH  12  13
ENDBRANCH  11  12
ENDBRANCH  10  11
ENDBRANCH   9  10
ENDBRANCH   8   9
ENDBRANCH   7   8
ENDBRANCH   6   7
ENDBRANCH   5   6
ENDBRANCH   4   5
ENDBRANCH   3   4
ENDBRANCH   2   3
ENDBRANCH   1   2
BRANCH   1  17
ATOM     17  C   UNL     1       4.587   3.730  -7.464  1.00  0.00     0.000 C 
BRANCH  17  18
ATOM     18  C   UNL     1       5.356   4.267  -6.241  1.00  0.00     0.000 C 
BRANCH  18  19
ATOM     19  C   UNL     1       6.001   5.653  -6.439  1.00  0.00     0.000 C 
BRANCH  19  20
ATOM     20  C   UNL     1       7.199   5.956  -5.516  1.00  0.00     0.000 C 
BRANCH  20  21
ATOM     21  C   UNL     1       7.996   7.227  -5.866  1.00  0.00     0.000 C 
BRANCH  21  22
ATOM     22  C   UNL     1       8.331   8.084  -4.632  1.00  0.00    -0.000 C 
BRANCH  22  23
ATOM     23  C   UNL     1       7.537   9.402  -4.588  1.00  0.00    -0.000 C 
BRANCH  23  24
ATOM     24  C   UNL     1       6.017   9.260  -4.805  1.00  0.00    -0.000 C 
BRANCH  24  25
ATOM     25  C   UNL     1       5.228   8.764  -3.581  1.00  0.00    -0.000 C 
BRANCH  25  26
ATOM     26  C   UNL     1       4.758   9.910  -2.673  1.00  0.00    -0.000 C 
BRANCH  26  27
ATOM     27  C   UNL     1       5.218   9.688  -1.224  1.00  0.00    -0.000 C 
BRANCH  27  28
ATOM     28  C   UNL     1       6.309   8.608  -1.100  1.00  0.00    -0.000 C 
BRANCH  28  29
ATOM     29  C   UNL     1       6.740   8.283   0.341  1.00  0.00    -0.003 C 
ATOM     30  C   UNL     1       8.020   7.450   0.406  1.00  0.00     0.004 C 
ENDBRANCH  28  29
ENDBRANCH  27  28
ENDBRANCH  26  27
ENDBRANCH  25  26
ENDBRANCH  24  25
ENDBRANCH  23  24
ENDBRANCH  22  23
ENDBRANCH  21  22
ENDBRANCH  20  21
ENDBRANCH  19  20
ENDBRANCH  18  19
ENDBRANCH  17  18
ENDBRANCH   1  17
TORSDOF 26
ENDMDL
MODEL 7
REMARK VINA RESULT:    -2.816      3.603      8.650
REMARK INTER + INTRA:         -11.738
REMARK INTER:                  -7.075
REMARK INTRA:                  -4.663
REMARK UNBOUND:                -4.642
REMARK SMILES CCCCCCCCCCCCCCCCCCCCCCCCCCCC(=O)[O-]
REMARK SMILES IDX 15 1 16 2 17 3 18 4 19 5 20 6 21 7 22 8 23 9 24 10 25 11
REMARK SMILES IDX 26 12 27 13 28 14 29 15 30 16 14 17 13 18 12 19 11 20 10 21
REMARK SMILES IDX 9 22 8 23 7 24 6 25 5 26 4 27 3 28 2 29 1 30
REMARK H PARENT
REMARK Flexibility Score: inf
ROOT
ATOM      1  C   UNL     1       4.363   3.702  -7.725  1.00  0.00     0.000 C 
ENDROOT
BRANCH   1   2
ATOM      2  C   UNL     1       5.291   3.527  -6.508  1.00  0.00     0.000 C 
BRANCH   2   3
ATOM      3  C   UNL     1       5.626   4.858  -5.817  1.00  0.00     0.000 C 
BRANCH   3   4
ATOM      4  C   UNL     1       6.780   5.616  -6.499  1.00  0.00     0.000 C 
BRANCH   4   5
ATOM      5  C   UNL     1       6.357   6.815  -7.375  1.00  0.00     0.000 C 
BRANCH   5   6
ATOM      6  C   UNL     1       6.128   8.134  -6.615  1.00  0.00     0.000 C 
BRANCH   6   7
ATOM      7  C   UNL     1       7.196   9.217  -6.859  1.00  0.00     0.000 C 
BRANCH   7   8
ATOM      8  C   UNL     1       8.063   9.532  -5.621  1.00  0.00     0.000 C 
BRANCH   8   9
ATOM      9  C   UNL     1       9.037   8.392  -5.276  1.00  0.00     0.000 C 
BRANCH   9  10
ATOM     10  C   UNL     1       9.059   8.072  -3.771  1.00  0.00     0.000 C 
BRANCH  10  11
ATOM     11  C   UNL     1       8.251   6.807  -3.428  1.00  0.00     0.000 C 
BRANCH  11  12
ATOM     12  C   UNL     1       6.781   7.117  -3.092  1.00  0.00     0.006 C 
BRANCH  12  13
ATOM     13  C   UNL     1       6.542   7.520  -1.628  1.00  0.00     0.053 C 
BRANCH  13  14
ATOM     14  C   UNL     1       5.995   8.913  -1.502  1.00  0.00     0.041 C 
ATOM     15  O   UNL     1       6.241   9.775  -2.388  1.00  0.00    -0.550 OA
ATOM     16  O   UNL     1       5.204   9.255  -0.411  1.00  0.00    -0.550 OA
ENDBRANCH  13  14
ENDBRANCH  12  13
ENDBRANCH  11  12
ENDBRANCH  10  11
ENDBRANCH   9  10
ENDBRANCH   8   9
ENDBRANCH   7   8
ENDBRANCH   6   7
ENDBRANCH   5   6
ENDBRANCH   4   5
ENDBRANCH   3   4
ENDBRANCH   2   3
ENDBRANCH   1   2
BRANCH   1  17
ATOM     17  C   UNL     1       4.859   3.048  -9.031  1.00  0.00     0.000 C 
BRANCH  17  18
ATOM     18  C   UNL     1       6.035   3.771  -9.717  1.00  0.00     0.000 C 
BRANCH  18  19
ATOM     19  C   UNL     1       7.392   3.048  -9.608  1.00  0.00     0.000 C 
BRANCH  19  20
ATOM     20  C   UNL     1       8.575   3.937  -9.174  1.00  0.00     0.000 C 
BRANCH  20  21
ATOM     21  C   UNL     1       9.328   3.464  -7.916  1.00  0.00     0.000 C 
BRANCH  21  22
ATOM     22  C   UNL     1       8.662   2.253  -7.238  1.00  0.00    -0.000 C 
BRANCH  22  23
ATOM     23  C   UNL     1       9.684   1.257  -6.662  1.00  0.00    -0.000 C 
BRANCH  23  24
ATOM     24  C   UNL     1       9.871  -0.038  -7.477  1.00  0.00    -0.000 C 
BRANCH  24  25
ATOM     25  C   UNL     1       9.618   0.102  -8.988  1.00  0.00    -0.000 C 
BRANCH  25  26
ATOM     26  C   UNL     1       8.310  -0.567  -9.435  1.00  0.00    -0.000 C 
BRANCH  26  27
ATOM     27  C   UNL     1       7.806  -1.554  -8.371  1.00  0.00    -0.000 C 
BRANCH  27  28
ATOM     28  C   UNL     1       6.421  -1.179  -7.813  1.00  0.00    -0.000 C 
BRANCH  28  29
ATOM     29  C   UNL     1       6.275  -1.319  -6.288  1.00  0.00    -0.003 C 
ATOM     30  C   UNL     1       6.331   0.023  -5.558  1.00  0.00     0.004 C 
ENDBRANCH  28  29
ENDBRANCH  27  28
ENDBRANCH  26  27
ENDBRANCH  25  26
ENDBRANCH  24  25
ENDBRANCH  23  24
ENDBRANCH  22  23
ENDBRANCH  21  22
ENDBRANCH  20  21
ENDBRANCH  19  20
ENDBRANCH  18  19
ENDBRANCH  17  18
ENDBRANCH   1  17
TORSDOF 26
ENDMDL
MODEL 8
REMARK VINA RESULT:    -2.789      1.685      4.092
REMARK INTER + INTRA:         -11.671
REMARK INTER:                  -7.086
REMARK INTRA:                  -4.585
REMARK UNBOUND:                -4.642
REMARK SMILES CCCCCCCCCCCCCCCCCCCCCCCCCCCC(=O)[O-]
REMARK SMILES IDX 15 1 16 2 17 3 18 4 19 5 20 6 21 7 22 8 23 9 24 10 25 11
REMARK SMILES IDX 26 12 27 13 28 14 29 15 30 16 14 17 13 18 12 19 11 20 10 21
REMARK SMILES IDX 9 22 8 23 7 24 6 25 5 26 4 27 3 28 2 29 1 30
REMARK H PARENT
REMARK Flexibility Score: inf
ROOT
ATOM      1  C   UNL     1       4.962   2.597  -7.279  1.00  0.00     0.000 C 
ENDROOT
BRANCH   1   2
ATOM      2  C   UNL     1       5.081   2.382  -8.799  1.00  0.00     0.000 C 
BRANCH   2   3
ATOM      3  C   UNL     1       5.523   3.649  -9.549  1.00  0.00     0.000 C 
BRANCH   3   4
ATOM      4  C   UNL     1       7.032   3.671  -9.855  1.00  0.00     0.000 C 
BRANCH   4   5
ATOM      5  C   UNL     1       7.689   2.286 -10.039  1.00  0.00     0.000 C 
BRANCH   5   6
ATOM      6  C   UNL     1       9.011   2.080  -9.278  1.00  0.00     0.000 C 
BRANCH   6   7
ATOM      7  C   UNL     1       9.075   2.755  -7.895  1.00  0.00     0.000 C 
BRANCH   7   8
ATOM      8  C   UNL     1       8.414   1.932  -6.767  1.00  0.00     0.000 C 
BRANCH   8   9
ATOM      9  C   UNL     1       9.173   0.628  -6.464  1.00  0.00     0.000 C 
BRANCH   9  10
ATOM     10  C   UNL     1       8.275  -0.616  -6.582  1.00  0.00     0.000 C 
BRANCH  10  11
ATOM     11  C   UNL     1       6.795  -0.254  -6.804  1.00  0.00     0.000 C 
BRANCH  11  12
ATOM     12  C   UNL     1       5.873  -1.486  -6.770  1.00  0.00     0.006 C 
BRANCH  12  13
ATOM     13  C   UNL     1       5.197  -1.801  -8.114  1.00  0.00     0.053 C 
BRANCH  13  14
ATOM     14  C   UNL     1       6.143  -1.667  -9.273  1.00  0.00     0.041 C 
ATOM     15  O   UNL     1       5.981  -0.752 -10.123  1.00  0.00    -0.550 OA
ATOM     16  O   UNL     1       7.210  -2.548  -9.406  1.00  0.00    -0.550 OA
ENDBRANCH  13  14
ENDBRANCH  12  13
ENDBRANCH  11  12
ENDBRANCH  10  11
ENDBRANCH   9  10
ENDBRANCH   8   9
ENDBRANCH   7   8
ENDBRANCH   6   7
ENDBRANCH   5   6
ENDBRANCH   4   5
ENDBRANCH   3   4
ENDBRANCH   2   3
ENDBRANCH   1   2
BRANCH   1  17
ATOM     17  C   UNL     1       4.595   4.029  -6.843  1.00  0.00     0.000 C 
BRANCH  17  18
ATOM     18  C   UNL     1       5.623   4.715  -5.922  1.00  0.00     0.000 C 
BRANCH  18  19
ATOM     19  C   UNL     1       6.583   5.688  -6.635  1.00  0.00     0.000 C 
BRANCH  19  20
ATOM     20  C   UNL     1       8.010   5.745  -6.051  1.00  0.00     0.000 C 
BRANCH  20  21
ATOM     21  C   UNL     1       8.850   6.963  -6.482  1.00  0.00     0.000 C 
BRANCH  21  22
ATOM     22  C   UNL     1       9.077   7.969  -5.340  1.00  0.00    -0.000 C 
BRANCH  22  23
ATOM     23  C   UNL     1       8.544   9.375  -5.669  1.00  0.00    -0.000 C 
BRANCH  23  24
ATOM     24  C   UNL     1       7.331   9.411  -6.621  1.00  0.00    -0.000 C 
BRANCH  24  25
ATOM     25  C   UNL     1       5.966   9.192  -5.945  1.00  0.00    -0.000 C 
BRANCH  25  26
ATOM     26  C   UNL     1       5.874   9.859  -4.565  1.00  0.00    -0.000 C 
BRANCH  26  27
ATOM     27  C   UNL     1       5.237   8.911  -3.537  1.00  0.00    -0.000 C 
BRANCH  27  28
ATOM     28  C   UNL     1       5.976   7.565  -3.425  1.00  0.00    -0.000 C 
BRANCH  28  29
ATOM     29  C   UNL     1       6.744   7.353  -2.109  1.00  0.00    -0.003 C 
ATOM     30  C   UNL     1       6.348   8.351  -1.020  1.00  0.00     0.004 C 
ENDBRANCH  28  29
ENDBRANCH  27  28
ENDBRANCH  26  27
ENDBRANCH  25  26
ENDBRANCH  24  25
ENDBRANCH  23  24
ENDBRANCH  22  23
ENDBRANCH  21  22
ENDBRANCH  20  21
ENDBRANCH  19  20
ENDBRANCH  18  19
ENDBRANCH  17  18
ENDBRANCH   1  17
TORSDOF 26
ENDMDL
MODEL 9
REMARK VINA RESULT:    -2.757      1.595      2.893
REMARK INTER + INTRA:         -11.589
REMARK INTER:                  -7.590
REMARK INTRA:                  -3.999
REMARK UNBOUND:                -4.642
REMARK SMILES CCCCCCCCCCCCCCCCCCCCCCCCCCCC(=O)[O-]
REMARK SMILES IDX 15 1 16 2 17 3 18 4 19 5 20 6 21 7 22 8 23 9 24 10 25 11
REMARK SMILES IDX 26 12 27 13 28 14 29 15 30 16 14 17 13 18 12 19 11 20 10 21
REMARK SMILES IDX 9 22 8 23 7 24 6 25 5 26 4 27 3 28 2 29 1 30
REMARK H PARENT
REMARK Flexibility Score: inf
ROOT
ATOM      1  C   UNL     1       5.910   4.985  -5.973  1.00  0.00     0.000 C 
ENDROOT
BRANCH   1   2
ATOM      2  C   UNL     1       5.724   4.997  -7.502  1.00  0.00     0.000 C 
BRANCH   2   3
ATOM      3  C   UNL     1       6.529   6.110  -8.193  1.00  0.00     0.000 C 
BRANCH   3   4
ATOM      4  C   UNL     1       7.872   5.616  -8.760  1.00  0.00     0.000 C 
BRANCH   4   5
ATOM      5  C   UNL     1       9.127   6.079  -7.989  1.00  0.00     0.000 C 
BRANCH   5   6
ATOM      6  C   UNL     1       9.947   4.954  -7.333  1.00  0.00     0.000 C 
BRANCH   6   7
ATOM      7  C   UNL     1       9.132   3.714  -6.919  1.00  0.00     0.000 C 
BRANCH   7   8
ATOM      8  C   UNL     1       9.669   2.388  -7.502  1.00  0.00     0.000 C 
BRANCH   8   9
ATOM      9  C   UNL     1       8.849   1.897  -8.708  1.00  0.00     0.000 C 
BRANCH   9  10
ATOM     10  C   UNL     1       7.332   1.987  -8.464  1.00  0.00     0.000 C 
BRANCH  10  11
ATOM     11  C   UNL     1       6.615   0.651  -8.730  1.00  0.00     0.000 C 
BRANCH  11  12
ATOM     12  C   UNL     1       5.716   0.218  -7.557  1.00  0.00     0.006 C 
BRANCH  12  13
ATOM     13  C   UNL     1       6.325   0.478  -6.170  1.00  0.00     0.053 C 
BRANCH  13  14
ATOM     14  C   UNL     1       7.256  -0.619  -5.741  1.00  0.00     0.041 C 
ATOM     15  O   UNL     1       6.902  -1.444  -4.857  1.00  0.00    -0.550 OA
ATOM     16  O   UNL     1       8.511  -0.736  -6.327  1.00  0.00    -0.550 OA
ENDBRANCH  13  14
ENDBRANCH  12  13
ENDBRANCH  11  12
ENDBRANCH  10  11
ENDBRANCH   9  10
ENDBRANCH   8   9
ENDBRANCH   7   8
ENDBRANCH   6   7
ENDBRANCH   5   6
ENDBRANCH   4   5
ENDBRANCH   3   4
ENDBRANCH   2   3
ENDBRANCH   1   2
BRANCH   1  17
ATOM     17  C   UNL     1       6.300   6.339  -5.346  1.00  0.00     0.000 C 
BRANCH  17  18
ATOM     18  C   UNL     1       7.669   6.359  -4.637  1.00  0.00     0.000 C 
BRANCH  18  19
ATOM     19  C   UNL     1       8.235   7.767  -4.363  1.00  0.00     0.000 C 
BRANCH  19  20
ATOM     20  C   UNL     1       7.747   8.868  -5.328  1.00  0.00     0.000 C 
BRANCH  20  21
ATOM     21  C   UNL     1       7.083  10.084  -4.657  1.00  0.00     0.000 C 
BRANCH  21  22
ATOM     22  C   UNL     1       5.545  10.013  -4.673  1.00  0.00    -0.000 C 
BRANCH  22  23
ATOM     23  C   UNL     1       4.976   9.181  -3.510  1.00  0.00    -0.000 C 
BRANCH  23  24
ATOM     24  C   UNL     1       4.792   9.944  -2.183  1.00  0.00    -0.000 C 
BRANCH  24  25
ATOM     25  C   UNL     1       5.983   9.860  -1.213  1.00  0.00    -0.000 C 
BRANCH  25  26
ATOM     26  C   UNL     1       5.550   9.589   0.235  1.00  0.00    -0.000 C 
BRANCH  26  27
ATOM     27  C   UNL     1       6.660   8.867   1.015  1.00  0.00    -0.000 C 
BRANCH  27  28
ATOM     28  C   UNL     1       7.218   7.642   0.267  1.00  0.00    -0.000 C 
BRANCH  28  29
ATOM     29  C   UNL     1       8.742   7.456   0.372  1.00  0.00    -0.003 C 
ATOM     30  C   UNL     1       9.485   7.897  -0.888  1.00  0.00     0.004 C 
ENDBRANCH  28  29
ENDBRANCH  27  28
ENDBRANCH  26  27
ENDBRANCH  25  26
ENDBRANCH  24  25
ENDBRANCH  23  24
ENDBRANCH  22  23
ENDBRANCH  21  22
ENDBRANCH  20  21
ENDBRANCH  19  20
ENDBRANCH  18  19
ENDBRANCH  17  18
ENDBRANCH   1  17
TORSDOF 26
ENDMDL
