MODEL 1
REMARK VINA RESULT:    -6.934      0.000      0.000
REMARK INTER + INTRA:          -8.010
REMARK INTER:                  -8.150
REMARK INTRA:                   0.140
REMARK UNBOUND:                 0.140
REMARK SMILES O=c1c(O)c(-c2ccc(O)cc2)oc2cc(O)cc(O)c12
REMARK SMILES IDX 5 1 3 2 2 3 1 4 21 5 19 6 18 7 16 8 15 9 14 10 13 11 6 12
REMARK SMILES IDX 7 13 8 14 9 15 12 16 11 17 10 18 4 20 20 22 17 24
REMARK H PARENT 10 19 4 21 20 23 17 25
REMARK Flexibility Score: inf
ROOT
ATOM      1  C   UNL     1     -24.021 -18.605 -14.080  1.00  0.00     0.180 A 
ATOM      2  C   UNL     1     -25.168 -18.023 -14.647  1.00  0.00     0.208 A 
ATOM      3  C   UNL     1     -25.118 -16.681 -15.058  1.00  0.00     0.238 A 
ATOM      4  O   UNL     1     -26.163 -16.150 -15.515  1.00  0.00    -0.285 OA
ATOM      5  C   UNL     1     -23.918 -15.943 -14.912  1.00  0.00     0.111 A 
ATOM      6  C   UNL     1     -23.743 -14.590 -15.331  1.00  0.00     0.134 A 
ATOM      7  C   UNL     1     -22.554 -13.919 -15.017  1.00  0.00     0.093 A 
ATOM      8  C   UNL     1     -21.512 -14.570 -14.359  1.00  0.00     0.123 A 
ATOM      9  C   UNL     1     -21.649 -15.910 -13.999  1.00  0.00     0.094 A 
ATOM     10  C   UNL     1     -22.837 -16.596 -14.265  1.00  0.00     0.146 A 
ATOM     11  O   UNL     1     -22.932 -17.868 -13.895  1.00  0.00    -0.452 OA
ENDROOT
BRANCH   1  12
ATOM     12  C   UNL     1     -23.988 -20.021 -13.646  1.00  0.00     0.021 A 
ATOM     13  C   UNL     1     -22.896 -20.829 -14.005  1.00  0.00     0.016 A 
ATOM     14  C   UNL     1     -22.856 -22.174 -13.625  1.00  0.00     0.047 A 
ATOM     15  C   UNL     1     -23.915 -22.731 -12.896  1.00  0.00     0.115 A 
ATOM     16  C   UNL     1     -25.056 -20.592 -12.931  1.00  0.00     0.016 A 
ATOM     17  C   UNL     1     -25.014 -21.938 -12.553  1.00  0.00     0.047 A 
BRANCH  15  18
ATOM     18  O   UNL     1     -23.885 -24.070 -12.511  1.00  0.00    -0.508 OA
ATOM     19  H   UNL     1     -23.386 -24.372 -11.683  1.00  0.00     0.293 HD
ENDBRANCH  15  18
ENDBRANCH   1  12
BRANCH   2  20
ATOM     20  O   UNL     1     -26.348 -18.762 -14.762  1.00  0.00    -0.502 OA
ATOM     21  H   UNL     1     -27.053 -18.779 -14.035  1.00  0.00     0.293 HD
ENDBRANCH   2  20
BRANCH   6  22
ATOM     22  O   UNL     1     -24.686 -13.875 -16.074  1.00  0.00    -0.507 OA
ATOM     23  H   UNL     1     -25.434 -13.327 -15.679  1.00  0.00     0.293 HD
ENDBRANCH   6  22
BRANCH   8  24
ATOM     24  O   UNL     1     -20.337 -13.875 -14.078  1.00  0.00    -0.508 OA
ATOM     25  H   UNL     1     -19.833 -13.372 -14.799  1.00  0.00     0.293 HD
ENDBRANCH   8  24
TORSDOF 5
ENDMDL
MODEL 2
REMARK VINA RESULT:    -6.626      1.905      7.292
REMARK INTER + INTRA:          -7.648
REMARK INTER:                  -7.588
REMARK INTRA:                  -0.060
REMARK UNBOUND:                 0.140
REMARK SMILES O=c1c(O)c(-c2ccc(O)cc2)oc2cc(O)cc(O)c12
REMARK SMILES IDX 5 1 3 2 2 3 1 4 21 5 19 6 18 7 16 8 15 9 14 10 13 11 6 12
REMARK SMILES IDX 7 13 8 14 9 15 12 16 11 17 10 18 4 20 20 22 17 24
REMARK H PARENT 10 19 4 21 20 23 17 25
REMARK Flexibility Score: inf
ROOT
ATOM      1  C   UNL     1     -24.531 -19.140 -14.119  1.00  0.00     0.180 A 
ATOM      2  C   UNL     1     -23.904 -19.408 -12.890  1.00  0.00     0.208 A 
ATOM      3  C   UNL     1     -23.712 -20.744 -12.501  1.00  0.00     0.238 A 
ATOM      4  O   UNL     1     -23.199 -20.976 -11.375  1.00  0.00    -0.285 OA
ATOM      5  C   UNL     1     -24.134 -21.794 -13.351  1.00  0.00     0.111 A 
ATOM      6  C   UNL     1     -23.954 -23.182 -13.075  1.00  0.00     0.134 A 
ATOM      7  C   UNL     1     -24.528 -24.135 -13.926  1.00  0.00     0.093 A 
ATOM      8  C   UNL     1     -25.220 -23.753 -15.074  1.00  0.00     0.123 A 
ATOM      9  C   UNL     1     -25.351 -22.399 -15.385  1.00  0.00     0.094 A 
ATOM     10  C   UNL     1     -24.820 -21.423 -14.537  1.00  0.00     0.146 A 
ATOM     11  O   UNL     1     -24.976 -20.146 -14.864  1.00  0.00    -0.452 OA
ENDROOT
BRANCH   1  12
ATOM     12  C   UNL     1     -24.747 -17.759 -14.609  1.00  0.00     0.021 A 
ATOM     13  C   UNL     1     -26.035 -17.357 -15.000  1.00  0.00     0.016 A 
ATOM     14  C   UNL     1     -26.257 -16.065 -15.487  1.00  0.00     0.047 A 
ATOM     15  C   UNL     1     -25.189 -15.165 -15.604  1.00  0.00     0.115 A 
ATOM     16  C   UNL     1     -23.677 -16.856 -14.749  1.00  0.00     0.016 A 
ATOM     17  C   UNL     1     -23.901 -15.565 -15.237  1.00  0.00     0.047 A 
BRANCH  15  18
ATOM     18  O   UNL     1     -25.398 -13.875 -16.088  1.00  0.00    -0.508 OA
ATOM     19  H   UNL     1     -25.834 -13.711 -16.987  1.00  0.00     0.293 HD
ENDBRANCH  15  18
ENDBRANCH   1  12
BRANCH   2  20
ATOM     20  O   UNL     1     -23.514 -18.357 -12.056  1.00  0.00    -0.502 OA
ATOM     21  H   UNL     1     -23.656 -18.377 -11.053  1.00  0.00     0.293 HD
ENDBRANCH   2  20
BRANCH   6  22
ATOM     22  O   UNL     1     -23.202 -23.673 -12.004  1.00  0.00    -0.507 OA
ATOM     23  H   UNL     1     -22.903 -24.631 -11.903  1.00  0.00     0.293 HD
ENDBRANCH   6  22
BRANCH   8  24
ATOM     24  O   UNL     1     -25.765 -24.729 -15.906  1.00  0.00    -0.508 OA
ATOM     25  H   UNL     1     -26.755 -24.942 -15.894  1.00  0.00     0.293 HD
ENDBRANCH   8  24
TORSDOF 5
ENDMDL
MODEL 3
REMARK VINA RESULT:    -6.589      1.883      7.234
REMARK INTER + INTRA:          -7.604
REMARK INTER:                  -7.578
REMARK INTRA:                  -0.026
REMARK UNBOUND:                 0.140
REMARK SMILES O=c1c(O)c(-c2ccc(O)cc2)oc2cc(O)cc(O)c12
REMARK SMILES IDX 5 1 3 2 2 3 1 4 21 5 19 6 18 7 16 8 15 9 14 10 13 11 6 12
REMARK SMILES IDX 7 13 8 14 9 15 12 16 11 17 10 18 4 20 20 22 17 24
REMARK H PARENT 10 19 4 21 20 23 17 25
REMARK Flexibility Score: inf
ROOT
ATOM      1  C   UNL     1     -24.512 -19.193 -14.111  1.00  0.00     0.180 A 
ATOM      2  C   UNL     1     -23.927 -19.446 -12.858  1.00  0.00     0.208 A 
ATOM      3  C   UNL     1     -23.738 -20.778 -12.452  1.00  0.00     0.238 A 
ATOM      4  O   UNL     1     -23.264 -20.998 -11.307  1.00  0.00    -0.285 OA
ATOM      5  C   UNL     1     -24.121 -21.837 -13.309  1.00  0.00     0.111 A 
ATOM      6  C   UNL     1     -23.939 -23.222 -13.016  1.00  0.00     0.134 A 
ATOM      7  C   UNL     1     -24.475 -24.186 -13.880  1.00  0.00     0.093 A 
ATOM      8  C   UNL     1     -25.128 -23.818 -15.055  1.00  0.00     0.123 A 
ATOM      9  C   UNL     1     -25.259 -22.468 -15.381  1.00  0.00     0.094 A 
ATOM     10  C   UNL     1     -24.766 -21.481 -14.521  1.00  0.00     0.146 A 
ATOM     11  O   UNL     1     -24.922 -20.209 -14.863  1.00  0.00    -0.452 OA
ENDROOT
BRANCH   1  12
ATOM     12  C   UNL     1     -24.721 -17.818 -14.619  1.00  0.00     0.021 A 
ATOM     13  C   UNL     1     -23.630 -16.937 -14.698  1.00  0.00     0.016 A 
ATOM     14  C   UNL     1     -23.808 -15.627 -15.154  1.00  0.00     0.047 A 
ATOM     15  C   UNL     1     -25.084 -15.178 -15.521  1.00  0.00     0.115 A 
ATOM     16  C   UNL     1     -26.002 -17.354 -14.972  1.00  0.00     0.016 A 
ATOM     17  C   UNL     1     -26.178 -16.042 -15.426  1.00  0.00     0.047 A 
BRANCH  15  18
ATOM     18  O   UNL     1     -25.274 -13.875 -15.977  1.00  0.00    -0.508 OA
ATOM     19  H   UNL     1     -26.062 -13.629 -16.564  1.00  0.00     0.293 HD
ENDBRANCH  15  18
ENDBRANCH   1  12
BRANCH   2  20
ATOM     20  O   UNL     1     -23.577 -18.386 -12.018  1.00  0.00    -0.502 OA
ATOM     21  H   UNL     1     -22.632 -18.249 -11.680  1.00  0.00     0.293 HD
ENDBRANCH   2  20
BRANCH   6  22
ATOM     22  O   UNL     1     -23.222 -23.699 -11.915  1.00  0.00    -0.507 OA
ATOM     23  H   UNL     1     -22.247 -23.514 -11.740  1.00  0.00     0.293 HD
ENDBRANCH   6  22
BRANCH   8  24
ATOM     24  O   UNL     1     -25.634 -24.805 -15.899  1.00  0.00    -0.508 OA
ATOM     25  H   UNL     1     -26.373 -24.606 -16.563  1.00  0.00     0.293 HD
ENDBRANCH   8  24
TORSDOF 5
ENDMDL
MODEL 4
REMARK VINA RESULT:    -6.492      2.095      7.122
REMARK INTER + INTRA:          -7.491
REMARK INTER:                  -7.196
REMARK INTRA:                  -0.295
REMARK UNBOUND:                 0.140
REMARK SMILES O=c1c(O)c(-c2ccc(O)cc2)oc2cc(O)cc(O)c12
REMARK SMILES IDX 5 1 3 2 2 3 1 4 21 5 19 6 18 7 16 8 15 9 14 10 13 11 6 12
REMARK SMILES IDX 7 13 8 14 9 15 12 16 11 17 10 18 4 20 20 22 17 24
REMARK H PARENT 10 19 4 21 20 23 17 25
REMARK Flexibility Score: inf
ROOT
ATOM      1  C   UNL     1     -24.804 -19.229 -13.836  1.00  0.00     0.180 A 
ATOM      2  C   UNL     1     -25.484 -19.591 -12.660  1.00  0.00     0.208 A 
ATOM      3  C   UNL     1     -25.808 -20.941 -12.451  1.00  0.00     0.238 A 
ATOM      4  O   UNL     1     -26.464 -21.251 -11.422  1.00  0.00    -0.285 OA
ATOM      5  C   UNL     1     -25.436 -21.913 -13.410  1.00  0.00     0.111 A 
ATOM      6  C   UNL     1     -25.678 -23.313 -13.281  1.00  0.00     0.134 A 
ATOM      7  C   UNL     1     -25.383 -24.167 -14.352  1.00  0.00     0.093 A 
ATOM      8  C   UNL     1     -24.796 -23.682 -15.519  1.00  0.00     0.123 A 
ATOM      9  C   UNL     1     -24.500 -22.323 -15.633  1.00  0.00     0.094 A 
ATOM     10  C   UNL     1     -24.816 -21.441 -14.595  1.00  0.00     0.146 A 
ATOM     11  O   UNL     1     -24.527 -20.154 -14.748  1.00  0.00    -0.452 OA
ENDROOT
BRANCH   1  12
ATOM     12  C   UNL     1     -24.405 -17.830 -14.117  1.00  0.00     0.021 A 
ATOM     13  C   UNL     1     -25.275 -16.995 -14.839  1.00  0.00     0.016 A 
ATOM     14  C   UNL     1     -24.909 -15.678 -15.134  1.00  0.00     0.047 A 
ATOM     15  C   UNL     1     -23.662 -15.186 -14.725  1.00  0.00     0.115 A 
ATOM     16  C   UNL     1     -23.148 -17.334 -13.726  1.00  0.00     0.016 A 
ATOM     17  C   UNL     1     -22.784 -16.017 -14.024  1.00  0.00     0.047 A 
BRANCH  15  18
ATOM     18  O   UNL     1     -23.287 -13.875 -15.013  1.00  0.00    -0.508 OA
ATOM     19  H   UNL     1     -22.398 -13.663 -15.449  1.00  0.00     0.293 HD
ENDBRANCH  15  18
ENDBRANCH   1  12
BRANCH   2  20
ATOM     20  O   UNL     1     -25.861 -18.613 -11.737  1.00  0.00    -0.502 OA
ATOM     21  H   UNL     1     -26.233 -18.842 -10.823  1.00  0.00     0.293 HD
ENDBRANCH   2  20
BRANCH   6  22
ATOM     22  O   UNL     1     -26.177 -23.915 -12.122  1.00  0.00    -0.507 OA
ATOM     23  H   UNL     1     -25.635 -24.105 -11.294  1.00  0.00     0.293 HD
ENDBRANCH   6  22
BRANCH   8  24
ATOM     24  O   UNL     1     -24.502 -24.562 -16.558  1.00  0.00    -0.508 OA
ATOM     25  H   UNL     1     -25.178 -25.243 -16.883  1.00  0.00     0.293 HD
ENDBRANCH   8  24
TORSDOF 5
ENDMDL
MODEL 5
REMARK VINA RESULT:    -6.439      2.110      3.289
REMARK INTER + INTRA:          -7.428
REMARK INTER:                  -7.264
REMARK INTRA:                  -0.164
REMARK UNBOUND:                 0.140
REMARK SMILES O=c1c(O)c(-c2ccc(O)cc2)oc2cc(O)cc(O)c12
REMARK SMILES IDX 5 1 3 2 2 3 1 4 21 5 19 6 18 7 16 8 15 9 14 10 13 11 6 12
REMARK SMILES IDX 7 13 8 14 9 15 12 16 11 17 10 18 4 20 20 22 17 24
REMARK H PARENT 10 19 4 21 20 23 17 25
REMARK Flexibility Score: inf
ROOT
ATOM      1  C   UNL     1     -24.265 -20.420 -13.783  1.00  0.00     0.180 A 
ATOM      2  C   UNL     1     -24.150 -19.994 -12.448  1.00  0.00     0.208 A 
ATOM      3  C   UNL     1     -23.966 -18.627 -12.184  1.00  0.00     0.238 A 
ATOM      4  O   UNL     1     -23.809 -18.259 -10.990  1.00  0.00    -0.285 OA
ATOM      5  C   UNL     1     -23.916 -17.702 -13.254  1.00  0.00     0.111 A 
ATOM      6  C   UNL     1     -23.774 -16.291 -13.100  1.00  0.00     0.134 A 
ATOM      7  C   UNL     1     -23.605 -15.485 -14.233  1.00  0.00     0.093 A 
ATOM      8  C   UNL     1     -23.637 -16.031 -15.516  1.00  0.00     0.123 A 
ATOM      9  C   UNL     1     -23.836 -17.402 -15.681  1.00  0.00     0.094 A 
ATOM     10  C   UNL     1     -23.971 -18.236 -14.568  1.00  0.00     0.146 A 
ATOM     11  O   UNL     1     -24.147 -19.536 -14.768  1.00  0.00    -0.452 OA
ENDROOT
BRANCH   1  12
ATOM     12  C   UNL     1     -24.485 -21.840 -14.141  1.00  0.00     0.021 A 
ATOM     13  C   UNL     1     -25.734 -22.240 -14.646  1.00  0.00     0.016 A 
ATOM     14  C   UNL     1     -25.971 -23.580 -14.969  1.00  0.00     0.047 A 
ATOM     15  C   UNL     1     -24.967 -24.538 -14.775  1.00  0.00     0.115 A 
ATOM     16  C   UNL     1     -23.489 -22.811 -13.931  1.00  0.00     0.016 A 
ATOM     17  C   UNL     1     -23.729 -24.151 -14.254  1.00  0.00     0.047 A 
BRANCH  15  18
ATOM     18  O   UNL     1     -25.191 -25.876 -15.094  1.00  0.00    -0.508 OA
ATOM     19  H   UNL     1     -24.828 -26.285 -15.946  1.00  0.00     0.293 HD
ENDBRANCH  15  18
ENDBRANCH   1  12
BRANCH   2  20
ATOM     20  O   UNL     1     -24.180 -20.926 -11.408  1.00  0.00    -0.502 OA
ATOM     21  H   UNL     1     -23.560 -21.726 -11.376  1.00  0.00     0.293 HD
ENDBRANCH   2  20
BRANCH   6  22
ATOM     22  O   UNL     1     -23.819 -15.632 -11.867  1.00  0.00    -0.507 OA
ATOM     23  H   UNL     1     -23.026 -15.208 -11.412  1.00  0.00     0.293 HD
ENDBRANCH   6  22
BRANCH   8  24
ATOM     24  O   UNL     1     -23.482 -15.197 -16.622  1.00  0.00    -0.508 OA
ATOM     25  H   UNL     1     -24.221 -15.080 -17.305  1.00  0.00     0.293 HD
ENDBRANCH   8  24
TORSDOF 5
ENDMDL
MODEL 6
REMARK VINA RESULT:    -5.964      1.508      3.002
REMARK INTER + INTRA:          -6.871
REMARK INTER:                  -7.027
REMARK INTRA:                   0.157
REMARK UNBOUND:                 0.140
REMARK SMILES O=c1c(O)c(-c2ccc(O)cc2)oc2cc(O)cc(O)c12
REMARK SMILES IDX 5 1 3 2 2 3 1 4 21 5 19 6 18 7 16 8 15 9 14 10 13 11 6 12
REMARK SMILES IDX 7 13 8 14 9 15 12 16 11 17 10 18 4 20 20 22 17 24
REMARK H PARENT 10 19 4 21 20 23 17 25
REMARK Flexibility Score: inf
ROOT
ATOM      1  C   UNL     1     -23.970 -19.156 -14.274  1.00  0.00     0.180 A 
ATOM      2  C   UNL     1     -22.626 -18.758 -14.159  1.00  0.00     0.208 A 
ATOM      3  C   UNL     1     -22.305 -17.397 -14.293  1.00  0.00     0.238 A 
ATOM      4  O   UNL     1     -21.095 -17.055 -14.243  1.00  0.00    -0.285 OA
ATOM      5  C   UNL     1     -23.332 -16.450 -14.524  1.00  0.00     0.111 A 
ATOM      6  C   UNL     1     -23.125 -15.043 -14.636  1.00  0.00     0.134 A 
ATOM      7  C   UNL     1     -24.196 -14.214 -14.996  1.00  0.00     0.093 A 
ATOM      8  C   UNL     1     -25.476 -14.732 -15.184  1.00  0.00     0.123 A 
ATOM      9  C   UNL     1     -25.702 -16.099 -15.019  1.00  0.00     0.094 A 
ATOM     10  C   UNL     1     -24.646 -16.956 -14.695  1.00  0.00     0.146 A 
ATOM     11  O   UNL     1     -24.901 -18.252 -14.558  1.00  0.00    -0.452 OA
ENDROOT
BRANCH   1  12
ATOM     12  C   UNL     1     -24.390 -20.567 -14.121  1.00  0.00     0.021 A 
ATOM     13  C   UNL     1     -23.833 -21.346 -13.092  1.00  0.00     0.016 A 
ATOM     14  C   UNL     1     -24.198 -22.688 -12.943  1.00  0.00     0.047 A 
ATOM     15  C   UNL     1     -25.113 -23.270 -13.829  1.00  0.00     0.115 A 
ATOM     16  C   UNL     1     -25.293 -21.165 -15.018  1.00  0.00     0.016 A 
ATOM     17  C   UNL     1     -25.656 -22.507 -14.867  1.00  0.00     0.047 A 
BRANCH  15  18
ATOM     18  O   UNL     1     -25.485 -24.606 -13.690  1.00  0.00    -0.508 OA
ATOM     19  H   UNL     1     -25.461 -25.247 -14.474  1.00  0.00     0.293 HD
ENDBRANCH  15  18
ENDBRANCH   1  12
BRANCH   2  20
ATOM     20  O   UNL     1     -21.627 -19.711 -13.952  1.00  0.00    -0.502 OA
ATOM     21  H   UNL     1     -21.006 -20.019 -14.692  1.00  0.00     0.293 HD
ENDBRANCH   2  20
BRANCH   6  22
ATOM     22  O   UNL     1     -21.905 -14.410 -14.379  1.00  0.00    -0.507 OA
ATOM     23  H   UNL     1     -21.031 -14.888 -14.224  1.00  0.00     0.293 HD
ENDBRANCH   6  22
BRANCH   8  24
ATOM     24  O   UNL     1     -26.521 -13.876 -15.526  1.00  0.00    -0.508 OA
ATOM     25  H   UNL     1     -26.403 -13.147 -16.220  1.00  0.00     0.293 HD
ENDBRANCH   8  24
TORSDOF 5
ENDMDL
MODEL 7
REMARK VINA RESULT:    -5.640      2.514      7.642
REMARK INTER + INTRA:          -6.490
REMARK INTER:                  -6.239
REMARK INTRA:                  -0.251
REMARK UNBOUND:                 0.140
REMARK SMILES O=c1c(O)c(-c2ccc(O)cc2)oc2cc(O)cc(O)c12
REMARK SMILES IDX 5 1 3 2 2 3 1 4 21 5 19 6 18 7 16 8 15 9 14 10 13 11 6 12
REMARK SMILES IDX 7 13 8 14 9 15 12 16 11 17 10 18 4 20 20 22 17 24
REMARK H PARENT 10 19 4 21 20 23 17 25
REMARK Flexibility Score: inf
ROOT
ATOM      1  C   UNL     1     -24.006 -20.545 -14.056  1.00  0.00     0.180 A 
ATOM      2  C   UNL     1     -22.908 -21.336 -13.674  1.00  0.00     0.208 A 
ATOM      3  C   UNL     1     -22.969 -22.726 -13.872  1.00  0.00     0.238 A 
ATOM      4  O   UNL     1     -22.006 -23.434 -13.478  1.00  0.00    -0.285 OA
ATOM      5  C   UNL     1     -24.118 -23.304 -14.463  1.00  0.00     0.111 A 
ATOM      6  C   UNL     1     -24.271 -24.694 -14.746  1.00  0.00     0.134 A 
ATOM      7  C   UNL     1     -25.502 -25.173 -15.211  1.00  0.00     0.093 A 
ATOM      8  C   UNL     1     -26.563 -24.305 -15.464  1.00  0.00     0.123 A 
ATOM      9  C   UNL     1     -26.406 -22.936 -15.247  1.00  0.00     0.094 A 
ATOM     10  C   UNL     1     -25.200 -22.433 -14.749  1.00  0.00     0.146 A 
ATOM     11  O   UNL     1     -25.096 -21.125 -14.546  1.00  0.00    -0.452 OA
ENDROOT
BRANCH   1  12
ATOM     12  C   UNL     1     -24.006 -19.072 -13.903  1.00  0.00     0.021 A 
ATOM     13  C   UNL     1     -23.712 -18.262 -15.012  1.00  0.00     0.016 A 
ATOM     14  C   UNL     1     -23.685 -16.869 -14.885  1.00  0.00     0.047 A 
ATOM     15  C   UNL     1     -23.937 -16.272 -13.643  1.00  0.00     0.115 A 
ATOM     16  C   UNL     1     -24.239 -18.466 -12.655  1.00  0.00     0.016 A 
ATOM     17  C   UNL     1     -24.211 -17.073 -12.531  1.00  0.00     0.047 A 
BRANCH  15  18
ATOM     18  O   UNL     1     -23.913 -14.886 -13.504  1.00  0.00    -0.508 OA
ATOM     19  H   UNL     1     -24.599 -14.399 -12.939  1.00  0.00     0.293 HD
ENDBRANCH  15  18
ENDBRANCH   1  12
BRANCH   2  20
ATOM     20  O   UNL     1     -21.793 -20.748 -13.073  1.00  0.00    -0.502 OA
ATOM     21  H   UNL     1     -21.866 -20.146 -12.262  1.00  0.00     0.293 HD
ENDBRANCH   2  20
BRANCH   6  22
ATOM     22  O   UNL     1     -23.244 -25.635 -14.615  1.00  0.00    -0.507 OA
ATOM     23  H   UNL     1     -22.790 -26.100 -15.385  1.00  0.00     0.293 HD
ENDBRANCH   6  22
BRANCH   8  24
ATOM     24  O   UNL     1     -27.769 -24.815 -15.942  1.00  0.00    -0.508 OA
ATOM     25  H   UNL     1     -28.435 -24.229 -16.431  1.00  0.00     0.293 HD
ENDBRANCH   8  24
TORSDOF 5
ENDMDL
MODEL 8
REMARK VINA RESULT:    -5.366      4.217      7.207
REMARK INTER + INTRA:          -6.167
REMARK INTER:                  -6.394
REMARK INTRA:                   0.227
REMARK UNBOUND:                 0.140
REMARK SMILES O=c1c(O)c(-c2ccc(O)cc2)oc2cc(O)cc(O)c12
REMARK SMILES IDX 5 1 3 2 2 3 1 4 21 5 19 6 18 7 16 8 15 9 14 10 13 11 6 12
REMARK SMILES IDX 7 13 8 14 9 15 12 16 11 17 10 18 4 20 20 22 17 24
REMARK H PARENT 10 19 4 21 20 23 17 25
REMARK Flexibility Score: inf
ROOT
ATOM      1  C   UNL     1     -25.497 -20.308 -11.767  1.00  0.00     0.180 A 
ATOM      2  C   UNL     1     -24.209 -19.845 -12.089  1.00  0.00     0.208 A 
ATOM      3  C   UNL     1     -23.369 -20.657 -12.868  1.00  0.00     0.238 A 
ATOM      4  O   UNL     1     -22.199 -20.260 -13.107  1.00  0.00    -0.285 OA
ATOM      5  C   UNL     1     -23.832 -21.912 -13.330  1.00  0.00     0.111 A 
ATOM      6  C   UNL     1     -23.080 -22.797 -14.159  1.00  0.00     0.134 A 
ATOM      7  C   UNL     1     -23.587 -24.071 -14.447  1.00  0.00     0.093 A 
ATOM      8  C   UNL     1     -24.843 -24.466 -13.991  1.00  0.00     0.123 A 
ATOM      9  C   UNL     1     -25.613 -23.586 -13.230  1.00  0.00     0.094 A 
ATOM     10  C   UNL     1     -25.118 -22.322 -12.895  1.00  0.00     0.146 A 
ATOM     11  O   UNL     1     -25.877 -21.520 -12.160  1.00  0.00    -0.452 OA
ENDROOT
BRANCH   1  12
ATOM     12  C   UNL     1     -26.450 -19.500 -10.971  1.00  0.00     0.021 A 
ATOM     13  C   UNL     1     -25.981 -18.770  -9.866  1.00  0.00     0.016 A 
ATOM     14  C   UNL     1     -26.867 -18.019  -9.087  1.00  0.00     0.047 A 
ATOM     15  C   UNL     1     -28.233 -18.001  -9.395  1.00  0.00     0.115 A 
ATOM     16  C   UNL     1     -27.826 -19.493 -11.262  1.00  0.00     0.016 A 
ATOM     17  C   UNL     1     -28.709 -18.741 -10.481  1.00  0.00     0.047 A 
BRANCH  15  18
ATOM     18  O   UNL     1     -29.125 -17.255  -8.627  1.00  0.00    -0.508 OA
ATOM     19  H   UNL     1     -29.011 -16.256  -8.505  1.00  0.00     0.293 HD
ENDBRANCH  15  18
ENDBRANCH   1  12
BRANCH   2  20
ATOM     20  O   UNL     1     -23.765 -18.612 -11.605  1.00  0.00    -0.502 OA
ATOM     21  H   UNL     1     -24.140 -18.191 -10.763  1.00  0.00     0.293 HD
ENDBRANCH   2  20
BRANCH   6  22
ATOM     22  O   UNL     1     -21.853 -22.467 -14.743  1.00  0.00    -0.507 OA
ATOM     23  H   UNL     1     -21.470 -21.536 -14.787  1.00  0.00     0.293 HD
ENDBRANCH   6  22
BRANCH   8  24
ATOM     24  O   UNL     1     -25.323 -25.735 -14.310  1.00  0.00    -0.508 OA
ATOM     25  H   UNL     1     -24.741 -26.560 -14.221  1.00  0.00     0.293 HD
ENDBRANCH   8  24
TORSDOF 5
ENDMDL
MODEL 9
REMARK VINA RESULT:    -5.192      2.130      3.637
REMARK INTER + INTRA:          -5.962
REMARK INTER:                  -5.863
REMARK INTRA:                  -0.100
REMARK UNBOUND:                 0.140
REMARK SMILES O=c1c(O)c(-c2ccc(O)cc2)oc2cc(O)cc(O)c12
REMARK SMILES IDX 5 1 3 2 2 3 1 4 21 5 19 6 18 7 16 8 15 9 14 10 13 11 6 12
REMARK SMILES IDX 7 13 8 14 9 15 12 16 11 17 10 18 4 20 20 22 17 24
REMARK H PARENT 10 19 4 21 20 23 17 25
REMARK Flexibility Score: inf
ROOT
ATOM      1  C   UNL     1     -25.117 -19.395 -12.956  1.00  0.00     0.180 A 
ATOM      2  C   UNL     1     -23.727 -19.607 -12.962  1.00  0.00     0.208 A 
ATOM      3  C   UNL     1     -22.895 -18.648 -13.563  1.00  0.00     0.238 A 
ATOM      4  O   UNL     1     -21.657 -18.870 -13.614  1.00  0.00    -0.285 OA
ATOM      5  C   UNL     1     -23.461 -17.482 -14.134  1.00  0.00     0.111 A 
ATOM      6  C   UNL     1     -22.710 -16.427 -14.733  1.00  0.00     0.134 A 
ATOM      7  C   UNL     1     -23.381 -15.384 -15.383  1.00  0.00     0.093 A 
ATOM      8  C   UNL     1     -24.774 -15.325 -15.400  1.00  0.00     0.123 A 
ATOM      9  C   UNL     1     -25.518 -16.320 -14.766  1.00  0.00     0.094 A 
ATOM     10  C   UNL     1     -24.877 -17.393 -14.140  1.00  0.00     0.146 A 
ATOM     11  O   UNL     1     -25.622 -18.324 -13.559  1.00  0.00    -0.452 OA
ENDROOT
BRANCH   1  12
ATOM     12  C   UNL     1     -26.056 -20.348 -12.320  1.00  0.00     0.021 A 
ATOM     13  C   UNL     1     -26.178 -21.648 -12.839  1.00  0.00     0.016 A 
ATOM     14  C   UNL     1     -27.075 -22.556 -12.269  1.00  0.00     0.047 A 
ATOM     15  C   UNL     1     -27.872 -22.170 -11.183  1.00  0.00     0.115 A 
ATOM     16  C   UNL     1     -26.874 -19.962 -11.243  1.00  0.00     0.016 A 
ATOM     17  C   UNL     1     -27.771 -20.872 -10.675  1.00  0.00     0.047 A 
BRANCH  15  18
ATOM     18  O   UNL     1     -28.769 -23.067 -10.606  1.00  0.00    -0.508 OA
ATOM     19  H   UNL     1     -29.079 -22.963  -9.647  1.00  0.00     0.293 HD
ENDBRANCH  15  18
ENDBRANCH   1  12
BRANCH   2  20
ATOM     20  O   UNL     1     -23.191 -20.774 -12.413  1.00  0.00    -0.502 OA
ATOM     21  H   UNL     1     -22.863 -20.825 -11.456  1.00  0.00     0.293 HD
ENDBRANCH   2  20
BRANCH   6  22
ATOM     22  O   UNL     1     -21.315 -16.342 -14.693  1.00  0.00    -0.507 OA
ATOM     23  H   UNL     1     -20.718 -16.937 -14.139  1.00  0.00     0.293 HD
ENDBRANCH   6  22
BRANCH   8  24
ATOM     24  O   UNL     1     -25.409 -14.264 -16.042  1.00  0.00    -0.508 OA
ATOM     25  H   UNL     1     -25.528 -14.248 -17.049  1.00  0.00     0.293 HD
ENDBRANCH   8  24
TORSDOF 5
ENDMDL
