MODEL 1
REMARK VINA RESULT:    -5.862      0.000      0.000
REMARK INTER + INTRA:          -7.612
REMARK INTER:                  -7.232
REMARK INTRA:                  -0.380
REMARK UNBOUND:                -0.380
REMARK SMILES Oc1cc(O)c2cc(O)c(-c3cc(O)c(O)c(O)c3)[o+]c2c1
REMARK SMILES IDX 10 1 20 2 21 3 22 4 2 5 3 6 4 7 6 8 7 9 8 10 11 11 12 12
REMARK SMILES IDX 13 13 19 14 15 15 17 16 14 17 16 19 18 21 9 23 1 25 5 27
REMARK H PARENT 14 18 16 20 18 22 9 24 1 26 5 28
REMARK Flexibility Score: inf
ROOT
ATOM      1  C   UNL     1     -60.629  20.377 -29.998  1.00  0.00     0.402 A 
ATOM      2  O   UNL     1     -61.630  21.049 -30.559  1.00  0.00    -0.202 OA
ATOM      3  C   UNL     1     -61.672  22.376 -30.623  1.00  0.00     0.368 A 
ATOM      4  C   UNL     1     -62.766  22.993 -31.235  1.00  0.00     0.162 A 
ATOM      5  C   UNL     1     -62.836  24.383 -31.321  1.00  0.00     0.128 A 
ATOM      6  C   UNL     1     -61.803  25.167 -30.792  1.00  0.00     0.093 A 
ATOM      7  C   UNL     1     -60.695  24.572 -30.174  1.00  0.00     0.136 A 
ATOM      8  C   UNL     1     -60.623  23.158 -30.083  1.00  0.00     0.125 A 
ATOM      9  C   UNL     1     -59.558  22.478 -29.471  1.00  0.00     0.078 A 
ATOM     10  C   UNL     1     -59.559  21.081 -29.414  1.00  0.00     0.223 A 
ENDROOT
BRANCH   1  11
ATOM     11  C   UNL     1     -60.692  18.897 -29.996  1.00  0.00     0.091 A 
ATOM     12  C   UNL     1     -60.075  18.180 -31.032  1.00  0.00     0.068 A 
ATOM     13  C   UNL     1     -60.098  16.781 -31.053  1.00  0.00     0.162 A 
ATOM     14  C   UNL     1     -61.308  18.193 -28.950  1.00  0.00     0.068 A 
ATOM     15  C   UNL     1     -60.741  16.077 -30.006  1.00  0.00     0.200 A 
ATOM     16  C   UNL     1     -61.337  16.792 -28.958  1.00  0.00     0.162 A 
BRANCH  13  17
ATOM     17  O   UNL     1     -59.474  16.136 -32.123  1.00  0.00    -0.504 OA
ATOM     18  H   UNL     1     -59.428  16.510 -33.059  1.00  0.00     0.293 HD
ENDBRANCH  13  17
BRANCH  15  19
ATOM     19  O   UNL     1     -60.806  14.682 -29.969  1.00  0.00    -0.502 OA
ATOM     20  H   UNL     1     -60.626  14.085 -30.764  1.00  0.00     0.293 HD
ENDBRANCH  15  19
BRANCH  16  21
ATOM     21  O   UNL     1     -61.958  16.100 -27.919  1.00  0.00    -0.504 OA
ATOM     22  H   UNL     1     -62.114  16.527 -27.014  1.00  0.00     0.293 HD
ENDBRANCH  16  21
ENDBRANCH   1  11
BRANCH  10  23
ATOM     23  O   UNL     1     -58.527  20.406 -28.762  1.00  0.00    -0.500 OA
ATOM     24  H   UNL     1     -58.352  19.419 -28.922  1.00  0.00     0.294 HD
ENDBRANCH  10  23
BRANCH   5  25
ATOM     25  O   UNL     1     -63.936  24.980 -31.934  1.00  0.00    -0.507 OA
ATOM     26  H   UNL     1     -64.126  25.970 -31.833  1.00  0.00     0.293 HD
ENDBRANCH   5  25
BRANCH   7  27
ATOM     27  O   UNL     1     -59.705  25.423 -29.674  1.00  0.00    -0.507 OA
ATOM     28  H   UNL     1     -59.154  26.052 -30.240  1.00  0.00     0.293 HD
ENDBRANCH   7  27
TORSDOF 7
ENDMDL
MODEL 2
REMARK VINA RESULT:    -5.411      2.853      8.657
REMARK INTER + INTRA:          -7.056
REMARK INTER:                  -7.450
REMARK INTRA:                   0.394
REMARK UNBOUND:                -0.380
REMARK SMILES Oc1cc(O)c2cc(O)c(-c3cc(O)c(O)c(O)c3)[o+]c2c1
REMARK SMILES IDX 10 1 20 2 21 3 22 4 2 5 3 6 4 7 6 8 7 9 8 10 11 11 12 12
REMARK SMILES IDX 13 13 19 14 15 15 17 16 14 17 16 19 18 21 9 23 1 25 5 27
REMARK H PARENT 14 18 16 20 18 22 9 24 1 26 5 28
REMARK Flexibility Score: inf
ROOT
ATOM      1  C   UNL     1     -60.811  25.145 -29.992  1.00  0.00     0.402 A 
ATOM      2  O   UNL     1     -59.710  24.471 -29.669  1.00  0.00    -0.202 OA
ATOM      3  C   UNL     1     -59.551  23.175 -29.915  1.00  0.00     0.368 A 
ATOM      4  C   UNL     1     -58.356  22.554 -29.540  1.00  0.00     0.162 A 
ATOM      5  C   UNL     1     -58.158  21.196 -29.788  1.00  0.00     0.128 A 
ATOM      6  C   UNL     1     -59.161  20.449 -30.417  1.00  0.00     0.093 A 
ATOM      7  C   UNL     1     -60.367  21.048 -30.802  1.00  0.00     0.136 A 
ATOM      8  C   UNL     1     -60.572  22.429 -30.549  1.00  0.00     0.125 A 
ATOM      9  C   UNL     1     -61.754  23.108 -30.889  1.00  0.00     0.078 A 
ATOM     10  C   UNL     1     -61.885  24.471 -30.602  1.00  0.00     0.223 A 
ENDROOT
BRANCH   1  11
ATOM     11  C   UNL     1     -60.866  26.590 -29.675  1.00  0.00     0.091 A 
ATOM     12  C   UNL     1     -59.748  27.213 -29.102  1.00  0.00     0.068 A 
ATOM     13  C   UNL     1     -59.756  28.581 -28.807  1.00  0.00     0.162 A 
ATOM     14  C   UNL     1     -61.994  27.365 -29.987  1.00  0.00     0.068 A 
ATOM     15  C   UNL     1     -60.906  29.352 -29.104  1.00  0.00     0.200 A 
ATOM     16  C   UNL     1     -62.016  28.736 -29.699  1.00  0.00     0.162 A 
BRANCH  13  17
ATOM     17  O   UNL     1     -58.611  29.129 -28.226  1.00  0.00    -0.504 OA
ATOM     18  H   UNL     1     -58.422  29.123 -27.235  1.00  0.00     0.293 HD
ENDBRANCH  13  17
BRANCH  15  19
ATOM     19  O   UNL     1     -60.984  30.720 -28.830  1.00  0.00    -0.502 OA
ATOM     20  H   UNL     1     -61.298  31.413 -29.493  1.00  0.00     0.293 HD
ENDBRANCH  15  19
BRANCH  16  21
ATOM     21  O   UNL     1     -63.143  29.497 -30.005  1.00  0.00    -0.504 OA
ATOM     22  H   UNL     1     -63.310  29.848 -30.941  1.00  0.00     0.293 HD
ENDBRANCH  16  21
ENDBRANCH   1  11
BRANCH  10  23
ATOM     23  O   UNL     1     -63.076  25.135 -30.893  1.00  0.00    -0.500 OA
ATOM     24  H   UNL     1     -63.229  25.586 -31.789  1.00  0.00     0.294 HD
ENDBRANCH  10  23
BRANCH   5  25
ATOM     25  O   UNL     1     -56.960  20.595 -29.407  1.00  0.00    -0.507 OA
ATOM     26  H   UNL     1     -56.490  20.850 -28.546  1.00  0.00     0.293 HD
ENDBRANCH   5  25
BRANCH   7  27
ATOM     27  O   UNL     1     -61.318  20.235 -31.427  1.00  0.00    -0.507 OA
ATOM     28  H   UNL     1     -61.946  20.547 -32.153  1.00  0.00     0.293 HD
ENDBRANCH   7  27
TORSDOF 7
ENDMDL
MODEL 3
REMARK VINA RESULT:    -5.335      2.624      3.946
REMARK INTER + INTRA:          -6.963
REMARK INTER:                  -6.687
REMARK INTRA:                  -0.276
REMARK UNBOUND:                -0.380
REMARK SMILES Oc1cc(O)c2cc(O)c(-c3cc(O)c(O)c(O)c3)[o+]c2c1
REMARK SMILES IDX 10 1 20 2 21 3 22 4 2 5 3 6 4 7 6 8 7 9 8 10 11 11 12 12
REMARK SMILES IDX 13 13 19 14 15 15 17 16 14 17 16 19 18 21 9 23 1 25 5 27
REMARK H PARENT 14 18 16 20 18 22 9 24 1 26 5 28
REMARK Flexibility Score: inf
ROOT
ATOM      1  C   UNL     1     -60.259  22.100 -30.795  1.00  0.00     0.402 A 
ATOM      2  O   UNL     1     -60.351  23.296 -30.220  1.00  0.00    -0.202 OA
ATOM      3  C   UNL     1     -59.425  24.240 -30.349  1.00  0.00     0.368 A 
ATOM      4  C   UNL     1     -59.611  25.468 -29.708  1.00  0.00     0.162 A 
ATOM      5  C   UNL     1     -58.658  26.479 -29.828  1.00  0.00     0.128 A 
ATOM      6  C   UNL     1     -57.508  26.264 -30.596  1.00  0.00     0.093 A 
ATOM      7  C   UNL     1     -57.297  25.043 -31.248  1.00  0.00     0.136 A 
ATOM      8  C   UNL     1     -58.264  24.012 -31.126  1.00  0.00     0.125 A 
ATOM      9  C   UNL     1     -58.130  22.752 -31.734  1.00  0.00     0.078 A 
ATOM     10  C   UNL     1     -59.123  21.783 -31.564  1.00  0.00     0.223 A 
ENDROOT
BRANCH   1  11
ATOM     11  C   UNL     1     -61.363  21.135 -30.585  1.00  0.00     0.091 A 
ATOM     12  C   UNL     1     -62.589  21.339 -31.233  1.00  0.00     0.068 A 
ATOM     13  C   UNL     1     -63.648  20.437 -31.073  1.00  0.00     0.162 A 
ATOM     14  C   UNL     1     -61.190  19.987 -29.795  1.00  0.00     0.068 A 
ATOM     15  C   UNL     1     -63.474  19.294 -30.257  1.00  0.00     0.200 A 
ATOM     16  C   UNL     1     -62.240  19.076 -29.628  1.00  0.00     0.162 A 
BRANCH  13  17
ATOM     17  O   UNL     1     -64.844  20.713 -31.740  1.00  0.00    -0.504 OA
ATOM     18  H   UNL     1     -64.988  20.564 -32.728  1.00  0.00     0.293 HD
ENDBRANCH  13  17
BRANCH  15  19
ATOM     19  O   UNL     1     -64.491  18.358 -30.050  1.00  0.00    -0.502 OA
ATOM     20  H   UNL     1     -65.203  18.136 -30.730  1.00  0.00     0.293 HD
ENDBRANCH  15  19
BRANCH  16  21
ATOM     21  O   UNL     1     -62.063  17.943 -28.835  1.00  0.00    -0.504 OA
ATOM     22  H   UNL     1     -61.188  17.432 -28.826  1.00  0.00     0.293 HD
ENDBRANCH  16  21
ENDBRANCH   1  11
BRANCH  10  23
ATOM     23  O   UNL     1     -58.968  20.516 -32.125  1.00  0.00    -0.500 OA
ATOM     24  H   UNL     1     -58.809  19.695 -31.550  1.00  0.00     0.294 HD
ENDBRANCH  10  23
BRANCH   5  25
ATOM     25  O   UNL     1     -58.862  27.696 -29.181  1.00  0.00    -0.507 OA
ATOM     26  H   UNL     1     -58.964  27.750 -28.174  1.00  0.00     0.293 HD
ENDBRANCH   5  25
BRANCH   7  27
ATOM     27  O   UNL     1     -56.125  24.908 -31.998  1.00  0.00    -0.507 OA
ATOM     28  H   UNL     1     -56.089  24.916 -33.006  1.00  0.00     0.293 HD
ENDBRANCH   7  27
TORSDOF 7
ENDMDL
MODEL 4
REMARK VINA RESULT:    -5.319      2.393      8.284
REMARK INTER + INTRA:          -6.943
REMARK INTER:                  -7.236
REMARK INTRA:                   0.293
REMARK UNBOUND:                -0.380
REMARK SMILES Oc1cc(O)c2cc(O)c(-c3cc(O)c(O)c(O)c3)[o+]c2c1
REMARK SMILES IDX 10 1 20 2 21 3 22 4 2 5 3 6 4 7 6 8 7 9 8 10 11 11 12 12
REMARK SMILES IDX 13 13 19 14 15 15 17 16 14 17 16 19 18 21 9 23 1 25 5 27
REMARK H PARENT 14 18 16 20 18 22 9 24 1 26 5 28
REMARK Flexibility Score: inf
ROOT
ATOM      1  C   UNL     1     -61.352  24.566 -30.239  1.00  0.00     0.402 A 
ATOM      2  O   UNL     1     -60.665  23.549 -29.725  1.00  0.00    -0.202 OA
ATOM      3  C   UNL     1     -60.929  22.277 -30.003  1.00  0.00     0.368 A 
ATOM      4  C   UNL     1     -60.149  21.277 -29.414  1.00  0.00     0.162 A 
ATOM      5  C   UNL     1     -60.399  19.933 -29.690  1.00  0.00     0.128 A 
ATOM      6  C   UNL     1     -61.437  19.582 -30.562  1.00  0.00     0.093 A 
ATOM      7  C   UNL     1     -62.232  20.565 -31.164  1.00  0.00     0.136 A 
ATOM      8  C   UNL     1     -61.981  21.933 -30.884  1.00  0.00     0.125 A 
ATOM      9  C   UNL     1     -62.736  22.984 -31.431  1.00  0.00     0.078 A 
ATOM     10  C   UNL     1     -62.432  24.309 -31.104  1.00  0.00     0.223 A 
ENDROOT
BRANCH   1  11
ATOM     11  C   UNL     1     -60.956  25.942 -29.860  1.00  0.00     0.091 A 
ATOM     12  C   UNL     1     -61.921  26.960 -29.856  1.00  0.00     0.068 A 
ATOM     13  C   UNL     1     -61.588  28.268 -29.485  1.00  0.00     0.162 A 
ATOM     14  C   UNL     1     -59.648  26.239 -29.449  1.00  0.00     0.068 A 
ATOM     15  C   UNL     1     -60.260  28.565 -29.093  1.00  0.00     0.200 A 
ATOM     16  C   UNL     1     -59.300  27.544 -29.073  1.00  0.00     0.162 A 
BRANCH  13  17
ATOM     17  O   UNL     1     -62.598  29.231 -29.517  1.00  0.00    -0.504 OA
ATOM     18  H   UNL     1     -62.573  30.095 -28.995  1.00  0.00     0.293 HD
ENDBRANCH  13  17
BRANCH  15  19
ATOM     19  O   UNL     1     -59.858  29.850 -28.717  1.00  0.00    -0.502 OA
ATOM     20  H   UNL     1     -60.191  30.328 -27.893  1.00  0.00     0.293 HD
ENDBRANCH  15  19
BRANCH  16  21
ATOM     21  O   UNL     1     -57.996  27.832 -28.675  1.00  0.00    -0.504 OA
ATOM     22  H   UNL     1     -57.794  28.223 -27.762  1.00  0.00     0.293 HD
ENDBRANCH  16  21
ENDBRANCH   1  11
BRANCH  10  23
ATOM     23  O   UNL     1     -63.211  25.351 -31.607  1.00  0.00    -0.500 OA
ATOM     24  H   UNL     1     -62.818  26.068 -32.206  1.00  0.00     0.294 HD
ENDBRANCH  10  23
BRANCH   5  25
ATOM     25  O   UNL     1     -59.611  18.951 -29.094  1.00  0.00    -0.507 OA
ATOM     26  H   UNL     1     -58.663  19.143 -28.794  1.00  0.00     0.293 HD
ENDBRANCH   5  25
BRANCH   7  27
ATOM     27  O   UNL     1     -63.246  20.134 -32.025  1.00  0.00    -0.507 OA
ATOM     28  H   UNL     1     -63.134  20.008 -33.020  1.00  0.00     0.293 HD
ENDBRANCH   7  27
TORSDOF 7
ENDMDL
MODEL 5
REMARK VINA RESULT:    -5.262      2.933      7.973
REMARK INTER + INTRA:          -6.872
REMARK INTER:                  -7.249
REMARK INTRA:                   0.377
REMARK UNBOUND:                -0.380
REMARK SMILES Oc1cc(O)c2cc(O)c(-c3cc(O)c(O)c(O)c3)[o+]c2c1
REMARK SMILES IDX 10 1 20 2 21 3 22 4 2 5 3 6 4 7 6 8 7 9 8 10 11 11 12 12
REMARK SMILES IDX 13 13 19 14 15 15 17 16 14 17 16 19 18 21 9 23 1 25 5 27
REMARK H PARENT 14 18 16 20 18 22 9 24 1 26 5 28
REMARK Flexibility Score: inf
ROOT
ATOM      1  C   UNL     1     -60.318  24.710 -30.066  1.00  0.00     0.402 A 
ATOM      2  O   UNL     1     -61.416  23.970 -30.200  1.00  0.00    -0.202 OA
ATOM      3  C   UNL     1     -61.394  22.696 -30.577  1.00  0.00     0.368 A 
ATOM      4  C   UNL     1     -62.601  22.000 -30.688  1.00  0.00     0.162 A 
ATOM      5  C   UNL     1     -62.610  20.660 -31.078  1.00  0.00     0.128 A 
ATOM      6  C   UNL     1     -61.404  20.009 -31.360  1.00  0.00     0.093 A 
ATOM      7  C   UNL     1     -60.181  20.685 -31.257  1.00  0.00     0.136 A 
ATOM      8  C   UNL     1     -60.169  22.048 -30.862  1.00  0.00     0.125 A 
ATOM      9  C   UNL     1     -58.993  22.807 -30.745  1.00  0.00     0.078 A 
ATOM     10  C   UNL     1     -59.061  24.148 -30.356  1.00  0.00     0.223 A 
ENDROOT
BRANCH   1  11
ATOM     11  C   UNL     1     -60.470  26.117 -29.629  1.00  0.00     0.091 A 
ATOM     12  C   UNL     1     -59.354  26.812 -29.142  1.00  0.00     0.068 A 
ATOM     13  C   UNL     1     -59.456  28.148 -28.738  1.00  0.00     0.162 A 
ATOM     14  C   UNL     1     -61.697  26.789 -29.744  1.00  0.00     0.068 A 
ATOM     15  C   UNL     1     -60.702  28.814 -28.836  1.00  0.00     0.200 A 
ATOM     16  C   UNL     1     -61.813  28.127 -29.345  1.00  0.00     0.162 A 
BRANCH  13  17
ATOM     17  O   UNL     1     -58.304  28.771 -28.253  1.00  0.00    -0.504 OA
ATOM     18  H   UNL     1     -57.459  28.894 -28.790  1.00  0.00     0.293 HD
ENDBRANCH  13  17
BRANCH  15  19
ATOM     19  O   UNL     1     -60.874  30.144 -28.445  1.00  0.00    -0.502 OA
ATOM     20  H   UNL     1     -61.282  30.427 -27.566  1.00  0.00     0.293 HD
ENDBRANCH  15  19
BRANCH  16  21
ATOM     21  O   UNL     1     -63.037  28.786 -29.455  1.00  0.00    -0.504 OA
ATOM     22  H   UNL     1     -63.475  28.947 -30.354  1.00  0.00     0.293 HD
ENDBRANCH  16  21
ENDBRANCH   1  11
BRANCH  10  23
ATOM     23  O   UNL     1     -57.899  24.916 -30.287  1.00  0.00    -0.500 OA
ATOM     24  H   UNL     1     -57.765  25.616 -29.565  1.00  0.00     0.294 HD
ENDBRANCH  10  23
BRANCH   5  25
ATOM     25  O   UNL     1     -63.824  19.983 -31.182  1.00  0.00    -0.507 OA
ATOM     26  H   UNL     1     -64.334  19.944 -32.056  1.00  0.00     0.293 HD
ENDBRANCH   5  25
BRANCH   7  27
ATOM     27  O   UNL     1     -59.021  19.964 -31.554  1.00  0.00    -0.507 OA
ATOM     28  H   UNL     1     -58.391  20.184 -32.311  1.00  0.00     0.293 HD
ENDBRANCH   7  27
TORSDOF 7
ENDMDL
MODEL 6
REMARK VINA RESULT:    -5.234      2.403      8.240
REMARK INTER + INTRA:          -6.838
REMARK INTER:                  -7.090
REMARK INTRA:                   0.252
REMARK UNBOUND:                -0.380
REMARK SMILES Oc1cc(O)c2cc(O)c(-c3cc(O)c(O)c(O)c3)[o+]c2c1
REMARK SMILES IDX 10 1 20 2 21 3 22 4 2 5 3 6 4 7 6 8 7 9 8 10 11 11 12 12
REMARK SMILES IDX 13 13 19 14 15 15 17 16 14 17 16 19 18 21 9 23 1 25 5 27
REMARK H PARENT 14 18 16 20 18 22 9 24 1 26 5 28
REMARK Flexibility Score: inf
ROOT
ATOM      1  C   UNL     1     -61.312  24.605 -30.186  1.00  0.00     0.402 A 
ATOM      2  O   UNL     1     -60.633  23.594 -29.650  1.00  0.00    -0.202 OA
ATOM      3  C   UNL     1     -60.885  22.319 -29.928  1.00  0.00     0.368 A 
ATOM      4  C   UNL     1     -60.116  21.326 -29.316  1.00  0.00     0.162 A 
ATOM      5  C   UNL     1     -60.354  19.979 -29.591  1.00  0.00     0.128 A 
ATOM      6  C   UNL     1     -61.368  19.619 -30.485  1.00  0.00     0.093 A 
ATOM      7  C   UNL     1     -62.152  20.596 -31.112  1.00  0.00     0.136 A 
ATOM      8  C   UNL     1     -61.914  21.966 -30.833  1.00  0.00     0.125 A 
ATOM      9  C   UNL     1     -62.659  23.011 -31.405  1.00  0.00     0.078 A 
ATOM     10  C   UNL     1     -62.369  24.339 -31.077  1.00  0.00     0.223 A 
ENDROOT
BRANCH   1  11
ATOM     11  C   UNL     1     -60.931  25.985 -29.805  1.00  0.00     0.091 A 
ATOM     12  C   UNL     1     -59.602  26.260 -29.451  1.00  0.00     0.068 A 
ATOM     13  C   UNL     1     -59.201  27.555 -29.104  1.00  0.00     0.162 A 
ATOM     14  C   UNL     1     -61.859  27.037 -29.846  1.00  0.00     0.068 A 
ATOM     15  C   UNL     1     -60.148  28.608 -29.125  1.00  0.00     0.200 A 
ATOM     16  C   UNL     1     -61.471  28.339 -29.502  1.00  0.00     0.162 A 
BRANCH  13  17
ATOM     17  O   UNL     1     -57.865  27.750 -28.750  1.00  0.00    -0.504 OA
ATOM     18  H   UNL     1     -57.114  27.130 -29.014  1.00  0.00     0.293 HD
ENDBRANCH  13  17
BRANCH  15  19
ATOM     19  O   UNL     1     -59.817  29.922 -28.784  1.00  0.00    -0.502 OA
ATOM     20  H   UNL     1     -60.040  30.727 -29.351  1.00  0.00     0.293 HD
ENDBRANCH  15  19
BRANCH  16  21
ATOM     21  O   UNL     1     -62.401  29.377 -29.537  1.00  0.00    -0.504 OA
ATOM     22  H   UNL     1     -62.243  30.214 -30.086  1.00  0.00     0.293 HD
ENDBRANCH  16  21
ENDBRANCH   1  11
BRANCH  10  23
ATOM     23  O   UNL     1     -63.140  25.375 -31.604  1.00  0.00    -0.500 OA
ATOM     24  H   UNL     1     -64.134  25.448 -31.416  1.00  0.00     0.294 HD
ENDBRANCH  10  23
BRANCH   5  25
ATOM     25  O   UNL     1     -59.577  19.003 -28.969  1.00  0.00    -0.507 OA
ATOM     26  H   UNL     1     -59.962  18.102 -28.715  1.00  0.00     0.293 HD
ENDBRANCH   5  25
BRANCH   7  27
ATOM     27  O   UNL     1     -63.143  20.156 -31.995  1.00  0.00    -0.507 OA
ATOM     28  H   UNL     1     -63.705  20.765 -32.571  1.00  0.00     0.293 HD
ENDBRANCH   7  27
TORSDOF 7
ENDMDL
MODEL 7
REMARK VINA RESULT:    -5.158      1.057      2.602
REMARK INTER + INTRA:          -6.744
REMARK INTER:                  -6.360
REMARK INTRA:                  -0.384
REMARK UNBOUND:                -0.380
REMARK SMILES Oc1cc(O)c2cc(O)c(-c3cc(O)c(O)c(O)c3)[o+]c2c1
REMARK SMILES IDX 10 1 20 2 21 3 22 4 2 5 3 6 4 7 6 8 7 9 8 10 11 11 12 12
REMARK SMILES IDX 13 13 19 14 15 15 17 16 14 17 16 19 18 21 9 23 1 25 5 27
REMARK H PARENT 14 18 16 20 18 22 9 24 1 26 5 28
REMARK Flexibility Score: inf
ROOT
ATOM      1  C   UNL     1     -61.815  20.481 -30.668  1.00  0.00     0.402 A 
ATOM      2  O   UNL     1     -60.975  21.412 -30.222  1.00  0.00    -0.202 OA
ATOM      3  C   UNL     1     -61.193  22.716 -30.358  1.00  0.00     0.368 A 
ATOM      4  C   UNL     1     -60.253  23.618 -29.855  1.00  0.00     0.162 A 
ATOM      5  C   UNL     1     -60.456  24.993 -29.979  1.00  0.00     0.128 A 
ATOM      6  C   UNL     1     -61.609  25.472 -30.611  1.00  0.00     0.093 A 
ATOM      7  C   UNL     1     -62.567  24.588 -31.124  1.00  0.00     0.136 A 
ATOM      8  C   UNL     1     -62.362  23.190 -31.001  1.00  0.00     0.125 A 
ATOM      9  C   UNL     1     -63.261  22.231 -31.496  1.00  0.00     0.078 A 
ATOM     10  C   UNL     1     -62.988  20.869 -31.342  1.00  0.00     0.223 A 
ENDROOT
BRANCH   1  11
ATOM     11  C   UNL     1     -61.466  19.059 -30.448  1.00  0.00     0.091 A 
ATOM     12  C   UNL     1     -60.619  18.408 -31.358  1.00  0.00     0.068 A 
ATOM     13  C   UNL     1     -60.252  17.071 -31.171  1.00  0.00     0.162 A 
ATOM     14  C   UNL     1     -61.917  18.362 -29.317  1.00  0.00     0.068 A 
ATOM     15  C   UNL     1     -60.730  16.367 -30.039  1.00  0.00     0.200 A 
ATOM     16  C   UNL     1     -61.557  17.023 -29.116  1.00  0.00     0.162 A 
BRANCH  13  17
ATOM     17  O   UNL     1     -59.417  16.486 -32.125  1.00  0.00    -0.504 OA
ATOM     18  H   UNL     1     -58.422  16.646 -32.179  1.00  0.00     0.293 HD
ENDBRANCH  13  17
BRANCH  15  19
ATOM     19  O   UNL     1     -60.408  15.029 -29.796  1.00  0.00    -0.502 OA
ATOM     20  H   UNL     1     -61.039  14.257 -29.952  1.00  0.00     0.293 HD
ENDBRANCH  15  19
BRANCH  16  21
ATOM     21  O   UNL     1     -62.016  16.335 -27.994  1.00  0.00    -0.504 OA
ATOM     22  H   UNL     1     -61.535  16.389 -27.104  1.00  0.00     0.293 HD
ENDBRANCH  16  21
ENDBRANCH   1  11
BRANCH  10  23
ATOM     23  O   UNL     1     -63.855  19.916 -31.878  1.00  0.00    -0.500 OA
ATOM     24  H   UNL     1     -64.845  19.914 -31.659  1.00  0.00     0.294 HD
ENDBRANCH  10  23
BRANCH   5  25
ATOM     25  O   UNL     1     -59.506  25.876 -29.470  1.00  0.00    -0.507 OA
ATOM     26  H   UNL     1     -58.566  25.572 -29.247  1.00  0.00     0.293 HD
ENDBRANCH   5  25
BRANCH   7  27
ATOM     27  O   UNL     1     -63.692  25.145 -31.739  1.00  0.00    -0.507 OA
ATOM     28  H   UNL     1     -64.303  25.822 -31.304  1.00  0.00     0.293 HD
ENDBRANCH   7  27
TORSDOF 7
ENDMDL
MODEL 8
REMARK VINA RESULT:    -5.118      2.518      3.979
REMARK INTER + INTRA:          -6.695
REMARK INTER:                  -6.582
REMARK INTRA:                  -0.113
REMARK UNBOUND:                -0.380
REMARK SMILES Oc1cc(O)c2cc(O)c(-c3cc(O)c(O)c(O)c3)[o+]c2c1
REMARK SMILES IDX 10 1 20 2 21 3 22 4 2 5 3 6 4 7 6 8 7 9 8 10 11 11 12 12
REMARK SMILES IDX 13 13 19 14 15 15 17 16 14 17 16 19 18 21 9 23 1 25 5 27
REMARK H PARENT 14 18 16 20 18 22 9 24 1 26 5 28
REMARK Flexibility Score: inf
ROOT
ATOM      1  C   UNL     1     -60.967  22.931 -30.521  1.00  0.00     0.402 A 
ATOM      2  O   UNL     1     -61.454  23.991 -29.881  1.00  0.00    -0.202 OA
ATOM      3  C   UNL     1     -60.751  25.097 -29.663  1.00  0.00     0.368 A 
ATOM      4  C   UNL     1     -61.350  26.161 -28.982  1.00  0.00     0.162 A 
ATOM      5  C   UNL     1     -60.638  27.336 -28.741  1.00  0.00     0.128 A 
ATOM      6  C   UNL     1     -59.315  27.452 -29.184  1.00  0.00     0.093 A 
ATOM      7  C   UNL     1     -58.692  26.401 -29.868  1.00  0.00     0.136 A 
ATOM      8  C   UNL     1     -59.413  25.203 -30.113  1.00  0.00     0.125 A 
ATOM      9  C   UNL     1     -58.865  24.095 -30.779  1.00  0.00     0.078 A 
ATOM     10  C   UNL     1     -59.636  22.946 -30.978  1.00  0.00     0.223 A 
ENDROOT
BRANCH   1  11
ATOM     11  C   UNL     1     -61.853  21.760 -30.712  1.00  0.00     0.091 A 
ATOM     12  C   UNL     1     -61.465  20.512 -30.203  1.00  0.00     0.068 A 
ATOM     13  C   UNL     1     -62.285  19.387 -30.347  1.00  0.00     0.162 A 
ATOM     14  C   UNL     1     -63.102  21.882 -31.341  1.00  0.00     0.068 A 
ATOM     15  C   UNL     1     -63.533  19.513 -31.004  1.00  0.00     0.200 A 
ATOM     16  C   UNL     1     -63.934  20.765 -31.491  1.00  0.00     0.162 A 
BRANCH  13  17
ATOM     17  O   UNL     1     -61.826  18.176 -29.827  1.00  0.00    -0.504 OA
ATOM     18  H   UNL     1     -60.855  17.902 -29.802  1.00  0.00     0.293 HD
ENDBRANCH  13  17
BRANCH  15  19
ATOM     19  O   UNL     1     -64.398  18.431 -31.187  1.00  0.00    -0.502 OA
ATOM     20  H   UNL     1     -65.251  18.473 -31.725  1.00  0.00     0.293 HD
ENDBRANCH  15  19
BRANCH  16  21
ATOM     21  O   UNL     1     -65.169  20.894 -32.125  1.00  0.00    -0.504 OA
ATOM     22  H   UNL     1     -65.929  20.248 -31.945  1.00  0.00     0.293 HD
ENDBRANCH  16  21
ENDBRANCH   1  11
BRANCH  10  23
ATOM     23  O   UNL     1     -59.078  21.826 -31.595  1.00  0.00    -0.500 OA
ATOM     24  H   UNL     1     -59.280  20.885 -31.274  1.00  0.00     0.294 HD
ENDBRANCH  10  23
BRANCH   5  25
ATOM     25  O   UNL     1     -61.253  28.384 -28.061  1.00  0.00    -0.507 OA
ATOM     26  H   UNL     1     -61.981  28.941 -28.492  1.00  0.00     0.293 HD
ENDBRANCH   5  25
BRANCH   7  27
ATOM     27  O   UNL     1     -57.370  26.596 -30.280  1.00  0.00    -0.507 OA
ATOM     28  H   UNL     1     -57.079  26.671 -31.243  1.00  0.00     0.293 HD
ENDBRANCH   7  27
TORSDOF 7
ENDMDL
