MODEL 1
REMARK VINA RESULT:    -7.846      0.000      0.000
REMARK INTER + INTRA:         -12.051
REMARK INTER:                 -10.369
REMARK INTRA:                  -1.682
REMARK UNBOUND:                -1.682
REMARK SMILES CC[C@@H](C=C[C@H](C)[C@H]1CC[C@H]2C3=CC[C@H]4C[C@@H](O)CC[C@]4(C)[C@H]3CC[C@@]12C)C(C)C
REMARK SMILES IDX 6 1 7 2 5 3 4 4 3 5 2 6 1 7 28 8 29 9 30 10 8 11 9 12 26 13
REMARK SMILES IDX 10 14 11 15 25 16 27 17 12 18 24 19 23 20 13 21 21 22 14 23
REMARK SMILES IDX 15 24 20 25 22 26 16 27 19 28 17 29 18 30
REMARK H PARENT 18 31
REMARK Flexibility Score: inf
ROOT
ATOM      1  C   UNL     1      -4.518  26.725  49.823  1.00  0.00     0.012 C 
ATOM      2  C   UNL     1      -4.986  27.637  48.673  1.00  0.00     0.012 C 
ENDROOT
BRANCH   1   3
ATOM      3  C   UNL     1      -5.043  27.305  51.124  1.00  0.00    -0.028 C 
ATOM      4  C   UNL     1      -4.325  27.473  52.253  1.00  0.00    -0.027 C 
BRANCH   4   5
ATOM      5  C   UNL     1      -2.875  27.057  52.437  1.00  0.00     0.014 C 
BRANCH   5   6
ATOM      6  C   UNL     1      -2.659  26.658  53.923  1.00  0.00     0.004 C 
ATOM      7  C   UNL     1      -1.621  25.555  54.123  1.00  0.00     0.004 C 
ENDBRANCH   5   6
BRANCH   5   8
ATOM      8  C   UNL     1      -1.936  28.189  51.894  1.00  0.00    -0.011 C 
ATOM      9  C   UNL     1      -1.383  29.121  52.982  1.00  0.00     0.008 C 
ATOM     10  C   UNL     1      -0.797  27.650  51.013  1.00  0.00     0.008 C 
ENDBRANCH   5   8
ENDBRANCH   4   5
ENDBRANCH   1   3
BRANCH   1  11
ATOM     11  C   UNL     1      -4.940  25.218  49.709  1.00  0.00     0.002 C 
ATOM     12  C   UNL     1      -5.871  24.862  48.549  1.00  0.00     0.005 C 
ATOM     13  C   UNL     1      -3.807  24.154  49.674  1.00  0.00    -0.023 C 
ATOM     14  C   UNL     1      -5.730  23.355  48.354  1.00  0.00     0.009 C 
ATOM     15  C   UNL     1      -4.570  22.878  49.253  1.00  0.00     0.021 C 
ATOM     16  C   UNL     1      -2.727  24.480  48.613  1.00  0.00     0.008 C 
ATOM     17  C   UNL     1      -3.171  23.991  51.080  1.00  0.00     0.012 C 
ATOM     18  C   UNL     1      -3.724  21.809  48.569  1.00  0.00    -0.067 C 
ATOM     19  C   UNL     1      -1.659  23.390  48.486  1.00  0.00     0.009 C 
ATOM     20  C   UNL     1      -2.196  21.925  48.497  1.00  0.00     0.021 C 
ATOM     21  C   UNL     1      -4.346  20.663  48.199  1.00  0.00    -0.027 C 
ATOM     22  C   UNL     1      -1.578  21.012  47.376  1.00  0.00    -0.023 C 
ATOM     23  C   UNL     1      -3.670  19.538  47.461  1.00  0.00     0.031 C 
ATOM     24  C   UNL     1      -2.141  19.573  47.609  1.00  0.00     0.002 C 
ATOM     25  C   UNL     1      -0.026  20.957  47.525  1.00  0.00     0.010 C 
ATOM     26  C   UNL     1      -1.957  21.561  45.965  1.00  0.00     0.012 C 
ATOM     27  C   UNL     1      -1.477  18.500  46.719  1.00  0.00     0.036 C 
ATOM     28  C   UNL     1       0.624  19.895  46.625  1.00  0.00     0.032 C 
ATOM     29  C   UNL     1       0.048  18.502  46.900  1.00  0.00     0.114 C 
BRANCH  29  30
ATOM     30  O   UNL     1       0.636  17.581  46.018  1.00  0.00    -0.393 OA
ATOM     31  H   UNL     1       1.578  17.868  45.889  1.00  0.00     0.210 HD
ENDBRANCH  29  30
ENDBRANCH   1  11
TORSDOF 6
ENDMDL
MODEL 2
REMARK VINA RESULT:    -7.774      3.760      8.559
REMARK INTER + INTRA:         -11.956
REMARK INTER:                 -10.372
REMARK INTRA:                  -1.584
REMARK UNBOUND:                -1.682
REMARK SMILES CC[C@@H](C=C[C@H](C)[C@H]1CC[C@H]2C3=CC[C@H]4C[C@@H](O)CC[C@]4(C)[C@H]3CC[C@@]12C)C(C)C
REMARK SMILES IDX 6 1 7 2 5 3 4 4 3 5 2 6 1 7 28 8 29 9 30 10 8 11 9 12 26 13
REMARK SMILES IDX 10 14 11 15 25 16 27 17 12 18 24 19 23 20 13 21 21 22 14 23
REMARK SMILES IDX 15 24 20 25 22 26 16 27 19 28 17 29 18 30
REMARK H PARENT 18 31
REMARK Flexibility Score: inf
ROOT
ATOM      1  C   UNL     1      -0.782  21.149  46.938  1.00  0.00     0.012 C 
ATOM      2  C   UNL     1       0.385  22.103  46.621  1.00  0.00     0.012 C 
ENDROOT
BRANCH   1   3
ATOM      3  C   UNL     1      -0.195  19.811  47.351  1.00  0.00    -0.028 C 
ATOM      4  C   UNL     1      -0.813  18.617  47.245  1.00  0.00    -0.027 C 
BRANCH   4   5
ATOM      5  C   UNL     1      -2.233  18.410  46.743  1.00  0.00     0.014 C 
BRANCH   5   6
ATOM      6  C   UNL     1      -3.042  17.666  47.841  1.00  0.00     0.004 C 
ATOM      7  C   UNL     1      -3.311  18.505  49.088  1.00  0.00     0.004 C 
ENDBRANCH   5   6
BRANCH   5   8
ATOM      8  C   UNL     1      -2.192  17.713  45.339  1.00  0.00    -0.011 C 
ATOM      9  C   UNL     1      -0.925  16.880  45.088  1.00  0.00     0.008 C 
ATOM     10  C   UNL     1      -3.452  16.881  45.048  1.00  0.00     0.008 C 
ENDBRANCH   5   8
ENDBRANCH   4   5
ENDBRANCH   1   3
BRANCH   1  11
ATOM     11  C   UNL     1      -1.786  21.645  48.036  1.00  0.00     0.002 C 
ATOM     12  C   UNL     1      -1.196  22.513  49.150  1.00  0.00     0.005 C 
ATOM     13  C   UNL     1      -3.063  22.394  47.559  1.00  0.00    -0.023 C 
ATOM     14  C   UNL     1      -2.379  23.253  49.766  1.00  0.00     0.009 C 
ATOM     15  C   UNL     1      -3.612  22.978  48.880  1.00  0.00     0.021 C 
ATOM     16  C   UNL     1      -2.735  23.551  46.583  1.00  0.00     0.008 C 
ATOM     17  C   UNL     1      -4.069  21.400  46.921  1.00  0.00     0.012 C 
ATOM     18  C   UNL     1      -4.491  24.216  48.729  1.00  0.00    -0.067 C 
ATOM     19  C   UNL     1      -3.966  24.371  46.185  1.00  0.00     0.009 C 
ATOM     20  C   UNL     1      -4.948  24.707  47.350  1.00  0.00     0.021 C 
ATOM     21  C   UNL     1      -5.012  24.753  49.859  1.00  0.00    -0.027 C 
ATOM     22  C   UNL     1      -5.417  26.208  47.372  1.00  0.00    -0.023 C 
ATOM     23  C   UNL     1      -5.847  26.006  49.889  1.00  0.00     0.031 C 
ATOM     24  C   UNL     1      -6.469  26.330  48.523  1.00  0.00     0.002 C 
ATOM     25  C   UNL     1      -6.122  26.570  46.029  1.00  0.00     0.010 C 
ATOM     26  C   UNL     1      -4.195  27.151  47.603  1.00  0.00     0.012 C 
ATOM     27  C   UNL     1      -7.189  27.695  48.556  1.00  0.00     0.036 C 
ATOM     28  C   UNL     1      -6.823  27.936  46.070  1.00  0.00     0.032 C 
ATOM     29  C   UNL     1      -7.851  28.002  47.205  1.00  0.00     0.114 C 
BRANCH  29  30
ATOM     30  O   UNL     1      -8.423  29.284  47.231  1.00  0.00    -0.393 OA
ATOM     31  H   UNL     1      -8.071  29.738  48.041  1.00  0.00     0.210 HD
ENDBRANCH  29  30
ENDBRANCH   1  11
TORSDOF 6
ENDMDL
MODEL 3
REMARK VINA RESULT:    -7.255      1.527      3.516
REMARK INTER + INTRA:         -11.270
REMARK INTER:                 -10.660
REMARK INTRA:                  -0.610
REMARK UNBOUND:                -1.682
REMARK SMILES CC[C@@H](C=C[C@H](C)[C@H]1CC[C@H]2C3=CC[C@H]4C[C@@H](O)CC[C@]4(C)[C@H]3CC[C@@]12C)C(C)C
REMARK SMILES IDX 6 1 7 2 5 3 4 4 3 5 2 6 1 7 28 8 29 9 30 10 8 11 9 12 26 13
REMARK SMILES IDX 10 14 11 15 25 16 27 17 12 18 24 19 23 20 13 21 21 22 14 23
REMARK SMILES IDX 15 24 20 25 22 26 16 27 19 28 17 29 18 30
REMARK H PARENT 18 31
REMARK Flexibility Score: inf
ROOT
ATOM      1  C   UNL     1      -4.640  26.644  49.625  1.00  0.00     0.012 C 
ATOM      2  C   UNL     1      -3.422  27.053  50.474  1.00  0.00     0.012 C 
ENDROOT
BRANCH   1   3
ATOM      3  C   UNL     1      -4.402  27.118  48.202  1.00  0.00    -0.028 C 
ATOM      4  C   UNL     1      -5.106  28.077  47.567  1.00  0.00    -0.027 C 
BRANCH   4   5
ATOM      5  C   UNL     1      -6.302  28.812  48.149  1.00  0.00     0.014 C 
BRANCH   5   6
ATOM      6  C   UNL     1      -7.597  28.069  47.720  1.00  0.00     0.004 C 
ATOM      7  C   UNL     1      -8.292  27.327  48.859  1.00  0.00     0.004 C 
ENDBRANCH   5   6
BRANCH   5   8
ATOM      8  C   UNL     1      -6.225  30.327  47.752  1.00  0.00    -0.011 C 
ATOM      9  C   UNL     1      -7.476  30.851  47.029  1.00  0.00     0.008 C 
ATOM     10  C   UNL     1      -5.864  31.239  48.936  1.00  0.00     0.008 C 
ENDBRANCH   5   8
ENDBRANCH   4   5
ENDBRANCH   1   3
BRANCH   1  11
ATOM     11  C   UNL     1      -4.980  25.112  49.619  1.00  0.00     0.002 C 
ATOM     12  C   UNL     1      -5.930  24.634  48.520  1.00  0.00     0.005 C 
ATOM     13  C   UNL     1      -3.791  24.110  49.604  1.00  0.00    -0.023 C 
ATOM     14  C   UNL     1      -5.712  23.128  48.412  1.00  0.00     0.009 C 
ATOM     15  C   UNL     1      -4.496  22.771  49.292  1.00  0.00     0.021 C 
ATOM     16  C   UNL     1      -2.770  24.427  48.485  1.00  0.00     0.008 C 
ATOM     17  C   UNL     1      -3.097  24.071  50.991  1.00  0.00     0.012 C 
ATOM     18  C   UNL     1      -3.616  21.708  48.641  1.00  0.00    -0.067 C 
ATOM     19  C   UNL     1      -1.647  23.390  48.381  1.00  0.00     0.009 C 
ATOM     20  C   UNL     1      -2.100  21.902  48.502  1.00  0.00     0.021 C 
ATOM     21  C   UNL     1      -4.185  20.509  48.366  1.00  0.00    -0.027 C 
ATOM     22  C   UNL     1      -1.472  20.956  47.416  1.00  0.00    -0.023 C 
ATOM     23  C   UNL     1      -3.473  19.379  47.672  1.00  0.00     0.031 C 
ATOM     24  C   UNL     1      -1.944  19.505  47.758  1.00  0.00     0.002 C 
ATOM     25  C   UNL     1       0.085  20.994  47.507  1.00  0.00     0.010 C 
ATOM     26  C   UNL     1      -1.931  21.393  45.990  1.00  0.00     0.012 C 
ATOM     27  C   UNL     1      -1.254  18.416  46.910  1.00  0.00     0.036 C 
ATOM     28  C   UNL     1       0.762  19.914  46.649  1.00  0.00     0.032 C 
ATOM     29  C   UNL     1       0.275  18.512  47.030  1.00  0.00     0.114 C 
BRANCH  29  30
ATOM     30  O   UNL     1       0.881  17.570  46.183  1.00  0.00    -0.393 OA
ATOM     31  H   UNL     1       0.245  17.401  45.439  1.00  0.00     0.210 HD
ENDBRANCH  29  30
ENDBRANCH   1  11
TORSDOF 6
ENDMDL
MODEL 4
REMARK VINA RESULT:    -7.098      3.942      8.564
REMARK INTER + INTRA:         -11.063
REMARK INTER:                  -9.623
REMARK INTRA:                  -1.440
REMARK UNBOUND:                -1.682
REMARK SMILES CC[C@@H](C=C[C@H](C)[C@H]1CC[C@H]2C3=CC[C@H]4C[C@@H](O)CC[C@]4(C)[C@H]3CC[C@@]12C)C(C)C
REMARK SMILES IDX 6 1 7 2 5 3 4 4 3 5 2 6 1 7 28 8 29 9 30 10 8 11 9 12 26 13
REMARK SMILES IDX 10 14 11 15 25 16 27 17 12 18 24 19 23 20 13 21 21 22 14 23
REMARK SMILES IDX 15 24 20 25 22 26 16 27 19 28 17 29 18 30
REMARK H PARENT 18 31
REMARK Flexibility Score: inf
ROOT
ATOM      1  C   UNL     1      -2.881  22.183  49.026  1.00  0.00     0.012 C 
ATOM      2  C   UNL     1      -1.724  22.521  49.985  1.00  0.00     0.012 C 
ENDROOT
BRANCH   1   3
ATOM      3  C   UNL     1      -3.072  20.677  49.031  1.00  0.00    -0.028 C 
ATOM      4  C   UNL     1      -2.465  19.807  48.198  1.00  0.00    -0.027 C 
BRANCH   4   5
ATOM      5  C   UNL     1      -1.526  20.191  47.067  1.00  0.00     0.014 C 
BRANCH   5   6
ATOM      6  C   UNL     1      -2.359  20.845  45.931  1.00  0.00     0.004 C 
ATOM      7  C   UNL     1      -2.015  22.311  45.675  1.00  0.00     0.004 C 
ENDBRANCH   5   6
BRANCH   5   8
ATOM      8  C   UNL     1      -0.674  18.942  46.651  1.00  0.00    -0.011 C 
ATOM      9  C   UNL     1       0.688  18.848  47.356  1.00  0.00     0.008 C 
ATOM     10  C   UNL     1      -1.447  17.619  46.788  1.00  0.00     0.008 C 
ENDBRANCH   5   8
ENDBRANCH   4   5
ENDBRANCH   1   3
BRANCH   1  11
ATOM     11  C   UNL     1      -4.248  22.889  49.336  1.00  0.00     0.002 C 
ATOM     12  C   UNL     1      -4.341  23.623  50.675  1.00  0.00     0.005 C 
ATOM     13  C   UNL     1      -4.802  23.884  48.277  1.00  0.00    -0.023 C 
ATOM     14  C   UNL     1      -5.505  24.600  50.529  1.00  0.00     0.009 C 
ATOM     15  C   UNL     1      -5.944  24.581  49.050  1.00  0.00     0.021 C 
ATOM     16  C   UNL     1      -3.749  24.938  47.854  1.00  0.00     0.008 C 
ATOM     17  C   UNL     1      -5.344  23.117  47.042  1.00  0.00     0.012 C 
ATOM     18  C   UNL     1      -6.314  25.974  48.550  1.00  0.00    -0.067 C 
ATOM     19  C   UNL     1      -4.305  25.994  46.894  1.00  0.00     0.009 C 
ATOM     20  C   UNL     1      -5.724  26.538  47.250  1.00  0.00     0.021 C 
ATOM     21  C   UNL     1      -7.324  26.618  49.184  1.00  0.00    -0.027 C 
ATOM     22  C   UNL     1      -5.843  28.103  47.168  1.00  0.00    -0.023 C 
ATOM     23  C   UNL     1      -7.769  28.017  48.854  1.00  0.00     0.031 C 
ATOM     24  C   UNL     1      -7.342  28.453  47.444  1.00  0.00     0.002 C 
ATOM     25  C   UNL     1      -5.486  28.593  45.730  1.00  0.00     0.010 C 
ATOM     26  C   UNL     1      -4.892  28.772  48.208  1.00  0.00     0.012 C 
ATOM     27  C   UNL     1      -7.683  29.939  47.200  1.00  0.00     0.036 C 
ATOM     28  C   UNL     1      -5.818  30.076  45.504  1.00  0.00     0.032 C 
ATOM     29  C   UNL     1      -7.299  30.365  45.776  1.00  0.00     0.114 C 
BRANCH  29  30
ATOM     30  O   UNL     1      -7.536  31.739  45.606  1.00  0.00    -0.393 OA
ATOM     31  H   UNL     1      -8.118  31.833  44.807  1.00  0.00     0.210 HD
ENDBRANCH  29  30
ENDBRANCH   1  11
TORSDOF 6
ENDMDL
MODEL 5
REMARK VINA RESULT:    -7.086      3.813      8.810
REMARK INTER + INTRA:         -11.047
REMARK INTER:                 -10.134
REMARK INTRA:                  -0.913
REMARK UNBOUND:                -1.682
REMARK SMILES CC[C@@H](C=C[C@H](C)[C@H]1CC[C@H]2C3=CC[C@H]4C[C@@H](O)CC[C@]4(C)[C@H]3CC[C@@]12C)C(C)C
REMARK SMILES IDX 6 1 7 2 5 3 4 4 3 5 2 6 1 7 28 8 29 9 30 10 8 11 9 12 26 13
REMARK SMILES IDX 10 14 11 15 25 16 27 17 12 18 24 19 23 20 13 21 21 22 14 23
REMARK SMILES IDX 15 24 20 25 22 26 16 27 19 28 17 29 18 30
REMARK H PARENT 18 31
REMARK Flexibility Score: inf
ROOT
ATOM      1  C   UNL     1      -2.653  21.271  48.166  1.00  0.00     0.012 C 
ATOM      2  C   UNL     1      -1.166  21.671  48.145  1.00  0.00     0.012 C 
ENDROOT
BRANCH   1   3
ATOM      3  C   UNL     1      -2.744  19.822  48.610  1.00  0.00    -0.028 C 
ATOM      4  C   UNL     1      -2.257  18.763  47.933  1.00  0.00    -0.027 C 
BRANCH   4   5
ATOM      5  C   UNL     1      -1.580  18.831  46.574  1.00  0.00     0.014 C 
BRANCH   5   6
ATOM      6  C   UNL     1      -2.616  18.440  45.485  1.00  0.00     0.004 C 
ATOM      7  C   UNL     1      -3.449  17.209  45.835  1.00  0.00     0.004 C 
ENDBRANCH   5   6
BRANCH   5   8
ATOM      8  C   UNL     1      -0.268  17.972  46.603  1.00  0.00    -0.011 C 
ATOM      9  C   UNL     1       0.038  17.249  45.282  1.00  0.00     0.008 C 
ATOM     10  C   UNL     1       0.958  18.769  47.079  1.00  0.00     0.008 C 
ENDBRANCH   5   8
ENDBRANCH   4   5
ENDBRANCH   1   3
BRANCH   1  11
ATOM     11  C   UNL     1      -3.581  22.158  49.069  1.00  0.00     0.002 C 
ATOM     12  C   UNL     1      -2.878  23.026  50.114  1.00  0.00     0.005 C 
ATOM     13  C   UNL     1      -4.590  23.103  48.355  1.00  0.00    -0.023 C 
ATOM     14  C   UNL     1      -3.881  24.113  50.489  1.00  0.00     0.009 C 
ATOM     15  C   UNL     1      -5.073  24.001  49.515  1.00  0.00     0.021 C 
ATOM     16  C   UNL     1      -3.910  23.980  47.275  1.00  0.00     0.008 C 
ATOM     17  C   UNL     1      -5.762  22.287  47.749  1.00  0.00     0.012 C 
ATOM     18  C   UNL     1      -5.601  25.371  49.102  1.00  0.00    -0.067 C 
ATOM     19  C   UNL     1      -4.863  24.994  46.635  1.00  0.00     0.009 C 
ATOM     20  C   UNL     1      -5.815  25.732  47.627  1.00  0.00     0.021 C 
ATOM     21  C   UNL     1      -6.055  26.188  50.084  1.00  0.00    -0.027 C 
ATOM     22  C   UNL     1      -5.894  27.285  47.395  1.00  0.00    -0.023 C 
ATOM     23  C   UNL     1      -6.549  27.591  49.851  1.00  0.00     0.031 C 
ATOM     24  C   UNL     1      -6.966  27.833  48.393  1.00  0.00     0.002 C 
ATOM     25  C   UNL     1      -6.382  27.587  45.944  1.00  0.00     0.010 C 
ATOM     26  C   UNL     1      -4.496  27.937  47.631  1.00  0.00     0.012 C 
ATOM     27  C   UNL     1      -7.322  29.317  48.162  1.00  0.00     0.036 C 
ATOM     28  C   UNL     1      -6.721  29.069  45.722  1.00  0.00     0.032 C 
ATOM     29  C   UNL     1      -7.782  29.554  46.716  1.00  0.00     0.114 C 
BRANCH  29  30
ATOM     30  O   UNL     1      -8.015  30.923  46.505  1.00  0.00    -0.393 OA
ATOM     31  H   UNL     1      -7.647  31.142  45.609  1.00  0.00     0.210 HD
ENDBRANCH  29  30
ENDBRANCH   1  11
TORSDOF 6
ENDMDL
MODEL 6
REMARK VINA RESULT:    -7.075      3.032      8.363
REMARK INTER + INTRA:         -11.032
REMARK INTER:                  -9.455
REMARK INTRA:                  -1.577
REMARK UNBOUND:                -1.682
REMARK SMILES CC[C@@H](C=C[C@H](C)[C@H]1CC[C@H]2C3=CC[C@H]4C[C@@H](O)CC[C@]4(C)[C@H]3CC[C@@]12C)C(C)C
REMARK SMILES IDX 6 1 7 2 5 3 4 4 3 5 2 6 1 7 28 8 29 9 30 10 8 11 9 12 26 13
REMARK SMILES IDX 10 14 11 15 25 16 27 17 12 18 24 19 23 20 13 21 21 22 14 23
REMARK SMILES IDX 15 24 20 25 22 26 16 27 19 28 17 29 18 30
REMARK H PARENT 18 31
REMARK Flexibility Score: inf
ROOT
ATOM      1  C   UNL     1      -3.657  20.953  47.566  1.00  0.00     0.012 C 
ATOM      2  C   UNL     1      -4.598  19.864  48.115  1.00  0.00     0.012 C 
ENDROOT
BRANCH   1   3
ATOM      3  C   UNL     1      -3.200  20.524  46.183  1.00  0.00    -0.028 C 
ATOM      4  C   UNL     1      -2.163  19.703  45.920  1.00  0.00    -0.027 C 
BRANCH   4   5
ATOM      5  C   UNL     1      -1.233  19.108  46.965  1.00  0.00     0.014 C 
BRANCH   5   6
ATOM      6  C   UNL     1       0.164  19.770  46.820  1.00  0.00     0.004 C 
ATOM      7  C   UNL     1       0.252  21.171  47.421  1.00  0.00     0.004 C 
ENDBRANCH   5   6
BRANCH   5   8
ATOM      8  C   UNL     1      -1.258  17.544  46.853  1.00  0.00    -0.011 C 
ATOM      9  C   UNL     1      -2.388  16.875  47.651  1.00  0.00     0.008 C 
ATOM     10  C   UNL     1      -1.257  17.049  45.397  1.00  0.00     0.008 C 
ENDBRANCH   5   8
ENDBRANCH   4   5
ENDBRANCH   1   3
BRANCH   1  11
ATOM     11  C   UNL     1      -4.261  22.400  47.496  1.00  0.00     0.002 C 
ATOM     12  C   UNL     1      -5.653  22.581  48.102  1.00  0.00     0.005 C 
ATOM     13  C   UNL     1      -3.404  23.565  48.067  1.00  0.00    -0.023 C 
ATOM     14  C   UNL     1      -5.798  24.078  48.364  1.00  0.00     0.009 C 
ATOM     15  C   UNL     1      -4.421  24.728  48.108  1.00  0.00     0.021 C 
ATOM     16  C   UNL     1      -2.897  23.275  49.500  1.00  0.00     0.008 C 
ATOM     17  C   UNL     1      -2.222  23.886  47.115  1.00  0.00     0.012 C 
ATOM     18  C   UNL     1      -4.115  25.826  49.123  1.00  0.00    -0.067 C 
ATOM     19  C   UNL     1      -2.143  24.453  50.124  1.00  0.00     0.009 C 
ATOM     20  C   UNL     1      -2.786  25.856  49.889  1.00  0.00     0.021 C 
ATOM     21  C   UNL     1      -4.969  26.876  49.183  1.00  0.00    -0.027 C 
ATOM     22  C   UNL     1      -2.861  26.745  51.184  1.00  0.00    -0.023 C 
ATOM     23  C   UNL     1      -4.843  28.008  50.167  1.00  0.00     0.031 C 
ATOM     24  C   UNL     1      -3.423  28.135  50.740  1.00  0.00     0.002 C 
ATOM     25  C   UNL     1      -1.431  26.963  51.768  1.00  0.00     0.010 C 
ATOM     26  C   UNL     1      -3.773  26.066  52.252  1.00  0.00     0.012 C 
ATOM     27  C   UNL     1      -3.371  29.204  51.852  1.00  0.00     0.036 C 
ATOM     28  C   UNL     1      -1.394  28.020  52.883  1.00  0.00     0.032 C 
ATOM     29  C   UNL     1      -1.944  29.365  52.395  1.00  0.00     0.114 C 
BRANCH  29  30
ATOM     30  O   UNL     1      -1.938  30.276  53.463  1.00  0.00    -0.393 OA
ATOM     31  H   UNL     1      -1.002  30.324  53.794  1.00  0.00     0.210 HD
ENDBRANCH  29  30
ENDBRANCH   1  11
TORSDOF 6
ENDMDL
MODEL 7
REMARK VINA RESULT:    -6.939      2.346      4.166
REMARK INTER + INTRA:         -10.852
REMARK INTER:                  -9.239
REMARK INTRA:                  -1.613
REMARK UNBOUND:                -1.682
REMARK SMILES CC[C@@H](C=C[C@H](C)[C@H]1CC[C@H]2C3=CC[C@H]4C[C@@H](O)CC[C@]4(C)[C@H]3CC[C@@]12C)C(C)C
REMARK SMILES IDX 6 1 7 2 5 3 4 4 3 5 2 6 1 7 28 8 29 9 30 10 8 11 9 12 26 13
REMARK SMILES IDX 10 14 11 15 25 16 27 17 12 18 24 19 23 20 13 21 21 22 14 23
REMARK SMILES IDX 15 24 20 25 22 26 16 27 19 28 17 29 18 30
REMARK H PARENT 18 31
REMARK Flexibility Score: inf
ROOT
ATOM      1  C   UNL     1      -6.557  26.391  48.854  1.00  0.00     0.012 C 
ATOM      2  C   UNL     1      -6.771  27.003  50.251  1.00  0.00     0.012 C 
ENDROOT
BRANCH   1   3
ATOM      3  C   UNL     1      -7.148  27.343  47.830  1.00  0.00    -0.028 C 
ATOM      4  C   UNL     1      -6.629  28.537  47.477  1.00  0.00    -0.027 C 
BRANCH   4   5
ATOM      5  C   UNL     1      -5.386  29.164  48.088  1.00  0.00     0.014 C 
BRANCH   5   6
ATOM      6  C   UNL     1      -5.802  30.461  48.833  1.00  0.00     0.004 C 
ATOM      7  C   UNL     1      -6.159  31.621  47.906  1.00  0.00     0.004 C 
ENDBRANCH   5   6
BRANCH   5   8
ATOM      8  C   UNL     1      -4.293  29.339  46.978  1.00  0.00    -0.011 C 
ATOM      9  C   UNL     1      -2.886  28.895  47.407  1.00  0.00     0.008 C 
ATOM     10  C   UNL     1      -4.684  28.682  45.644  1.00  0.00     0.008 C 
ENDBRANCH   5   8
ENDBRANCH   4   5
ENDBRANCH   1   3
BRANCH   1  11
ATOM     11  C   UNL     1      -5.069  26.067  48.475  1.00  0.00     0.002 C 
ATOM     12  C   UNL     1      -4.065  26.057  49.628  1.00  0.00     0.005 C 
ATOM     13  C   UNL     1      -4.797  24.761  47.676  1.00  0.00    -0.023 C 
ATOM     14  C   UNL     1      -2.865  25.259  49.124  1.00  0.00     0.009 C 
ATOM     15  C   UNL     1      -3.260  24.635  47.769  1.00  0.00     0.021 C 
ATOM     16  C   UNL     1      -5.456  23.523  48.333  1.00  0.00     0.008 C 
ATOM     17  C   UNL     1      -5.261  24.918  46.204  1.00  0.00     0.012 C 
ATOM     18  C   UNL     1      -2.712  23.220  47.615  1.00  0.00    -0.067 C 
ATOM     19  C   UNL     1      -5.111  22.210  47.624  1.00  0.00     0.009 C 
ATOM     20  C   UNL     1      -3.618  22.054  47.197  1.00  0.00     0.021 C 
ATOM     21  C   UNL     1      -1.367  23.061  47.670  1.00  0.00    -0.027 C 
ATOM     22  C   UNL     1      -2.997  20.654  47.554  1.00  0.00    -0.023 C 
ATOM     23  C   UNL     1      -0.673  21.727  47.597  1.00  0.00     0.031 C 
ATOM     24  C   UNL     1      -1.552  20.641  46.959  1.00  0.00     0.002 C 
ATOM     25  C   UNL     1      -3.815  19.515  46.871  1.00  0.00     0.010 C 
ATOM     26  C   UNL     1      -2.989  20.448  49.101  1.00  0.00     0.012 C 
ATOM     27  C   UNL     1      -0.865  19.261  47.040  1.00  0.00     0.036 C 
ATOM     28  C   UNL     1      -3.129  18.144  46.969  1.00  0.00     0.032 C 
ATOM     29  C   UNL     1      -1.721  18.180  46.363  1.00  0.00     0.114 C 
BRANCH  29  30
ATOM     30  O   UNL     1      -1.120  16.921  46.525  1.00  0.00    -0.393 OA
ATOM     31  H   UNL     1      -1.729  16.257  46.107  1.00  0.00     0.210 HD
ENDBRANCH  29  30
ENDBRANCH   1  11
TORSDOF 6
ENDMDL
MODEL 8
REMARK VINA RESULT:    -6.885      4.938      9.171
REMARK INTER + INTRA:         -10.780
REMARK INTER:                  -9.302
REMARK INTRA:                  -1.479
REMARK UNBOUND:                -1.682
REMARK SMILES CC[C@@H](C=C[C@H](C)[C@H]1CC[C@H]2C3=CC[C@H]4C[C@@H](O)CC[C@]4(C)[C@H]3CC[C@@]12C)C(C)C
REMARK SMILES IDX 6 1 7 2 5 3 4 4 3 5 2 6 1 7 28 8 29 9 30 10 8 11 9 12 26 13
REMARK SMILES IDX 10 14 11 15 25 16 27 17 12 18 24 19 23 20 13 21 21 22 14 23
REMARK SMILES IDX 15 24 20 25 22 26 16 27 19 28 17 29 18 30
REMARK H PARENT 18 31
REMARK Flexibility Score: inf
ROOT
ATOM      1  C   UNL     1      -4.943  24.943  49.142  1.00  0.00     0.012 C 
ATOM      2  C   UNL     1      -3.699  24.237  48.571  1.00  0.00     0.012 C 
ENDROOT
BRANCH   1   3
ATOM      3  C   UNL     1      -5.357  24.215  50.408  1.00  0.00    -0.028 C 
ATOM      4  C   UNL     1      -4.715  24.275  51.592  1.00  0.00    -0.027 C 
BRANCH   4   5
ATOM      5  C   UNL     1      -3.428  25.040  51.850  1.00  0.00     0.014 C 
BRANCH   5   6
ATOM      6  C   UNL     1      -2.272  24.018  52.030  1.00  0.00     0.004 C 
ATOM      7  C   UNL     1      -1.081  24.260  51.105  1.00  0.00     0.004 C 
ENDBRANCH   5   6
BRANCH   5   8
ATOM      8  C   UNL     1      -3.645  26.036  53.042  1.00  0.00    -0.011 C 
ATOM      9  C   UNL     1      -2.429  26.180  53.969  1.00  0.00     0.008 C 
ATOM     10  C   UNL     1      -4.142  27.418  52.583  1.00  0.00     0.008 C 
ENDBRANCH   5   8
ENDBRANCH   4   5
ENDBRANCH   1   3
BRANCH   1  11
ATOM     11  C   UNL     1      -4.776  26.473  49.445  1.00  0.00     0.002 C 
ATOM     12  C   UNL     1      -3.527  27.144  48.869  1.00  0.00     0.005 C 
ATOM     13  C   UNL     1      -5.959  27.414  49.078  1.00  0.00    -0.023 C 
ATOM     14  C   UNL     1      -3.831  28.640  48.856  1.00  0.00     0.009 C 
ATOM     15  C   UNL     1      -5.320  28.813  49.222  1.00  0.00     0.021 C 
ATOM     16  C   UNL     1      -6.437  27.215  47.619  1.00  0.00     0.008 C 
ATOM     17  C   UNL     1      -7.132  27.225  50.076  1.00  0.00     0.012 C 
ATOM     18  C   UNL     1      -5.981  29.918  48.403  1.00  0.00    -0.067 C 
ATOM     19  C   UNL     1      -7.528  28.205  47.202  1.00  0.00     0.009 C 
ATOM     20  C   UNL     1      -7.302  29.679  47.659  1.00  0.00     0.021 C 
ATOM     21  C   UNL     1      -5.468  31.168  48.512  1.00  0.00    -0.027 C 
ATOM     22  C   UNL     1      -7.553  30.742  46.528  1.00  0.00    -0.023 C 
ATOM     23  C   UNL     1      -5.964  32.353  47.727  1.00  0.00     0.031 C 
ATOM     24  C   UNL     1      -7.389  32.149  47.191  1.00  0.00     0.002 C 
ATOM     25  C   UNL     1      -9.015  30.623  45.996  1.00  0.00     0.010 C 
ATOM     26  C   UNL     1      -6.543  30.532  45.358  1.00  0.00     0.012 C 
ATOM     27  C   UNL     1      -7.803  33.316  46.270  1.00  0.00     0.036 C 
ATOM     28  C   UNL     1      -9.411  31.783  45.070  1.00  0.00     0.032 C 
ATOM     29  C   UNL     1      -9.244  33.137  45.768  1.00  0.00     0.114 C 
BRANCH  29  30
ATOM     30  O   UNL     1      -9.567  34.162  44.864  1.00  0.00    -0.393 OA
ATOM     31  H   UNL     1     -10.493  34.451  45.078  1.00  0.00     0.210 HD
ENDBRANCH  29  30
ENDBRANCH   1  11
TORSDOF 6
ENDMDL
MODEL 9
REMARK VINA RESULT:    -6.817      1.995      4.213
REMARK INTER + INTRA:         -10.691
REMARK INTER:                  -9.003
REMARK INTRA:                  -1.687
REMARK UNBOUND:                -1.682
REMARK SMILES CC[C@@H](C=C[C@H](C)[C@H]1CC[C@H]2C3=CC[C@H]4C[C@@H](O)CC[C@]4(C)[C@H]3CC[C@@]12C)C(C)C
REMARK SMILES IDX 6 1 7 2 5 3 4 4 3 5 2 6 1 7 28 8 29 9 30 10 8 11 9 12 26 13
REMARK SMILES IDX 10 14 11 15 25 16 27 17 12 18 24 19 23 20 13 21 21 22 14 23
REMARK SMILES IDX 15 24 20 25 22 26 16 27 19 28 17 29 18 30
REMARK H PARENT 18 31
REMARK Flexibility Score: inf
ROOT
ATOM      1  C   UNL     1      -5.070  26.886  50.420  1.00  0.00     0.012 C 
ATOM      2  C   UNL     1      -4.230  28.034  51.012  1.00  0.00     0.012 C 
ENDROOT
BRANCH   1   3
ATOM      3  C   UNL     1      -6.511  27.355  50.333  1.00  0.00    -0.028 C 
ATOM      4  C   UNL     1      -7.030  28.116  49.348  1.00  0.00    -0.027 C 
BRANCH   4   5
ATOM      5  C   UNL     1      -6.244  28.686  48.179  1.00  0.00     0.014 C 
BRANCH   5   6
ATOM      6  C   UNL     1      -5.888  30.164  48.496  1.00  0.00     0.004 C 
ATOM      7  C   UNL     1      -4.423  30.517  48.242  1.00  0.00     0.004 C 
ENDBRANCH   5   6
BRANCH   5   8
ATOM      8  C   UNL     1      -7.043  28.450  46.851  1.00  0.00    -0.011 C 
ATOM      9  C   UNL     1      -6.555  27.246  46.030  1.00  0.00     0.008 C 
ATOM     10  C   UNL     1      -8.563  28.373  47.073  1.00  0.00     0.008 C 
ENDBRANCH   5   8
ENDBRANCH   4   5
ENDBRANCH   1   3
BRANCH   1  11
ATOM     11  C   UNL     1      -4.602  26.355  49.020  1.00  0.00     0.002 C 
ATOM     12  C   UNL     1      -3.180  26.725  48.597  1.00  0.00     0.005 C 
ATOM     13  C   UNL     1      -4.733  24.830  48.748  1.00  0.00    -0.023 C 
ATOM     14  C   UNL     1      -2.800  25.726  47.507  1.00  0.00     0.009 C 
ATOM     15  C   UNL     1      -3.913  24.658  47.450  1.00  0.00     0.021 C 
ATOM     16  C   UNL     1      -4.099  23.976  49.873  1.00  0.00     0.008 C 
ATOM     17  C   UNL     1      -6.219  24.442  48.529  1.00  0.00     0.012 C 
ATOM     18  C   UNL     1      -3.346  23.261  47.217  1.00  0.00    -0.067 C 
ATOM     19  C   UNL     1      -4.119  22.474  49.574  1.00  0.00     0.009 C 
ATOM     20  C   UNL     1      -3.743  22.079  48.112  1.00  0.00     0.021 C 
ATOM     21  C   UNL     1      -2.635  23.056  46.082  1.00  0.00    -0.027 C 
ATOM     22  C   UNL     1      -2.723  20.887  48.018  1.00  0.00    -0.023 C 
ATOM     23  C   UNL     1      -1.960  21.756  45.733  1.00  0.00     0.031 C 
ATOM     24  C   UNL     1      -2.552  20.563  46.498  1.00  0.00     0.002 C 
ATOM     25  C   UNL     1      -3.308  19.624  48.722  1.00  0.00     0.010 C 
ATOM     26  C   UNL     1      -1.367  21.284  48.681  1.00  0.00     0.012 C 
ATOM     27  C   UNL     1      -1.738  19.279  46.230  1.00  0.00     0.036 C 
ATOM     28  C   UNL     1      -2.482  18.355  48.458  1.00  0.00     0.032 C 
ATOM     29  C   UNL     1      -2.354  18.074  46.957  1.00  0.00     0.114 C 
BRANCH  29  30
ATOM     30  O   UNL     1      -1.549  16.939  46.770  1.00  0.00    -0.393 OA
ATOM     31  H   UNL     1      -1.159  17.011  45.859  1.00  0.00     0.210 HD
ENDBRANCH  29  30
ENDBRANCH   1  11
TORSDOF 6
ENDMDL
