MODEL 1
REMARK VINA RESULT:    12.848      0.000      0.000
REMARK INTER + INTRA:          14.833
REMARK INTER:                  15.101
REMARK INTRA:                  -0.268
REMARK UNBOUND:                -0.268
REMARK SMILES O=c1cc(-c2ccc(O)c(O)c2)oc2cc(O)cc(O)c12
REMARK SMILES IDX 4 1 3 2 2 3 1 4 21 5 19 6 18 7 16 8 15 9 14 10 13 11 5 12
REMARK SMILES IDX 6 13 7 14 8 15 12 16 10 17 9 18 11 20 20 22 17 24
REMARK H PARENT 9 19 11 21 20 23 17 25
REMARK Flexibility Score: inf
ROOT
ATOM      1  C   UNL     1     -19.429  -7.059  12.096  1.00  0.00     0.138 A 
ATOM      2  C   UNL     1     -20.344  -7.766  12.887  1.00  0.00     0.100 A 
ATOM      3  C   UNL     1     -20.682  -9.078  12.549  1.00  0.00     0.197 A 
ATOM      4  O   UNL     1     -21.463  -9.704  13.310  1.00  0.00    -0.289 OA
ATOM      5  C   UNL     1     -20.125  -9.670  11.390  1.00  0.00     0.107 A 
ATOM      6  C   UNL     1     -20.422 -10.988  10.927  1.00  0.00     0.134 A 
ATOM      7  C   UNL     1     -19.735 -11.502   9.821  1.00  0.00     0.093 A 
ATOM      8  C   UNL     1     -18.803 -10.726   9.126  1.00  0.00     0.123 A 
ATOM      9  C   UNL     1     -18.544  -9.422   9.539  1.00  0.00     0.094 A 
ATOM     10  C   UNL     1     -19.188  -8.892  10.659  1.00  0.00     0.146 A 
ATOM     11  O   UNL     1     -18.897  -7.649  11.030  1.00  0.00    -0.456 OA
ENDROOT
BRANCH   1  12
ATOM     12  C   UNL     1     -19.036  -5.662  12.407  1.00  0.00     0.021 A 
ATOM     13  C   UNL     1     -19.961  -4.624  12.206  1.00  0.00     0.016 A 
ATOM     14  C   UNL     1     -19.615  -3.298  12.484  1.00  0.00     0.051 A 
ATOM     15  C   UNL     1     -18.338  -2.986  12.958  1.00  0.00     0.157 A 
ATOM     16  C   UNL     1     -17.746  -5.341  12.873  1.00  0.00     0.062 A 
ATOM     17  C   UNL     1     -17.397  -4.010  13.151  1.00  0.00     0.158 A 
BRANCH  15  18
ATOM     18  O   UNL     1     -18.022  -1.655  13.229  1.00  0.00    -0.504 OA
ATOM     19  H   UNL     1     -18.717  -0.994  13.555  1.00  0.00     0.293 HD
ENDBRANCH  15  18
BRANCH  17  20
ATOM     20  O   UNL     1     -16.117  -3.704  13.613  1.00  0.00    -0.504 OA
ATOM     21  H   UNL     1     -15.288  -3.963  13.092  1.00  0.00     0.293 HD
ENDBRANCH  17  20
ENDBRANCH   1  12
BRANCH   6  22
ATOM     22  O   UNL     1     -21.391 -11.820  11.498  1.00  0.00    -0.507 OA
ATOM     23  H   UNL     1     -21.207 -12.538  12.182  1.00  0.00     0.293 HD
ENDBRANCH   6  22
BRANCH   8  24
ATOM     24  O   UNL     1     -18.135 -11.241   8.017  1.00  0.00    -0.508 OA
ATOM     25  H   UNL     1     -18.038 -12.240   7.874  1.00  0.00     0.293 HD
ENDBRANCH   8  24
TORSDOF 5
ENDMDL
MODEL 2
REMARK VINA RESULT:    13.660     10.860     15.061
REMARK INTER + INTRA:          15.787
REMARK INTER:                  16.054
REMARK INTRA:                  -0.267
REMARK UNBOUND:                -0.268
REMARK SMILES O=c1cc(-c2ccc(O)c(O)c2)oc2cc(O)cc(O)c12
REMARK SMILES IDX 4 1 3 2 2 3 1 4 21 5 19 6 18 7 16 8 15 9 14 10 13 11 5 12
REMARK SMILES IDX 6 13 7 14 8 15 12 16 10 17 9 18 11 20 20 22 17 24
REMARK H PARENT 9 19 11 21 20 23 17 25
REMARK Flexibility Score: inf
ROOT
ATOM      1  C   UNL     1     -17.147   4.034  18.473  1.00  0.00     0.138 A 
ATOM      2  C   UNL     1     -16.868   5.398  18.632  1.00  0.00     0.100 A 
ATOM      3  C   UNL     1     -17.436   6.100  19.697  1.00  0.00     0.197 A 
ATOM      4  O   UNL     1     -17.122   7.309  19.845  1.00  0.00    -0.289 OA
ATOM      5  C   UNL     1     -18.318   5.437  20.584  1.00  0.00     0.107 A 
ATOM      6  C   UNL     1     -18.984   6.059  21.684  1.00  0.00     0.134 A 
ATOM      7  C   UNL     1     -19.757   5.278  22.553  1.00  0.00     0.093 A 
ATOM      8  C   UNL     1     -19.935   3.911  22.328  1.00  0.00     0.123 A 
ATOM      9  C   UNL     1     -19.331   3.305  21.229  1.00  0.00     0.094 A 
ATOM     10  C   UNL     1     -18.526   4.049  20.364  1.00  0.00     0.146 A 
ATOM     11  O   UNL     1     -17.954   3.429  19.338  1.00  0.00    -0.456 OA
ENDROOT
BRANCH   1  12
ATOM     12  C   UNL     1     -16.572   3.239  17.357  1.00  0.00     0.021 A 
ATOM     13  C   UNL     1     -15.209   2.898  17.384  1.00  0.00     0.016 A 
ATOM     14  C   UNL     1     -14.641   2.157  16.344  1.00  0.00     0.051 A 
ATOM     15  C   UNL     1     -15.421   1.753  15.256  1.00  0.00     0.157 A 
ATOM     16  C   UNL     1     -17.350   2.842  16.253  1.00  0.00     0.062 A 
ATOM     17  C   UNL     1     -16.781   2.099  15.207  1.00  0.00     0.158 A 
BRANCH  15  18
ATOM     18  O   UNL     1     -14.827   1.013  14.234  1.00  0.00    -0.504 OA
ATOM     19  H   UNL     1     -14.218   0.226  14.425  1.00  0.00     0.293 HD
ENDBRANCH  15  18
BRANCH  17  20
ATOM     20  O   UNL     1     -17.561   1.709  14.120  1.00  0.00    -0.504 OA
ATOM     21  H   UNL     1     -18.018   2.389  13.523  1.00  0.00     0.293 HD
ENDBRANCH  17  20
ENDBRANCH   1  12
BRANCH   6  22
ATOM     22  O   UNL     1     -18.939   7.430  21.955  1.00  0.00    -0.507 OA
ATOM     23  H   UNL     1     -18.116   8.008  21.880  1.00  0.00     0.293 HD
ENDBRANCH   6  22
BRANCH   8  24
ATOM     24  O   UNL     1     -20.719   3.145  23.189  1.00  0.00    -0.508 OA
ATOM     25  H   UNL     1     -21.644   2.828  22.923  1.00  0.00     0.293 HD
ENDBRANCH   8  24
TORSDOF 5
ENDMDL
MODEL 3
REMARK VINA RESULT:    13.960      1.226      3.037
REMARK INTER + INTRA:          16.140
REMARK INTER:                  16.414
REMARK INTRA:                  -0.275
REMARK UNBOUND:                -0.268
REMARK SMILES O=c1cc(-c2ccc(O)c(O)c2)oc2cc(O)cc(O)c12
REMARK SMILES IDX 4 1 3 2 2 3 1 4 21 5 19 6 18 7 16 8 15 9 14 10 13 11 5 12
REMARK SMILES IDX 6 13 7 14 8 15 12 16 10 17 9 18 11 20 20 22 17 24
REMARK H PARENT 9 19 11 21 20 23 17 25
REMARK Flexibility Score: inf
ROOT
ATOM      1  C   UNL     1     -18.811  -7.037  11.294  1.00  0.00     0.138 A 
ATOM      2  C   UNL     1     -17.961  -7.392  10.239  1.00  0.00     0.100 A 
ATOM      3  C   UNL     1     -18.047  -8.668   9.680  1.00  0.00     0.197 A 
ATOM      4  O   UNL     1     -17.309  -8.937   8.698  1.00  0.00    -0.289 OA
ATOM      5  C   UNL     1     -18.967  -9.606  10.209  1.00  0.00     0.107 A 
ATOM      6  C   UNL     1     -19.120 -10.947   9.743  1.00  0.00     0.134 A 
ATOM      7  C   UNL     1     -20.133 -11.752  10.279  1.00  0.00     0.093 A 
ATOM      8  C   UNL     1     -20.961 -11.284  11.303  1.00  0.00     0.123 A 
ATOM      9  C   UNL     1     -20.787  -9.995  11.799  1.00  0.00     0.094 A 
ATOM     10  C   UNL     1     -19.808  -9.155  11.262  1.00  0.00     0.146 A 
ATOM     11  O   UNL     1     -19.688  -7.926  11.751  1.00  0.00    -0.456 OA
ENDROOT
BRANCH   1  12
ATOM     12  C   UNL     1     -18.761  -5.695  11.927  1.00  0.00     0.021 A 
ATOM     13  C   UNL     1     -17.597  -5.296  12.606  1.00  0.00     0.016 A 
ATOM     14  C   UNL     1     -17.525  -4.040  13.217  1.00  0.00     0.051 A 
ATOM     15  C   UNL     1     -18.616  -3.168  13.169  1.00  0.00     0.157 A 
ATOM     16  C   UNL     1     -19.861  -4.817  11.893  1.00  0.00     0.062 A 
ATOM     17  C   UNL     1     -19.791  -3.557  12.507  1.00  0.00     0.158 A 
BRANCH  15  18
ATOM     18  O   UNL     1     -18.514  -1.921  13.786  1.00  0.00    -0.504 OA
ATOM     19  H   UNL     1     -18.106  -1.121  13.317  1.00  0.00     0.293 HD
ENDBRANCH  15  18
BRANCH  17  20
ATOM     20  O   UNL     1     -20.887  -2.695  12.465  1.00  0.00    -0.504 OA
ATOM     21  H   UNL     1     -21.062  -2.023  13.203  1.00  0.00     0.293 HD
ENDBRANCH  17  20
ENDBRANCH   1  12
BRANCH   6  22
ATOM     22  O   UNL     1     -18.298 -11.542   8.781  1.00  0.00    -0.507 OA
ATOM     23  H   UNL     1     -18.492 -11.573   7.792  1.00  0.00     0.293 HD
ENDBRANCH   6  22
BRANCH   8  24
ATOM     24  O   UNL     1     -21.956 -12.098  11.840  1.00  0.00    -0.508 OA
ATOM     25  H   UNL     1     -22.935 -11.946  11.628  1.00  0.00     0.293 HD
ENDBRANCH   8  24
TORSDOF 5
ENDMDL
MODEL 4
REMARK VINA RESULT:    14.106      8.700     11.476
REMARK INTER + INTRA:          16.312
REMARK INTER:                  16.575
REMARK INTRA:                  -0.263
REMARK UNBOUND:                -0.268
REMARK SMILES O=c1cc(-c2ccc(O)c(O)c2)oc2cc(O)cc(O)c12
REMARK SMILES IDX 4 1 3 2 2 3 1 4 21 5 19 6 18 7 16 8 15 9 14 10 13 11 5 12
REMARK SMILES IDX 6 13 7 14 8 15 12 16 10 17 9 18 11 20 20 22 17 24
REMARK H PARENT 9 19 11 21 20 23 17 25
REMARK Flexibility Score: inf
ROOT
ATOM      1  C   UNL     1     -20.612   2.792  13.271  1.00  0.00     0.138 A 
ATOM      2  C   UNL     1     -20.110   3.859  14.028  1.00  0.00     0.100 A 
ATOM      3  C   UNL     1     -18.859   3.747  14.637  1.00  0.00     0.197 A 
ATOM      4  O   UNL     1     -18.413   4.743  15.263  1.00  0.00    -0.289 OA
ATOM      5  C   UNL     1     -18.124   2.543  14.515  1.00  0.00     0.107 A 
ATOM      6  C   UNL     1     -16.853   2.301  15.121  1.00  0.00     0.134 A 
ATOM      7  C   UNL     1     -16.176   1.106  14.848  1.00  0.00     0.093 A 
ATOM      8  C   UNL     1     -16.747   0.121  14.039  1.00  0.00     0.123 A 
ATOM      9  C   UNL     1     -18.008   0.326  13.485  1.00  0.00     0.094 A 
ATOM     10  C   UNL     1     -18.695   1.522  13.710  1.00  0.00     0.146 A 
ATOM     11  O   UNL     1     -19.888   1.684  13.147  1.00  0.00    -0.456 OA
ENDROOT
BRANCH   1  12
ATOM     12  C   UNL     1     -21.937   2.856  12.605  1.00  0.00     0.021 A 
ATOM     13  C   UNL     1     -22.002   3.029  11.212  1.00  0.00     0.016 A 
ATOM     14  C   UNL     1     -23.236   3.100  10.560  1.00  0.00     0.051 A 
ATOM     15  C   UNL     1     -24.426   3.008  11.288  1.00  0.00     0.157 A 
ATOM     16  C   UNL     1     -23.139   2.776  13.335  1.00  0.00     0.062 A 
ATOM     17  C   UNL     1     -24.379   2.848  12.682  1.00  0.00     0.158 A 
BRANCH  15  18
ATOM     18  O   UNL     1     -25.642   3.079  10.610  1.00  0.00    -0.504 OA
ATOM     19  H   UNL     1     -26.079   2.262  10.202  1.00  0.00     0.293 HD
ENDBRANCH  15  18
BRANCH  17  20
ATOM     20  O   UNL     1     -25.562   2.767  13.415  1.00  0.00    -0.504 OA
ATOM     21  H   UNL     1     -25.642   3.169  14.343  1.00  0.00     0.293 HD
ENDBRANCH  17  20
ENDBRANCH   1  12
BRANCH   6  22
ATOM     22  O   UNL     1     -16.227   3.183  16.007  1.00  0.00    -0.507 OA
ATOM     23  H   UNL     1     -16.332   4.186  15.999  1.00  0.00     0.293 HD
ENDBRANCH   6  22
BRANCH   8  24
ATOM     24  O   UNL     1     -16.072  -1.071  13.786  1.00  0.00    -0.508 OA
ATOM     25  H   UNL     1     -15.678  -1.626  14.537  1.00  0.00     0.293 HD
ENDBRANCH   8  24
TORSDOF 5
ENDMDL
MODEL 5
REMARK VINA RESULT:    15.712      1.590      2.503
REMARK INTER + INTRA:          18.199
REMARK INTER:                  18.479
REMARK INTRA:                  -0.280
REMARK UNBOUND:                -0.268
REMARK SMILES O=c1cc(-c2ccc(O)c(O)c2)oc2cc(O)cc(O)c12
REMARK SMILES IDX 4 1 3 2 2 3 1 4 21 5 19 6 18 7 16 8 15 9 14 10 13 11 5 12
REMARK SMILES IDX 6 13 7 14 8 15 12 16 10 17 9 18 11 20 20 22 17 24
REMARK H PARENT 9 19 11 21 20 23 17 25
REMARK Flexibility Score: inf
ROOT
ATOM      1  C   UNL     1     -19.287  -6.599  11.728  1.00  0.00     0.138 A 
ATOM      2  C   UNL     1     -19.603  -6.934  10.405  1.00  0.00     0.100 A 
ATOM      3  C   UNL     1     -19.688  -8.277  10.034  1.00  0.00     0.197 A 
ATOM      4  O   UNL     1     -20.029  -8.545   8.853  1.00  0.00    -0.289 OA
ATOM      5  C   UNL     1     -19.417  -9.288  10.987  1.00  0.00     0.107 A 
ATOM      6  C   UNL     1     -19.439 -10.690  10.714  1.00  0.00     0.134 A 
ATOM      7  C   UNL     1     -19.250 -11.599  11.762  1.00  0.00     0.093 A 
ATOM      8  C   UNL     1     -18.984 -11.158  13.061  1.00  0.00     0.123 A 
ATOM      9  C   UNL     1     -18.911  -9.794  13.327  1.00  0.00     0.094 A 
ATOM     10  C   UNL     1     -19.128  -8.860  12.310  1.00  0.00     0.146 A 
ATOM     11  O   UNL     1     -19.067  -7.568  12.611  1.00  0.00    -0.456 OA
ENDROOT
BRANCH   1  12
ATOM     12  C   UNL     1     -19.180  -5.187  12.178  1.00  0.00     0.021 A 
ATOM     13  C   UNL     1     -20.277  -4.325  12.009  1.00  0.00     0.016 A 
ATOM     14  C   UNL     1     -20.201  -2.990  12.416  1.00  0.00     0.051 A 
ATOM     15  C   UNL     1     -19.028  -2.492  12.990  1.00  0.00     0.157 A 
ATOM     16  C   UNL     1     -17.996  -4.677  12.744  1.00  0.00     0.062 A 
ATOM     17  C   UNL     1     -17.918  -3.337  13.153  1.00  0.00     0.158 A 
BRANCH  15  18
ATOM     18  O   UNL     1     -18.983  -1.156  13.388  1.00  0.00    -0.504 OA
ATOM     19  H   UNL     1     -18.219  -0.786  13.940  1.00  0.00     0.293 HD
ENDBRANCH  15  18
BRANCH  17  20
ATOM     20  O   UNL     1     -16.742  -2.842  13.714  1.00  0.00    -0.504 OA
ATOM     21  H   UNL     1     -15.834  -3.214  13.458  1.00  0.00     0.293 HD
ENDBRANCH  17  20
ENDBRANCH   1  12
BRANCH   6  22
ATOM     22  O   UNL     1     -19.617 -11.238   9.440  1.00  0.00    -0.507 OA
ATOM     23  H   UNL     1     -19.902 -12.187   9.253  1.00  0.00     0.293 HD
ENDBRANCH   6  22
BRANCH   8  24
ATOM     24  O   UNL     1     -18.783 -12.071  14.094  1.00  0.00    -0.508 OA
ATOM     25  H   UNL     1     -19.015 -11.843  15.054  1.00  0.00     0.293 HD
ENDBRANCH   8  24
TORSDOF 5
ENDMDL
