MODEL 1
REMARK VINA RESULT:    -5.232      0.000      0.000
REMARK INTER + INTRA:          -5.384
REMARK INTER:                  -5.384
REMARK INTRA:                   0.000
REMARK UNBOUND:                 0.000
REMARK SMILES O=c1ccc2ccc(O)cc2o1
REMARK SMILES IDX 6 1 7 2 8 3 10 4 11 5 5 6 4 7 3 8 2 9 1 10 12 11 9 12
REMARK H PARENT 9 13
REMARK Flexibility Score: inf
ROOT
ATOM      1  C   UNL     1      22.084  14.080  21.796  1.00  0.00     0.016 A 
ATOM      2  C   UNL     1      20.887  14.752  22.063  1.00  0.00     0.047 A 
ATOM      3  C   UNL     1      19.979  15.020  21.027  1.00  0.00     0.119 A 
ATOM      4  C   UNL     1      20.271  14.614  19.721  1.00  0.00     0.094 A 
ATOM      5  C   UNL     1      21.467  13.940  19.444  1.00  0.00     0.142 A 
ATOM      6  C   UNL     1      22.379  13.672  20.487  1.00  0.00     0.018 A 
ATOM      7  C   UNL     1      23.565  12.998  20.180  1.00  0.00     0.019 A 
ATOM      8  C   UNL     1      23.811  12.613  18.862  1.00  0.00     0.094 A 
ATOM      9  C   UNL     1      22.861  12.913  17.880  1.00  0.00     0.336 A 
ATOM     10  O   UNL     1      23.066  12.573  16.684  1.00  0.00    -0.246 OA
ATOM     11  O   UNL     1      21.741  13.555  18.199  1.00  0.00    -0.423 OA
ENDROOT
BRANCH   3  12
ATOM     12  O   UNL     1      18.785  15.689  21.287  1.00  0.00    -0.508 OA
ATOM     13  H   UNL     1      18.059  15.273  21.857  1.00  0.00     0.293 HD
ENDBRANCH   3  12
TORSDOF 1
ENDMDL
MODEL 2
REMARK VINA RESULT:    -5.187      1.781      2.433
REMARK INTER + INTRA:          -5.339
REMARK INTER:                  -5.339
REMARK INTRA:                   0.000
REMARK UNBOUND:                 0.000
REMARK SMILES O=c1ccc2ccc(O)cc2o1
REMARK SMILES IDX 6 1 7 2 8 3 10 4 11 5 5 6 4 7 3 8 2 9 1 10 12 11 9 12
REMARK H PARENT 9 13
REMARK Flexibility Score: inf
ROOT
ATOM      1  C   UNL     1      18.506  12.643  21.111  1.00  0.00     0.016 A 
ATOM      2  C   UNL     1      17.994  13.680  21.898  1.00  0.00     0.047 A 
ATOM      3  C   UNL     1      18.567  14.959  21.845  1.00  0.00     0.119 A 
ATOM      4  C   UNL     1      19.655  15.202  21.000  1.00  0.00     0.094 A 
ATOM      5  C   UNL     1      20.175  14.172  20.208  1.00  0.00     0.142 A 
ATOM      6  C   UNL     1      19.598  12.884  20.263  1.00  0.00     0.018 A 
ATOM      7  C   UNL     1      20.138  11.875  19.460  1.00  0.00     0.019 A 
ATOM      8  C   UNL     1      21.224  12.166  18.635  1.00  0.00     0.094 A 
ATOM      9  C   UNL     1      21.744  13.465  18.632  1.00  0.00     0.336 A 
ATOM     10  O   UNL     1      22.724  13.747  17.892  1.00  0.00    -0.246 OA
ATOM     11  O   UNL     1      21.211  14.407  19.405  1.00  0.00    -0.423 OA
ENDROOT
BRANCH   3  12
ATOM     12  O   UNL     1      18.060  15.995  22.627  1.00  0.00    -0.508 OA
ATOM     13  H   UNL     1      18.123  16.962  22.330  1.00  0.00     0.293 HD
ENDBRANCH   3  12
TORSDOF 1
ENDMDL
MODEL 3
REMARK VINA RESULT:    -5.180      2.515      3.337
REMARK INTER + INTRA:          -5.331
REMARK INTER:                  -5.331
REMARK INTRA:                   0.000
REMARK UNBOUND:                 0.000
REMARK SMILES O=c1ccc2ccc(O)cc2o1
REMARK SMILES IDX 6 1 7 2 8 3 10 4 11 5 5 6 4 7 3 8 2 9 1 10 12 11 9 12
REMARK H PARENT 9 13
REMARK Flexibility Score: inf
ROOT
ATOM      1  C   UNL     1      18.656  14.954  22.076  1.00  0.00     0.016 A 
ATOM      2  C   UNL     1      17.712  14.246  22.828  1.00  0.00     0.047 A 
ATOM      3  C   UNL     1      17.497  12.880  22.589  1.00  0.00     0.119 A 
ATOM      4  C   UNL     1      18.230  12.221  21.596  1.00  0.00     0.094 A 
ATOM      5  C   UNL     1      19.177  12.920  20.839  1.00  0.00     0.142 A 
ATOM      6  C   UNL     1      19.392  14.295  21.080  1.00  0.00     0.018 A 
ATOM      7  C   UNL     1      20.345  14.967  20.308  1.00  0.00     0.019 A 
ATOM      8  C   UNL     1      21.049  14.266  19.330  1.00  0.00     0.094 A 
ATOM      9  C   UNL     1      20.784  12.905  19.148  1.00  0.00     0.336 A 
ATOM     10  O   UNL     1      21.412  12.256  18.269  1.00  0.00    -0.246 OA
ATOM     11  O   UNL     1      19.873  12.290  19.895  1.00  0.00    -0.423 OA
ENDROOT
BRANCH   3  12
ATOM     12  O   UNL     1      16.558  12.170  23.334  1.00  0.00    -0.508 OA
ATOM     13  H   UNL     1      16.472  11.164  23.256  1.00  0.00     0.293 HD
ENDBRANCH   3  12
TORSDOF 1
ENDMDL
MODEL 4
REMARK VINA RESULT:    -5.103      0.989      4.354
REMARK INTER + INTRA:          -5.252
REMARK INTER:                  -5.252
REMARK INTRA:                   0.000
REMARK UNBOUND:                 0.000
REMARK SMILES O=c1ccc2ccc(O)cc2o1
REMARK SMILES IDX 6 1 7 2 8 3 10 4 11 5 5 6 4 7 3 8 2 9 1 10 12 11 9 12
REMARK H PARENT 9 13
REMARK Flexibility Score: inf
ROOT
ATOM      1  C   UNL     1      24.222  12.455  19.773  1.00  0.00     0.016 A 
ATOM      2  C   UNL     1      24.595  12.088  18.475  1.00  0.00     0.047 A 
ATOM      3  C   UNL     1      23.758  12.383  17.389  1.00  0.00     0.119 A 
ATOM      4  C   UNL     1      22.544  13.046  17.602  1.00  0.00     0.094 A 
ATOM      5  C   UNL     1      22.163  13.417  18.896  1.00  0.00     0.142 A 
ATOM      6  C   UNL     1      23.007  13.120  19.989  1.00  0.00     0.018 A 
ATOM      7  C   UNL     1      22.599  13.503  21.270  1.00  0.00     0.019 A 
ATOM      8  C   UNL     1      21.381  14.162  21.431  1.00  0.00     0.094 A 
ATOM      9  C   UNL     1      20.597  14.424  20.303  1.00  0.00     0.336 A 
ATOM     10  O   UNL     1      19.493  15.018  20.429  1.00  0.00    -0.246 OA
ATOM     11  O   UNL     1      21.007  14.048  19.095  1.00  0.00    -0.423 OA
ENDROOT
BRANCH   3  12
ATOM     12  O   UNL     1      24.123  12.020  16.094  1.00  0.00    -0.508 OA
ATOM     13  H   UNL     1      23.868  11.120  15.704  1.00  0.00     0.293 HD
ENDBRANCH   3  12
TORSDOF 1
ENDMDL
MODEL 5
REMARK VINA RESULT:    -5.027      2.178      5.147
REMARK INTER + INTRA:          -5.174
REMARK INTER:                  -5.174
REMARK INTRA:                   0.000
REMARK UNBOUND:                 0.000
REMARK SMILES O=c1ccc2ccc(O)cc2o1
REMARK SMILES IDX 6 1 7 2 8 3 10 4 11 5 5 6 4 7 3 8 2 9 1 10 12 11 9 12
REMARK H PARENT 9 13
REMARK Flexibility Score: inf
ROOT
ATOM      1  C   UNL     1      19.616  11.875  19.752  1.00  0.00     0.016 A 
ATOM      2  C   UNL     1      20.645  12.344  18.927  1.00  0.00     0.047 A 
ATOM      3  C   UNL     1      21.133  13.650  19.080  1.00  0.00     0.119 A 
ATOM      4  C   UNL     1      20.591  14.489  20.059  1.00  0.00     0.094 A 
ATOM      5  C   UNL     1      19.563  14.029  20.889  1.00  0.00     0.142 A 
ATOM      6  C   UNL     1      19.071  12.714  20.735  1.00  0.00     0.018 A 
ATOM      7  C   UNL     1      18.043  12.282  21.578  1.00  0.00     0.019 A 
ATOM      8  C   UNL     1      17.536  13.156  22.539  1.00  0.00     0.094 A 
ATOM      9  C   UNL     1      18.072  14.444  22.635  1.00  0.00     0.336 A 
ATOM     10  O   UNL     1      17.626  15.247  23.498  1.00  0.00    -0.246 OA
ATOM     11  O   UNL     1      19.049  14.830  21.821  1.00  0.00    -0.423 OA
ENDROOT
BRANCH   3  12
ATOM     12  O   UNL     1      22.157  14.123  18.262  1.00  0.00    -0.508 OA
ATOM     13  H   UNL     1      21.998  14.339  17.285  1.00  0.00     0.293 HD
ENDBRANCH   3  12
TORSDOF 1
ENDMDL
MODEL 6
REMARK VINA RESULT:    -4.975      2.809      5.906
REMARK INTER + INTRA:          -5.121
REMARK INTER:                  -5.121
REMARK INTRA:                   0.000
REMARK UNBOUND:                 0.000
REMARK SMILES O=c1ccc2ccc(O)cc2o1
REMARK SMILES IDX 6 1 7 2 8 3 10 4 11 5 5 6 4 7 3 8 2 9 1 10 12 11 9 12
REMARK H PARENT 9 13
REMARK Flexibility Score: inf
ROOT
ATOM      1  C   UNL     1      17.893  13.041  20.773  1.00  0.00     0.016 A 
ATOM      2  C   UNL     1      18.806  13.357  19.761  1.00  0.00     0.047 A 
ATOM      3  C   UNL     1      19.843  14.269  20.005  1.00  0.00     0.119 A 
ATOM      4  C   UNL     1      19.967  14.867  21.264  1.00  0.00     0.094 A 
ATOM      5  C   UNL     1      19.059  14.556  22.282  1.00  0.00     0.142 A 
ATOM      6  C   UNL     1      18.014  13.638  22.036  1.00  0.00     0.018 A 
ATOM      7  C   UNL     1      17.122  13.348  23.073  1.00  0.00     0.019 A 
ATOM      8  C   UNL     1      17.287  13.969  24.310  1.00  0.00     0.094 A 
ATOM      9  C   UNL     1      18.345  14.869  24.482  1.00  0.00     0.336 A 
ATOM     10  O   UNL     1      18.510  15.439  25.593  1.00  0.00    -0.246 OA
ATOM     11  O   UNL     1      19.180  15.127  23.479  1.00  0.00    -0.423 OA
ENDROOT
BRANCH   3  12
ATOM     12  O   UNL     1      20.756  14.588  19.001  1.00  0.00    -0.508 OA
ATOM     13  H   UNL     1      20.450  14.846  18.070  1.00  0.00     0.293 HD
ENDBRANCH   3  12
TORSDOF 1
ENDMDL
MODEL 7
REMARK VINA RESULT:    -4.958      2.946      3.551
REMARK INTER + INTRA:          -5.103
REMARK INTER:                  -5.103
REMARK INTRA:                   0.000
REMARK UNBOUND:                 0.000
REMARK SMILES O=c1ccc2ccc(O)cc2o1
REMARK SMILES IDX 6 1 7 2 8 3 10 4 11 5 5 6 4 7 3 8 2 9 1 10 12 11 9 12
REMARK H PARENT 9 13
REMARK Flexibility Score: inf
ROOT
ATOM      1  C   UNL     1      18.577  13.277  20.136  1.00  0.00     0.016 A 
ATOM      2  C   UNL     1      17.619  12.924  21.093  1.00  0.00     0.047 A 
ATOM      3  C   UNL     1      17.998  12.229  22.251  1.00  0.00     0.119 A 
ATOM      4  C   UNL     1      19.339  11.886  22.452  1.00  0.00     0.094 A 
ATOM      5  C   UNL     1      20.305  12.234  21.501  1.00  0.00     0.142 A 
ATOM      6  C   UNL     1      19.922  12.934  20.335  1.00  0.00     0.018 A 
ATOM      7  C   UNL     1      20.909  13.269  19.404  1.00  0.00     0.019 A 
ATOM      8  C   UNL     1      22.232  12.904  19.649  1.00  0.00     0.094 A 
ATOM      9  C   UNL     1      22.538  12.212  20.826  1.00  0.00     0.336 A 
ATOM     10  O   UNL     1      23.728  11.875  21.065  1.00  0.00    -0.246 OA
ATOM     11  O   UNL     1      21.580  11.906  21.696  1.00  0.00    -0.423 OA
ENDROOT
BRANCH   3  12
ATOM     12  O   UNL     1      17.048  11.875  23.207  1.00  0.00    -0.508 OA
ATOM     13  H   UNL     1      16.174  12.380  23.297  1.00  0.00     0.293 HD
ENDBRANCH   3  12
TORSDOF 1
ENDMDL
MODEL 8
REMARK VINA RESULT:    -4.902      2.300      5.144
REMARK INTER + INTRA:          -5.045
REMARK INTER:                  -5.045
REMARK INTRA:                   0.000
REMARK UNBOUND:                 0.000
REMARK SMILES O=c1ccc2ccc(O)cc2o1
REMARK SMILES IDX 6 1 7 2 8 3 10 4 11 5 5 6 4 7 3 8 2 9 1 10 12 11 9 12
REMARK H PARENT 9 13
REMARK Flexibility Score: inf
ROOT
ATOM      1  C   UNL     1      20.792  14.747  20.367  1.00  0.00     0.016 A 
ATOM      2  C   UNL     1      21.310  13.933  19.354  1.00  0.00     0.047 A 
ATOM      3  C   UNL     1      20.721  12.691  19.074  1.00  0.00     0.119 A 
ATOM      4  C   UNL     1      19.611  12.262  19.810  1.00  0.00     0.094 A 
ATOM      5  C   UNL     1      19.085  13.070  20.825  1.00  0.00     0.142 A 
ATOM      6  C   UNL     1      19.679  14.320  21.106  1.00  0.00     0.018 A 
ATOM      7  C   UNL     1      19.131  15.105  22.125  1.00  0.00     0.019 A 
ATOM      8  C   UNL     1      18.024  14.634  22.830  1.00  0.00     0.094 A 
ATOM      9  C   UNL     1      17.488  13.386  22.497  1.00  0.00     0.336 A 
ATOM     10  O   UNL     1      16.488  12.945  23.123  1.00  0.00    -0.246 OA
ATOM     11  O   UNL     1      18.028  12.659  21.523  1.00  0.00    -0.423 OA
ENDROOT
BRANCH   3  12
ATOM     12  O   UNL     1      21.233  11.875  18.067  1.00  0.00    -0.508 OA
ATOM     13  H   UNL     1      22.191  11.547  18.087  1.00  0.00     0.293 HD
ENDBRANCH   3  12
TORSDOF 1
ENDMDL
MODEL 9
REMARK VINA RESULT:    -4.738      2.839      4.284
REMARK INTER + INTRA:          -4.876
REMARK INTER:                  -4.876
REMARK INTRA:                   0.000
REMARK UNBOUND:                 0.000
REMARK SMILES O=c1ccc2ccc(O)cc2o1
REMARK SMILES IDX 6 1 7 2 8 3 10 4 11 5 5 6 4 7 3 8 2 9 1 10 12 11 9 12
REMARK H PARENT 9 13
REMARK Flexibility Score: inf
ROOT
ATOM      1  C   UNL     1      17.096  13.447  23.040  1.00  0.00     0.016 A 
ATOM      2  C   UNL     1      17.322  14.165  24.220  1.00  0.00     0.047 A 
ATOM      3  C   UNL     1      18.497  14.914  24.379  1.00  0.00     0.119 A 
ATOM      4  C   UNL     1      19.448  14.947  23.354  1.00  0.00     0.094 A 
ATOM      5  C   UNL     1      19.232  14.233  22.169  1.00  0.00     0.142 A 
ATOM      6  C   UNL     1      18.049  13.478  22.012  1.00  0.00     0.018 A 
ATOM      7  C   UNL     1      17.860  12.775  20.818  1.00  0.00     0.019 A 
ATOM      8  C   UNL     1      18.838  12.838  19.826  1.00  0.00     0.094 A 
ATOM      9  C   UNL     1      19.984  13.607  20.052  1.00  0.00     0.336 A 
ATOM     10  O   UNL     1      20.878  13.676  19.166  1.00  0.00    -0.246 OA
ATOM     11  O   UNL     1      20.140  14.266  21.196  1.00  0.00    -0.423 OA
ENDROOT
BRANCH   3  12
ATOM     12  O   UNL     1      18.727  15.631  25.551  1.00  0.00    -0.508 OA
ATOM     13  H   UNL     1      19.124  15.189  26.372  1.00  0.00     0.293 HD
ENDBRANCH   3  12
TORSDOF 1
ENDMDL
