MODEL 1
REMARK VINA RESULT:    -3.529      0.000      0.000
REMARK INTER + INTRA:          -3.529
REMARK INTER:                  -3.529
REMARK INTRA:                   0.000
REMARK UNBOUND:                 0.000
REMARK SMILES CC1(C)O[C@]2(C)CC[C@H]1CC2
REMARK SMILES IDX 1 1 2 2 9 3 10 4 11 5 5 6 4 7 7 8 8 9 6 10 3 11
REMARK H PARENT
REMARK Flexibility Score: inf
ROOT
ATOM      1  C   UNL     1     162.994 174.551 171.529  1.00  0.00     0.042 C 
ATOM      2  C   UNL     1     163.489 173.450 170.566  1.00  0.00     0.066 C 
ATOM      3  C   UNL     1     162.480 172.237 170.542  1.00  0.00     0.021 C 
ATOM      4  C   UNL     1     161.125 172.738 169.988  1.00  0.00     0.009 C 
ATOM      5  C   UNL     1     161.365 173.475 168.648  1.00  0.00     0.035 C 
ATOM      6  C   UNL     1     162.869 173.389 168.260  1.00  0.00     0.066 C 
ATOM      7  O   UNL     1     163.650 174.035 169.266  1.00  0.00    -0.369 OA
ATOM      8  C   UNL     1     163.283 171.892 168.175  1.00  0.00     0.035 C 
ATOM      9  C   UNL     1     162.999 171.191 169.525  1.00  0.00     0.009 C 
ATOM     10  C   UNL     1     163.114 174.087 166.918  1.00  0.00     0.042 C 
ATOM     11  C   UNL     1     164.878 172.996 171.065  1.00  0.00     0.042 C 
ENDROOT
TORSDOF 0
ENDMDL
MODEL 2
REMARK VINA RESULT:    -3.522     14.515     16.151
REMARK INTER + INTRA:          -3.522
REMARK INTER:                  -3.522
REMARK INTRA:                   0.000
REMARK UNBOUND:                 0.000
REMARK SMILES CC1(C)O[C@]2(C)CC[C@H]1CC2
REMARK SMILES IDX 1 1 2 2 9 3 10 4 11 5 5 6 4 7 7 8 8 9 6 10 3 11
REMARK H PARENT
REMARK Flexibility Score: inf
ROOT
ATOM      1  C   UNL     1     168.234 156.647 171.512  1.00  0.00     0.042 C 
ATOM      2  C   UNL     1     167.749 157.765 170.565  1.00  0.00     0.066 C 
ATOM      3  C   UNL     1     168.789 158.951 170.526  1.00  0.00     0.021 C 
ATOM      4  C   UNL     1     170.119 158.418 169.942  1.00  0.00     0.009 C 
ATOM      5  C   UNL     1     169.832 157.695 168.604  1.00  0.00     0.035 C 
ATOM      6  C   UNL     1     168.324 157.824 168.247  1.00  0.00     0.066 C 
ATOM      7  O   UNL     1     167.546 157.192 169.265  1.00  0.00    -0.369 OA
ATOM      8  C   UNL     1     167.948 159.331 168.178  1.00  0.00     0.035 C 
ATOM      9  C   UNL     1     168.278 160.017 169.526  1.00  0.00     0.009 C 
ATOM     10  C   UNL     1     168.033 157.140 166.907  1.00  0.00     0.042 C 
ATOM     11  C   UNL     1     166.383 158.253 171.094  1.00  0.00     0.042 C 
ENDROOT
TORSDOF 0
ENDMDL
MODEL 3
REMARK VINA RESULT:    -3.242     14.635     16.378
REMARK INTER + INTRA:          -3.242
REMARK INTER:                  -3.242
REMARK INTRA:                   0.000
REMARK UNBOUND:                 0.000
REMARK SMILES CC1(C)O[C@]2(C)CC[C@H]1CC2
REMARK SMILES IDX 1 1 2 2 9 3 10 4 11 5 5 6 4 7 7 8 8 9 6 10 3 11
REMARK H PARENT
REMARK Flexibility Score: inf
ROOT
ATOM      1  C   UNL     1     167.868 157.745 167.238  1.00  0.00     0.042 C 
ATOM      2  C   UNL     1     168.680 157.526 168.533  1.00  0.00     0.066 C 
ATOM      3  C   UNL     1     169.357 158.872 169.000  1.00  0.00     0.021 C 
ATOM      4  C   UNL     1     168.241 159.889 169.339  1.00  0.00     0.009 C 
ATOM      5  C   UNL     1     167.237 159.235 170.318  1.00  0.00     0.035 C 
ATOM      6  C   UNL     1     167.730 157.811 170.706  1.00  0.00     0.066 C 
ATOM      7  O   UNL     1     167.793 157.001 169.531  1.00  0.00    -0.369 OA
ATOM      8  C   UNL     1     169.152 157.920 171.328  1.00  0.00     0.035 C 
ATOM      9  C   UNL     1     170.111 158.605 170.325  1.00  0.00     0.009 C 
ATOM     10  C   UNL     1     166.761 157.164 171.701  1.00  0.00     0.042 C 
ATOM     11  C   UNL     1     169.748 156.454 168.228  1.00  0.00     0.042 C 
ENDROOT
TORSDOF 0
ENDMDL
MODEL 4
REMARK VINA RESULT:    -3.239      0.981      3.294
REMARK INTER + INTRA:          -3.239
REMARK INTER:                  -3.239
REMARK INTRA:                   0.000
REMARK UNBOUND:                 0.000
REMARK SMILES CC1(C)O[C@]2(C)CC[C@H]1CC2
REMARK SMILES IDX 1 1 2 2 9 3 10 4 11 5 5 6 4 7 7 8 8 9 6 10 3 11
REMARK H PARENT
REMARK Flexibility Score: inf
ROOT
ATOM      1  C   UNL     1     163.355 173.471 167.204  1.00  0.00     0.042 C 
ATOM      2  C   UNL     1     162.495 173.660 168.472  1.00  0.00     0.066 C 
ATOM      3  C   UNL     1     161.861 172.288 168.924  1.00  0.00     0.021 C 
ATOM      4  C   UNL     1     163.007 171.321 169.304  1.00  0.00     0.009 C 
ATOM      5  C   UNL     1     163.951 172.021 170.310  1.00  0.00     0.035 C 
ATOM      6  C   UNL     1     163.387 173.424 170.675  1.00  0.00     0.066 C 
ATOM      7  O   UNL     1     163.327 174.226 169.494  1.00  0.00    -0.369 OA
ATOM      8  C   UNL     1     161.952 173.257 171.252  1.00  0.00     0.035 C 
ATOM      9  C   UNL     1     161.054 172.528 170.224  1.00  0.00     0.009 C 
ATOM     10  C   UNL     1     164.296 174.115 171.697  1.00  0.00     0.042 C 
ATOM     11  C   UNL     1     161.392 174.685 168.128  1.00  0.00     0.042 C 
ENDROOT
TORSDOF 0
ENDMDL
MODEL 5
REMARK VINA RESULT:    -3.201      1.393      3.069
REMARK INTER + INTRA:          -3.201
REMARK INTER:                  -3.201
REMARK INTRA:                   0.000
REMARK UNBOUND:                 0.000
REMARK SMILES CC1(C)O[C@]2(C)CC[C@H]1CC2
REMARK SMILES IDX 1 1 2 2 9 3 10 4 11 5 5 6 4 7 7 8 8 9 6 10 3 11
REMARK H PARENT
REMARK Flexibility Score: inf
ROOT
ATOM      1  C   UNL     1     162.359 174.216 167.755  1.00  0.00     0.042 C 
ATOM      2  C   UNL     1     162.723 172.888 168.454  1.00  0.00     0.066 C 
ATOM      3  C   UNL     1     163.557 173.159 169.765  1.00  0.00     0.021 C 
ATOM      4  C   UNL     1     162.670 173.954 170.753  1.00  0.00     0.009 C 
ATOM      5  C   UNL     1     161.317 173.223 170.923  1.00  0.00     0.035 C 
ATOM      6  C   UNL     1     161.332 171.891 170.120  1.00  0.00     0.066 C 
ATOM      7  O   UNL     1     161.505 172.183 168.733  1.00  0.00    -0.369 OA
ATOM      8  C   UNL     1     162.523 171.019 170.611  1.00  0.00     0.035 C 
ATOM      9  C   UNL     1     163.848 171.801 170.449  1.00  0.00     0.009 C 
ATOM     10  C   UNL     1     160.009 171.141 170.306  1.00  0.00     0.042 C 
ATOM     11  C   UNL     1     163.544 172.051 167.448  1.00  0.00     0.042 C 
ENDROOT
TORSDOF 0
ENDMDL
MODEL 6
REMARK VINA RESULT:    -3.185     14.808     16.309
REMARK INTER + INTRA:          -3.185
REMARK INTER:                  -3.185
REMARK INTRA:                   0.000
REMARK UNBOUND:                 0.000
REMARK SMILES CC1(C)O[C@]2(C)CC[C@H]1CC2
REMARK SMILES IDX 1 1 2 2 9 3 10 4 11 5 5 6 4 7 7 8 8 9 6 10 3 11
REMARK H PARENT
REMARK Flexibility Score: inf
ROOT
ATOM      1  C   UNL     1     171.728 159.628 169.284  1.00  0.00     0.042 C 
ATOM      2  C   UNL     1     170.822 158.463 169.737  1.00  0.00     0.066 C 
ATOM      3  C   UNL     1     169.729 158.970 170.755  1.00  0.00     0.021 C 
ATOM      4  C   UNL     1     168.818 159.987 170.028  1.00  0.00     0.009 C 
ATOM      5  C   UNL     1     168.307 159.360 168.709  1.00  0.00     0.035 C 
ATOM      6  C   UNL     1     168.803 157.890 168.597  1.00  0.00     0.066 C 
ATOM      7  O   UNL     1     170.231 157.878 168.567  1.00  0.00    -0.369 OA
ATOM      8  C   UNL     1     168.311 157.095 169.840  1.00  0.00     0.035 C 
ATOM      9  C   UNL     1     168.821 157.774 171.133  1.00  0.00     0.009 C 
ATOM     10  C   UNL     1     168.276 157.246 167.310  1.00  0.00     0.042 C 
ATOM     11  C   UNL     1     171.733 157.403 170.395  1.00  0.00     0.042 C 
ENDROOT
TORSDOF 0
ENDMDL
MODEL 7
REMARK VINA RESULT:    -3.177      1.436      3.044
REMARK INTER + INTRA:          -3.177
REMARK INTER:                  -3.177
REMARK INTRA:                   0.000
REMARK UNBOUND:                 0.000
REMARK SMILES CC1(C)O[C@]2(C)CC[C@H]1CC2
REMARK SMILES IDX 1 1 2 2 9 3 10 4 11 5 5 6 4 7 7 8 8 9 6 10 3 11
REMARK H PARENT
REMARK Flexibility Score: inf
ROOT
ATOM      1  C   UNL     1     159.451 171.667 169.210  1.00  0.00     0.042 C 
ATOM      2  C   UNL     1     160.384 172.803 169.682  1.00  0.00     0.066 C 
ATOM      3  C   UNL     1     161.410 172.271 170.755  1.00  0.00     0.021 C 
ATOM      4  C   UNL     1     162.310 171.205 170.086  1.00  0.00     0.009 C 
ATOM      5  C   UNL     1     162.902 171.786 168.779  1.00  0.00     0.035 C 
ATOM      6  C   UNL     1     162.472 173.273 168.621  1.00  0.00     0.066 C 
ATOM      7  O   UNL     1     161.048 173.342 168.529  1.00  0.00    -0.369 OA
ATOM      8  C   UNL     1     162.943 174.070 169.871  1.00  0.00     0.035 C 
ATOM      9  C   UNL     1     162.350 173.436 171.152  1.00  0.00     0.009 C 
ATOM     10  C   UNL     1     163.079 173.871 167.348  1.00  0.00     0.042 C 
ATOM     11  C   UNL     1     159.490 173.911 170.282  1.00  0.00     0.042 C 
ENDROOT
TORSDOF 0
ENDMDL
MODEL 8
REMARK VINA RESULT:    -3.134     14.494     15.911
REMARK INTER + INTRA:          -3.134
REMARK INTER:                  -3.134
REMARK INTRA:                   0.000
REMARK UNBOUND:                 0.000
REMARK SMILES CC1(C)O[C@]2(C)CC[C@H]1CC2
REMARK SMILES IDX 1 1 2 2 9 3 10 4 11 5 5 6 4 7 7 8 8 9 6 10 3 11
REMARK H PARENT
REMARK Flexibility Score: inf
ROOT
ATOM      1  C   UNL     1     168.645 157.045 167.659  1.00  0.00     0.042 C 
ATOM      2  C   UNL     1     168.439 158.392 168.383  1.00  0.00     0.066 C 
ATOM      3  C   UNL     1     167.669 158.182 169.743  1.00  0.00     0.021 C 
ATOM      4  C   UNL     1     168.545 157.307 170.671  1.00  0.00     0.009 C 
ATOM      5  C   UNL     1     169.964 157.920 170.757  1.00  0.00     0.035 C 
ATOM      6  C   UNL     1     170.011 159.255 169.961  1.00  0.00     0.066 C 
ATOM      7  O   UNL     1     169.727 158.991 168.586  1.00  0.00    -0.369 OA
ATOM      8  C   UNL     1     168.932 160.221 170.529  1.00  0.00     0.035 C 
ATOM      9  C   UNL     1     167.537 159.555 170.448  1.00  0.00     0.009 C 
ATOM     10  C   UNL     1     171.402 159.890 170.065  1.00  0.00     0.042 C 
ATOM     11  C   UNL     1     167.631 159.304 167.433  1.00  0.00     0.042 C 
ENDROOT
TORSDOF 0
ENDMDL
MODEL 9
REMARK VINA RESULT:    -3.066      1.750      3.191
REMARK INTER + INTRA:          -3.066
REMARK INTER:                  -3.066
REMARK INTRA:                   0.000
REMARK UNBOUND:                 0.000
REMARK SMILES CC1(C)O[C@]2(C)CC[C@H]1CC2
REMARK SMILES IDX 1 1 2 2 9 3 10 4 11 5 5 6 4 7 7 8 8 9 6 10 3 11
REMARK H PARENT
REMARK Flexibility Score: inf
ROOT
ATOM      1  C   UNL     1     163.398 172.059 167.858  1.00  0.00     0.042 C 
ATOM      2  C   UNL     1     162.590 172.170 169.169  1.00  0.00     0.066 C 
ATOM      3  C   UNL     1     162.604 173.653 169.707  1.00  0.00     0.021 C 
ATOM      4  C   UNL     1     161.897 174.558 168.670  1.00  0.00     0.009 C 
ATOM      5  C   UNL     1     160.516 173.952 168.324  1.00  0.00     0.035 C 
ATOM      6  C   UNL     1     160.258 172.692 169.198  1.00  0.00     0.066 C 
ATOM      7  O   UNL     1     161.255 171.710 168.909  1.00  0.00    -0.369 OA
ATOM      8  C   UNL     1     160.353 173.090 170.699  1.00  0.00     0.035 C 
ATOM      9  C   UNL     1     161.738 173.715 170.990  1.00  0.00     0.009 C 
ATOM     10  C   UNL     1     158.879 172.101 168.889  1.00  0.00     0.042 C 
ATOM     11  C   UNL     1     163.238 171.212 170.190  1.00  0.00     0.042 C 
ENDROOT
TORSDOF 0
ENDMDL
