MODEL 1
REMARK VINA RESULT:    31.393      0.000      0.000
REMARK INTER + INTRA:          48.653
REMARK INTER:                  46.075
REMARK INTRA:                   2.578
REMARK UNBOUND:                 2.578
REMARK SMILES O=c1c(O[C@@H]2O[C@@H](CO)[C@@H](O)[C@H](O)[C@H]2O)c(-c2ccc(O)c(O)c2)oc2cc(O)cc(O)c12
REMARK SMILES IDX 4 1 3 2 16 3 25 4 2 5 26 6 1 7 33 8 27 9 31 10 28 11 30 12
REMARK SMILES IDX 17 13 18 14 19 15 20 16 24 17 22 18 21 19 23 21 32 23 29 25
REMARK SMILES IDX 5 27 14 28 6 29 12 30 7 31 10 32 15 33 13 35 8 37 9 38 11 40
REMARK H PARENT 21 20 23 22 32 24 29 26 15 34 13 36 9 39 11 41
REMARK Flexibility Score: inf
ROOT
ATOM      1  O   UNL     1       9.970  13.263  20.973  1.00  0.00    -0.454 OA
ENDROOT
BRANCH   1   2
ATOM      2  C   UNL     1       9.599  13.433  19.631  1.00  0.00     0.214 A 
ATOM      3  C   UNL     1      10.399  14.174  18.730  1.00  0.00     0.180 A 
ATOM      4  O   UNL     1      10.051  14.247  17.448  1.00  0.00    -0.452 OA
ATOM      5  C   UNL     1       8.364  12.946  19.177  1.00  0.00     0.239 A 
ATOM      6  C   UNL     1       8.937  13.714  16.962  1.00  0.00     0.146 A 
ATOM      7  O   UNL     1       7.563  12.432  20.003  1.00  0.00    -0.285 OA
ATOM      8  C   UNL     1       8.024  13.057  17.815  1.00  0.00     0.111 A 
ATOM      9  C   UNL     1       8.673  13.823  15.594  1.00  0.00     0.094 A 
ATOM     10  C   UNL     1       6.827  12.534  17.271  1.00  0.00     0.134 A 
ATOM     11  C   UNL     1       7.492  13.297  15.059  1.00  0.00     0.123 A 
ATOM     12  C   UNL     1       6.570  12.665  15.897  1.00  0.00     0.093 A 
BRANCH   3  13
ATOM     13  C   UNL     1      11.631  14.891  19.146  1.00  0.00     0.025 A 
ATOM     14  C   UNL     1      12.902  14.492  18.704  1.00  0.00     0.016 A 
ATOM     15  C   UNL     1      14.045  15.172  19.132  1.00  0.00     0.051 A 
ATOM     16  C   UNL     1      13.945  16.247  20.022  1.00  0.00     0.157 A 
ATOM     17  C   UNL     1      11.531  15.964  20.046  1.00  0.00     0.062 A 
ATOM     18  C   UNL     1      12.671  16.650  20.484  1.00  0.00     0.158 A 
BRANCH  16  19
ATOM     19  O   UNL     1      15.125  16.878  20.422  1.00  0.00    -0.504 OA
ATOM     20  H   UNL     1      15.182  17.843  20.698  1.00  0.00     0.293 HD
ENDBRANCH  16  19
BRANCH  18  21
ATOM     21  O   UNL     1      12.488  17.722  21.363  1.00  0.00    -0.504 OA
ATOM     22  H   UNL     1      12.735  18.674  21.149  1.00  0.00     0.293 HD
ENDBRANCH  18  21
ENDBRANCH   3  13
BRANCH  10  23
ATOM     23  O   UNL     1       5.899  11.875  18.079  1.00  0.00    -0.507 OA
ATOM     24  H   UNL     1       5.657  12.220  19.003  1.00  0.00     0.293 HD
ENDBRANCH  10  23
BRANCH  11  25
ATOM     25  O   UNL     1       7.226  13.397  13.695  1.00  0.00    -0.508 OA
ATOM     26  H   UNL     1       6.467  13.967  13.346  1.00  0.00     0.293 HD
ENDBRANCH  11  25
ENDBRANCH   1   2
BRANCH   1  27
ATOM     27  C   UNL     1      11.025  13.940  21.684  1.00  0.00     0.339 C 
ATOM     28  C   UNL     1      10.803  14.123  23.221  1.00  0.00     0.214 C 
ATOM     29  O   UNL     1      12.317  13.473  21.318  1.00  0.00    -0.332 OA
ATOM     30  C   UNL     1      11.427  13.001  24.077  1.00  0.00     0.180 C 
ATOM     31  C   UNL     1      12.739  12.332  22.046  1.00  0.00     0.179 C 
ATOM     32  C   UNL     1      12.828  12.618  23.555  1.00  0.00     0.177 C 
BRANCH  28  33
ATOM     33  O   UNL     1      11.289  15.373  23.651  1.00  0.00    -0.384 OA
ATOM     34  H   UNL     1      11.965  15.682  22.994  1.00  0.00     0.211 HD
ENDBRANCH  28  33
BRANCH  30  35
ATOM     35  O   UNL     1      10.582  11.877  24.069  1.00  0.00    -0.387 OA
ATOM     36  H   UNL     1       9.720  12.151  24.483  1.00  0.00     0.211 HD
ENDBRANCH  30  35
BRANCH  31  37
ATOM     37  C   UNL     1      14.093  11.875  21.478  1.00  0.00     0.191 C 
BRANCH  37  38
ATOM     38  O   UNL     1      14.856  12.972  21.053  1.00  0.00    -0.394 OA
ATOM     39  H   UNL     1      14.838  13.637  21.791  1.00  0.00     0.210 HD
ENDBRANCH  37  38
ENDBRANCH  31  37
BRANCH  32  40
ATOM     40  O   UNL     1      13.759  13.640  23.800  1.00  0.00    -0.387 OA
ATOM     41  H   UNL     1      14.465  13.561  23.106  1.00  0.00     0.211 HD
ENDBRANCH  32  40
ENDBRANCH   1  27
TORSDOF 12
ENDMDL
