MODEL 1
REMARK VINA RESULT:    -3.609      0.000      0.000
REMARK INTER + INTRA:          -7.970
REMARK INTER:                  -6.562
REMARK INTRA:                  -1.408
REMARK UNBOUND:                -1.408
REMARK SMILES CCCCCCCCCCCCCCCC(=O)[O-]
REMARK SMILES IDX 9 1 10 2 11 3 12 4 13 5 14 6 15 7 16 8 17 9 18 10 8 11 7 12
REMARK SMILES IDX 6 13 5 14 4 15 3 16 2 17 1 18
REMARK H PARENT
REMARK Flexibility Score: inf
ROOT
ATOM      1  C   UNL     1      26.172  41.074   3.914  1.00  0.00     0.000 C 
ENDROOT
BRANCH   1   2
ATOM      2  C   UNL     1      27.147  42.264   3.957  1.00  0.00     0.000 C 
BRANCH   2   3
ATOM      3  C   UNL     1      26.483  43.651   4.075  1.00  0.00     0.000 C 
BRANCH   3   4
ATOM      4  C   UNL     1      26.520  44.283   5.478  1.00  0.00     0.000 C 
BRANCH   4   5
ATOM      5  C   UNL     1      25.136  44.750   5.959  1.00  0.00     0.000 C 
BRANCH   5   6
ATOM      6  C   UNL     1      24.409  43.686   6.803  1.00  0.00     0.006 C 
BRANCH   6   7
ATOM      7  C   UNL     1      25.338  42.649   7.454  1.00  0.00     0.053 C 
BRANCH   7   8
ATOM      8  C   UNL     1      25.531  42.908   8.917  1.00  0.00     0.041 C 
ATOM      9  O   UNL     1      25.939  41.989   9.674  1.00  0.00    -0.550 OA
ATOM     10  O   UNL     1      25.291  44.173   9.437  1.00  0.00    -0.550 OA
ENDBRANCH   7   8
ENDBRANCH   6   7
ENDBRANCH   5   6
ENDBRANCH   4   5
ENDBRANCH   3   4
ENDBRANCH   2   3
ENDBRANCH   1   2
BRANCH   1  11
ATOM     11  C   UNL     1      24.723  41.502   3.635  1.00  0.00     0.000 C 
BRANCH  11  12
ATOM     12  C   UNL     1      24.151  40.752   2.422  1.00  0.00    -0.000 C 
BRANCH  12  13
ATOM     13  C   UNL     1      24.715  39.321   2.304  1.00  0.00    -0.000 C 
BRANCH  13  14
ATOM     14  C   UNL     1      24.932  38.859   0.853  1.00  0.00    -0.000 C 
BRANCH  14  15
ATOM     15  C   UNL     1      25.404  39.995  -0.069  1.00  0.00    -0.000 C 
BRANCH  15  16
ATOM     16  C   UNL     1      25.826  39.500  -1.465  1.00  0.00    -0.000 C 
BRANCH  16  17
ATOM     17  C   UNL     1      27.016  38.523  -1.479  1.00  0.00    -0.003 C 
ATOM     18  C   UNL     1      28.236  39.053  -0.726  1.00  0.00     0.004 C 
ENDBRANCH  16  17
ENDBRANCH  15  16
ENDBRANCH  14  15
ENDBRANCH  13  14
ENDBRANCH  12  13
ENDBRANCH  11  12
ENDBRANCH   1  11
TORSDOF 14
ENDMDL
MODEL 2
REMARK VINA RESULT:    -3.495      3.869      7.221
REMARK INTER + INTRA:          -7.763
REMARK INTER:                  -5.907
REMARK INTRA:                  -1.856
REMARK UNBOUND:                -1.408
REMARK SMILES CCCCCCCCCCCCCCCC(=O)[O-]
REMARK SMILES IDX 9 1 10 2 11 3 12 4 13 5 14 6 15 7 16 8 17 9 18 10 8 11 7 12
REMARK SMILES IDX 6 13 5 14 4 15 3 16 2 17 1 18
REMARK H PARENT
REMARK Flexibility Score: inf
ROOT
ATOM      1  C   UNL     1      24.442  40.881   4.191  1.00  0.00     0.000 C 
ENDROOT
BRANCH   1   2
ATOM      2  C   UNL     1      24.116  41.108   2.704  1.00  0.00     0.000 C 
BRANCH   2   3
ATOM      3  C   UNL     1      24.977  40.296   1.714  1.00  0.00     0.000 C 
BRANCH   3   4
ATOM      4  C   UNL     1      24.206  39.285   0.846  1.00  0.00     0.000 C 
BRANCH   4   5
ATOM      5  C   UNL     1      24.737  39.209  -0.596  1.00  0.00     0.000 C 
BRANCH   5   6
ATOM      6  C   UNL     1      26.060  39.975  -0.784  1.00  0.00     0.006 C 
BRANCH   6   7
ATOM      7  C   UNL     1      27.128  39.211  -1.582  1.00  0.00     0.053 C 
BRANCH   7   8
ATOM      8  C   UNL     1      28.368  38.973  -0.776  1.00  0.00     0.041 C 
ATOM      9  O   UNL     1      29.440  38.639  -1.346  1.00  0.00    -0.550 OA
ATOM     10  O   UNL     1      28.347  39.152   0.601  1.00  0.00    -0.550 OA
ENDBRANCH   7   8
ENDBRANCH   6   7
ENDBRANCH   5   6
ENDBRANCH   4   5
ENDBRANCH   3   4
ENDBRANCH   2   3
ENDBRANCH   1   2
BRANCH   1  11
ATOM     11  C   UNL     1      24.107  42.097   5.067  1.00  0.00     0.000 C 
BRANCH  11  12
ATOM     12  C   UNL     1      25.361  42.625   5.780  1.00  0.00    -0.000 C 
BRANCH  12  13
ATOM     13  C   UNL     1      25.957  43.860   5.071  1.00  0.00    -0.000 C 
BRANCH  13  14
ATOM     14  C   UNL     1      26.803  43.515   3.834  1.00  0.00    -0.000 C 
BRANCH  14  15
ATOM     15  C   UNL     1      28.044  42.676   4.177  1.00  0.00    -0.000 C 
BRANCH  15  16
ATOM     16  C   UNL     1      28.040  41.292   3.500  1.00  0.00    -0.000 C 
BRANCH  16  17
ATOM     17  C   UNL     1      28.088  40.093   4.465  1.00  0.00    -0.003 C 
ATOM     18  C   UNL     1      28.356  40.499   5.913  1.00  0.00     0.004 C 
ENDBRANCH  16  17
ENDBRANCH  15  16
ENDBRANCH  14  15
ENDBRANCH  13  14
ENDBRANCH  12  13
ENDBRANCH  11  12
ENDBRANCH   1  11
TORSDOF 14
ENDMDL
MODEL 3
REMARK VINA RESULT:    -3.485      2.390      3.162
REMARK INTER + INTRA:          -7.745
REMARK INTER:                  -5.978
REMARK INTRA:                  -1.767
REMARK UNBOUND:                -1.408
REMARK SMILES CCCCCCCCCCCCCCCC(=O)[O-]
REMARK SMILES IDX 9 1 10 2 11 3 12 4 13 5 14 6 15 7 16 8 17 9 18 10 8 11 7 12
REMARK SMILES IDX 6 13 5 14 4 15 3 16 2 17 1 18
REMARK H PARENT
REMARK Flexibility Score: inf
ROOT
ATOM      1  C   UNL     1      25.297  40.522   5.786  1.00  0.00     0.000 C 
ENDROOT
BRANCH   1   2
ATOM      2  C   UNL     1      23.927  41.222   5.842  1.00  0.00     0.000 C 
BRANCH   2   3
ATOM      3  C   UNL     1      23.897  42.649   5.255  1.00  0.00     0.000 C 
BRANCH   3   4
ATOM      4  C   UNL     1      24.153  43.782   6.264  1.00  0.00     0.000 C 
BRANCH   4   5
ATOM      5  C   UNL     1      25.349  44.669   5.875  1.00  0.00     0.000 C 
BRANCH   5   6
ATOM      6  C   UNL     1      26.331  43.959   4.925  1.00  0.00     0.006 C 
BRANCH   6   7
ATOM      7  C   UNL     1      27.552  43.338   5.622  1.00  0.00     0.053 C 
BRANCH   7   8
ATOM      8  C   UNL     1      28.820  44.060   5.281  1.00  0.00     0.041 C 
ATOM      9  O   UNL     1      29.605  43.588   4.417  1.00  0.00    -0.550 OA
ATOM     10  O   UNL     1      29.119  45.270   5.895  1.00  0.00    -0.550 OA
ENDBRANCH   7   8
ENDBRANCH   6   7
ENDBRANCH   5   6
ENDBRANCH   4   5
ENDBRANCH   3   4
ENDBRANCH   2   3
ENDBRANCH   1   2
BRANCH   1  11
ATOM     11  C   UNL     1      25.510  39.734   4.485  1.00  0.00     0.000 C 
BRANCH  11  12
ATOM     12  C   UNL     1      26.413  40.508   3.513  1.00  0.00    -0.000 C 
BRANCH  12  13
ATOM     13  C   UNL     1      25.616  41.128   2.346  1.00  0.00    -0.000 C 
BRANCH  13  14
ATOM     14  C   UNL     1      24.222  40.506   2.150  1.00  0.00    -0.000 C 
BRANCH  14  15
ATOM     15  C   UNL     1      24.102  39.719   0.836  1.00  0.00    -0.000 C 
BRANCH  15  16
ATOM     16  C   UNL     1      25.468  39.323   0.245  1.00  0.00    -0.000 C 
BRANCH  16  17
ATOM     17  C   UNL     1      25.732  39.830  -1.185  1.00  0.00    -0.003 C 
ATOM     18  C   UNL     1      27.124  39.468  -1.702  1.00  0.00     0.004 C 
ENDBRANCH  16  17
ENDBRANCH  15  16
ENDBRANCH  14  15
ENDBRANCH  13  14
ENDBRANCH  12  13
ENDBRANCH  11  12
ENDBRANCH   1  11
TORSDOF 14
ENDMDL
MODEL 4
REMARK VINA RESULT:    -3.447      2.343      3.417
REMARK INTER + INTRA:          -7.676
REMARK INTER:                  -5.556
REMARK INTRA:                  -2.120
REMARK UNBOUND:                -1.408
REMARK SMILES CCCCCCCCCCCCCCCC(=O)[O-]
REMARK SMILES IDX 9 1 10 2 11 3 12 4 13 5 14 6 15 7 16 8 17 9 18 10 8 11 7 12
REMARK SMILES IDX 6 13 5 14 4 15 3 16 2 17 1 18
REMARK H PARENT
REMARK Flexibility Score: inf
ROOT
ATOM      1  C   UNL     1      24.116  41.612   4.280  1.00  0.00     0.000 C 
ENDROOT
BRANCH   1   2
ATOM      2  C   UNL     1      25.248  42.611   4.577  1.00  0.00     0.000 C 
BRANCH   2   3
ATOM      3  C   UNL     1      26.367  42.666   3.517  1.00  0.00     0.000 C 
BRANCH   3   4
ATOM      4  C   UNL     1      27.689  41.988   3.919  1.00  0.00     0.000 C 
BRANCH   4   5
ATOM      5  C   UNL     1      27.880  40.613   3.255  1.00  0.00     0.000 C 
BRANCH   5   6
ATOM      6  C   UNL     1      27.941  39.462   4.277  1.00  0.00     0.006 C 
BRANCH   6   7
ATOM      7  C   UNL     1      27.424  39.828   5.677  1.00  0.00     0.053 C 
BRANCH   7   8
ATOM      8  C   UNL     1      26.250  38.989   6.078  1.00  0.00     0.041 C 
ATOM      9  O   UNL     1      25.374  39.454   6.854  1.00  0.00    -0.550 OA
ATOM     10  O   UNL     1      26.106  37.704   5.568  1.00  0.00    -0.550 OA
ENDBRANCH   7   8
ENDBRANCH   6   7
ENDBRANCH   5   6
ENDBRANCH   4   5
ENDBRANCH   3   4
ENDBRANCH   2   3
ENDBRANCH   1   2
BRANCH   1  11
ATOM     11  C   UNL     1      24.234  40.975   2.887  1.00  0.00     0.000 C 
BRANCH  11  12
ATOM     12  C   UNL     1      24.357  39.447   2.989  1.00  0.00    -0.000 C 
BRANCH  12  13
ATOM     13  C   UNL     1      24.781  38.807   1.650  1.00  0.00    -0.000 C 
BRANCH  13  14
ATOM     14  C   UNL     1      24.271  39.566   0.413  1.00  0.00    -0.000 C 
BRANCH  14  15
ATOM     15  C   UNL     1      25.349  39.729  -0.670  1.00  0.00    -0.000 C 
BRANCH  15  16
ATOM     16  C   UNL     1      26.770  39.438  -0.153  1.00  0.00    -0.000 C 
BRANCH  16  17
ATOM     17  C   UNL     1      27.662  38.630  -1.113  1.00  0.00    -0.003 C 
ATOM     18  C   UNL     1      28.401  39.505  -2.125  1.00  0.00     0.004 C 
ENDBRANCH  16  17
ENDBRANCH  15  16
ENDBRANCH  14  15
ENDBRANCH  13  14
ENDBRANCH  12  13
ENDBRANCH  11  12
ENDBRANCH   1  11
TORSDOF 14
ENDMDL
MODEL 5
REMARK VINA RESULT:    -3.433     17.653     20.426
REMARK INTER + INTRA:          -7.651
REMARK INTER:                  -5.833
REMARK INTRA:                  -1.817
REMARK UNBOUND:                -1.408
REMARK SMILES CCCCCCCCCCCCCCCC(=O)[O-]
REMARK SMILES IDX 9 1 10 2 11 3 12 4 13 5 14 6 15 7 16 8 17 9 18 10 8 11 7 12
REMARK SMILES IDX 6 13 5 14 4 15 3 16 2 17 1 18
REMARK H PARENT
REMARK Flexibility Score: inf
ROOT
ATOM      1  C   UNL     1      41.500  32.306   4.313  1.00  0.00     0.000 C 
ENDROOT
BRANCH   1   2
ATOM      2  C   UNL     1      43.033  32.172   4.345  1.00  0.00     0.000 C 
BRANCH   2   3
ATOM      3  C   UNL     1      43.769  32.795   3.140  1.00  0.00     0.000 C 
BRANCH   3   4
ATOM      4  C   UNL     1      43.577  32.064   1.800  1.00  0.00     0.000 C 
BRANCH   4   5
ATOM      5  C   UNL     1      43.509  33.024   0.600  1.00  0.00     0.000 C 
BRANCH   5   6
ATOM      6  C   UNL     1      42.580  32.514  -0.518  1.00  0.00     0.006 C 
BRANCH   6   7
ATOM      7  C   UNL     1      41.550  33.544  -1.008  1.00  0.00     0.053 C 
BRANCH   7   8
ATOM      8  C   UNL     1      40.199  33.318  -0.403  1.00  0.00     0.041 C 
ATOM      9  O   UNL     1      39.185  33.209  -1.142  1.00  0.00    -0.550 OA
ATOM     10  O   UNL     1      40.064  33.195   0.974  1.00  0.00    -0.550 OA
ENDBRANCH   7   8
ENDBRANCH   6   7
ENDBRANCH   5   6
ENDBRANCH   4   5
ENDBRANCH   3   4
ENDBRANCH   2   3
ENDBRANCH   1   2
BRANCH   1  11
ATOM     11  C   UNL     1      40.785  30.950   4.212  1.00  0.00     0.000 C 
BRANCH  11  12
ATOM     12  C   UNL     1      41.785  29.789   4.335  1.00  0.00    -0.000 C 
BRANCH  12  13
ATOM     13  C   UNL     1      41.442  28.849   5.509  1.00  0.00    -0.000 C 
BRANCH  13  14
ATOM     14  C   UNL     1      42.675  28.206   6.167  1.00  0.00    -0.000 C 
BRANCH  14  15
ATOM     15  C   UNL     1      43.761  29.233   6.526  1.00  0.00    -0.000 C 
BRANCH  15  16
ATOM     16  C   UNL     1      43.566  29.848   7.925  1.00  0.00    -0.000 C 
BRANCH  16  17
ATOM     17  C   UNL     1      43.209  31.347   7.935  1.00  0.00    -0.003 C 
ATOM     18  C   UNL     1      41.705  31.604   8.010  1.00  0.00     0.004 C 
ENDBRANCH  16  17
ENDBRANCH  15  16
ENDBRANCH  14  15
ENDBRANCH  13  14
ENDBRANCH  12  13
ENDBRANCH  11  12
ENDBRANCH   1  11
TORSDOF 14
ENDMDL
MODEL 6
REMARK VINA RESULT:    -3.422      1.893      2.999
REMARK INTER + INTRA:          -7.631
REMARK INTER:                  -4.869
REMARK INTRA:                  -2.762
REMARK UNBOUND:                -1.408
REMARK SMILES CCCCCCCCCCCCCCCC(=O)[O-]
REMARK SMILES IDX 9 1 10 2 11 3 12 4 13 5 14 6 15 7 16 8 17 9 18 10 8 11 7 12
REMARK SMILES IDX 6 13 5 14 4 15 3 16 2 17 1 18
REMARK H PARENT
REMARK Flexibility Score: inf
ROOT
ATOM      1  C   UNL     1      27.455  40.721   6.050  1.00  0.00     0.000 C 
ENDROOT
BRANCH   1   2
ATOM      2  C   UNL     1      28.180  40.835   4.697  1.00  0.00     0.000 C 
BRANCH   2   3
ATOM      3  C   UNL     1      27.736  42.021   3.814  1.00  0.00     0.000 C 
BRANCH   3   4
ATOM      4  C   UNL     1      27.669  43.383   4.527  1.00  0.00     0.000 C 
BRANCH   4   5
ATOM      5  C   UNL     1      26.300  44.069   4.378  1.00  0.00     0.000 C 
BRANCH   5   6
ATOM      6  C   UNL     1      25.901  44.877   5.627  1.00  0.00     0.006 C 
BRANCH   6   7
ATOM      7  C   UNL     1      26.330  44.241   6.959  1.00  0.00     0.053 C 
BRANCH   7   8
ATOM      8  C   UNL     1      25.154  43.860   7.804  1.00  0.00     0.041 C 
ATOM      9  O   UNL     1      25.307  43.614   9.030  1.00  0.00    -0.550 OA
ATOM     10  O   UNL     1      23.883  43.807   7.245  1.00  0.00    -0.550 OA
ENDBRANCH   7   8
ENDBRANCH   6   7
ENDBRANCH   5   6
ENDBRANCH   4   5
ENDBRANCH   3   4
ENDBRANCH   2   3
ENDBRANCH   1   2
BRANCH   1  11
ATOM     11  C   UNL     1      26.234  39.791   5.995  1.00  0.00     0.000 C 
BRANCH  11  12
ATOM     12  C   UNL     1      24.950  40.544   6.375  1.00  0.00    -0.000 C 
BRANCH  12  13
ATOM     13  C   UNL     1      23.876  40.457   5.270  1.00  0.00    -0.000 C 
BRANCH  13  14
ATOM     14  C   UNL     1      23.916  41.630   4.275  1.00  0.00    -0.000 C 
BRANCH  14  15
ATOM     15  C   UNL     1      24.274  41.187   2.847  1.00  0.00    -0.000 C 
BRANCH  15  16
ATOM     16  C   UNL     1      24.531  39.672   2.735  1.00  0.00    -0.000 C 
BRANCH  16  17
ATOM     17  C   UNL     1      25.855  39.285   2.050  1.00  0.00    -0.003 C 
ATOM     18  C   UNL     1      26.556  38.106   2.725  1.00  0.00     0.004 C 
ENDBRANCH  16  17
ENDBRANCH  15  16
ENDBRANCH  14  15
ENDBRANCH  13  14
ENDBRANCH  12  13
ENDBRANCH  11  12
ENDBRANCH   1  11
TORSDOF 14
ENDMDL
MODEL 7
REMARK VINA RESULT:    -3.396     17.514     19.954
REMARK INTER + INTRA:          -7.583
REMARK INTER:                  -5.336
REMARK INTRA:                  -2.246
REMARK UNBOUND:                -1.408
REMARK SMILES CCCCCCCCCCCCCCCC(=O)[O-]
REMARK SMILES IDX 9 1 10 2 11 3 12 4 13 5 14 6 15 7 16 8 17 9 18 10 8 11 7 12
REMARK SMILES IDX 6 13 5 14 4 15 3 16 2 17 1 18
REMARK H PARENT
REMARK Flexibility Score: inf
ROOT
ATOM      1  C   UNL     1      42.959  30.093   5.067  1.00  0.00     0.000 C 
ENDROOT
BRANCH   1   2
ATOM      2  C   UNL     1      43.918  31.161   4.512  1.00  0.00     0.000 C 
BRANCH   2   3
ATOM      3  C   UNL     1      43.793  31.431   2.998  1.00  0.00     0.000 C 
BRANCH   3   4
ATOM      4  C   UNL     1      43.749  32.916   2.595  1.00  0.00     0.000 C 
BRANCH   4   5
ATOM      5  C   UNL     1      42.316  33.432   2.372  1.00  0.00     0.000 C 
BRANCH   5   6
ATOM      6  C   UNL     1      41.672  32.862   1.094  1.00  0.00     0.006 C 
BRANCH   6   7
ATOM      7  C   UNL     1      42.601  32.839  -0.130  1.00  0.00     0.053 C 
BRANCH   7   8
ATOM      8  C   UNL     1      41.841  32.662  -1.408  1.00  0.00     0.041 C 
ATOM      9  O   UNL     1      42.030  31.641  -2.122  1.00  0.00    -0.550 OA
ATOM     10  O   UNL     1      40.899  33.607  -1.795  1.00  0.00    -0.550 OA
ENDBRANCH   7   8
ENDBRANCH   6   7
ENDBRANCH   5   6
ENDBRANCH   4   5
ENDBRANCH   3   4
ENDBRANCH   2   3
ENDBRANCH   1   2
BRANCH   1  11
ATOM     11  C   UNL     1      41.803  29.775   4.107  1.00  0.00     0.000 C 
BRANCH  11  12
ATOM     12  C   UNL     1      40.445  30.071   4.763  1.00  0.00    -0.000 C 
BRANCH  12  13
ATOM     13  C   UNL     1      39.768  31.319   4.160  1.00  0.00    -0.000 C 
BRANCH  13  14
ATOM     14  C   UNL     1      39.468  32.420   5.192  1.00  0.00    -0.000 C 
BRANCH  14  15
ATOM     15  C   UNL     1      40.679  33.327   5.463  1.00  0.00    -0.000 C 
BRANCH  15  16
ATOM     16  C   UNL     1      41.430  32.957   6.755  1.00  0.00    -0.000 C 
BRANCH  16  17
ATOM     17  C   UNL     1      42.510  33.964   7.193  1.00  0.00    -0.003 C 
ATOM     18  C   UNL     1      43.369  34.464   6.033  1.00  0.00     0.004 C 
ENDBRANCH  16  17
ENDBRANCH  15  16
ENDBRANCH  14  15
ENDBRANCH  13  14
ENDBRANCH  12  13
ENDBRANCH  11  12
ENDBRANCH   1  11
TORSDOF 14
ENDMDL
MODEL 8
REMARK VINA RESULT:    -3.389      3.928      7.788
REMARK INTER + INTRA:          -7.570
REMARK INTER:                  -5.934
REMARK INTRA:                  -1.636
REMARK UNBOUND:                -1.408
REMARK SMILES CCCCCCCCCCCCCCCC(=O)[O-]
REMARK SMILES IDX 9 1 10 2 11 3 12 4 13 5 14 6 15 7 16 8 17 9 18 10 8 11 7 12
REMARK SMILES IDX 6 13 5 14 4 15 3 16 2 17 1 18
REMARK H PARENT
REMARK Flexibility Score: inf
ROOT
ATOM      1  C   UNL     1      26.803  44.016   5.223  1.00  0.00     0.000 C 
ENDROOT
BRANCH   1   2
ATOM      2  C   UNL     1      26.185  43.477   3.921  1.00  0.00     0.000 C 
BRANCH   2   3
ATOM      3  C   UNL     1      26.077  41.940   3.836  1.00  0.00     0.000 C 
BRANCH   3   4
ATOM      4  C   UNL     1      24.673  41.395   3.518  1.00  0.00     0.000 C 
BRANCH   4   5
ATOM      5  C   UNL     1      24.583  40.755   2.121  1.00  0.00     0.000 C 
BRANCH   5   6
ATOM      6  C   UNL     1      25.899  40.081   1.690  1.00  0.00     0.006 C 
BRANCH   6   7
ATOM      7  C   UNL     1      25.753  39.094   0.521  1.00  0.00     0.053 C 
BRANCH   7   8
ATOM      8  C   UNL     1      26.388  39.612  -0.733  1.00  0.00     0.041 C 
ATOM      9  O   UNL     1      25.695  40.227  -1.587  1.00  0.00    -0.550 OA
ATOM     10  O   UNL     1      27.751  39.445  -0.944  1.00  0.00    -0.550 OA
ENDBRANCH   7   8
ENDBRANCH   6   7
ENDBRANCH   5   6
ENDBRANCH   4   5
ENDBRANCH   3   4
ENDBRANCH   2   3
ENDBRANCH   1   2
BRANCH   1  11
ATOM     11  C   UNL     1      25.842  44.920   6.010  1.00  0.00     0.000 C 
BRANCH  11  12
ATOM     12  C   UNL     1      24.447  44.284   6.111  1.00  0.00    -0.000 C 
BRANCH  12  13
ATOM     13  C   UNL     1      24.261  43.493   7.423  1.00  0.00    -0.000 C 
BRANCH  13  14
ATOM     14  C   UNL     1      25.275  43.866   8.518  1.00  0.00    -0.000 C 
BRANCH  14  15
ATOM     15  C   UNL     1      25.842  42.637   9.247  1.00  0.00    -0.000 C 
BRANCH  15  16
ATOM     16  C   UNL     1      27.362  42.477   9.062  1.00  0.00    -0.000 C 
BRANCH  16  17
ATOM     17  C   UNL     1      27.787  41.681   7.813  1.00  0.00    -0.003 C 
ATOM     18  C   UNL     1      26.743  40.657   7.371  1.00  0.00     0.004 C 
ENDBRANCH  16  17
ENDBRANCH  15  16
ENDBRANCH  14  15
ENDBRANCH  13  14
ENDBRANCH  12  13
ENDBRANCH  11  12
ENDBRANCH   1  11
TORSDOF 14
ENDMDL
MODEL 9
REMARK VINA RESULT:    -3.382     18.347     20.143
REMARK INTER + INTRA:          -7.559
REMARK INTER:                  -6.022
REMARK INTRA:                  -1.537
REMARK UNBOUND:                -1.408
REMARK SMILES CCCCCCCCCCCCCCCC(=O)[O-]
REMARK SMILES IDX 9 1 10 2 11 3 12 4 13 5 14 6 15 7 16 8 17 9 18 10 8 11 7 12
REMARK SMILES IDX 6 13 5 14 4 15 3 16 2 17 1 18
REMARK H PARENT
REMARK Flexibility Score: inf
ROOT
ATOM      1  C   UNL     1      40.333  30.043   4.255  1.00  0.00     0.000 C 
ENDROOT
BRANCH   1   2
ATOM      2  C   UNL     1      41.784  29.530   4.228  1.00  0.00     0.000 C 
BRANCH   2   3
ATOM      3  C   UNL     1      42.655  29.967   5.425  1.00  0.00     0.000 C 
BRANCH   3   4
ATOM      4  C   UNL     1      43.079  28.835   6.378  1.00  0.00     0.000 C 
BRANCH   4   5
ATOM      5  C   UNL     1      42.025  27.720   6.487  1.00  0.00     0.000 C 
BRANCH   5   6
ATOM      6  C   UNL     1      41.303  27.715   7.848  1.00  0.00     0.006 C 
BRANCH   6   7
ATOM      7  C   UNL     1      41.399  29.039   8.622  1.00  0.00     0.053 C 
BRANCH   7   8
ATOM      8  C   UNL     1      42.064  28.865   9.953  1.00  0.00     0.041 C 
ATOM      9  O   UNL     1      42.912  29.706  10.353  1.00  0.00    -0.550 OA
ATOM     10  O   UNL     1      41.723  27.791  10.766  1.00  0.00    -0.550 OA
ENDBRANCH   7   8
ENDBRANCH   6   7
ENDBRANCH   5   6
ENDBRANCH   4   5
ENDBRANCH   3   4
ENDBRANCH   2   3
ENDBRANCH   1   2
BRANCH   1  11
ATOM     11  C   UNL     1      40.244  31.570   4.398  1.00  0.00     0.000 C 
BRANCH  11  12
ATOM     12  C   UNL     1      40.717  32.273   3.116  1.00  0.00    -0.000 C 
BRANCH  12  13
ATOM     13  C   UNL     1      41.793  33.341   3.402  1.00  0.00    -0.000 C 
BRANCH  13  14
ATOM     14  C   UNL     1      43.226  32.870   3.104  1.00  0.00    -0.000 C 
BRANCH  14  15
ATOM     15  C   UNL     1      43.348  32.153   1.751  1.00  0.00    -0.000 C 
BRANCH  15  16
ATOM     16  C   UNL     1      43.627  33.117   0.582  1.00  0.00    -0.000 C 
BRANCH  16  17
ATOM     17  C   UNL     1      42.777  32.876  -0.679  1.00  0.00    -0.003 C 
ATOM     18  C   UNL     1      41.276  33.010  -0.426  1.00  0.00     0.004 C 
ENDBRANCH  16  17
ENDBRANCH  15  16
ENDBRANCH  14  15
ENDBRANCH  13  14
ENDBRANCH  12  13
ENDBRANCH  11  12
ENDBRANCH   1  11
TORSDOF 14
ENDMDL
