MODEL 1
REMARK VINA RESULT:    -4.660      0.000      0.000
REMARK INTER + INTRA:         -16.595
REMARK INTER:                 -11.744
REMARK INTRA:                  -4.851
REMARK UNBOUND:                -4.851
REMARK SMILES CCCCCCCCCCCCCCCCCCCCCCCCCCCC(=O)[O-]
REMARK SMILES IDX 15 1 16 2 17 3 18 4 19 5 20 6 21 7 22 8 23 9 24 10 25 11
REMARK SMILES IDX 26 12 27 13 28 14 29 15 30 16 14 17 13 18 12 19 11 20 10 21
REMARK SMILES IDX 9 22 8 23 7 24 6 25 5 26 4 27 3 28 2 29 1 30
REMARK H PARENT
REMARK Flexibility Score: inf
ROOT
ATOM      1  C   UNL     1      -2.958   8.155  -4.211  1.00  0.00     0.000 C 
ENDROOT
BRANCH   1   2
ATOM      2  C   UNL     1      -2.708   9.489  -4.934  1.00  0.00     0.000 C 
BRANCH   2   3
ATOM      3  C   UNL     1      -3.384  10.677  -4.233  1.00  0.00     0.000 C 
BRANCH   3   4
ATOM      4  C   UNL     1      -2.590  11.987  -4.396  1.00  0.00     0.000 C 
BRANCH   4   5
ATOM      5  C   UNL     1      -1.081  11.762  -4.616  1.00  0.00     0.000 C 
BRANCH   5   6
ATOM      6  C   UNL     1      -0.377  12.875  -5.416  1.00  0.00     0.000 C 
BRANCH   6   7
ATOM      7  C   UNL     1      -1.283  13.736  -6.315  1.00  0.00     0.000 C 
BRANCH   7   8
ATOM      8  C   UNL     1      -1.322  13.329  -7.802  1.00  0.00     0.000 C 
BRANCH   8   9
ATOM      9  C   UNL     1      -2.549  12.499  -8.215  1.00  0.00     0.000 C 
BRANCH   9  10
ATOM     10  C   UNL     1      -2.365  10.995  -7.956  1.00  0.00     0.000 C 
BRANCH  10  11
ATOM     11  C   UNL     1      -1.254  10.375  -8.825  1.00  0.00     0.000 C 
BRANCH  11  12
ATOM     12  C   UNL     1       0.031   9.990  -8.065  1.00  0.00     0.006 C 
BRANCH  12  13
ATOM     13  C   UNL     1       1.191  10.984  -8.254  1.00  0.00     0.053 C 
BRANCH  13  14
ATOM     14  C   UNL     1       2.499  10.298  -8.500  1.00  0.00     0.041 C 
ATOM     15  O   UNL     1       2.634   9.517  -9.478  1.00  0.00    -0.550 OA
ATOM     16  O   UNL     1       3.583  10.545  -7.669  1.00  0.00    -0.550 OA
ENDBRANCH  13  14
ENDBRANCH  12  13
ENDBRANCH  11  12
ENDBRANCH  10  11
ENDBRANCH   9  10
ENDBRANCH   8   9
ENDBRANCH   7   8
ENDBRANCH   6   7
ENDBRANCH   5   6
ENDBRANCH   4   5
ENDBRANCH   3   4
ENDBRANCH   2   3
ENDBRANCH   1   2
BRANCH   1  17
ATOM     17  C   UNL     1      -4.451   7.886  -3.971  1.00  0.00     0.000 C 
BRANCH  17  18
ATOM     18  C   UNL     1      -5.182   7.435  -5.249  1.00  0.00     0.000 C 
BRANCH  18  19
ATOM     19  C   UNL     1      -6.388   8.339  -5.587  1.00  0.00     0.000 C 
BRANCH  19  20
ATOM     20  C   UNL     1      -6.077   9.414  -6.646  1.00  0.00     0.000 C 
BRANCH  20  21
ATOM     21  C   UNL     1      -6.663  10.803  -6.341  1.00  0.00     0.000 C 
BRANCH  21  22
ATOM     22  C   UNL     1      -5.741  11.947  -6.799  1.00  0.00    -0.000 C 
BRANCH  22  23
ATOM     23  C   UNL     1      -6.435  12.923  -7.762  1.00  0.00    -0.000 C 
BRANCH  23  24
ATOM     24  C   UNL     1      -5.991  12.730  -9.222  1.00  0.00    -0.000 C 
BRANCH  24  25
ATOM     25  C   UNL     1      -6.584  11.460  -9.860  1.00  0.00    -0.000 C 
BRANCH  25  26
ATOM     26  C   UNL     1      -5.861  10.977 -11.134  1.00  0.00    -0.000 C 
BRANCH  26  27
ATOM     27  C   UNL     1      -4.479  10.365 -10.838  1.00  0.00    -0.000 C 
BRANCH  27  28
ATOM     28  C   UNL     1      -4.570   9.070 -10.014  1.00  0.00    -0.000 C 
BRANCH  28  29
ATOM     29  C   UNL     1      -4.158   7.830 -10.822  1.00  0.00    -0.003 C 
ATOM     30  C   UNL     1      -5.377   7.016 -11.243  1.00  0.00     0.004 C 
ENDBRANCH  28  29
ENDBRANCH  27  28
ENDBRANCH  26  27
ENDBRANCH  25  26
ENDBRANCH  24  25
ENDBRANCH  23  24
ENDBRANCH  22  23
ENDBRANCH  21  22
ENDBRANCH  20  21
ENDBRANCH  19  20
ENDBRANCH  18  19
ENDBRANCH  17  18
ENDBRANCH   1  17
TORSDOF 26
ENDMDL
MODEL 2
REMARK VINA RESULT:    -4.560      2.829      6.912
REMARK INTER + INTRA:         -16.341
REMARK INTER:                 -11.575
REMARK INTRA:                  -4.766
REMARK UNBOUND:                -4.851
REMARK SMILES CCCCCCCCCCCCCCCCCCCCCCCCCCCC(=O)[O-]
REMARK SMILES IDX 15 1 16 2 17 3 18 4 19 5 20 6 21 7 22 8 23 9 24 10 25 11
REMARK SMILES IDX 26 12 27 13 28 14 29 15 30 16 14 17 13 18 12 19 11 20 10 21
REMARK SMILES IDX 9 22 8 23 7 24 6 25 5 26 4 27 3 28 2 29 1 30
REMARK H PARENT
REMARK Flexibility Score: inf
ROOT
ATOM      1  C   UNL     1      -5.608  11.168 -11.003  1.00  0.00     0.000 C 
ENDROOT
BRANCH   1   2
ATOM      2  C   UNL     1      -6.113  11.486  -9.585  1.00  0.00     0.000 C 
BRANCH   2   3
ATOM      3  C   UNL     1      -5.859  12.946  -9.181  1.00  0.00     0.000 C 
BRANCH   3   4
ATOM      4  C   UNL     1      -5.991  13.169  -7.663  1.00  0.00     0.000 C 
BRANCH   4   5
ATOM      5  C   UNL     1      -6.387  11.894  -6.891  1.00  0.00     0.000 C 
BRANCH   5   6
ATOM      6  C   UNL     1      -5.836  11.817  -5.455  1.00  0.00     0.000 C 
BRANCH   6   7
ATOM      7  C   UNL     1      -6.343  10.641  -4.601  1.00  0.00     0.000 C 
BRANCH   7   8
ATOM      8  C   UNL     1      -5.358   9.465  -4.440  1.00  0.00     0.000 C 
BRANCH   8   9
ATOM      9  C   UNL     1      -5.733   8.194  -5.221  1.00  0.00     0.000 C 
BRANCH   9  10
ATOM     10  C   UNL     1      -6.431   8.501  -6.557  1.00  0.00     0.000 C 
BRANCH  10  11
ATOM     11  C   UNL     1      -5.474   8.418  -7.760  1.00  0.00     0.000 C 
BRANCH  11  12
ATOM     12  C   UNL     1      -6.093   7.843  -9.050  1.00  0.00     0.006 C 
BRANCH  12  13
ATOM     13  C   UNL     1      -5.207   6.805  -9.761  1.00  0.00     0.053 C 
BRANCH  13  14
ATOM     14  C   UNL     1      -5.802   6.333 -11.051  1.00  0.00     0.041 C 
ATOM     15  O   UNL     1      -5.197   6.525 -12.139  1.00  0.00    -0.550 OA
ATOM     16  O   UNL     1      -7.009   5.647 -11.052  1.00  0.00    -0.550 OA
ENDBRANCH  13  14
ENDBRANCH  12  13
ENDBRANCH  11  12
ENDBRANCH  10  11
ENDBRANCH   9  10
ENDBRANCH   8   9
ENDBRANCH   7   8
ENDBRANCH   6   7
ENDBRANCH   5   6
ENDBRANCH   4   5
ENDBRANCH   3   4
ENDBRANCH   2   3
ENDBRANCH   1   2
BRANCH   1  17
ATOM     17  C   UNL     1      -4.301  10.362 -10.995  1.00  0.00     0.000 C 
BRANCH  17  18
ATOM     18  C   UNL     1      -3.166  11.083 -10.244  1.00  0.00     0.000 C 
BRANCH  18  19
ATOM     19  C   UNL     1      -2.581  10.227  -9.100  1.00  0.00     0.000 C 
BRANCH  19  20
ATOM     20  C   UNL     1      -2.814  10.825  -7.699  1.00  0.00     0.000 C 
BRANCH  20  21
ATOM     21  C   UNL     1      -2.223  10.000  -6.543  1.00  0.00     0.000 C 
BRANCH  21  22
ATOM     22  C   UNL     1      -2.277  10.746  -5.198  1.00  0.00    -0.000 C 
BRANCH  22  23
ATOM     23  C   UNL     1      -1.916  12.234  -5.327  1.00  0.00    -0.000 C 
BRANCH  23  24
ATOM     24  C   UNL     1      -0.930  12.700  -4.242  1.00  0.00    -0.000 C 
BRANCH  24  25
ATOM     25  C   UNL     1       0.527  12.312  -4.558  1.00  0.00    -0.000 C 
BRANCH  25  26
ATOM     26  C   UNL     1       1.092  12.923  -5.856  1.00  0.00    -0.000 C 
BRANCH  26  27
ATOM     27  C   UNL     1       1.747  11.873  -6.772  1.00  0.00    -0.000 C 
BRANCH  27  28
ATOM     28  C   UNL     1       0.876  11.526  -7.990  1.00  0.00    -0.000 C 
BRANCH  28  29
ATOM     29  C   UNL     1       1.035  10.062  -8.428  1.00  0.00    -0.003 C 
ATOM     30  C   UNL     1       2.452   9.784  -8.917  1.00  0.00     0.004 C 
ENDBRANCH  28  29
ENDBRANCH  27  28
ENDBRANCH  26  27
ENDBRANCH  25  26
ENDBRANCH  24  25
ENDBRANCH  23  24
ENDBRANCH  22  23
ENDBRANCH  21  22
ENDBRANCH  20  21
ENDBRANCH  19  20
ENDBRANCH  18  19
ENDBRANCH  17  18
ENDBRANCH   1  17
TORSDOF 26
ENDMDL
MODEL 3
REMARK VINA RESULT:    -4.470      3.538      7.546
REMARK INTER + INTRA:         -16.117
REMARK INTER:                 -12.312
REMARK INTRA:                  -3.805
REMARK UNBOUND:                -4.851
REMARK SMILES CCCCCCCCCCCCCCCCCCCCCCCCCCCC(=O)[O-]
REMARK SMILES IDX 15 1 16 2 17 3 18 4 19 5 20 6 21 7 22 8 23 9 24 10 25 11
REMARK SMILES IDX 26 12 27 13 28 14 29 15 30 16 14 17 13 18 12 19 11 20 10 21
REMARK SMILES IDX 9 22 8 23 7 24 6 25 5 26 4 27 3 28 2 29 1 30
REMARK H PARENT
REMARK Flexibility Score: inf
ROOT
ATOM      1  C   UNL     1      -4.961  10.372  -7.155  1.00  0.00     0.000 C 
ENDROOT
BRANCH   1   2
ATOM      2  C   UNL     1      -5.581  11.772  -7.020  1.00  0.00     0.000 C 
BRANCH   2   3
ATOM      3  C   UNL     1      -6.287  12.233  -8.304  1.00  0.00     0.000 C 
BRANCH   3   4
ATOM      4  C   UNL     1      -5.294  12.590  -9.426  1.00  0.00     0.000 C 
BRANCH   4   5
ATOM      5  C   UNL     1      -5.270  11.556 -10.570  1.00  0.00     0.000 C 
BRANCH   5   6
ATOM      6  C   UNL     1      -6.492  10.618 -10.612  1.00  0.00     0.000 C 
BRANCH   6   7
ATOM      7  C   UNL     1      -6.226   9.148 -10.240  1.00  0.00     0.000 C 
BRANCH   7   8
ATOM      8  C   UNL     1      -4.970   8.519 -10.878  1.00  0.00     0.000 C 
BRANCH   8   9
ATOM      9  C   UNL     1      -5.107   7.033 -11.250  1.00  0.00     0.000 C 
BRANCH   9  10
ATOM     10  C   UNL     1      -6.279   6.346 -10.530  1.00  0.00     0.000 C 
BRANCH  10  11
ATOM     11  C   UNL     1      -6.966   5.278 -11.402  1.00  0.00     0.000 C 
BRANCH  11  12
ATOM     12  C   UNL     1      -6.119   4.749 -12.576  1.00  0.00     0.006 C 
BRANCH  12  13
ATOM     13  C   UNL     1      -6.946   4.125 -13.714  1.00  0.00     0.053 C 
BRANCH  13  14
ATOM     14  C   UNL     1      -6.093   3.416 -14.721  1.00  0.00     0.041 C 
ATOM     15  O   UNL     1      -6.480   2.333 -15.233  1.00  0.00    -0.550 OA
ATOM     16  O   UNL     1      -4.884   3.969 -15.121  1.00  0.00    -0.550 OA
ENDBRANCH  13  14
ENDBRANCH  12  13
ENDBRANCH  11  12
ENDBRANCH  10  11
ENDBRANCH   9  10
ENDBRANCH   8   9
ENDBRANCH   7   8
ENDBRANCH   6   7
ENDBRANCH   5   6
ENDBRANCH   4   5
ENDBRANCH   3   4
ENDBRANCH   2   3
ENDBRANCH   1   2
BRANCH   1  17
ATOM     17  C   UNL     1      -4.390   9.850  -5.828  1.00  0.00     0.000 C 
BRANCH  17  18
ATOM     18  C   UNL     1      -3.922  10.986  -4.899  1.00  0.00     0.000 C 
BRANCH  18  19
ATOM     19  C   UNL     1      -2.386  11.033  -4.755  1.00  0.00     0.000 C 
BRANCH  19  20
ATOM     20  C   UNL     1      -1.832  12.449  -4.504  1.00  0.00     0.000 C 
BRANCH  20  21
ATOM     21  C   UNL     1      -1.144  13.093  -5.719  1.00  0.00     0.000 C 
BRANCH  21  22
ATOM     22  C   UNL     1      -2.040  13.100  -6.971  1.00  0.00    -0.000 C 
BRANCH  22  23
ATOM     23  C   UNL     1      -1.255  12.841  -8.267  1.00  0.00    -0.000 C 
BRANCH  23  24
ATOM     24  C   UNL     1      -1.850  11.692  -9.100  1.00  0.00    -0.000 C 
BRANCH  24  25
ATOM     25  C   UNL     1      -1.700  10.322  -8.413  1.00  0.00    -0.000 C 
BRANCH  25  26
ATOM     26  C   UNL     1      -0.383  10.130  -7.633  1.00  0.00    -0.000 C 
BRANCH  26  27
ATOM     27  C   UNL     1       0.782   9.677  -8.533  1.00  0.00    -0.000 C 
BRANCH  27  28
ATOM     28  C   UNL     1       2.097  10.403  -8.206  1.00  0.00    -0.000 C 
BRANCH  28  29
ATOM     29  C   UNL     1       1.874  11.678  -7.379  1.00  0.00    -0.003 C 
ATOM     30  C   UNL     1       2.590  11.596  -6.035  1.00  0.00     0.004 C 
ENDBRANCH  28  29
ENDBRANCH  27  28
ENDBRANCH  26  27
ENDBRANCH  25  26
ENDBRANCH  24  25
ENDBRANCH  23  24
ENDBRANCH  22  23
ENDBRANCH  21  22
ENDBRANCH  20  21
ENDBRANCH  19  20
ENDBRANCH  18  19
ENDBRANCH  17  18
ENDBRANCH   1  17
TORSDOF 26
ENDMDL
MODEL 4
REMARK VINA RESULT:    -4.370      2.762      6.453
REMARK INTER + INTRA:         -15.864
REMARK INTER:                 -11.748
REMARK INTRA:                  -4.116
REMARK UNBOUND:                -4.851
REMARK SMILES CCCCCCCCCCCCCCCCCCCCCCCCCCCC(=O)[O-]
REMARK SMILES IDX 15 1 16 2 17 3 18 4 19 5 20 6 21 7 22 8 23 9 24 10 25 11
REMARK SMILES IDX 26 12 27 13 28 14 29 15 30 16 14 17 13 18 12 19 11 20 10 21
REMARK SMILES IDX 9 22 8 23 7 24 6 25 5 26 4 27 3 28 2 29 1 30
REMARK H PARENT
REMARK Flexibility Score: inf
ROOT
ATOM      1  C   UNL     1      -3.194   9.922  -6.361  1.00  0.00     0.000 C 
ENDROOT
BRANCH   1   2
ATOM      2  C   UNL     1      -4.533   9.700  -5.638  1.00  0.00     0.000 C 
BRANCH   2   3
ATOM      3  C   UNL     1      -5.585   9.032  -6.536  1.00  0.00     0.000 C 
BRANCH   3   4
ATOM      4  C   UNL     1      -6.915   9.808  -6.564  1.00  0.00     0.000 C 
BRANCH   4   5
ATOM      5  C   UNL     1      -7.125  10.612  -7.863  1.00  0.00     0.000 C 
BRANCH   5   6
ATOM      6  C   UNL     1      -6.956  12.135  -7.709  1.00  0.00     0.000 C 
BRANCH   6   7
ATOM      7  C   UNL     1      -5.510  12.662  -7.762  1.00  0.00     0.000 C 
BRANCH   7   8
ATOM      8  C   UNL     1      -5.000  13.058  -9.162  1.00  0.00     0.000 C 
BRANCH   8   9
ATOM      9  C   UNL     1      -4.892  11.898 -10.166  1.00  0.00     0.000 C 
BRANCH   9  10
ATOM     10  C   UNL     1      -4.103  10.701  -9.610  1.00  0.00     0.000 C 
BRANCH  10  11
ATOM     11  C   UNL     1      -4.147   9.477 -10.542  1.00  0.00     0.000 C 
BRANCH  11  12
ATOM     12  C   UNL     1      -5.558   9.054 -10.999  1.00  0.00     0.006 C 
BRANCH  12  13
ATOM     13  C   UNL     1      -6.096   7.799 -10.289  1.00  0.00     0.053 C 
BRANCH  13  14
ATOM     14  C   UNL     1      -5.819   6.544 -11.057  1.00  0.00     0.041 C 
ATOM     15  O   UNL     1      -4.982   6.545 -11.997  1.00  0.00    -0.550 OA
ATOM     16  O   UNL     1      -6.459   5.361 -10.713  1.00  0.00    -0.550 OA
ENDBRANCH  13  14
ENDBRANCH  12  13
ENDBRANCH  11  12
ENDBRANCH  10  11
ENDBRANCH   9  10
ENDBRANCH   8   9
ENDBRANCH   7   8
ENDBRANCH   6   7
ENDBRANCH   5   6
ENDBRANCH   4   5
ENDBRANCH   3   4
ENDBRANCH   2   3
ENDBRANCH   1   2
BRANCH   1  17
ATOM     17  C   UNL     1      -2.004   9.977  -5.391  1.00  0.00     0.000 C 
BRANCH  17  18
ATOM     18  C   UNL     1      -1.912  11.321  -4.644  1.00  0.00     0.000 C 
BRANCH  18  19
ATOM     19  C   UNL     1      -0.458  11.697  -4.286  1.00  0.00     0.000 C 
BRANCH  19  20
ATOM     20  C   UNL     1      -0.120  13.177  -4.549  1.00  0.00     0.000 C 
BRANCH  20  21
ATOM     21  C   UNL     1      -0.008  13.555  -6.035  1.00  0.00     0.000 C 
BRANCH  21  22
ATOM     22  C   UNL     1      -1.370  13.906  -6.660  1.00  0.00    -0.000 C 
BRANCH  22  23
ATOM     23  C   UNL     1      -1.585  13.245  -8.031  1.00  0.00    -0.000 C 
BRANCH  23  24
ATOM     24  C   UNL     1      -0.366  12.424  -8.489  1.00  0.00    -0.000 C 
BRANCH  24  25
ATOM     25  C   UNL     1      -0.626  10.906  -8.452  1.00  0.00    -0.000 C 
BRANCH  25  26
ATOM     26  C   UNL     1       0.643  10.031  -8.504  1.00  0.00    -0.000 C 
BRANCH  26  27
ATOM     27  C   UNL     1       1.888  10.754  -7.955  1.00  0.00    -0.000 C 
BRANCH  27  28
ATOM     28  C   UNL     1       3.200  10.084  -8.391  1.00  0.00    -0.000 C 
BRANCH  28  29
ATOM     29  C   UNL     1       3.065   9.343  -9.730  1.00  0.00    -0.003 C 
ATOM     30  C   UNL     1       4.163   9.758 -10.703  1.00  0.00     0.004 C 
ENDBRANCH  28  29
ENDBRANCH  27  28
ENDBRANCH  26  27
ENDBRANCH  25  26
ENDBRANCH  24  25
ENDBRANCH  23  24
ENDBRANCH  22  23
ENDBRANCH  21  22
ENDBRANCH  20  21
ENDBRANCH  19  20
ENDBRANCH  18  19
ENDBRANCH  17  18
ENDBRANCH   1  17
TORSDOF 26
ENDMDL
MODEL 5
REMARK VINA RESULT:    -4.297      2.491      6.959
REMARK INTER + INTRA:         -15.681
REMARK INTER:                 -10.931
REMARK INTRA:                  -4.749
REMARK UNBOUND:                -4.851
REMARK SMILES CCCCCCCCCCCCCCCCCCCCCCCCCCCC(=O)[O-]
REMARK SMILES IDX 15 1 16 2 17 3 18 4 19 5 20 6 21 7 22 8 23 9 24 10 25 11
REMARK SMILES IDX 26 12 27 13 28 14 29 15 30 16 14 17 13 18 12 19 11 20 10 21
REMARK SMILES IDX 9 22 8 23 7 24 6 25 5 26 4 27 3 28 2 29 1 30
REMARK H PARENT
REMARK Flexibility Score: inf
ROOT
ATOM      1  C   UNL     1      -1.290  10.376  -7.791  1.00  0.00     0.000 C 
ENDROOT
BRANCH   1   2
ATOM      2  C   UNL     1      -1.497  11.811  -8.305  1.00  0.00     0.000 C 
BRANCH   2   3
ATOM      3  C   UNL     1      -2.467  11.879  -9.493  1.00  0.00     0.000 C 
BRANCH   3   4
ATOM      4  C   UNL     1      -3.456  10.698  -9.516  1.00  0.00     0.000 C 
BRANCH   4   5
ATOM      5  C   UNL     1      -4.262  10.602 -10.827  1.00  0.00     0.000 C 
BRANCH   5   6
ATOM      6  C   UNL     1      -4.508   9.165 -11.324  1.00  0.00     0.000 C 
BRANCH   6   7
ATOM      7  C   UNL     1      -4.344   8.051 -10.275  1.00  0.00     0.000 C 
BRANCH   7   8
ATOM      8  C   UNL     1      -5.657   7.480  -9.703  1.00  0.00     0.000 C 
BRANCH   8   9
ATOM      9  C   UNL     1      -6.701   8.535  -9.297  1.00  0.00     0.000 C 
BRANCH   9  10
ATOM     10  C   UNL     1      -6.380   9.200  -7.948  1.00  0.00     0.000 C 
BRANCH  10  11
ATOM     11  C   UNL     1      -5.631   8.259  -6.986  1.00  0.00     0.000 C 
BRANCH  11  12
ATOM     12  C   UNL     1      -6.260   8.122  -5.584  1.00  0.00     0.006 C 
BRANCH  12  13
ATOM     13  C   UNL     1      -5.284   8.412  -4.430  1.00  0.00     0.053 C 
BRANCH  13  14
ATOM     14  C   UNL     1      -4.066   7.542  -4.478  1.00  0.00     0.041 C 
ATOM     15  O   UNL     1      -2.917   8.056  -4.469  1.00  0.00    -0.550 OA
ATOM     16  O   UNL     1      -4.197   6.160  -4.498  1.00  0.00    -0.550 OA
ENDBRANCH  13  14
ENDBRANCH  12  13
ENDBRANCH  11  12
ENDBRANCH  10  11
ENDBRANCH   9  10
ENDBRANCH   8   9
ENDBRANCH   7   8
ENDBRANCH   6   7
ENDBRANCH   5   6
ENDBRANCH   4   5
ENDBRANCH   3   4
ENDBRANCH   2   3
ENDBRANCH   1   2
BRANCH   1  17
ATOM     17  C   UNL     1       0.140   9.867  -8.025  1.00  0.00     0.000 C 
BRANCH  17  18
ATOM     18  C   UNL     1       1.128  11.005  -8.339  1.00  0.00     0.000 C 
BRANCH  18  19
ATOM     19  C   UNL     1       2.510  10.782  -7.686  1.00  0.00     0.000 C 
BRANCH  19  20
ATOM     20  C   UNL     1       2.680  11.504  -6.336  1.00  0.00     0.000 C 
BRANCH  20  21
ATOM     21  C   UNL     1       1.533  12.463  -5.973  1.00  0.00     0.000 C 
BRANCH  21  22
ATOM     22  C   UNL     1       1.084  12.319  -4.508  1.00  0.00    -0.000 C 
BRANCH  22  23
ATOM     23  C   UNL     1      -0.369  11.836  -4.374  1.00  0.00    -0.000 C 
BRANCH  23  24
ATOM     24  C   UNL     1      -1.380  12.831  -4.970  1.00  0.00    -0.000 C 
BRANCH  24  25
ATOM     25  C   UNL     1      -2.804  12.634  -4.416  1.00  0.00    -0.000 C 
BRANCH  25  26
ATOM     26  C   UNL     1      -3.583  11.457  -5.038  1.00  0.00    -0.000 C 
BRANCH  26  27
ATOM     27  C   UNL     1      -4.496  11.895  -6.198  1.00  0.00    -0.000 C 
BRANCH  27  28
ATOM     28  C   UNL     1      -5.950  12.123  -5.751  1.00  0.00    -0.000 C 
BRANCH  28  29
ATOM     29  C   UNL     1      -6.803  12.784  -6.843  1.00  0.00    -0.003 C 
ATOM     30  C   UNL     1      -6.029  12.902  -8.152  1.00  0.00     0.004 C 
ENDBRANCH  28  29
ENDBRANCH  27  28
ENDBRANCH  26  27
ENDBRANCH  25  26
ENDBRANCH  24  25
ENDBRANCH  23  24
ENDBRANCH  22  23
ENDBRANCH  21  22
ENDBRANCH  20  21
ENDBRANCH  19  20
ENDBRANCH  18  19
ENDBRANCH  17  18
ENDBRANCH   1  17
TORSDOF 26
ENDMDL
MODEL 6
REMARK VINA RESULT:    -4.234      6.429     10.100
REMARK INTER + INTRA:         -15.520
REMARK INTER:                 -13.738
REMARK INTRA:                  -1.782
REMARK UNBOUND:                -4.851
REMARK SMILES CCCCCCCCCCCCCCCCCCCCCCCCCCCC(=O)[O-]
REMARK SMILES IDX 15 1 16 2 17 3 18 4 19 5 20 6 21 7 22 8 23 9 24 10 25 11
REMARK SMILES IDX 26 12 27 13 28 14 29 15 30 16 14 17 13 18 12 19 11 20 10 21
REMARK SMILES IDX 9 22 8 23 7 24 6 25 5 26 4 27 3 28 2 29 1 30
REMARK H PARENT
REMARK Flexibility Score: inf
ROOT
ATOM      1  C   UNL     1      -6.032   4.713 -12.858  1.00  0.00     0.000 C 
ENDROOT
BRANCH   1   2
ATOM      2  C   UNL     1      -7.011   5.071 -11.727  1.00  0.00     0.000 C 
BRANCH   2   3
ATOM      3  C   UNL     1      -6.515   6.241 -10.864  1.00  0.00     0.000 C 
BRANCH   3   4
ATOM      4  C   UNL     1      -5.133   6.756 -11.307  1.00  0.00     0.000 C 
BRANCH   4   5
ATOM      5  C   UNL     1      -4.657   7.988 -10.513  1.00  0.00     0.000 C 
BRANCH   5   6
ATOM      6  C   UNL     1      -4.034   9.105 -11.373  1.00  0.00     0.000 C 
BRANCH   6   7
ATOM      7  C   UNL     1      -4.601  10.519 -11.155  1.00  0.00     0.000 C 
BRANCH   7   8
ATOM      8  C   UNL     1      -6.064  10.580 -10.671  1.00  0.00     0.000 C 
BRANCH   8   9
ATOM      9  C   UNL     1      -6.277  11.327  -9.343  1.00  0.00     0.000 C 
BRANCH   9  10
ATOM     10  C   UNL     1      -5.689  12.748  -9.359  1.00  0.00     0.000 C 
BRANCH  10  11
ATOM     11  C   UNL     1      -4.762  13.020  -8.160  1.00  0.00     0.000 C 
BRANCH  11  12
ATOM     12  C   UNL     1      -3.597  12.022  -7.996  1.00  0.00     0.006 C 
BRANCH  12  13
ATOM     13  C   UNL     1      -2.466  12.207  -9.023  1.00  0.00     0.053 C 
BRANCH  13  14
ATOM     14  C   UNL     1      -1.170  11.616  -8.560  1.00  0.00     0.041 C 
ATOM     15  O   UNL     1      -0.938  10.389  -8.717  1.00  0.00    -0.550 OA
ATOM     16  O   UNL     1      -0.201  12.427  -7.985  1.00  0.00    -0.550 OA
ENDBRANCH  13  14
ENDBRANCH  12  13
ENDBRANCH  11  12
ENDBRANCH  10  11
ENDBRANCH   9  10
ENDBRANCH   8   9
ENDBRANCH   7   8
ENDBRANCH   6   7
ENDBRANCH   5   6
ENDBRANCH   4   5
ENDBRANCH   3   4
ENDBRANCH   2   3
ENDBRANCH   1   2
BRANCH   1  17
ATOM     17  C   UNL     1      -6.706   3.931 -13.995  1.00  0.00     0.000 C 
BRANCH  17  18
ATOM     18  C   UNL     1      -5.717   3.530 -15.104  1.00  0.00     0.000 C 
BRANCH  18  19
ATOM     19  C   UNL     1      -4.977   2.213 -14.786  1.00  0.00     0.000 C 
BRANCH  19  20
ATOM     20  C   UNL     1      -5.776   0.949 -15.160  1.00  0.00     0.000 C 
BRANCH  20  21
ATOM     21  C   UNL     1      -5.311   0.255 -16.451  1.00  0.00     0.000 C 
BRANCH  21  22
ATOM     22  C   UNL     1      -6.468  -0.007 -17.431  1.00  0.00    -0.000 C 
BRANCH  22  23
ATOM     23  C   UNL     1      -6.897   1.255 -18.197  1.00  0.00    -0.000 C 
BRANCH  23  24
ATOM     24  C   UNL     1      -6.412   1.254 -19.657  1.00  0.00    -0.000 C 
BRANCH  24  25
ATOM     25  C   UNL     1      -6.726   2.573 -20.388  1.00  0.00    -0.000 C 
BRANCH  25  26
ATOM     26  C   UNL     1      -6.011   2.749 -21.742  1.00  0.00    -0.000 C 
BRANCH  26  27
ATOM     27  C   UNL     1      -5.263   4.092 -21.850  1.00  0.00    -0.000 C 
BRANCH  27  28
ATOM     28  C   UNL     1      -3.795   3.917 -22.274  1.00  0.00    -0.000 C 
BRANCH  28  29
ATOM     29  C   UNL     1      -2.827   4.689 -21.365  1.00  0.00    -0.003 C 
ATOM     30  C   UNL     1      -3.539   5.824 -20.638  1.00  0.00     0.004 C 
ENDBRANCH  28  29
ENDBRANCH  27  28
ENDBRANCH  26  27
ENDBRANCH  25  26
ENDBRANCH  24  25
ENDBRANCH  23  24
ENDBRANCH  22  23
ENDBRANCH  21  22
ENDBRANCH  20  21
ENDBRANCH  19  20
ENDBRANCH  18  19
ENDBRANCH  17  18
ENDBRANCH   1  17
TORSDOF 26
ENDMDL
MODEL 7
REMARK VINA RESULT:    -4.168      1.485      5.684
REMARK INTER + INTRA:         -15.354
REMARK INTER:                 -11.244
REMARK INTRA:                  -4.111
REMARK UNBOUND:                -4.851
REMARK SMILES CCCCCCCCCCCCCCCCCCCCCCCCCCCC(=O)[O-]
REMARK SMILES IDX 15 1 16 2 17 3 18 4 19 5 20 6 21 7 22 8 23 9 24 10 25 11
REMARK SMILES IDX 26 12 27 13 28 14 29 15 30 16 14 17 13 18 12 19 11 20 10 21
REMARK SMILES IDX 9 22 8 23 7 24 6 25 5 26 4 27 3 28 2 29 1 30
REMARK H PARENT
REMARK Flexibility Score: inf
ROOT
ATOM      1  C   UNL     1      -3.977   7.731 -10.892  1.00  0.00     0.000 C 
ENDROOT
BRANCH   1   2
ATOM      2  C   UNL     1      -5.385   7.278 -11.312  1.00  0.00     0.000 C 
BRANCH   2   3
ATOM      3  C   UNL     1      -6.435   7.518 -10.216  1.00  0.00     0.000 C 
BRANCH   3   4
ATOM      4  C   UNL     1      -5.888   7.237  -8.804  1.00  0.00     0.000 C 
BRANCH   4   5
ATOM      5  C   UNL     1      -6.046   8.429  -7.839  1.00  0.00     0.000 C 
BRANCH   5   6
ATOM      6  C   UNL     1      -5.541   8.167  -6.408  1.00  0.00     0.000 C 
BRANCH   6   7
ATOM      7  C   UNL     1      -5.695   9.332  -5.414  1.00  0.00     0.000 C 
BRANCH   7   8
ATOM      8  C   UNL     1      -5.099   9.093  -4.013  1.00  0.00     0.000 C 
BRANCH   8   9
ATOM      9  C   UNL     1      -3.606   9.435  -3.876  1.00  0.00     0.000 C 
BRANCH   9  10
ATOM     10  C   UNL     1      -3.151  10.520  -4.867  1.00  0.00     0.000 C 
BRANCH  10  11
ATOM     11  C   UNL     1      -2.737  11.827  -4.166  1.00  0.00     0.000 C 
BRANCH  11  12
ATOM     12  C   UNL     1      -1.541  12.561  -4.806  1.00  0.00     0.006 C 
BRANCH  12  13
ATOM     13  C   UNL     1      -0.168  12.075  -4.307  1.00  0.00     0.053 C 
BRANCH  13  14
ATOM     14  C   UNL     1       0.961  12.594  -5.142  1.00  0.00     0.041 C 
ATOM     15  O   UNL     1       0.913  13.756  -5.625  1.00  0.00    -0.550 OA
ATOM     16  O   UNL     1       2.084  11.809  -5.360  1.00  0.00    -0.550 OA
ENDBRANCH  13  14
ENDBRANCH  12  13
ENDBRANCH  11  12
ENDBRANCH  10  11
ENDBRANCH   9  10
ENDBRANCH   8   9
ENDBRANCH   7   8
ENDBRANCH   6   7
ENDBRANCH   5   6
ENDBRANCH   4   5
ENDBRANCH   3   4
ENDBRANCH   2   3
ENDBRANCH   1   2
BRANCH   1  17
ATOM     17  C   UNL     1      -3.649   9.153 -11.373  1.00  0.00     0.000 C 
BRANCH  17  18
ATOM     18  C   UNL     1      -4.235  10.238 -10.451  1.00  0.00     0.000 C 
BRANCH  18  19
ATOM     19  C   UNL     1      -5.471  10.929 -11.067  1.00  0.00     0.000 C 
BRANCH  19  20
ATOM     20  C   UNL     1      -6.456  11.483 -10.020  1.00  0.00     0.000 C 
BRANCH  20  21
ATOM     21  C   UNL     1      -6.015  12.800  -9.360  1.00  0.00     0.000 C 
BRANCH  21  22
ATOM     22  C   UNL     1      -5.656  12.624  -7.873  1.00  0.00    -0.000 C 
BRANCH  22  23
ATOM     23  C   UNL     1      -4.264  12.007  -7.666  1.00  0.00    -0.000 C 
BRANCH  23  24
ATOM     24  C   UNL     1      -3.126  13.000  -7.959  1.00  0.00    -0.000 C 
BRANCH  24  25
ATOM     25  C   UNL     1      -2.133  12.472  -9.011  1.00  0.00    -0.000 C 
BRANCH  25  26
ATOM     26  C   UNL     1      -0.803  11.943  -8.437  1.00  0.00    -0.000 C 
BRANCH  26  27
ATOM     27  C   UNL     1      -0.869  10.449  -8.064  1.00  0.00    -0.000 C 
BRANCH  27  28
ATOM     28  C   UNL     1       0.512   9.866  -7.720  1.00  0.00    -0.000 C 
BRANCH  28  29
ATOM     29  C   UNL     1       1.526  10.047  -8.859  1.00  0.00    -0.003 C 
ATOM     30  C   UNL     1       2.957  10.034  -8.330  1.00  0.00     0.004 C 
ENDBRANCH  28  29
ENDBRANCH  27  28
ENDBRANCH  26  27
ENDBRANCH  25  26
ENDBRANCH  24  25
ENDBRANCH  23  24
ENDBRANCH  22  23
ENDBRANCH  21  22
ENDBRANCH  20  21
ENDBRANCH  19  20
ENDBRANCH  18  19
ENDBRANCH  17  18
ENDBRANCH   1  17
TORSDOF 26
ENDMDL
MODEL 8
REMARK VINA RESULT:    -4.089      2.300      5.004
REMARK INTER + INTRA:         -15.156
REMARK INTER:                 -10.653
REMARK INTRA:                  -4.503
REMARK UNBOUND:                -4.851
REMARK SMILES CCCCCCCCCCCCCCCCCCCCCCCCCCCC(=O)[O-]
REMARK SMILES IDX 15 1 16 2 17 3 18 4 19 5 20 6 21 7 22 8 23 9 24 10 25 11
REMARK SMILES IDX 26 12 27 13 28 14 29 15 30 16 14 17 13 18 12 19 11 20 10 21
REMARK SMILES IDX 9 22 8 23 7 24 6 25 5 26 4 27 3 28 2 29 1 30
REMARK H PARENT
REMARK Flexibility Score: inf
ROOT
ATOM      1  C   UNL     1       0.068  13.075  -6.004  1.00  0.00     0.000 C 
ENDROOT
BRANCH   1   2
ATOM      2  C   UNL     1      -0.467  13.028  -4.563  1.00  0.00     0.000 C 
BRANCH   2   3
ATOM      3  C   UNL     1      -0.893  11.616  -4.136  1.00  0.00     0.000 C 
BRANCH   3   4
ATOM      4  C   UNL     1      -2.392  11.355  -4.375  1.00  0.00     0.000 C 
BRANCH   4   5
ATOM      5  C   UNL     1      -3.277  12.587  -4.098  1.00  0.00     0.000 C 
BRANCH   5   6
ATOM      6  C   UNL     1      -4.780  12.367  -4.354  1.00  0.00     0.000 C 
BRANCH   6   7
ATOM      7  C   UNL     1      -5.242  10.901  -4.441  1.00  0.00     0.000 C 
BRANCH   7   8
ATOM      8  C   UNL     1      -5.772  10.453  -5.818  1.00  0.00     0.000 C 
BRANCH   8   9
ATOM      9  C   UNL     1      -4.871   9.458  -6.568  1.00  0.00     0.000 C 
BRANCH   9  10
ATOM     10  C   UNL     1      -5.509   8.065  -6.705  1.00  0.00     0.000 C 
BRANCH  10  11
ATOM     11  C   UNL     1      -5.733   7.378  -5.345  1.00  0.00     0.000 C 
BRANCH  11  12
ATOM     12  C   UNL     1      -4.483   7.284  -4.447  1.00  0.00     0.006 C 
BRANCH  12  13
ATOM     13  C   UNL     1      -3.850   5.881  -4.402  1.00  0.00     0.053 C 
BRANCH  13  14
ATOM     14  C   UNL     1      -2.353   5.929  -4.413  1.00  0.00     0.041 C 
ATOM     15  O   UNL     1      -1.743   6.891  -3.876  1.00  0.00    -0.550 OA
ATOM     16  O   UNL     1      -1.627   4.893  -4.985  1.00  0.00    -0.550 OA
ENDBRANCH  13  14
ENDBRANCH  12  13
ENDBRANCH  11  12
ENDBRANCH  10  11
ENDBRANCH   9  10
ENDBRANCH   8   9
ENDBRANCH   7   8
ENDBRANCH   6   7
ENDBRANCH   5   6
ENDBRANCH   4   5
ENDBRANCH   3   4
ENDBRANCH   2   3
ENDBRANCH   1   2
BRANCH   1  17
ATOM     17  C   UNL     1       1.217  12.084  -6.239  1.00  0.00     0.000 C 
BRANCH  17  18
ATOM     18  C   UNL     1       0.932  11.112  -7.399  1.00  0.00     0.000 C 
BRANCH  18  19
ATOM     19  C   UNL     1      -0.541  10.650  -7.431  1.00  0.00     0.000 C 
BRANCH  19  20
ATOM     20  C   UNL     1      -1.094  10.447  -8.855  1.00  0.00     0.000 C 
BRANCH  20  21
ATOM     21  C   UNL     1      -2.298  11.337  -9.207  1.00  0.00     0.000 C 
BRANCH  21  22
ATOM     22  C   UNL     1      -2.679  12.295  -8.065  1.00  0.00    -0.000 C 
BRANCH  22  23
ATOM     23  C   UNL     1      -4.165  12.687  -8.086  1.00  0.00    -0.000 C 
BRANCH  23  24
ATOM     24  C   UNL     1      -4.772  12.628  -9.499  1.00  0.00    -0.000 C 
BRANCH  24  25
ATOM     25  C   UNL     1      -6.139  11.918  -9.528  1.00  0.00    -0.000 C 
BRANCH  25  26
ATOM     26  C   UNL     1      -6.327  10.923 -10.691  1.00  0.00    -0.000 C 
BRANCH  26  27
ATOM     27  C   UNL     1      -6.056   9.465 -10.276  1.00  0.00    -0.000 C 
BRANCH  27  28
ATOM     28  C   UNL     1      -4.606   9.033 -10.549  1.00  0.00    -0.000 C 
BRANCH  28  29
ATOM     29  C   UNL     1      -4.424   7.509 -10.482  1.00  0.00    -0.003 C 
ATOM     30  C   UNL     1      -5.286   6.805 -11.526  1.00  0.00     0.004 C 
ENDBRANCH  28  29
ENDBRANCH  27  28
ENDBRANCH  26  27
ENDBRANCH  25  26
ENDBRANCH  24  25
ENDBRANCH  23  24
ENDBRANCH  22  23
ENDBRANCH  21  22
ENDBRANCH  20  21
ENDBRANCH  19  20
ENDBRANCH  18  19
ENDBRANCH  17  18
ENDBRANCH   1  17
TORSDOF 26
ENDMDL
MODEL 9
REMARK VINA RESULT:    -3.994      2.717      6.701
REMARK INTER + INTRA:         -14.916
REMARK INTER:                 -11.434
REMARK INTRA:                  -3.483
REMARK UNBOUND:                -4.851
REMARK SMILES CCCCCCCCCCCCCCCCCCCCCCCCCCCC(=O)[O-]
REMARK SMILES IDX 15 1 16 2 17 3 18 4 19 5 20 6 21 7 22 8 23 9 24 10 25 11
REMARK SMILES IDX 26 12 27 13 28 14 29 15 30 16 14 17 13 18 12 19 11 20 10 21
REMARK SMILES IDX 9 22 8 23 7 24 6 25 5 26 4 27 3 28 2 29 1 30
REMARK H PARENT
REMARK Flexibility Score: inf
ROOT
ATOM      1  C   UNL     1      -3.150   9.898  -4.784  1.00  0.00     0.000 C 
ENDROOT
BRANCH   1   2
ATOM      2  C   UNL     1      -2.499  10.182  -6.148  1.00  0.00     0.000 C 
BRANCH   2   3
ATOM      3  C   UNL     1      -3.441   9.888  -7.325  1.00  0.00     0.000 C 
BRANCH   3   4
ATOM      4  C   UNL     1      -2.891  10.411  -8.666  1.00  0.00     0.000 C 
BRANCH   4   5
ATOM      5  C   UNL     1      -2.567  11.918  -8.645  1.00  0.00     0.000 C 
BRANCH   5   6
ATOM      6  C   UNL     1      -3.771  12.829  -8.334  1.00  0.00     0.000 C 
BRANCH   6   7
ATOM      7  C   UNL     1      -4.868  12.887  -9.412  1.00  0.00     0.000 C 
BRANCH   7   8
ATOM      8  C   UNL     1      -6.182  12.159  -9.061  1.00  0.00     0.000 C 
BRANCH   8   9
ATOM      9  C   UNL     1      -6.977  11.638 -10.270  1.00  0.00     0.000 C 
BRANCH   9  10
ATOM     10  C   UNL     1      -6.739  10.143 -10.540  1.00  0.00     0.000 C 
BRANCH  10  11
ATOM     11  C   UNL     1      -7.026   9.265  -9.307  1.00  0.00     0.000 C 
BRANCH  11  12
ATOM     12  C   UNL     1      -6.057   8.082  -9.108  1.00  0.00     0.006 C 
BRANCH  12  13
ATOM     13  C   UNL     1      -6.211   6.964 -10.155  1.00  0.00     0.053 C 
BRANCH  13  14
ATOM     14  C   UNL     1      -5.072   6.929 -11.127  1.00  0.00     0.041 C 
ATOM     15  O   UNL     1      -4.022   7.587 -10.901  1.00  0.00    -0.550 OA
ATOM     16  O   UNL     1      -5.153   6.143 -12.267  1.00  0.00    -0.550 OA
ENDBRANCH  13  14
ENDBRANCH  12  13
ENDBRANCH  11  12
ENDBRANCH  10  11
ENDBRANCH   9  10
ENDBRANCH   8   9
ENDBRANCH   7   8
ENDBRANCH   6   7
ENDBRANCH   5   6
ENDBRANCH   4   5
ENDBRANCH   3   4
ENDBRANCH   2   3
ENDBRANCH   1   2
BRANCH   1  17
ATOM     17  C   UNL     1      -3.353  11.173  -3.952  1.00  0.00     0.000 C 
BRANCH  17  18
ATOM     18  C   UNL     1      -2.889  12.442  -4.691  1.00  0.00     0.000 C 
BRANCH  18  19
ATOM     19  C   UNL     1      -1.671  13.106  -4.013  1.00  0.00     0.000 C 
BRANCH  19  20
ATOM     20  C   UNL     1      -1.798  14.635  -3.875  1.00  0.00     0.000 C 
BRANCH  20  21
ATOM     21  C   UNL     1      -0.611  15.431  -4.444  1.00  0.00     0.000 C 
BRANCH  21  22
ATOM     22  C   UNL     1       0.742  14.952  -3.887  1.00  0.00    -0.000 C 
BRANCH  22  23
ATOM     23  C   UNL     1       1.703  14.474  -4.988  1.00  0.00    -0.000 C 
BRANCH  23  24
ATOM     24  C   UNL     1       1.607  12.959  -5.240  1.00  0.00    -0.000 C 
BRANCH  24  25
ATOM     25  C   UNL     1       0.802  12.618  -6.508  1.00  0.00    -0.000 C 
BRANCH  25  26
ATOM     26  C   UNL     1       0.784  11.122  -6.881  1.00  0.00    -0.000 C 
BRANCH  26  27
ATOM     27  C   UNL     1       0.895  10.886  -8.399  1.00  0.00    -0.000 C 
BRANCH  27  28
ATOM     28  C   UNL     1       1.794   9.689  -8.746  1.00  0.00    -0.000 C 
BRANCH  28  29
ATOM     29  C   UNL     1       3.266  10.091  -8.920  1.00  0.00    -0.003 C 
ATOM     30  C   UNL     1       3.823   9.583 -10.246  1.00  0.00     0.004 C 
ENDBRANCH  28  29
ENDBRANCH  27  28
ENDBRANCH  26  27
ENDBRANCH  25  26
ENDBRANCH  24  25
ENDBRANCH  23  24
ENDBRANCH  22  23
ENDBRANCH  21  22
ENDBRANCH  20  21
ENDBRANCH  19  20
ENDBRANCH  18  19
ENDBRANCH  17  18
ENDBRANCH   1  17
TORSDOF 26
ENDMDL
