MODEL 1
REMARK VINA RESULT:     1.565      0.000      0.000
REMARK INTER + INTRA:           1.682
REMARK INTER:                   1.702
REMARK INTRA:                  -0.020
REMARK UNBOUND:                -0.020
REMARK SMILES C[C@H]1[C@H](C)CC[C@@]2(C(=O)[O-])CC[C@]3(C)C(=CC[C@H]4[C@]5(C)CC[C@H](O)C(C)(C)[C@H]5CC[C@]43C)[C@@H]12
REMARK SMILES IDX 7 1 6 2 11 3 33 4 5 5 12 6 15 7 2 8 3 9 13 10 16 11 1 12
REMARK SMILES IDX 4 13 14 14 31 15 17 16 18 17 30 18 32 19 19 20 29 21 28 22
REMARK SMILES IDX 21 23 20 24 25 25 22 26 23 27 26 28 27 29 8 30 9 31 10 32
REMARK SMILES IDX 24 33
REMARK H PARENT 24 34
REMARK Flexibility Score: inf
ROOT
ATOM      1  C   UNL     1     128.759 -40.741  29.741  1.00  0.00     0.017 C 
ATOM      2  C   UNL     1     128.970 -39.361  30.420  1.00  0.00     0.014 C 
ATOM      3  C   UNL     1     128.880 -40.582  28.186  1.00  0.00     0.014 C 
ATOM      4  C   UNL     1     129.807 -41.754  30.336  1.00  0.00     0.030 C 
ATOM      5  C   UNL     1     128.767 -39.430  31.942  1.00  0.00     0.004 C 
ATOM      6  C   UNL     1     130.314 -40.556  27.595  1.00  0.00     0.013 C 
ATOM      7  C   UNL     1     131.173 -41.527  29.661  1.00  0.00    -0.063 C 
ATOM      8  C   UNL     1     129.739 -41.807  31.906  1.00  0.00    -0.003 C 
ATOM      9  C   UNL     1     129.739 -40.414  32.618  1.00  0.00    -0.011 C 
ATOM     10  C   UNL     1     131.233 -41.695  28.140  1.00  0.00    -0.006 C 
ATOM     11  C   UNL     1     132.135 -40.797  30.255  1.00  0.00    -0.027 C 
ATOM     12  C   UNL     1     130.764 -42.793  32.506  1.00  0.00     0.008 C 
ATOM     13  C   UNL     1     129.375 -40.548  34.108  1.00  0.00     0.008 C 
ATOM     14  C   UNL     1     130.614 -43.073  27.707  1.00  0.00     0.017 C 
ATOM     15  C   UNL     1     132.774 -41.638  27.640  1.00  0.00    -0.020 C 
ATOM     16  C   UNL     1     132.963 -39.809  29.488  1.00  0.00     0.032 C 
ATOM     17  C   UNL     1     133.514 -40.308  28.102  1.00  0.00     0.006 C 
ATOM     18  C   UNL     1     133.531 -42.903  28.235  1.00  0.00     0.008 C 
ATOM     19  C   UNL     1     132.793 -41.700  26.065  1.00  0.00     0.012 C 
ATOM     20  C   UNL     1     135.138 -40.290  27.909  1.00  0.00    -0.025 C 
ATOM     21  C   UNL     1     135.019 -42.737  28.585  1.00  0.00     0.005 C 
ATOM     22  C   UNL     1     135.685 -41.739  27.637  1.00  0.00     0.003 C 
ATOM     23  C   UNL     1     135.538 -39.392  26.678  1.00  0.00     0.010 C 
ATOM     24  C   UNL     1     135.840 -39.659  29.153  1.00  0.00     0.012 C 
ATOM     25  C   UNL     1     137.244 -41.898  27.407  1.00  0.00    -0.006 C 
ATOM     26  C   UNL     1     136.780 -39.865  25.875  1.00  0.00     0.033 C 
ATOM     27  C   UNL     1     137.835 -40.604  26.722  1.00  0.00     0.120 C 
ATOM     28  C   UNL     1     138.013 -42.193  28.718  1.00  0.00     0.014 C 
ATOM     29  C   UNL     1     137.479 -43.125  26.469  1.00  0.00     0.014 C 
ENDROOT
BRANCH   1  30
ATOM     30  C   UNL     1     127.335 -41.231  29.996  1.00  0.00     0.048 C 
ATOM     31  O   UNL     1     126.375 -40.416  30.019  1.00  0.00    -0.550 OA
ATOM     32  O   UNL     1     127.054 -42.592  30.071  1.00  0.00    -0.550 OA
ENDBRANCH   1  30
BRANCH  27  33
ATOM     33  O   UNL     1     138.937 -40.923  25.903  1.00  0.00    -0.393 OA
ATOM     34  H   UNL     1     139.758 -40.828  26.453  1.00  0.00     0.210 HD
ENDBRANCH  27  33
TORSDOF 2
ENDMDL
MODEL 2
REMARK VINA RESULT:     4.344      1.861      4.251
REMARK INTER + INTRA:           4.705
REMARK INTER:                   4.624
REMARK INTRA:                   0.081
REMARK UNBOUND:                -0.020
REMARK SMILES C[C@H]1[C@H](C)CC[C@@]2(C(=O)[O-])CC[C@]3(C)C(=CC[C@H]4[C@]5(C)CC[C@H](O)C(C)(C)[C@H]5CC[C@]43C)[C@@H]12
REMARK SMILES IDX 7 1 6 2 11 3 33 4 5 5 12 6 15 7 2 8 3 9 13 10 16 11 1 12
REMARK SMILES IDX 4 13 14 14 31 15 17 16 18 17 30 18 32 19 19 20 29 21 28 22
REMARK SMILES IDX 21 23 20 24 25 25 22 26 23 27 26 28 27 29 8 30 9 31 10 32
REMARK SMILES IDX 24 33
REMARK H PARENT 24 34
REMARK Flexibility Score: inf
ROOT
ATOM      1  C   UNL     1     127.658 -41.596  32.735  1.00  0.00     0.017 C 
ATOM      2  C   UNL     1     127.302 -43.050  32.325  1.00  0.00     0.014 C 
ATOM      3  C   UNL     1     128.967 -41.601  33.596  1.00  0.00     0.014 C 
ATOM      4  C   UNL     1     127.788 -40.728  31.429  1.00  0.00     0.030 C 
ATOM      5  C   UNL     1     125.972 -43.125  31.559  1.00  0.00     0.004 C 
ATOM      6  C   UNL     1     130.311 -41.669  32.826  1.00  0.00     0.013 C 
ATOM      7  C   UNL     1     129.164 -40.981  30.785  1.00  0.00    -0.063 C 
ATOM      8  C   UNL     1     126.503 -40.833  30.529  1.00  0.00    -0.003 C 
ATOM      9  C   UNL     1     125.993 -42.289  30.267  1.00  0.00    -0.011 C 
ATOM     10  C   UNL     1     130.398 -40.662  31.635  1.00  0.00    -0.006 C 
ATOM     11  C   UNL     1     129.311 -41.836  29.756  1.00  0.00    -0.027 C 
ATOM     12  C   UNL     1     126.616 -39.991  29.240  1.00  0.00     0.008 C 
ATOM     13  C   UNL     1     124.587 -42.284  29.639  1.00  0.00     0.008 C 
ATOM     14  C   UNL     1     130.310 -39.205  32.219  1.00  0.00     0.017 C 
ATOM     15  C   UNL     1     131.737 -40.778  30.728  1.00  0.00    -0.020 C 
ATOM     16  C   UNL     1     130.460 -42.796  29.684  1.00  0.00     0.032 C 
ATOM     17  C   UNL     1     131.874 -42.198  30.026  1.00  0.00     0.006 C 
ATOM     18  C   UNL     1     131.680 -39.639  29.620  1.00  0.00     0.008 C 
ATOM     19  C   UNL     1     132.991 -40.555  31.656  1.00  0.00     0.012 C 
ATOM     20  C   UNL     1     133.019 -42.312  28.864  1.00  0.00    -0.025 C 
ATOM     21  C   UNL     1     132.319 -39.947  28.256  1.00  0.00     0.005 C 
ATOM     22  C   UNL     1     133.514 -40.887  28.422  1.00  0.00     0.003 C 
ATOM     23  C   UNL     1     134.272 -43.106  29.398  1.00  0.00     0.010 C 
ATOM     24  C   UNL     1     132.488 -43.118  27.636  1.00  0.00     0.012 C 
ATOM     25  C   UNL     1     134.642 -40.817  27.313  1.00  0.00    -0.006 C 
ATOM     26  C   UNL     1     135.647 -42.642  28.847  1.00  0.00     0.033 C 
ATOM     27  C   UNL     1     135.593 -42.073  27.415  1.00  0.00     0.120 C 
ATOM     28  C   UNL     1     134.063 -40.716  25.880  1.00  0.00     0.014 C 
ATOM     29  C   UNL     1     135.480 -39.520  27.546  1.00  0.00     0.014 C 
ENDROOT
BRANCH   1  30
ATOM     30  C   UNL     1     126.567 -41.034  33.646  1.00  0.00     0.048 C 
ATOM     31  O   UNL     1     126.042 -39.916  33.396  1.00  0.00    -0.550 OA
ATOM     32  O   UNL     1     126.041 -41.801  34.681  1.00  0.00    -0.550 OA
ENDBRANCH   1  30
BRANCH  27  33
ATOM     33  O   UNL     1     136.901 -41.751  27.002  1.00  0.00    -0.393 OA
ATOM     34  H   UNL     1     137.041 -42.152  26.105  1.00  0.00     0.210 HD
ENDBRANCH  27  33
TORSDOF 2
ENDMDL
