MODEL 1
REMARK VINA RESULT:    -4.528      0.000      0.000
REMARK INTER + INTRA:          -4.661
REMARK INTER:                  -4.661
REMARK INTRA:                   0.000
REMARK UNBOUND:                 0.000
REMARK SMILES O=c1ccc2ccc(O)cc2o1
REMARK SMILES IDX 6 1 7 2 8 3 10 4 11 5 5 6 4 7 3 8 2 9 1 10 12 11 9 12
REMARK H PARENT 9 13
REMARK Flexibility Score: inf
ROOT
ATOM      1  C   UNL     1      -0.075  26.107  30.100  1.00  0.00     0.016 A 
ATOM      2  C   UNL     1      -0.088  26.691  28.829  1.00  0.00     0.047 A 
ATOM      3  C   UNL     1      -0.111  28.085  28.690  1.00  0.00     0.119 A 
ATOM      4  C   UNL     1      -0.119  28.901  29.832  1.00  0.00     0.094 A 
ATOM      5  C   UNL     1      -0.105  28.326  31.107  1.00  0.00     0.142 A 
ATOM      6  C   UNL     1      -0.083  26.920  31.242  1.00  0.00     0.018 A 
ATOM      7  C   UNL     1      -0.070  26.375  32.530  1.00  0.00     0.019 A 
ATOM      8  C   UNL     1      -0.079  27.225  33.634  1.00  0.00     0.094 A 
ATOM      9  C   UNL     1      -0.101  28.609  33.424  1.00  0.00     0.336 A 
ATOM     10  O   UNL     1      -0.110  29.394  34.408  1.00  0.00    -0.246 OA
ATOM     11  O   UNL     1      -0.113  29.102  32.188  1.00  0.00    -0.423 OA
ENDROOT
BRANCH   3  12
ATOM     12  O   UNL     1      -0.124  28.648  27.416  1.00  0.00    -0.508 OA
ATOM     13  H   UNL     1       0.230  29.581  27.247  1.00  0.00     0.293 HD
ENDBRANCH   3  12
TORSDOF 1
ENDMDL
MODEL 2
REMARK VINA RESULT:    -4.371      0.737      4.236
REMARK INTER + INTRA:          -4.499
REMARK INTER:                  -4.499
REMARK INTRA:                   0.000
REMARK UNBOUND:                 0.000
REMARK SMILES O=c1ccc2ccc(O)cc2o1
REMARK SMILES IDX 6 1 7 2 8 3 10 4 11 5 5 6 4 7 3 8 2 9 1 10 12 11 9 12
REMARK H PARENT 9 13
REMARK Flexibility Score: inf
ROOT
ATOM      1  C   UNL     1      -0.106  26.225  32.686  1.00  0.00     0.016 A 
ATOM      2  C   UNL     1      -0.112  26.971  33.868  1.00  0.00     0.047 A 
ATOM      3  C   UNL     1      -0.120  28.371  33.823  1.00  0.00     0.119 A 
ATOM      4  C   UNL     1      -0.122  29.030  32.584  1.00  0.00     0.094 A 
ATOM      5  C   UNL     1      -0.117  28.292  31.396  1.00  0.00     0.142 A 
ATOM      6  C   UNL     1      -0.109  26.880  31.446  1.00  0.00     0.018 A 
ATOM      7  C   UNL     1      -0.104  26.171  30.242  1.00  0.00     0.019 A 
ATOM      8  C   UNL     1      -0.106  26.869  29.035  1.00  0.00     0.094 A 
ATOM      9  C   UNL     1      -0.114  28.268  29.062  1.00  0.00     0.336 A 
ATOM     10  O   UNL     1      -0.117  28.917  27.983  1.00  0.00    -0.246 OA
ATOM     11  O   UNL     1      -0.119  28.920  30.222  1.00  0.00    -0.423 OA
ENDROOT
BRANCH   3  12
ATOM     12  O   UNL     1      -0.125  29.097  35.012  1.00  0.00    -0.508 OA
ATOM     13  H   UNL     1      -0.603  29.987  35.086  1.00  0.00     0.293 HD
ENDBRANCH   3  12
TORSDOF 1
ENDMDL
MODEL 3
REMARK VINA RESULT:    -4.065      1.735      4.804
REMARK INTER + INTRA:          -4.183
REMARK INTER:                  -4.183
REMARK INTRA:                   0.000
REMARK UNBOUND:                 0.000
REMARK SMILES O=c1ccc2ccc(O)cc2o1
REMARK SMILES IDX 6 1 7 2 8 3 10 4 11 5 5 6 4 7 3 8 2 9 1 10 12 11 9 12
REMARK H PARENT 9 13
REMARK Flexibility Score: inf
ROOT
ATOM      1  C   UNL     1       0.780  28.744  32.799  1.00  0.00     0.016 A 
ATOM      2  C   UNL     1       0.550  28.054  33.994  1.00  0.00     0.047 A 
ATOM      3  C   UNL     1       0.099  26.729  33.971  1.00  0.00     0.119 A 
ATOM      4  C   UNL     1      -0.123  26.087  32.743  1.00  0.00     0.094 A 
ATOM      5  C   UNL     1       0.105  26.768  31.543  1.00  0.00     0.142 A 
ATOM      6  C   UNL     1       0.560  28.105  31.570  1.00  0.00     0.018 A 
ATOM      7  C   UNL     1       0.779  28.760  30.355  1.00  0.00     0.019 A 
ATOM      8  C   UNL     1       0.544  28.082  29.159  1.00  0.00     0.094 A 
ATOM      9  C   UNL     1       0.094  26.758  29.209  1.00  0.00     0.336 A 
ATOM     10  O   UNL     1      -0.124  26.128  28.141  1.00  0.00    -0.246 OA
ATOM     11  O   UNL     1      -0.107  26.157  30.380  1.00  0.00    -0.423 OA
ENDROOT
BRANCH   3  12
ATOM     12  O   UNL     1      -0.125  26.059  35.172  1.00  0.00    -0.508 OA
ATOM     13  H   UNL     1       0.640  25.790  35.778  1.00  0.00     0.293 HD
ENDBRANCH   3  12
TORSDOF 1
ENDMDL
MODEL 4
REMARK VINA RESULT:    -3.760      1.503      2.230
REMARK INTER + INTRA:          -3.870
REMARK INTER:                  -3.870
REMARK INTRA:                   0.000
REMARK UNBOUND:                 0.000
REMARK SMILES O=c1ccc2ccc(O)cc2o1
REMARK SMILES IDX 6 1 7 2 8 3 10 4 11 5 5 6 4 7 3 8 2 9 1 10 12 11 9 12
REMARK H PARENT 9 13
REMARK Flexibility Score: inf
ROOT
ATOM      1  C   UNL     1      -0.116  29.123  30.161  1.00  0.00     0.016 A 
ATOM      2  C   UNL     1      -0.123  28.493  28.913  1.00  0.00     0.047 A 
ATOM      3  C   UNL     1      -0.117  27.095  28.825  1.00  0.00     0.119 A 
ATOM      4  C   UNL     1      -0.105  26.322  29.996  1.00  0.00     0.094 A 
ATOM      5  C   UNL     1      -0.099  26.943  31.249  1.00  0.00     0.142 A 
ATOM      6  C   UNL     1      -0.105  28.354  31.333  1.00  0.00     0.018 A 
ATOM      7  C   UNL     1      -0.099  28.946  32.599  1.00  0.00     0.019 A 
ATOM      8  C   UNL     1      -0.087  28.137  33.734  1.00  0.00     0.094 A 
ATOM      9  C   UNL     1      -0.082  26.747  33.575  1.00  0.00     0.336 A 
ATOM     10  O   UNL     1      -0.071  25.998  34.587  1.00  0.00    -0.246 OA
ATOM     11  O   UNL     1      -0.088  26.208  32.358  1.00  0.00    -0.423 OA
ENDROOT
BRANCH   3  12
ATOM     12  O   UNL     1      -0.123  26.485  27.573  1.00  0.00    -0.508 OA
ATOM     13  H   UNL     1       0.695  26.007  27.213  1.00  0.00     0.293 HD
ENDBRANCH   3  12
TORSDOF 1
ENDMDL
MODEL 5
REMARK VINA RESULT:    -1.749      1.954      2.732
REMARK INTER + INTRA:          -1.800
REMARK INTER:                  -1.800
REMARK INTRA:                   0.000
REMARK UNBOUND:                 0.000
REMARK SMILES O=c1ccc2ccc(O)cc2o1
REMARK SMILES IDX 6 1 7 2 8 3 10 4 11 5 5 6 4 7 3 8 2 9 1 10 12 11 9 12
REMARK H PARENT 9 13
REMARK Flexibility Score: inf
ROOT
ATOM      1  C   UNL     1      -0.112  27.219  28.546  1.00  0.00     0.016 A 
ATOM      2  C   UNL     1      -0.116  25.900  28.082  1.00  0.00     0.047 A 
ATOM      3  C   UNL     1      -0.118  24.831  28.988  1.00  0.00     0.119 A 
ATOM      4  C   UNL     1      -0.118  25.085  30.368  1.00  0.00     0.094 A 
ATOM      5  C   UNL     1      -0.116  26.401  30.841  1.00  0.00     0.142 A 
ATOM      6  C   UNL     1      -0.113  27.476  29.924  1.00  0.00     0.018 A 
ATOM      7  C   UNL     1      -0.110  28.781  30.427  1.00  0.00     0.019 A 
ATOM      8  C   UNL     1      -0.110  28.983  31.806  1.00  0.00     0.094 A 
ATOM      9  C   UNL     1      -0.113  27.871  32.654  1.00  0.00     0.336 A 
ATOM     10  O   UNL     1      -0.113  28.032  33.903  1.00  0.00    -0.246 OA
ATOM     11  O   UNL     1      -0.116  26.639  32.150  1.00  0.00    -0.423 OA
ENDROOT
BRANCH   3  12
ATOM     12  O   UNL     1      -0.121  23.524  28.507  1.00  0.00    -0.508 OA
ATOM     13  H   UNL     1      -0.753  22.825  28.879  1.00  0.00     0.293 HD
ENDBRANCH   3  12
TORSDOF 1
ENDMDL
