MODEL 1
REMARK VINA RESULT:    -6.148      0.000      0.000
REMARK INTER + INTRA:          -6.733
REMARK INTER:                  -6.687
REMARK INTRA:                  -0.046
REMARK UNBOUND:                -0.046
REMARK SMILES COc1cc2ccc(=O)oc2cc1O
REMARK SMILES IDX 3 1 13 2 12 3 11 4 5 5 4 6 6 7 7 8 8 9 9 10 10 11 2 12 1 13
REMARK SMILES IDX 14 14
REMARK H PARENT 14 15
REMARK Flexibility Score: inf
ROOT
ATOM      1  C   UNL     1     -33.619  10.747 -39.094  1.00  0.00     0.161 A 
ATOM      2  C   UNL     1     -33.985  12.085 -38.844  1.00  0.00     0.161 A 
ATOM      3  C   UNL     1     -33.797  12.642 -37.575  1.00  0.00     0.098 A 
ATOM      4  C   UNL     1     -33.246  11.880 -36.542  1.00  0.00     0.142 A 
ATOM      5  C   UNL     1     -32.875  10.540 -36.782  1.00  0.00     0.022 A 
ATOM      6  C   UNL     1     -33.063   9.977 -38.052  1.00  0.00     0.062 A 
ATOM      7  C   UNL     1     -32.325   9.803 -35.728  1.00  0.00     0.019 A 
ATOM      8  C   UNL     1     -32.159  10.407 -34.483  1.00  0.00     0.094 A 
ATOM      9  C   UNL     1     -32.549  11.741 -34.319  1.00  0.00     0.336 A 
ATOM     10  O   UNL     1     -32.408  12.305 -33.203  1.00  0.00    -0.246 OA
ATOM     11  O   UNL     1     -33.070  12.419 -35.338  1.00  0.00    -0.423 OA
ENDROOT
BRANCH   1  12
ATOM     12  O   UNL     1     -33.822  10.218 -40.379  1.00  0.00    -0.493 OA
ATOM     13  C   UNL     1     -33.033   9.188 -40.963  1.00  0.00     0.278 C 
ENDBRANCH   1  12
BRANCH   2  14
ATOM     14  O   UNL     1     -34.540  12.877 -39.849  1.00  0.00    -0.504 OA
ATOM     15  H   UNL     1     -34.841  12.492 -40.737  1.00  0.00     0.293 HD
ENDBRANCH   2  14
TORSDOF 2
ENDMDL
MODEL 2
REMARK VINA RESULT:    -5.911      1.353      5.397
REMARK INTER + INTRA:          -6.475
REMARK INTER:                  -6.509
REMARK INTRA:                   0.034
REMARK UNBOUND:                -0.046
REMARK SMILES COc1cc2ccc(=O)oc2cc1O
REMARK SMILES IDX 3 1 13 2 12 3 11 4 5 5 4 6 6 7 7 8 8 9 9 10 10 11 2 12 1 13
REMARK SMILES IDX 14 14
REMARK H PARENT 14 15
REMARK Flexibility Score: inf
ROOT
ATOM      1  C   UNL     1     -33.243  12.006 -34.797  1.00  0.00     0.161 A 
ATOM      2  C   UNL     1     -32.879  10.644 -34.792  1.00  0.00     0.161 A 
ATOM      3  C   UNL     1     -32.877   9.911 -35.984  1.00  0.00     0.098 A 
ATOM      4  C   UNL     1     -33.235  10.518 -37.189  1.00  0.00     0.142 A 
ATOM      5  C   UNL     1     -33.600  11.882 -37.205  1.00  0.00     0.022 A 
ATOM      6  C   UNL     1     -33.604  12.620 -36.014  1.00  0.00     0.062 A 
ATOM      7  C   UNL     1     -33.953  12.462 -38.428  1.00  0.00     0.019 A 
ATOM      8  C   UNL     1     -33.933  11.686 -39.586  1.00  0.00     0.094 A 
ATOM      9  C   UNL     1     -33.560  10.340 -39.494  1.00  0.00     0.336 A 
ATOM     10  O   UNL     1     -33.537   9.622 -40.527  1.00  0.00    -0.246 OA
ATOM     11  O   UNL     1     -33.230   9.813 -38.318  1.00  0.00    -0.423 OA
ENDROOT
BRANCH   1  12
ATOM     12  O   UNL     1     -33.234  12.712 -33.584  1.00  0.00    -0.493 OA
ATOM     13  C   UNL     1     -32.060  13.171 -32.924  1.00  0.00     0.278 C 
ENDBRANCH   1  12
BRANCH   2  14
ATOM     14  O   UNL     1     -32.516  10.001 -33.609  1.00  0.00    -0.504 OA
ATOM     15  H   UNL     1     -31.551   9.795 -33.380  1.00  0.00     0.293 HD
ENDBRANCH   2  14
TORSDOF 2
ENDMDL
MODEL 3
REMARK VINA RESULT:    -5.518      1.554      5.031
REMARK INTER + INTRA:          -6.047
REMARK INTER:                  -6.208
REMARK INTRA:                   0.161
REMARK UNBOUND:                -0.046
REMARK SMILES COc1cc2ccc(=O)oc2cc1O
REMARK SMILES IDX 3 1 13 2 12 3 11 4 5 5 4 6 6 7 7 8 8 9 9 10 10 11 2 12 1 13
REMARK SMILES IDX 14 14
REMARK H PARENT 14 15
REMARK Flexibility Score: inf
ROOT
ATOM      1  C   UNL     1     -32.461  11.289 -34.341  1.00  0.00     0.161 A 
ATOM      2  C   UNL     1     -33.638  11.823 -34.903  1.00  0.00     0.161 A 
ATOM      3  C   UNL     1     -33.991  11.516 -36.222  1.00  0.00     0.098 A 
ATOM      4  C   UNL     1     -33.182  10.679 -36.994  1.00  0.00     0.142 A 
ATOM      5  C   UNL     1     -32.002  10.139 -36.439  1.00  0.00     0.022 A 
ATOM      6  C   UNL     1     -31.645  10.445 -35.119  1.00  0.00     0.062 A 
ATOM      7  C   UNL     1     -31.213   9.304 -37.237  1.00  0.00     0.019 A 
ATOM      8  C   UNL     1     -31.611   9.030 -38.545  1.00  0.00     0.094 A 
ATOM      9  C   UNL     1     -32.794   9.600 -39.028  1.00  0.00     0.336 A 
ATOM     10  O   UNL     1     -33.171   9.366 -40.205  1.00  0.00    -0.246 OA
ATOM     11  O   UNL     1     -33.526  10.392 -38.247  1.00  0.00    -0.423 OA
ENDROOT
BRANCH   1  12
ATOM     12  O   UNL     1     -32.137  11.618 -33.015  1.00  0.00    -0.493 OA
ATOM     13  C   UNL     1     -31.828  12.931 -32.560  1.00  0.00     0.278 C 
ENDBRANCH   1  12
BRANCH   2  14
ATOM     14  O   UNL     1     -34.471  12.664 -34.165  1.00  0.00    -0.504 OA
ATOM     15  H   UNL     1     -35.179  12.305 -33.535  1.00  0.00     0.293 HD
ENDBRANCH   2  14
TORSDOF 2
ENDMDL
MODEL 4
REMARK VINA RESULT:    -5.423      1.498      2.549
REMARK INTER + INTRA:          -5.944
REMARK INTER:                  -5.901
REMARK INTRA:                  -0.044
REMARK UNBOUND:                -0.046
REMARK SMILES COc1cc2ccc(=O)oc2cc1O
REMARK SMILES IDX 3 1 13 2 12 3 11 4 5 5 4 6 6 7 7 8 8 9 9 10 10 11 2 12 1 13
REMARK SMILES IDX 14 14
REMARK H PARENT 14 15
REMARK Flexibility Score: inf
ROOT
ATOM      1  C   UNL     1     -32.867  10.415 -38.364  1.00  0.00     0.161 A 
ATOM      2  C   UNL     1     -31.747   9.773 -37.797  1.00  0.00     0.161 A 
ATOM      3  C   UNL     1     -31.384  10.030 -36.471  1.00  0.00     0.098 A 
ATOM      4  C   UNL     1     -32.125  10.923 -35.695  1.00  0.00     0.142 A 
ATOM      5  C   UNL     1     -33.248  11.570 -36.252  1.00  0.00     0.022 A 
ATOM      6  C   UNL     1     -33.616  11.316 -37.580  1.00  0.00     0.062 A 
ATOM      7  C   UNL     1     -33.971  12.459 -35.450  1.00  0.00     0.019 A 
ATOM      8  C   UNL     1     -33.566  12.679 -34.134  1.00  0.00     0.094 A 
ATOM      9  C   UNL     1     -32.442  12.002 -33.648  1.00  0.00     0.336 A 
ATOM     10  O   UNL     1     -32.059  12.186 -32.464  1.00  0.00    -0.246 OA
ATOM     11  O   UNL     1     -31.772  11.162 -34.434  1.00  0.00    -0.423 OA
ENDROOT
BRANCH   1  12
ATOM     12  O   UNL     1     -33.204  10.134 -39.698  1.00  0.00    -0.493 OA
ATOM     13  C   UNL     1     -34.422  10.524 -40.323  1.00  0.00     0.278 C 
ENDBRANCH   1  12
BRANCH   2  14
ATOM     14  O   UNL     1     -30.981   8.875 -38.541  1.00  0.00    -0.504 OA
ATOM     15  H   UNL     1     -30.910   8.932 -39.550  1.00  0.00     0.293 HD
ENDBRANCH   2  14
TORSDOF 2
ENDMDL
MODEL 5
REMARK VINA RESULT:    -5.115      1.383      2.396
REMARK INTER + INTRA:          -5.609
REMARK INTER:                  -5.599
REMARK INTRA:                  -0.010
REMARK UNBOUND:                -0.046
REMARK SMILES COc1cc2ccc(=O)oc2cc1O
REMARK SMILES IDX 3 1 13 2 12 3 11 4 5 5 4 6 6 7 7 8 8 9 9 10 10 11 2 12 1 13
REMARK SMILES IDX 14 14
REMARK H PARENT 14 15
REMARK Flexibility Score: inf
ROOT
ATOM      1  C   UNL     1     -33.997  11.065 -39.478  1.00  0.00     0.161 A 
ATOM      2  C   UNL     1     -33.373   9.820 -39.260  1.00  0.00     0.161 A 
ATOM      3  C   UNL     1     -32.838   9.510 -38.005  1.00  0.00     0.098 A 
ATOM      4  C   UNL     1     -32.915  10.429 -36.956  1.00  0.00     0.142 A 
ATOM      5  C   UNL     1     -33.539  11.678 -37.164  1.00  0.00     0.022 A 
ATOM      6  C   UNL     1     -34.075  11.993 -38.419  1.00  0.00     0.062 A 
ATOM      7  C   UNL     1     -33.601  12.577 -36.094  1.00  0.00     0.019 A 
ATOM      8  C   UNL     1     -33.052  12.217 -34.864  1.00  0.00     0.094 A 
ATOM      9  C   UNL     1     -32.450  10.961 -34.731  1.00  0.00     0.336 A 
ATOM     10  O   UNL     1     -31.949  10.617 -33.630  1.00  0.00    -0.246 OA
ATOM     11  O   UNL     1     -32.404  10.125 -35.766  1.00  0.00    -0.423 OA
ENDROOT
BRANCH   1  12
ATOM     12  O   UNL     1     -34.523  11.345 -40.749  1.00  0.00    -0.493 OA
ATOM     13  C   UNL     1     -35.793  10.902 -41.213  1.00  0.00     0.278 C 
ENDBRANCH   1  12
BRANCH   2  14
ATOM     14  O   UNL     1     -33.275   8.876 -40.283  1.00  0.00    -0.504 OA
ATOM     15  H   UNL     1     -33.891   8.074 -40.338  1.00  0.00     0.293 HD
ENDBRANCH   2  14
TORSDOF 2
ENDMDL
MODEL 6
REMARK VINA RESULT:    -4.860      2.146      5.930
REMARK INTER + INTRA:          -5.332
REMARK INTER:                  -5.272
REMARK INTRA:                  -0.060
REMARK UNBOUND:                -0.046
REMARK SMILES COc1cc2ccc(=O)oc2cc1O
REMARK SMILES IDX 3 1 13 2 12 3 11 4 5 5 4 6 6 7 7 8 8 9 9 10 10 11 2 12 1 13
REMARK SMILES IDX 14 14
REMARK H PARENT 14 15
REMARK Flexibility Score: inf
ROOT
ATOM      1  C   UNL     1     -32.936  11.321 -38.085  1.00  0.00     0.161 A 
ATOM      2  C   UNL     1     -32.258  10.152 -38.486  1.00  0.00     0.161 A 
ATOM      3  C   UNL     1     -32.658   9.463 -39.635  1.00  0.00     0.098 A 
ATOM      4  C   UNL     1     -33.733   9.925 -40.398  1.00  0.00     0.142 A 
ATOM      5  C   UNL     1     -34.419  11.094 -40.007  1.00  0.00     0.022 A 
ATOM      6  C   UNL     1     -34.021  11.787 -38.855  1.00  0.00     0.062 A 
ATOM      7  C   UNL     1     -35.491  11.532 -40.791  1.00  0.00     0.019 A 
ATOM      8  C   UNL     1     -35.848  10.808 -41.928  1.00  0.00     0.094 A 
ATOM      9  C   UNL     1     -35.123   9.658 -42.255  1.00  0.00     0.336 A 
ATOM     10  O   UNL     1     -35.429   8.990 -43.277  1.00  0.00    -0.246 OA
ATOM     11  O   UNL     1     -34.107   9.263 -41.491  1.00  0.00    -0.423 OA
ENDROOT
BRANCH   1  12
ATOM     12  O   UNL     1     -32.508  11.987 -36.926  1.00  0.00    -0.493 OA
ATOM     13  C   UNL     1     -33.281  12.119 -35.738  1.00  0.00     0.278 C 
ENDBRANCH   1  12
BRANCH   2  14
ATOM     14  O   UNL     1     -31.180   9.658 -37.750  1.00  0.00    -0.504 OA
ATOM     15  H   UNL     1     -31.141   9.723 -36.739  1.00  0.00     0.293 HD
ENDBRANCH   2  14
TORSDOF 2
ENDMDL
MODEL 7
REMARK VINA RESULT:    -4.839      2.334      3.742
REMARK INTER + INTRA:          -5.309
REMARK INTER:                  -5.335
REMARK INTRA:                   0.026
REMARK UNBOUND:                -0.046
REMARK SMILES COc1cc2ccc(=O)oc2cc1O
REMARK SMILES IDX 3 1 13 2 12 3 11 4 5 5 4 6 6 7 7 8 8 9 9 10 10 11 2 12 1 13
REMARK SMILES IDX 14 14
REMARK H PARENT 14 15
REMARK Flexibility Score: inf
ROOT
ATOM      1  C   UNL     1     -35.387  10.978 -41.130  1.00  0.00     0.161 A 
ATOM      2  C   UNL     1     -34.685   9.765 -41.279  1.00  0.00     0.161 A 
ATOM      3  C   UNL     1     -33.657   9.433 -40.391  1.00  0.00     0.098 A 
ATOM      4  C   UNL     1     -33.315  10.297 -39.348  1.00  0.00     0.142 A 
ATOM      5  C   UNL     1     -34.013  11.513 -39.190  1.00  0.00     0.022 A 
ATOM      6  C   UNL     1     -35.043  11.851 -40.078  1.00  0.00     0.062 A 
ATOM      7  C   UNL     1     -33.648  12.358 -38.137  1.00  0.00     0.019 A 
ATOM      8  C   UNL     1     -32.616  11.978 -37.280  1.00  0.00     0.094 A 
ATOM      9  C   UNL     1     -31.969  10.757 -37.497  1.00  0.00     0.336 A 
ATOM     10  O   UNL     1     -31.035  10.395 -36.736  1.00  0.00    -0.246 OA
ATOM     11  O   UNL     1     -32.336   9.972 -38.508  1.00  0.00    -0.423 OA
ENDROOT
BRANCH   1  12
ATOM     12  O   UNL     1     -36.413  11.281 -42.040  1.00  0.00    -0.493 OA
ATOM     13  C   UNL     1     -37.714  10.704 -42.012  1.00  0.00     0.278 C 
ENDBRANCH   1  12
BRANCH   2  14
ATOM     14  O   UNL     1     -34.996   8.875 -42.308  1.00  0.00    -0.504 OA
ATOM     15  H   UNL     1     -34.287   8.324 -42.777  1.00  0.00     0.293 HD
ENDBRANCH   2  14
TORSDOF 2
ENDMDL
MODEL 8
REMARK VINA RESULT:    -4.778      1.907      5.325
REMARK INTER + INTRA:          -5.242
REMARK INTER:                  -5.177
REMARK INTRA:                  -0.065
REMARK UNBOUND:                -0.046
REMARK SMILES COc1cc2ccc(=O)oc2cc1O
REMARK SMILES IDX 3 1 13 2 12 3 11 4 5 5 4 6 6 7 7 8 8 9 9 10 10 11 2 12 1 13
REMARK SMILES IDX 14 14
REMARK H PARENT 14 15
REMARK Flexibility Score: inf
ROOT
ATOM      1  C   UNL     1     -32.599  10.295 -37.852  1.00  0.00     0.161 A 
ATOM      2  C   UNL     1     -33.145  11.594 -37.843  1.00  0.00     0.161 A 
ATOM      3  C   UNL     1     -34.020  11.997 -38.858  1.00  0.00     0.098 A 
ATOM      4  C   UNL     1     -34.361  11.119 -39.888  1.00  0.00     0.142 A 
ATOM      5  C   UNL     1     -33.820   9.816 -39.906  1.00  0.00     0.022 A 
ATOM      6  C   UNL     1     -32.943   9.408 -38.892  1.00  0.00     0.062 A 
ATOM      7  C   UNL     1     -34.181   8.959 -40.951  1.00  0.00     0.019 A 
ATOM      8  C   UNL     1     -35.058   9.411 -41.936  1.00  0.00     0.094 A 
ATOM      9  C   UNL     1     -35.555  10.716 -41.854  1.00  0.00     0.336 A 
ATOM     10  O   UNL     1     -36.347  11.144 -42.733  1.00  0.00    -0.246 OA
ATOM     11  O   UNL     1     -35.195  11.511 -40.849  1.00  0.00    -0.423 OA
ENDROOT
BRANCH   1  12
ATOM     12  O   UNL     1     -31.723   9.923 -36.819  1.00  0.00    -0.493 OA
ATOM     13  C   UNL     1     -32.103   9.180 -35.666  1.00  0.00     0.278 C 
ENDBRANCH   1  12
BRANCH   2  14
ATOM     14  O   UNL     1     -32.828  12.501 -36.832  1.00  0.00    -0.504 OA
ATOM     15  H   UNL     1     -32.166  13.255 -36.971  1.00  0.00     0.293 HD
ENDBRANCH   2  14
TORSDOF 2
ENDMDL
MODEL 9
REMARK VINA RESULT:    -3.362     20.417     22.460
REMARK INTER + INTRA:          -3.703
REMARK INTER:                  -3.659
REMARK INTRA:                  -0.043
REMARK UNBOUND:                -0.046
REMARK SMILES COc1cc2ccc(=O)oc2cc1O
REMARK SMILES IDX 3 1 13 2 12 3 11 4 5 5 4 6 6 7 7 8 8 9 9 10 10 11 2 12 1 13
REMARK SMILES IDX 14 14
REMARK H PARENT 14 15
REMARK Flexibility Score: inf
ROOT
ATOM      1  C   UNL     1     -22.618  27.336 -24.377  1.00  0.00     0.161 A 
ATOM      2  C   UNL     1     -22.879  25.980 -24.658  1.00  0.00     0.161 A 
ATOM      3  C   UNL     1     -24.174  25.565 -24.987  1.00  0.00     0.098 A 
ATOM      4  C   UNL     1     -25.221  26.488 -25.040  1.00  0.00     0.142 A 
ATOM      5  C   UNL     1     -24.970  27.848 -24.760  1.00  0.00     0.022 A 
ATOM      6  C   UNL     1     -23.674  28.268 -24.430  1.00  0.00     0.062 A 
ATOM      7  C   UNL     1     -26.038  28.749 -24.821  1.00  0.00     0.019 A 
ATOM      8  C   UNL     1     -27.309  28.282 -25.154  1.00  0.00     0.094 A 
ATOM      9  C   UNL     1     -27.484  26.920 -25.419  1.00  0.00     0.336 A 
ATOM     10  O   UNL     1     -28.623  26.478 -25.721  1.00  0.00    -0.246 OA
ATOM     11  O   UNL     1     -26.450  26.084 -25.353  1.00  0.00    -0.423 OA
ENDROOT
BRANCH   1  12
ATOM     12  O   UNL     1     -21.307  27.719 -24.050  1.00  0.00    -0.493 OA
ATOM     13  C   UNL     1     -20.875  29.065 -23.886  1.00  0.00     0.278 C 
ENDBRANCH   1  12
BRANCH   2  14
ATOM     14  O   UNL     1     -21.861  25.028 -24.615  1.00  0.00    -0.504 OA
ATOM     15  H   UNL     1     -21.821  24.311 -23.901  1.00  0.00     0.293 HD
ENDBRANCH   2  14
TORSDOF 2
ENDMDL
