MODEL 1
REMARK VINA RESULT:    -3.195      0.000      0.000
REMARK INTER + INTRA:          -8.281
REMARK INTER:                  -5.809
REMARK INTRA:                  -2.472
REMARK UNBOUND:                -2.472
REMARK SMILES CCCCCCCCCCCCCCCC(=O)[O-]
REMARK SMILES IDX 9 1 10 2 11 3 12 4 13 5 14 6 15 7 16 8 17 9 18 10 8 11 7 12
REMARK SMILES IDX 6 13 5 14 4 15 3 16 2 17 1 18
REMARK H PARENT
REMARK Flexibility Score: inf
ROOT
ATOM      1  C   UNL     1     -19.916  39.042  95.099  1.00  0.00     0.000 C 
ENDROOT
BRANCH   1   2
ATOM      2  C   UNL     1     -19.931  39.667  96.506  1.00  0.00     0.000 C 
BRANCH   2   3
ATOM      3  C   UNL     1     -18.584  40.310  96.874  1.00  0.00     0.000 C 
BRANCH   3   4
ATOM      4  C   UNL     1     -18.168  41.417  95.890  1.00  0.00     0.000 C 
BRANCH   4   5
ATOM      5  C   UNL     1     -16.796  41.134  95.241  1.00  0.00     0.000 C 
BRANCH   5   6
ATOM      6  C   UNL     1     -16.244  39.731  95.555  1.00  0.00     0.006 C 
BRANCH   6   7
ATOM      7  C   UNL     1     -16.240  38.776  94.352  1.00  0.00     0.053 C 
BRANCH   7   8
ATOM      8  C   UNL     1     -15.281  39.223  93.291  1.00  0.00     0.041 C 
ATOM      9  O   UNL     1     -15.554  39.051  92.074  1.00  0.00    -0.550 OA
ATOM     10  O   UNL     1     -14.076  39.814  93.648  1.00  0.00    -0.550 OA
ENDBRANCH   7   8
ENDBRANCH   6   7
ENDBRANCH   5   6
ENDBRANCH   4   5
ENDBRANCH   3   4
ENDBRANCH   2   3
ENDBRANCH   1   2
BRANCH   1  11
ATOM     11  C   UNL     1     -21.125  39.472  94.251  1.00  0.00     0.000 C 
BRANCH  11  12
ATOM     12  C   UNL     1     -20.719  40.293  93.014  1.00  0.00    -0.000 C 
BRANCH  12  13
ATOM     13  C   UNL     1     -19.249  40.078  92.617  1.00  0.00    -0.000 C 
BRANCH  13  14
ATOM     14  C   UNL     1     -19.097  39.132  91.413  1.00  0.00    -0.000 C 
BRANCH  14  15
ATOM     15  C   UNL     1     -18.852  37.673  91.835  1.00  0.00    -0.000 C 
BRANCH  15  16
ATOM     16  C   UNL     1     -19.866  36.699  91.211  1.00  0.00    -0.000 C 
BRANCH  16  17
ATOM     17  C   UNL     1     -20.943  36.250  92.211  1.00  0.00    -0.003 C 
ATOM     18  C   UNL     1     -20.359  35.814  93.555  1.00  0.00     0.004 C 
ENDBRANCH  16  17
ENDBRANCH  15  16
ENDBRANCH  14  15
ENDBRANCH  13  14
ENDBRANCH  12  13
ENDBRANCH  11  12
ENDBRANCH   1  11
TORSDOF 14
ENDMDL
MODEL 2
REMARK VINA RESULT:    -3.017     14.314     16.626
REMARK INTER + INTRA:          -7.959
REMARK INTER:                  -6.161
REMARK INTRA:                  -1.798
REMARK UNBOUND:                -2.472
REMARK SMILES CCCCCCCCCCCCCCCC(=O)[O-]
REMARK SMILES IDX 9 1 10 2 11 3 12 4 13 5 14 6 15 7 16 8 17 9 18 10 8 11 7 12
REMARK SMILES IDX 6 13 5 14 4 15 3 16 2 17 1 18
REMARK H PARENT
REMARK Flexibility Score: inf
ROOT
ATOM      1  C   UNL     1      -2.574  40.394  97.384  1.00  0.00     0.000 C 
ENDROOT
BRANCH   1   2
ATOM      2  C   UNL     1      -2.360  41.491  96.326  1.00  0.00     0.000 C 
BRANCH   2   3
ATOM      3  C   UNL     1      -3.036  42.816  96.712  1.00  0.00     0.000 C 
BRANCH   3   4
ATOM      4  C   UNL     1      -3.496  43.625  95.487  1.00  0.00     0.000 C 
BRANCH   4   5
ATOM      5  C   UNL     1      -2.751  44.972  95.364  1.00  0.00     0.000 C 
BRANCH   5   6
ATOM      6  C   UNL     1      -2.269  45.533  96.714  1.00  0.00     0.006 C 
BRANCH   6   7
ATOM      7  C   UNL     1      -3.097  46.719  97.230  1.00  0.00     0.053 C 
BRANCH   7   8
ATOM      8  C   UNL     1      -3.889  46.357  98.449  1.00  0.00     0.041 C 
ATOM      9  O   UNL     1      -4.808  45.498  98.378  1.00  0.00    -0.550 OA
ATOM     10  O   UNL     1      -3.624  46.981  99.661  1.00  0.00    -0.550 OA
ENDBRANCH   7   8
ENDBRANCH   6   7
ENDBRANCH   5   6
ENDBRANCH   4   5
ENDBRANCH   3   4
ENDBRANCH   2   3
ENDBRANCH   1   2
BRANCH   1  11
ATOM     11  C   UNL     1      -2.122  39.007  96.896  1.00  0.00     0.000 C 
BRANCH  11  12
ATOM     12  C   UNL     1      -1.194  39.084  95.671  1.00  0.00    -0.000 C 
BRANCH  12  13
ATOM     13  C   UNL     1      -1.036  37.729  94.961  1.00  0.00    -0.000 C 
BRANCH  13  14
ATOM     14  C   UNL     1      -1.320  37.818  93.451  1.00  0.00    -0.000 C 
BRANCH  14  15
ATOM     15  C   UNL     1      -1.490  39.268  92.967  1.00  0.00    -0.000 C 
BRANCH  15  16
ATOM     16  C   UNL     1      -2.867  39.522  92.332  1.00  0.00    -0.000 C 
BRANCH  16  17
ATOM     17  C   UNL     1      -3.764  40.412  93.207  1.00  0.00    -0.003 C 
ATOM     18  C   UNL     1      -4.683  39.606  94.126  1.00  0.00     0.004 C 
ENDBRANCH  16  17
ENDBRANCH  15  16
ENDBRANCH  14  15
ENDBRANCH  13  14
ENDBRANCH  12  13
ENDBRANCH  11  12
ENDBRANCH   1  11
TORSDOF 14
ENDMDL
MODEL 3
REMARK VINA RESULT:    -3.003      2.147      4.305
REMARK INTER + INTRA:          -7.933
REMARK INTER:                  -5.927
REMARK INTRA:                  -2.007
REMARK UNBOUND:                -2.472
REMARK SMILES CCCCCCCCCCCCCCCC(=O)[O-]
REMARK SMILES IDX 9 1 10 2 11 3 12 4 13 5 14 6 15 7 16 8 17 9 18 10 8 11 7 12
REMARK SMILES IDX 6 13 5 14 4 15 3 16 2 17 1 18
REMARK H PARENT
REMARK Flexibility Score: inf
ROOT
ATOM      1  C   UNL     1     -19.489  36.887  91.594  1.00  0.00     0.000 C 
ENDROOT
BRANCH   1   2
ATOM      2  C   UNL     1     -20.118  37.928  92.536  1.00  0.00     0.000 C 
BRANCH   2   3
ATOM      3  C   UNL     1     -19.973  39.363  92.003  1.00  0.00     0.000 C 
BRANCH   3   4
ATOM      4  C   UNL     1     -20.562  40.412  92.962  1.00  0.00     0.000 C 
BRANCH   4   5
ATOM      5  C   UNL     1     -19.512  41.457  93.400  1.00  0.00     0.000 C 
BRANCH   5   6
ATOM      6  C   UNL     1     -18.718  41.043  94.653  1.00  0.00     0.006 C 
BRANCH   6   7
ATOM      7  C   UNL     1     -17.219  41.371  94.581  1.00  0.00     0.053 C 
BRANCH   7   8
ATOM      8  C   UNL     1     -16.416  40.508  95.505  1.00  0.00     0.041 C 
ATOM      9  O   UNL     1     -15.161  40.475  95.416  1.00  0.00    -0.550 OA
ATOM     10  O   UNL     1     -17.057  39.726  96.458  1.00  0.00    -0.550 OA
ENDBRANCH   7   8
ENDBRANCH   6   7
ENDBRANCH   5   6
ENDBRANCH   4   5
ENDBRANCH   3   4
ENDBRANCH   2   3
ENDBRANCH   1   2
BRANCH   1  11
ATOM     11  C   UNL     1     -19.451  37.362  90.132  1.00  0.00     0.000 C 
BRANCH  11  12
ATOM     12  C   UNL     1     -19.093  36.231  89.150  1.00  0.00    -0.000 C 
BRANCH  12  13
ATOM     13  C   UNL     1     -17.853  35.435  89.591  1.00  0.00    -0.000 C 
BRANCH  13  14
ATOM     14  C   UNL     1     -16.543  36.204  89.346  1.00  0.00    -0.000 C 
BRANCH  14  15
ATOM     15  C   UNL     1     -15.923  36.742  90.647  1.00  0.00    -0.000 C 
BRANCH  15  16
ATOM     16  C   UNL     1     -15.963  38.278  90.729  1.00  0.00    -0.000 C 
BRANCH  16  17
ATOM     17  C   UNL     1     -15.943  38.790  92.178  1.00  0.00    -0.003 C 
ATOM     18  C   UNL     1     -16.323  37.713  93.194  1.00  0.00     0.004 C 
ENDBRANCH  16  17
ENDBRANCH  15  16
ENDBRANCH  14  15
ENDBRANCH  13  14
ENDBRANCH  12  13
ENDBRANCH  11  12
ENDBRANCH   1  11
TORSDOF 14
ENDMDL
MODEL 4
REMARK VINA RESULT:    -2.943      2.232      5.101
REMARK INTER + INTRA:          -7.824
REMARK INTER:                  -5.725
REMARK INTRA:                  -2.099
REMARK UNBOUND:                -2.472
REMARK SMILES CCCCCCCCCCCCCCCC(=O)[O-]
REMARK SMILES IDX 9 1 10 2 11 3 12 4 13 5 14 6 15 7 16 8 17 9 18 10 8 11 7 12
REMARK SMILES IDX 6 13 5 14 4 15 3 16 2 17 1 18
REMARK H PARENT
REMARK Flexibility Score: inf
ROOT
ATOM      1  C   UNL     1     -18.348  40.587  93.678  1.00  0.00     0.000 C 
ENDROOT
BRANCH   1   2
ATOM      2  C   UNL     1     -19.721  41.233  93.419  1.00  0.00     0.000 C 
BRANCH   2   3
ATOM      3  C   UNL     1     -20.745  40.229  92.867  1.00  0.00     0.000 C 
BRANCH   3   4
ATOM      4  C   UNL     1     -20.128  39.254  91.849  1.00  0.00     0.000 C 
BRANCH   4   5
ATOM      5  C   UNL     1     -20.326  37.779  92.260  1.00  0.00     0.000 C 
BRANCH   5   6
ATOM      6  C   UNL     1     -19.221  36.841  91.739  1.00  0.00     0.006 C 
BRANCH   6   7
ATOM      7  C   UNL     1     -19.481  36.292  90.329  1.00  0.00     0.053 C 
BRANCH   7   8
ATOM      8  C   UNL     1     -18.210  35.885  89.647  1.00  0.00     0.041 C 
ATOM      9  O   UNL     1     -17.176  36.595  89.753  1.00  0.00    -0.550 OA
ATOM     10  O   UNL     1     -18.173  34.727  88.881  1.00  0.00    -0.550 OA
ENDBRANCH   7   8
ENDBRANCH   6   7
ENDBRANCH   5   6
ENDBRANCH   4   5
ENDBRANCH   3   4
ENDBRANCH   2   3
ENDBRANCH   1   2
BRANCH   1  11
ATOM     11  C   UNL     1     -17.419  41.489  94.508  1.00  0.00     0.000 C 
BRANCH  11  12
ATOM     12  C   UNL     1     -17.328  41.050  95.980  1.00  0.00    -0.000 C 
BRANCH  12  13
ATOM     13  C   UNL     1     -18.569  41.449  96.795  1.00  0.00    -0.000 C 
BRANCH  13  14
ATOM     14  C   UNL     1     -19.116  40.286  97.642  1.00  0.00    -0.000 C 
BRANCH  14  15
ATOM     15  C   UNL     1     -20.411  39.692  97.063  1.00  0.00    -0.000 C 
BRANCH  15  16
ATOM     16  C   UNL     1     -20.145  38.565  96.052  1.00  0.00    -0.000 C 
BRANCH  16  17
ATOM     17  C   UNL     1     -18.958  37.677  96.458  1.00  0.00    -0.003 C 
ATOM     18  C   UNL     1     -18.039  37.342  95.283  1.00  0.00     0.004 C 
ENDBRANCH  16  17
ENDBRANCH  15  16
ENDBRANCH  14  15
ENDBRANCH  13  14
ENDBRANCH  12  13
ENDBRANCH  11  12
ENDBRANCH   1  11
TORSDOF 14
ENDMDL
MODEL 5
REMARK VINA RESULT:    -2.870      1.955      4.396
REMARK INTER + INTRA:          -7.691
REMARK INTER:                  -5.405
REMARK INTRA:                  -2.286
REMARK UNBOUND:                -2.472
REMARK SMILES CCCCCCCCCCCCCCCC(=O)[O-]
REMARK SMILES IDX 9 1 10 2 11 3 12 4 13 5 14 6 15 7 16 8 17 9 18 10 8 11 7 12
REMARK SMILES IDX 6 13 5 14 4 15 3 16 2 17 1 18
REMARK H PARENT
REMARK Flexibility Score: inf
ROOT
ATOM      1  C   UNL     1     -18.864  41.283  95.308  1.00  0.00     0.000 C 
ENDROOT
BRANCH   1   2
ATOM      2  C   UNL     1     -18.840  41.526  93.788  1.00  0.00     0.000 C 
BRANCH   2   3
ATOM      3  C   UNL     1     -20.124  41.038  93.097  1.00  0.00     0.000 C 
BRANCH   3   4
ATOM      4  C   UNL     1     -20.603  39.678  93.632  1.00  0.00     0.000 C 
BRANCH   4   5
ATOM      5  C   UNL     1     -20.245  38.517  92.678  1.00  0.00     0.000 C 
BRANCH   5   6
ATOM      6  C   UNL     1     -19.464  38.967  91.429  1.00  0.00     0.006 C 
BRANCH   6   7
ATOM      7  C   UNL     1     -19.263  37.859  90.384  1.00  0.00     0.053 C 
BRANCH   7   8
ATOM      8  C   UNL     1     -18.039  37.043  90.666  1.00  0.00     0.041 C 
ATOM      9  O   UNL     1     -16.894  37.514  90.441  1.00  0.00    -0.550 OA
ATOM     10  O   UNL     1     -18.165  35.752  91.164  1.00  0.00    -0.550 OA
ENDBRANCH   7   8
ENDBRANCH   6   7
ENDBRANCH   5   6
ENDBRANCH   4   5
ENDBRANCH   3   4
ENDBRANCH   2   3
ENDBRANCH   1   2
BRANCH   1  11
ATOM     11  C   UNL     1     -17.483  40.901  95.865  1.00  0.00     0.000 C 
BRANCH  11  12
ATOM     12  C   UNL     1     -16.339  41.227  94.889  1.00  0.00    -0.000 C 
BRANCH  12  13
ATOM     13  C   UNL     1     -15.160  40.247  95.009  1.00  0.00    -0.000 C 
BRANCH  13  14
ATOM     14  C   UNL     1     -15.622  38.792  95.208  1.00  0.00    -0.000 C 
BRANCH  14  15
ATOM     15  C   UNL     1     -16.397  38.248  93.995  1.00  0.00    -0.000 C 
BRANCH  15  16
ATOM     16  C   UNL     1     -17.370  37.120  94.374  1.00  0.00    -0.000 C 
BRANCH  16  17
ATOM     17  C   UNL     1     -17.698  37.104  95.875  1.00  0.00    -0.003 C 
ATOM     18  C   UNL     1     -19.135  37.533  96.173  1.00  0.00     0.004 C 
ENDBRANCH  16  17
ENDBRANCH  15  16
ENDBRANCH  14  15
ENDBRANCH  13  14
ENDBRANCH  12  13
ENDBRANCH  11  12
ENDBRANCH   1  11
TORSDOF 14
ENDMDL
MODEL 6
REMARK VINA RESULT:    -2.848     17.075     19.204
REMARK INTER + INTRA:          -7.652
REMARK INTER:                  -5.570
REMARK INTRA:                  -2.081
REMARK UNBOUND:                -2.472
REMARK SMILES CCCCCCCCCCCCCCCC(=O)[O-]
REMARK SMILES IDX 9 1 10 2 11 3 12 4 13 5 14 6 15 7 16 8 17 9 18 10 8 11 7 12
REMARK SMILES IDX 6 13 5 14 4 15 3 16 2 17 1 18
REMARK H PARENT
REMARK Flexibility Score: inf
ROOT
ATOM      1  C   UNL     1      -6.990  32.459 105.512  1.00  0.00     0.000 C 
ENDROOT
BRANCH   1   2
ATOM      2  C   UNL     1      -7.081  31.877 104.090  1.00  0.00     0.000 C 
BRANCH   2   3
ATOM      3  C   UNL     1      -6.129  30.688 103.882  1.00  0.00     0.000 C 
BRANCH   3   4
ATOM      4  C   UNL     1      -4.648  31.101 103.931  1.00  0.00     0.000 C 
BRANCH   4   5
ATOM      5  C   UNL     1      -3.822  30.447 102.801  1.00  0.00     0.000 C 
BRANCH   5   6
ATOM      6  C   UNL     1      -2.958  31.448 102.012  1.00  0.00     0.006 C 
BRANCH   6   7
ATOM      7  C   UNL     1      -2.937  32.863 102.609  1.00  0.00     0.053 C 
BRANCH   7   8
ATOM      8  C   UNL     1      -3.016  33.916 101.546  1.00  0.00     0.041 C 
ATOM      9  O   UNL     1      -2.082  34.051 100.713  1.00  0.00    -0.550 OA
ATOM     10  O   UNL     1      -4.117  34.761 101.486  1.00  0.00    -0.550 OA
ENDBRANCH   7   8
ENDBRANCH   6   7
ENDBRANCH   5   6
ENDBRANCH   4   5
ENDBRANCH   3   4
ENDBRANCH   2   3
ENDBRANCH   1   2
BRANCH   1  11
ATOM     11  C   UNL     1      -8.293  32.275 106.308  1.00  0.00     0.000 C 
BRANCH  11  12
ATOM     12  C   UNL     1      -8.218  31.104 107.304  1.00  0.00    -0.000 C 
BRANCH  12  13
ATOM     13  C   UNL     1      -8.435  29.739 106.630  1.00  0.00    -0.000 C 
BRANCH  13  14
ATOM     14  C   UNL     1      -7.277  28.760 106.897  1.00  0.00    -0.000 C 
BRANCH  14  15
ATOM     15  C   UNL     1      -6.236  29.330 107.876  1.00  0.00    -0.000 C 
BRANCH  15  16
ATOM     16  C   UNL     1      -4.857  29.526 107.224  1.00  0.00    -0.000 C 
BRANCH  16  17
ATOM     17  C   UNL     1      -4.249  30.902 107.537  1.00  0.00    -0.003 C 
ATOM     18  C   UNL     1      -4.867  31.557 108.773  1.00  0.00     0.004 C 
ENDBRANCH  16  17
ENDBRANCH  15  16
ENDBRANCH  14  15
ENDBRANCH  13  14
ENDBRANCH  12  13
ENDBRANCH  11  12
ENDBRANCH   1  11
TORSDOF 14
ENDMDL
MODEL 7
REMARK VINA RESULT:    -2.832      1.466      4.325
REMARK INTER + INTRA:          -7.621
REMARK INTER:                  -5.527
REMARK INTRA:                  -2.094
REMARK UNBOUND:                -2.472
REMARK SMILES CCCCCCCCCCCCCCCC(=O)[O-]
REMARK SMILES IDX 9 1 10 2 11 3 12 4 13 5 14 6 15 7 16 8 17 9 18 10 8 11 7 12
REMARK SMILES IDX 6 13 5 14 4 15 3 16 2 17 1 18
REMARK H PARENT
REMARK Flexibility Score: inf
ROOT
ATOM      1  C   UNL     1     -19.945  37.177  93.627  1.00  0.00     0.000 C 
ENDROOT
BRANCH   1   2
ATOM      2  C   UNL     1     -19.186  36.709  92.372  1.00  0.00     0.000 C 
BRANCH   2   3
ATOM      3  C   UNL     1     -19.536  37.545  91.131  1.00  0.00     0.000 C 
BRANCH   3   4
ATOM      4  C   UNL     1     -18.420  38.533  90.750  1.00  0.00     0.000 C 
BRANCH   4   5
ATOM      5  C   UNL     1     -17.014  37.907  90.888  1.00  0.00     0.000 C 
BRANCH   5   6
ATOM      6  C   UNL     1     -16.076  38.702  91.815  1.00  0.00     0.006 C 
BRANCH   6   7
ATOM      7  C   UNL     1     -15.727  37.978  93.123  1.00  0.00     0.053 C 
BRANCH   7   8
ATOM      8  C   UNL     1     -14.251  37.965  93.376  1.00  0.00     0.041 C 
ATOM      9  O   UNL     1     -13.806  37.963  94.554  1.00  0.00    -0.550 OA
ATOM     10  O   UNL     1     -13.363  37.973  92.307  1.00  0.00    -0.550 OA
ENDBRANCH   7   8
ENDBRANCH   6   7
ENDBRANCH   5   6
ENDBRANCH   4   5
ENDBRANCH   3   4
ENDBRANCH   2   3
ENDBRANCH   1   2
BRANCH   1  11
ATOM     11  C   UNL     1     -21.125  38.104  93.291  1.00  0.00     0.000 C 
BRANCH  11  12
ATOM     12  C   UNL     1     -21.024  39.470  93.992  1.00  0.00    -0.000 C 
BRANCH  12  13
ATOM     13  C   UNL     1     -20.835  40.631  93.002  1.00  0.00    -0.000 C 
BRANCH  13  14
ATOM     14  C   UNL     1     -19.563  41.449  93.290  1.00  0.00    -0.000 C 
BRANCH  14  15
ATOM     15  C   UNL     1     -18.388  40.570  93.751  1.00  0.00    -0.000 C 
BRANCH  15  16
ATOM     16  C   UNL     1     -17.317  41.367  94.514  1.00  0.00    -0.000 C 
BRANCH  16  17
ATOM     17  C   UNL     1     -17.302  41.045  96.017  1.00  0.00    -0.003 C 
ATOM     18  C   UNL     1     -18.626  41.375  96.707  1.00  0.00     0.004 C 
ENDBRANCH  16  17
ENDBRANCH  15  16
ENDBRANCH  14  15
ENDBRANCH  13  14
ENDBRANCH  12  13
ENDBRANCH  11  12
ENDBRANCH   1  11
TORSDOF 14
ENDMDL
MODEL 8
REMARK VINA RESULT:    -2.830      2.583      6.036
REMARK INTER + INTRA:          -7.619
REMARK INTER:                  -6.106
REMARK INTRA:                  -1.512
REMARK UNBOUND:                -2.472
REMARK SMILES CCCCCCCCCCCCCCCC(=O)[O-]
REMARK SMILES IDX 9 1 10 2 11 3 12 4 13 5 14 6 15 7 16 8 17 9 18 10 8 11 7 12
REMARK SMILES IDX 6 13 5 14 4 15 3 16 2 17 1 18
REMARK H PARENT
REMARK Flexibility Score: inf
ROOT
ATOM      1  C   UNL     1     -16.373  41.123  94.968  1.00  0.00     0.000 C 
ENDROOT
BRANCH   1   2
ATOM      2  C   UNL     1     -17.593  41.134  95.906  1.00  0.00     0.000 C 
BRANCH   2   3
ATOM      3  C   UNL     1     -18.889  40.725  95.186  1.00  0.00     0.000 C 
BRANCH   3   4
ATOM      4  C   UNL     1     -19.062  41.435  93.832  1.00  0.00     0.000 C 
BRANCH   4   5
ATOM      5  C   UNL     1     -20.210  40.825  92.998  1.00  0.00     0.000 C 
BRANCH   5   6
ATOM      6  C   UNL     1     -19.959  39.363  92.583  1.00  0.00     0.006 C 
BRANCH   6   7
ATOM      7  C   UNL     1     -19.005  39.205  91.391  1.00  0.00     0.053 C 
BRANCH   7   8
ATOM      8  C   UNL     1     -18.838  37.769  90.998  1.00  0.00     0.041 C 
ATOM      9  O   UNL     1     -19.828  36.991  90.994  1.00  0.00    -0.550 OA
ATOM     10  O   UNL     1     -17.582  37.285  90.653  1.00  0.00    -0.550 OA
ENDBRANCH   7   8
ENDBRANCH   6   7
ENDBRANCH   5   6
ENDBRANCH   4   5
ENDBRANCH   3   4
ENDBRANCH   2   3
ENDBRANCH   1   2
BRANCH   1  11
ATOM     11  C   UNL     1     -15.745  39.725  94.834  1.00  0.00     0.000 C 
BRANCH  11  12
ATOM     12  C   UNL     1     -15.830  39.172  93.401  1.00  0.00    -0.000 C 
BRANCH  12  13
ATOM     13  C   UNL     1     -14.503  39.307  92.635  1.00  0.00    -0.000 C 
BRANCH  13  14
ATOM     14  C   UNL     1     -13.285  39.365  93.573  1.00  0.00    -0.000 C 
BRANCH  14  15
ATOM     15  C   UNL     1     -12.415  40.611  93.334  1.00  0.00    -0.000 C 
BRANCH  15  16
ATOM     16  C   UNL     1     -12.747  41.759  94.303  1.00  0.00    -0.000 C 
BRANCH  16  17
ATOM     17  C   UNL     1     -11.632  42.002  95.332  1.00  0.00    -0.003 C 
ATOM     18  C   UNL     1     -11.581  40.926  96.417  1.00  0.00     0.004 C 
ENDBRANCH  16  17
ENDBRANCH  15  16
ENDBRANCH  14  15
ENDBRANCH  13  14
ENDBRANCH  12  13
ENDBRANCH  11  12
ENDBRANCH   1  11
TORSDOF 14
ENDMDL
MODEL 9
REMARK VINA RESULT:    -2.801      1.639      3.461
REMARK INTER + INTRA:          -7.566
REMARK INTER:                  -5.090
REMARK INTRA:                  -2.476
REMARK UNBOUND:                -2.472
REMARK SMILES CCCCCCCCCCCCCCCC(=O)[O-]
REMARK SMILES IDX 9 1 10 2 11 3 12 4 13 5 14 6 15 7 16 8 17 9 18 10 8 11 7 12
REMARK SMILES IDX 6 13 5 14 4 15 3 16 2 17 1 18
REMARK H PARENT
REMARK Flexibility Score: inf
ROOT
ATOM      1  C   UNL     1     -19.916  39.610  92.350  1.00  0.00     0.000 C 
ENDROOT
BRANCH   1   2
ATOM      2  C   UNL     1     -20.156  40.818  93.273  1.00  0.00     0.000 C 
BRANCH   2   3
ATOM      3  C   UNL     1     -18.844  41.415  93.807  1.00  0.00     0.000 C 
BRANCH   3   4
ATOM      4  C   UNL     1     -18.781  41.424  95.345  1.00  0.00     0.000 C 
BRANCH   4   5
ATOM      5  C   UNL     1     -17.407  40.958  95.874  1.00  0.00     0.000 C 
BRANCH   5   6
ATOM      6  C   UNL     1     -16.272  41.092  94.842  1.00  0.00     0.006 C 
BRANCH   6   7
ATOM      7  C   UNL     1     -15.373  39.852  94.735  1.00  0.00     0.053 C 
BRANCH   7   8
ATOM      8  C   UNL     1     -14.005  40.199  94.231  1.00  0.00     0.041 C 
ATOM      9  O   UNL     1     -13.527  39.604  93.229  1.00  0.00    -0.550 OA
ATOM     10  O   UNL     1     -13.251  41.169  94.879  1.00  0.00    -0.550 OA
ENDBRANCH   7   8
ENDBRANCH   6   7
ENDBRANCH   5   6
ENDBRANCH   4   5
ENDBRANCH   3   4
ENDBRANCH   2   3
ENDBRANCH   1   2
BRANCH   1  11
ATOM     11  C   UNL     1     -18.452  39.140  92.362  1.00  0.00     0.000 C 
BRANCH  11  12
ATOM     12  C   UNL     1     -18.284  37.743  92.987  1.00  0.00    -0.000 C 
BRANCH  12  13
ATOM     13  C   UNL     1     -18.480  37.749  94.512  1.00  0.00    -0.000 C 
BRANCH  13  14
ATOM     14  C   UNL     1     -19.630  36.830  94.961  1.00  0.00    -0.000 C 
BRANCH  14  15
ATOM     15  C   UNL     1     -20.945  37.597  95.184  1.00  0.00    -0.000 C 
BRANCH  15  16
ATOM     16  C   UNL     1     -20.825  38.673  96.276  1.00  0.00    -0.000 C 
BRANCH  16  17
ATOM     17  C   UNL     1     -20.154  38.143  97.553  1.00  0.00    -0.003 C 
ATOM     18  C   UNL     1     -19.571  39.258  98.422  1.00  0.00     0.004 C 
ENDBRANCH  16  17
ENDBRANCH  15  16
ENDBRANCH  14  15
ENDBRANCH  13  14
ENDBRANCH  12  13
ENDBRANCH  11  12
ENDBRANCH   1  11
TORSDOF 14
ENDMDL
