MODEL 1
REMARK VINA RESULT:    -3.641      0.000      0.000
REMARK INTER + INTRA:          -9.717
REMARK INTER:                  -7.047
REMARK INTRA:                  -2.670
REMARK UNBOUND:                -2.670
REMARK SMILES CCCCCCCCCCCCCCCCCC(=O)[O-]
REMARK SMILES IDX 10 1 11 2 12 3 13 4 14 5 15 6 16 7 17 8 18 9 19 10 20 11
REMARK SMILES IDX 9 12 8 13 7 14 6 15 5 16 4 17 3 18 2 19 1 20
REMARK H PARENT
REMARK Flexibility Score: inf
ROOT
ATOM      1  C   UNL     1       8.580   0.527  -2.076  1.00  0.00     0.000 C 
ENDROOT
BRANCH   1   2
ATOM      2  C   UNL     1       7.264   0.463  -1.284  1.00  0.00     0.000 C 
BRANCH   2   3
ATOM      3  C   UNL     1       6.028   0.436  -2.196  1.00  0.00     0.000 C 
BRANCH   3   4
ATOM      4  C   UNL     1       5.261  -0.897  -2.118  1.00  0.00     0.000 C 
BRANCH   4   5
ATOM      5  C   UNL     1       5.207  -1.462  -0.690  1.00  0.00     0.000 C 
BRANCH   5   6
ATOM      6  C   UNL     1       4.914  -2.970  -0.662  1.00  0.00     0.000 C 
BRANCH   6   7
ATOM      7  C   UNL     1       4.737  -3.468   0.781  1.00  0.00     0.006 C 
BRANCH   7   8
ATOM      8  C   UNL     1       3.931  -4.770   0.851  1.00  0.00     0.053 C 
BRANCH   8   9
ATOM      9  C   UNL     1       2.480  -4.510   1.121  1.00  0.00     0.041 C 
ATOM     10  O   UNL     1       2.136  -3.778   2.087  1.00  0.00    -0.550 OA
ATOM     11  O   UNL     1       1.508  -5.103   0.326  1.00  0.00    -0.550 OA
ENDBRANCH   8   9
ENDBRANCH   7   8
ENDBRANCH   6   7
ENDBRANCH   5   6
ENDBRANCH   4   5
ENDBRANCH   3   4
ENDBRANCH   2   3
ENDBRANCH   1   2
BRANCH   1  12
ATOM     12  C   UNL     1       9.498  -0.684  -1.817  1.00  0.00     0.000 C 
BRANCH  12  13
ATOM     13  C   UNL     1       8.934  -2.047  -2.259  1.00  0.00    -0.000 C 
BRANCH  13  14
ATOM     14  C   UNL     1       8.651  -2.993  -1.081  1.00  0.00    -0.000 C 
BRANCH  14  15
ATOM     15  C   UNL     1       9.116  -2.421   0.269  1.00  0.00    -0.000 C 
BRANCH  15  16
ATOM     16  C   UNL     1       8.150  -2.723   1.435  1.00  0.00    -0.000 C 
BRANCH  16  17
ATOM     17  C   UNL     1       8.205  -1.637   2.525  1.00  0.00    -0.000 C 
BRANCH  17  18
ATOM     18  C   UNL     1       7.373  -0.396   2.162  1.00  0.00    -0.000 C 
BRANCH  18  19
ATOM     19  C   UNL     1       7.964   0.897   2.745  1.00  0.00    -0.003 C 
ATOM     20  C   UNL     1       8.802   1.634   1.705  1.00  0.00     0.004 C 
ENDBRANCH  18  19
ENDBRANCH  17  18
ENDBRANCH  16  17
ENDBRANCH  15  16
ENDBRANCH  14  15
ENDBRANCH  13  14
ENDBRANCH  12  13
ENDBRANCH   1  12
TORSDOF 16
ENDMDL
MODEL 2
REMARK VINA RESULT:    -3.544      3.165      6.849
REMARK INTER + INTRA:          -9.530
REMARK INTER:                  -7.000
REMARK INTRA:                  -2.530
REMARK UNBOUND:                -2.670
REMARK SMILES CCCCCCCCCCCCCCCCCC(=O)[O-]
REMARK SMILES IDX 10 1 11 2 12 3 13 4 14 5 15 6 16 7 17 8 18 9 19 10 20 11
REMARK SMILES IDX 9 12 8 13 7 14 6 15 5 16 4 17 3 18 2 19 1 20
REMARK H PARENT
REMARK Flexibility Score: inf
ROOT
ATOM      1  C   UNL     1       4.750  -5.418  -0.554  1.00  0.00     0.000 C 
ENDROOT
BRANCH   1   2
ATOM      2  C   UNL     1       6.006  -5.863   0.214  1.00  0.00     0.000 C 
BRANCH   2   3
ATOM      3  C   UNL     1       5.841  -5.738   1.737  1.00  0.00     0.000 C 
BRANCH   3   4
ATOM      4  C   UNL     1       6.262  -4.355   2.268  1.00  0.00     0.000 C 
BRANCH   4   5
ATOM      5  C   UNL     1       6.985  -3.511   1.206  1.00  0.00     0.000 C 
BRANCH   5   6
ATOM      6  C   UNL     1       6.573  -2.032   1.245  1.00  0.00     0.000 C 
BRANCH   6   7
ATOM      7  C   UNL     1       5.276  -1.803   0.456  1.00  0.00     0.006 C 
BRANCH   7   8
ATOM      8  C   UNL     1       5.497  -1.873  -1.060  1.00  0.00     0.053 C 
BRANCH   8   9
ATOM      9  C   UNL     1       5.761  -0.518  -1.645  1.00  0.00     0.041 C 
ATOM     10  O   UNL     1       6.715   0.183  -1.215  1.00  0.00    -0.550 OA
ATOM     11  O   UNL     1       4.933  -0.017  -2.641  1.00  0.00    -0.550 OA
ENDBRANCH   8   9
ENDBRANCH   7   8
ENDBRANCH   6   7
ENDBRANCH   5   6
ENDBRANCH   4   5
ENDBRANCH   3   4
ENDBRANCH   2   3
ENDBRANCH   1   2
BRANCH   1  12
ATOM     12  C   UNL     1       3.498  -6.237  -0.185  1.00  0.00     0.000 C 
BRANCH  12  13
ATOM     13  C   UNL     1       2.215  -5.416   0.039  1.00  0.00    -0.000 C 
BRANCH  13  14
ATOM     14  C   UNL     1       2.441  -4.170   0.912  1.00  0.00    -0.000 C 
BRANCH  14  15
ATOM     15  C   UNL     1       2.330  -4.468   2.417  1.00  0.00    -0.000 C 
BRANCH  15  16
ATOM     16  C   UNL     1       1.119  -5.352   2.786  1.00  0.00    -0.000 C 
BRANCH  16  17
ATOM     17  C   UNL     1       1.551  -6.676   3.441  1.00  0.00    -0.000 C 
BRANCH  17  18
ATOM     18  C   UNL     1       3.059  -6.722   3.736  1.00  0.00    -0.000 C 
BRANCH  18  19
ATOM     19  C   UNL     1       3.366  -6.652   5.240  1.00  0.00    -0.003 C 
ATOM     20  C   UNL     1       4.629  -5.839   5.505  1.00  0.00     0.004 C 
ENDBRANCH  18  19
ENDBRANCH  17  18
ENDBRANCH  16  17
ENDBRANCH  15  16
ENDBRANCH  14  15
ENDBRANCH  13  14
ENDBRANCH  12  13
ENDBRANCH   1  12
TORSDOF 16
ENDMDL
MODEL 3
REMARK VINA RESULT:    -3.518      2.194      4.769
REMARK INTER + INTRA:          -9.479
REMARK INTER:                  -6.457
REMARK INTRA:                  -3.022
REMARK UNBOUND:                -2.670
REMARK SMILES CCCCCCCCCCCCCCCCCC(=O)[O-]
REMARK SMILES IDX 10 1 11 2 12 3 13 4 14 5 15 6 16 7 17 8 18 9 19 10 20 11
REMARK SMILES IDX 9 12 8 13 7 14 6 15 5 16 4 17 3 18 2 19 1 20
REMARK H PARENT
REMARK Flexibility Score: inf
ROOT
ATOM      1  C   UNL     1       7.600  -4.524   0.719  1.00  0.00     0.000 C 
ENDROOT
BRANCH   1   2
ATOM      2  C   UNL     1       6.592  -5.533   0.143  1.00  0.00     0.000 C 
BRANCH   2   3
ATOM      3  C   UNL     1       5.232  -5.479   0.856  1.00  0.00     0.000 C 
BRANCH   3   4
ATOM      4  C   UNL     1       4.047  -5.453  -0.126  1.00  0.00     0.000 C 
BRANCH   4   5
ATOM      5  C   UNL     1       2.849  -4.657   0.416  1.00  0.00     0.000 C 
BRANCH   5   6
ATOM      6  C   UNL     1       3.049  -4.204   1.870  1.00  0.00     0.000 C 
BRANCH   6   7
ATOM      7  C   UNL     1       1.798  -4.494   2.712  1.00  0.00     0.006 C 
BRANCH   7   8
ATOM      8  C   UNL     1       1.153  -5.838   2.350  1.00  0.00     0.053 C 
BRANCH   8   9
ATOM      9  C   UNL     1       1.763  -6.971   3.119  1.00  0.00     0.041 C 
ATOM     10  O   UNL     1       2.330  -6.755   4.223  1.00  0.00    -0.550 OA
ATOM     11  O   UNL     1       1.735  -8.259   2.599  1.00  0.00    -0.550 OA
ENDBRANCH   8   9
ENDBRANCH   7   8
ENDBRANCH   6   7
ENDBRANCH   5   6
ENDBRANCH   4   5
ENDBRANCH   3   4
ENDBRANCH   2   3
ENDBRANCH   1   2
BRANCH   1  12
ATOM     12  C   UNL     1       6.954  -3.510   1.683  1.00  0.00     0.000 C 
BRANCH  12  13
ATOM     13  C   UNL     1       7.572  -2.100   1.671  1.00  0.00    -0.000 C 
BRANCH  13  14
ATOM     14  C   UNL     1       6.840  -1.129   0.730  1.00  0.00    -0.000 C 
BRANCH  14  15
ATOM     15  C   UNL     1       5.362  -1.501   0.520  1.00  0.00    -0.000 C 
BRANCH  15  16
ATOM     16  C   UNL     1       5.040  -1.977  -0.913  1.00  0.00    -0.000 C 
BRANCH  16  17
ATOM     17  C   UNL     1       6.263  -1.877  -1.841  1.00  0.00    -0.000 C 
BRANCH  17  18
ATOM     18  C   UNL     1       6.575  -3.205  -2.550  1.00  0.00    -0.000 C 
BRANCH  18  19
ATOM     19  C   UNL     1       8.064  -3.348  -2.901  1.00  0.00    -0.003 C 
ATOM     20  C   UNL     1       8.929  -2.488  -1.984  1.00  0.00     0.004 C 
ENDBRANCH  18  19
ENDBRANCH  17  18
ENDBRANCH  16  17
ENDBRANCH  15  16
ENDBRANCH  14  15
ENDBRANCH  13  14
ENDBRANCH  12  13
ENDBRANCH   1  12
TORSDOF 16
ENDMDL
MODEL 4
REMARK VINA RESULT:    -3.508      3.215      7.008
REMARK INTER + INTRA:          -9.460
REMARK INTER:                  -6.680
REMARK INTRA:                  -2.780
REMARK UNBOUND:                -2.670
REMARK SMILES CCCCCCCCCCCCCCCCCC(=O)[O-]
REMARK SMILES IDX 10 1 11 2 12 3 13 4 14 5 15 6 16 7 17 8 18 9 19 10 20 11
REMARK SMILES IDX 9 12 8 13 7 14 6 15 5 16 4 17 3 18 2 19 1 20
REMARK H PARENT
REMARK Flexibility Score: inf
ROOT
ATOM      1  C   UNL     1       5.943  -5.832   1.687  1.00  0.00     0.000 C 
ENDROOT
BRANCH   1   2
ATOM      2  C   UNL     1       6.459  -4.471   2.182  1.00  0.00     0.000 C 
BRANCH   2   3
ATOM      3  C   UNL     1       6.261  -3.353   1.146  1.00  0.00     0.000 C 
BRANCH   3   4
ATOM      4  C   UNL     1       6.186  -3.887  -0.295  1.00  0.00     0.000 C 
BRANCH   4   5
ATOM      5  C   UNL     1       5.240  -3.061  -1.181  1.00  0.00     0.000 C 
BRANCH   5   6
ATOM      6  C   UNL     1       5.148  -1.592  -0.742  1.00  0.00     0.000 C 
BRANCH   6   7
ATOM      7  C   UNL     1       5.503  -0.650  -1.901  1.00  0.00     0.006 C 
BRANCH   7   8
ATOM      8  C   UNL     1       6.745   0.198  -1.602  1.00  0.00     0.053 C 
BRANCH   8   9
ATOM      9  C   UNL     1       7.926  -0.654  -1.247  1.00  0.00     0.041 C 
ATOM     10  O   UNL     1       8.418  -1.442  -2.098  1.00  0.00    -0.550 OA
ATOM     11  O   UNL     1       8.462  -0.601   0.034  1.00  0.00    -0.550 OA
ENDBRANCH   8   9
ENDBRANCH   7   8
ENDBRANCH   6   7
ENDBRANCH   5   6
ENDBRANCH   4   5
ENDBRANCH   3   4
ENDBRANCH   2   3
ENDBRANCH   1   2
BRANCH   1  12
ATOM     12  C   UNL     1       5.170  -6.613   2.768  1.00  0.00     0.000 C 
BRANCH  12  13
ATOM     13  C   UNL     1       5.033  -5.901   4.126  1.00  0.00    -0.000 C 
BRANCH  13  14
ATOM     14  C   UNL     1       3.571  -5.686   4.550  1.00  0.00    -0.000 C 
BRANCH  14  15
ATOM     15  C   UNL     1       2.575  -6.466   3.675  1.00  0.00    -0.000 C 
BRANCH  15  16
ATOM     16  C   UNL     1       1.573  -5.565   2.921  1.00  0.00    -0.000 C 
BRANCH  16  17
ATOM     17  C   UNL     1       2.229  -4.262   2.428  1.00  0.00    -0.000 C 
BRANCH  17  18
ATOM     18  C   UNL     1       2.599  -4.317   0.937  1.00  0.00    -0.000 C 
BRANCH  18  19
ATOM     19  C   UNL     1       1.927  -5.492   0.208  1.00  0.00    -0.003 C 
ATOM     20  C   UNL     1       2.967  -6.462  -0.344  1.00  0.00     0.004 C 
ENDBRANCH  18  19
ENDBRANCH  17  18
ENDBRANCH  16  17
ENDBRANCH  15  16
ENDBRANCH  14  15
ENDBRANCH  13  14
ENDBRANCH  12  13
ENDBRANCH   1  12
TORSDOF 16
ENDMDL
MODEL 5
REMARK VINA RESULT:    -3.505      3.096      5.881
REMARK INTER + INTRA:          -9.454
REMARK INTER:                  -6.613
REMARK INTRA:                  -2.841
REMARK UNBOUND:                -2.670
REMARK SMILES CCCCCCCCCCCCCCCCCC(=O)[O-]
REMARK SMILES IDX 10 1 11 2 12 3 13 4 14 5 15 6 16 7 17 8 18 9 19 10 20 11
REMARK SMILES IDX 9 12 8 13 7 14 6 15 5 16 4 17 3 18 2 19 1 20
REMARK H PARENT
REMARK Flexibility Score: inf
ROOT
ATOM      1  C   UNL     1       3.791  -7.473   0.406  1.00  0.00     0.000 C 
ENDROOT
BRANCH   1   2
ATOM      2  C   UNL     1       2.892  -7.004  -0.751  1.00  0.00     0.000 C 
BRANCH   2   3
ATOM      3  C   UNL     1       1.583  -6.368  -0.259  1.00  0.00     0.000 C 
BRANCH   3   4
ATOM      4  C   UNL     1       1.727  -4.864   0.035  1.00  0.00     0.000 C 
BRANCH   4   5
ATOM      5  C   UNL     1       1.722  -4.554   1.540  1.00  0.00     0.000 C 
BRANCH   5   6
ATOM      6  C   UNL     1       1.115  -5.691   2.376  1.00  0.00     0.000 C 
BRANCH   6   7
ATOM      7  C   UNL     1       2.115  -6.192   3.429  1.00  0.00     0.006 C 
BRANCH   7   8
ATOM      8  C   UNL     1       3.302  -5.236   3.604  1.00  0.00     0.053 C 
BRANCH   8   9
ATOM      9  C   UNL     1       4.275  -5.743   4.625  1.00  0.00     0.041 C 
ATOM     10  O   UNL     1       3.867  -6.129   5.753  1.00  0.00    -0.550 OA
ATOM     11  O   UNL     1       5.635  -5.757   4.342  1.00  0.00    -0.550 OA
ENDBRANCH   8   9
ENDBRANCH   7   8
ENDBRANCH   6   7
ENDBRANCH   5   6
ENDBRANCH   4   5
ENDBRANCH   3   4
ENDBRANCH   2   3
ENDBRANCH   1   2
BRANCH   1  12
ATOM     12  C   UNL     1       5.243  -6.974   0.281  1.00  0.00     0.000 C 
BRANCH  12  13
ATOM     13  C   UNL     1       5.403  -5.512  -0.171  1.00  0.00    -0.000 C 
BRANCH  13  14
ATOM     14  C   UNL     1       5.953  -4.595   0.934  1.00  0.00    -0.000 C 
BRANCH  14  15
ATOM     15  C   UNL     1       5.138  -3.300   1.096  1.00  0.00    -0.000 C 
BRANCH  15  16
ATOM     16  C   UNL     1       4.606  -2.733  -0.238  1.00  0.00    -0.000 C 
BRANCH  16  17
ATOM     17  C   UNL     1       5.206  -1.352  -0.557  1.00  0.00    -0.000 C 
BRANCH  17  18
ATOM     18  C   UNL     1       5.848  -1.296  -1.952  1.00  0.00    -0.000 C 
BRANCH  18  19
ATOM     19  C   UNL     1       6.110  -2.694  -2.534  1.00  0.00    -0.003 C 
ATOM     20  C   UNL     1       7.584  -3.070  -2.417  1.00  0.00     0.004 C 
ENDBRANCH  18  19
ENDBRANCH  17  18
ENDBRANCH  16  17
ENDBRANCH  15  16
ENDBRANCH  14  15
ENDBRANCH  13  14
ENDBRANCH  12  13
ENDBRANCH   1  12
TORSDOF 16
ENDMDL
MODEL 6
REMARK VINA RESULT:    -3.469      3.282      6.658
REMARK INTER + INTRA:          -9.384
REMARK INTER:                  -6.897
REMARK INTRA:                  -2.487
REMARK UNBOUND:                -2.670
REMARK SMILES CCCCCCCCCCCCCCCCCC(=O)[O-]
REMARK SMILES IDX 10 1 11 2 12 3 13 4 14 5 15 6 16 7 17 8 18 9 19 10 20 11
REMARK SMILES IDX 9 12 8 13 7 14 6 15 5 16 4 17 3 18 2 19 1 20
REMARK H PARENT
REMARK Flexibility Score: inf
ROOT
ATOM      1  C   UNL     1       3.680  -4.287  -0.041  1.00  0.00     0.000 C 
ENDROOT
BRANCH   1   2
ATOM      2  C   UNL     1       4.153  -3.121   0.844  1.00  0.00     0.000 C 
BRANCH   2   3
ATOM      3  C   UNL     1       5.352  -2.372   0.241  1.00  0.00     0.000 C 
BRANCH   3   4
ATOM      4  C   UNL     1       5.723  -2.880  -1.164  1.00  0.00     0.000 C 
BRANCH   4   5
ATOM      5  C   UNL     1       5.573  -1.794  -2.242  1.00  0.00     0.000 C 
BRANCH   5   6
ATOM      6  C   UNL     1       5.527  -0.377  -1.652  1.00  0.00     0.000 C 
BRANCH   6   7
ATOM      7  C   UNL     1       6.860   0.353  -1.875  1.00  0.00     0.006 C 
BRANCH   7   8
ATOM      8  C   UNL     1       7.714   0.405  -0.603  1.00  0.00     0.053 C 
BRANCH   8   9
ATOM      9  C   UNL     1       8.925  -0.472  -0.712  1.00  0.00     0.041 C 
ATOM     10  O   UNL     1       9.891  -0.320   0.082  1.00  0.00    -0.550 OA
ATOM     11  O   UNL     1       8.999  -1.434  -1.711  1.00  0.00    -0.550 OA
ENDBRANCH   8   9
ENDBRANCH   7   8
ENDBRANCH   6   7
ENDBRANCH   5   6
ENDBRANCH   4   5
ENDBRANCH   3   4
ENDBRANCH   2   3
ENDBRANCH   1   2
BRANCH   1  12
ATOM     12  C   UNL     1       2.321  -4.864   0.399  1.00  0.00     0.000 C 
BRANCH  12  13
ATOM     13  C   UNL     1       1.828  -4.409   1.785  1.00  0.00    -0.000 C 
BRANCH  13  14
ATOM     14  C   UNL     1       1.308  -5.569   2.650  1.00  0.00    -0.000 C 
BRANCH  14  15
ATOM     15  C   UNL     1       2.420  -6.252   3.464  1.00  0.00    -0.000 C 
BRANCH  15  16
ATOM     16  C   UNL     1       3.407  -5.261   4.118  1.00  0.00    -0.000 C 
BRANCH  16  17
ATOM     17  C   UNL     1       4.864  -5.744   4.011  1.00  0.00    -0.000 C 
BRANCH  17  18
ATOM     18  C   UNL     1       5.120  -6.567   2.738  1.00  0.00    -0.000 C 
BRANCH  18  19
ATOM     19  C   UNL     1       6.239  -5.972   1.870  1.00  0.00    -0.003 C 
ATOM     20  C   UNL     1       6.974  -4.859   2.610  1.00  0.00     0.004 C 
ENDBRANCH  18  19
ENDBRANCH  17  18
ENDBRANCH  16  17
ENDBRANCH  15  16
ENDBRANCH  14  15
ENDBRANCH  13  14
ENDBRANCH  12  13
ENDBRANCH   1  12
TORSDOF 16
ENDMDL
MODEL 7
REMARK VINA RESULT:    -3.452      2.952      6.303
REMARK INTER + INTRA:          -9.351
REMARK INTER:                  -6.718
REMARK INTRA:                  -2.633
REMARK UNBOUND:                -2.670
REMARK SMILES CCCCCCCCCCCCCCCCCC(=O)[O-]
REMARK SMILES IDX 10 1 11 2 12 3 13 4 14 5 15 6 16 7 17 8 18 9 19 10 20 11
REMARK SMILES IDX 9 12 8 13 7 14 6 15 5 16 4 17 3 18 2 19 1 20
REMARK H PARENT
REMARK Flexibility Score: inf
ROOT
ATOM      1  C   UNL     1       5.826  -4.302   0.859  1.00  0.00     0.000 C 
ENDROOT
BRANCH   1   2
ATOM      2  C   UNL     1       6.776  -3.664   1.887  1.00  0.00     0.000 C 
BRANCH   2   3
ATOM      3  C   UNL     1       7.517  -2.441   1.323  1.00  0.00     0.000 C 
BRANCH   3   4
ATOM      4  C   UNL     1       6.593  -1.226   1.125  1.00  0.00     0.000 C 
BRANCH   4   5
ATOM      5  C   UNL     1       6.624  -0.691  -0.316  1.00  0.00     0.000 C 
BRANCH   5   6
ATOM      6  C   UNL     1       5.369  -1.072  -1.115  1.00  0.00     0.000 C 
BRANCH   6   7
ATOM      7  C   UNL     1       5.697  -2.132  -2.178  1.00  0.00     0.006 C 
BRANCH   7   8
ATOM      8  C   UNL     1       7.201  -2.415  -2.272  1.00  0.00     0.053 C 
BRANCH   8   9
ATOM      9  C   UNL     1       7.477  -3.866  -2.530  1.00  0.00     0.041 C 
ATOM     10  O   UNL     1       6.525  -4.685  -2.623  1.00  0.00    -0.550 OA
ATOM     11  O   UNL     1       8.787  -4.316  -2.636  1.00  0.00    -0.550 OA
ENDBRANCH   8   9
ENDBRANCH   7   8
ENDBRANCH   6   7
ENDBRANCH   5   6
ENDBRANCH   4   5
ENDBRANCH   3   4
ENDBRANCH   2   3
ENDBRANCH   1   2
BRANCH   1  12
ATOM     12  C   UNL     1       4.348  -3.934   1.096  1.00  0.00     0.000 C 
BRANCH  12  13
ATOM     13  C   UNL     1       3.364  -4.426   0.019  1.00  0.00    -0.000 C 
BRANCH  13  14
ATOM     14  C   UNL     1       1.957  -4.709   0.572  1.00  0.00    -0.000 C 
BRANCH  14  15
ATOM     15  C   UNL     1       1.838  -4.416   2.077  1.00  0.00    -0.000 C 
BRANCH  15  16
ATOM     16  C   UNL     1       1.379  -5.632   2.910  1.00  0.00    -0.000 C 
BRANCH  16  17
ATOM     17  C   UNL     1       2.570  -6.413   3.493  1.00  0.00    -0.000 C 
BRANCH  17  18
ATOM     18  C   UNL     1       3.435  -5.556   4.430  1.00  0.00    -0.000 C 
BRANCH  18  19
ATOM     19  C   UNL     1       4.938  -5.825   4.253  1.00  0.00    -0.003 C 
ATOM     20  C   UNL     1       5.175  -7.029   3.346  1.00  0.00     0.004 C 
ENDBRANCH  18  19
ENDBRANCH  17  18
ENDBRANCH  16  17
ENDBRANCH  15  16
ENDBRANCH  14  15
ENDBRANCH  13  14
ENDBRANCH  12  13
ENDBRANCH   1  12
TORSDOF 16
ENDMDL
MODEL 8
REMARK VINA RESULT:    -3.452      1.975      4.054
REMARK INTER + INTRA:          -9.351
REMARK INTER:                  -6.804
REMARK INTRA:                  -2.547
REMARK UNBOUND:                -2.670
REMARK SMILES CCCCCCCCCCCCCCCCCC(=O)[O-]
REMARK SMILES IDX 10 1 11 2 12 3 13 4 14 5 15 6 16 7 17 8 18 9 19 10 20 11
REMARK SMILES IDX 9 12 8 13 7 14 6 15 5 16 4 17 3 18 2 19 1 20
REMARK H PARENT
REMARK Flexibility Score: inf
ROOT
ATOM      1  C   UNL     1       5.735  -4.519  -0.822  1.00  0.00     0.000 C 
ENDROOT
BRANCH   1   2
ATOM      2  C   UNL     1       5.883  -5.266   0.514  1.00  0.00     0.000 C 
BRANCH   2   3
ATOM      3  C   UNL     1       4.948  -4.716   1.603  1.00  0.00     0.000 C 
BRANCH   3   4
ATOM      4  C   UNL     1       4.076  -3.551   1.103  1.00  0.00     0.000 C 
BRANCH   4   5
ATOM      5  C   UNL     1       2.573  -3.822   1.277  1.00  0.00     0.000 C 
BRANCH   5   6
ATOM      6  C   UNL     1       2.052  -4.900   0.314  1.00  0.00     0.000 C 
BRANCH   6   7
ATOM      7  C   UNL     1       1.283  -5.990   1.076  1.00  0.00     0.006 C 
BRANCH   7   8
ATOM      8  C   UNL     1       1.088  -5.637   2.556  1.00  0.00     0.053 C 
BRANCH   8   9
ATOM      9  C   UNL     1       1.756  -6.632   3.456  1.00  0.00     0.041 C 
ATOM     10  O   UNL     1       2.818  -6.327   4.060  1.00  0.00    -0.550 OA
ATOM     11  O   UNL     1       1.223  -7.907   3.601  1.00  0.00    -0.550 OA
ENDBRANCH   8   9
ENDBRANCH   7   8
ENDBRANCH   6   7
ENDBRANCH   5   6
ENDBRANCH   4   5
ENDBRANCH   3   4
ENDBRANCH   2   3
ENDBRANCH   1   2
BRANCH   1  12
ATOM     12  C   UNL     1       7.067  -3.940  -1.339  1.00  0.00     0.000 C 
BRANCH  12  13
ATOM     13  C   UNL     1       6.941  -2.705  -2.249  1.00  0.00    -0.000 C 
BRANCH  13  14
ATOM     14  C   UNL     1       5.569  -2.017  -2.146  1.00  0.00    -0.000 C 
BRANCH  14  15
ATOM     15  C   UNL     1       5.573  -0.821  -1.179  1.00  0.00    -0.000 C 
BRANCH  15  16
ATOM     16  C   UNL     1       6.924  -0.075  -1.121  1.00  0.00    -0.000 C 
BRANCH  16  17
ATOM     17  C   UNL     1       7.543  -0.114   0.287  1.00  0.00    -0.000 C 
BRANCH  17  18
ATOM     18  C   UNL     1       6.766  -1.030   1.247  1.00  0.00    -0.000 C 
BRANCH  18  19
ATOM     19  C   UNL     1       7.656  -2.116   1.871  1.00  0.00    -0.003 C 
ATOM     20  C   UNL     1       8.708  -1.502   2.789  1.00  0.00     0.004 C 
ENDBRANCH  18  19
ENDBRANCH  17  18
ENDBRANCH  16  17
ENDBRANCH  15  16
ENDBRANCH  14  15
ENDBRANCH  13  14
ENDBRANCH  12  13
ENDBRANCH   1  12
TORSDOF 16
ENDMDL
MODEL 9
REMARK VINA RESULT:    -3.446      2.735      5.330
REMARK INTER + INTRA:          -9.339
REMARK INTER:                  -6.935
REMARK INTRA:                  -2.404
REMARK UNBOUND:                -2.670
REMARK SMILES CCCCCCCCCCCCCCCCCC(=O)[O-]
REMARK SMILES IDX 10 1 11 2 12 3 13 4 14 5 15 6 16 7 17 8 18 9 19 10 20 11
REMARK SMILES IDX 9 12 8 13 7 14 6 15 5 16 4 17 3 18 2 19 1 20
REMARK H PARENT
REMARK Flexibility Score: inf
ROOT
ATOM      1  C   UNL     1       6.034  -3.754   1.304  1.00  0.00     0.000 C 
ENDROOT
BRANCH   1   2
ATOM      2  C   UNL     1       4.597  -3.291   1.010  1.00  0.00     0.000 C 
BRANCH   2   3
ATOM      3  C   UNL     1       3.882  -4.198  -0.004  1.00  0.00     0.000 C 
BRANCH   3   4
ATOM      4  C   UNL     1       2.510  -4.683   0.498  1.00  0.00     0.000 C 
BRANCH   4   5
ATOM      5  C   UNL     1       2.175  -4.154   1.901  1.00  0.00     0.000 C 
BRANCH   5   6
ATOM      6  C   UNL     1       2.086  -5.274   2.949  1.00  0.00     0.000 C 
BRANCH   6   7
ATOM      7  C   UNL     1       3.403  -5.401   3.728  1.00  0.00     0.006 C 
BRANCH   7   8
ATOM      8  C   UNL     1       3.305  -6.415   4.875  1.00  0.00     0.053 C 
BRANCH   8   9
ATOM      9  C   UNL     1       2.754  -7.728   4.408  1.00  0.00     0.041 C 
ATOM     10  O   UNL     1       3.409  -8.440   3.601  1.00  0.00    -0.550 OA
ATOM     11  O   UNL     1       1.502  -8.150   4.839  1.00  0.00    -0.550 OA
ENDBRANCH   8   9
ENDBRANCH   7   8
ENDBRANCH   6   7
ENDBRANCH   5   6
ENDBRANCH   4   5
ENDBRANCH   3   4
ENDBRANCH   2   3
ENDBRANCH   1   2
BRANCH   1  12
ATOM     12  C   UNL     1       7.033  -2.586   1.412  1.00  0.00     0.000 C 
BRANCH  12  13
ATOM     13  C   UNL     1       6.455  -1.192   1.106  1.00  0.00    -0.000 C 
BRANCH  13  14
ATOM     14  C   UNL     1       6.839  -0.672  -0.289  1.00  0.00    -0.000 C 
BRANCH  14  15
ATOM     15  C   UNL     1       5.639  -0.591  -1.247  1.00  0.00    -0.000 C 
BRANCH  15  16
ATOM     16  C   UNL     1       5.644  -1.682  -2.339  1.00  0.00    -0.000 C 
BRANCH  16  17
ATOM     17  C   UNL     1       6.922  -2.539  -2.292  1.00  0.00    -0.000 C 
BRANCH  17  18
ATOM     18  C   UNL     1       6.690  -3.970  -2.802  1.00  0.00    -0.000 C 
BRANCH  18  19
ATOM     19  C   UNL     1       7.327  -5.029  -1.888  1.00  0.00    -0.003 C 
ATOM     20  C   UNL     1       6.385  -6.211  -1.680  1.00  0.00     0.004 C 
ENDBRANCH  18  19
ENDBRANCH  17  18
ENDBRANCH  16  17
ENDBRANCH  15  16
ENDBRANCH  14  15
ENDBRANCH  13  14
ENDBRANCH  12  13
ENDBRANCH   1  12
TORSDOF 16
ENDMDL
