MODEL 1
REMARK VINA RESULT:     8.200      0.000      0.000
REMARK INTER + INTRA:          10.278
REMARK INTER:                   9.878
REMARK INTRA:                   0.400
REMARK UNBOUND:                 0.400
REMARK SMILES Oc1cc(O)c2cc(O)c(-c3ccc(O)c(O)c3)[o+]c2c1.[Cl-]
REMARK SMILES IDX 10 1 19 2 20 3 21 4 2 5 3 6 4 7 6 8 7 9 8 10 11 11 12 12
REMARK SMILES IDX 13 13 14 14 18 15 16 16 15 17 17 19 9 21 1 23 5 25
REMARK H PARENT 15 18 17 20 9 22 1 24 5 26
REMARK Flexibility Score: inf
ROOT
ATOM      1  C   UNL     1       3.179 135.167 155.467  1.00  0.00     0.402 A 
ATOM      2  O   UNL     1       2.795 133.908 155.278  1.00  0.00    -0.202 OA
ATOM      3  C   UNL     1       3.237 133.151 154.278  1.00  0.00     0.368 A 
ATOM      4  C   UNL     1       2.777 131.837 154.166  1.00  0.00     0.162 A 
ATOM      5  C   UNL     1       3.229 131.018 153.125  1.00  0.00     0.128 A 
ATOM      6  C   UNL     1       4.144 131.518 152.196  1.00  0.00     0.093 A 
ATOM      7  C   UNL     1       4.621 132.831 152.288  1.00  0.00     0.136 A 
ATOM      8  C   UNL     1       4.164 133.666 153.340  1.00  0.00     0.125 A 
ATOM      9  C   UNL     1       4.576 134.999 153.502  1.00  0.00     0.078 A 
ATOM     10  C   UNL     1       4.078 135.762 154.562  1.00  0.00     0.223 A 
ENDROOT
BRANCH   1  11
ATOM     11  C   UNL     1       2.622 135.903 156.625  1.00  0.00     0.087 A 
ATOM     12  C   UNL     1       1.944 135.197 157.630  1.00  0.00     0.022 A 
ATOM     13  C   UNL     1       1.427 135.869 158.742  1.00  0.00     0.051 A 
ATOM     14  C   UNL     1       1.596 137.253 158.871  1.00  0.00     0.157 A 
ATOM     15  C   UNL     1       2.808 137.291 156.769  1.00  0.00     0.068 A 
ATOM     16  C   UNL     1       2.291 137.965 157.885  1.00  0.00     0.158 A 
BRANCH  14  17
ATOM     17  O   UNL     1       1.081 137.926 159.977  1.00  0.00    -0.504 OA
ATOM     18  H   UNL     1       0.999 138.935 159.992  1.00  0.00     0.293 HD
ENDBRANCH  14  17
BRANCH  16  19
ATOM     19  O   UNL     1       2.470 139.340 158.024  1.00  0.00    -0.504 OA
ATOM     20  H   UNL     1       2.478 139.958 157.221  1.00  0.00     0.293 HD
ENDBRANCH  16  19
ENDBRANCH   1  11
BRANCH  10  21
ATOM     21  O   UNL     1       4.450 137.101 154.695  1.00  0.00    -0.500 OA
ATOM     22  H   UNL     1       5.086 137.544 154.044  1.00  0.00     0.294 HD
ENDBRANCH  10  21
BRANCH   5  23
ATOM     23  O   UNL     1       2.774 129.707 153.007  1.00  0.00    -0.507 OA
ATOM     24  H   UNL     1       1.873 129.493 152.596  1.00  0.00     0.293 HD
ENDBRANCH   5  23
BRANCH   7  25
ATOM     25  O   UNL     1       5.537 133.252 151.320  1.00  0.00    -0.507 OA
ATOM     26  H   UNL     1       5.648 134.209 151.018  1.00  0.00     0.293 HD
ENDBRANCH   7  25
TORSDOF 6
ENDMDL
MODEL 2
REMARK VINA RESULT:     9.529      0.943      0.953
REMARK INTER + INTRA:          11.878
REMARK INTER:                  11.940
REMARK INTRA:                  -0.062
REMARK UNBOUND:                 0.400
REMARK SMILES Oc1cc(O)c2cc(O)c(-c3ccc(O)c(O)c3)[o+]c2c1.[Cl-]
REMARK SMILES IDX 10 1 19 2 20 3 21 4 2 5 3 6 4 7 6 8 7 9 8 10 11 11 12 12
REMARK SMILES IDX 13 13 14 14 18 15 16 16 15 17 17 19 9 21 1 23 5 25
REMARK H PARENT 15 18 17 20 9 22 1 24 5 26
REMARK Flexibility Score: inf
ROOT
ATOM      1  C   UNL     1       3.457 135.003 154.850  1.00  0.00     0.402 A 
ATOM      2  O   UNL     1       3.157 133.707 154.802  1.00  0.00    -0.202 OA
ATOM      3  C   UNL     1       3.613 132.887 153.860  1.00  0.00     0.368 A 
ATOM      4  C   UNL     1       3.243 131.540 153.896  1.00  0.00     0.162 A 
ATOM      5  C   UNL     1       3.712 130.654 152.921  1.00  0.00     0.128 A 
ATOM      6  C   UNL     1       4.553 131.118 151.907  1.00  0.00     0.093 A 
ATOM      7  C   UNL     1       4.938 132.464 151.850  1.00  0.00     0.136 A 
ATOM      8  C   UNL     1       4.463 133.367 152.836  1.00  0.00     0.125 A 
ATOM      9  C   UNL     1       4.785 134.733 152.849  1.00  0.00     0.078 A 
ATOM     10  C   UNL     1       4.275 135.564 153.852  1.00  0.00     0.223 A 
ENDROOT
BRANCH   1  11
ATOM     11  C   UNL     1       2.893 135.811 155.955  1.00  0.00     0.087 A 
ATOM     12  C   UNL     1       1.529 135.698 156.267  1.00  0.00     0.022 A 
ATOM     13  C   UNL     1       0.980 136.437 157.319  1.00  0.00     0.051 A 
ATOM     14  C   UNL     1       1.790 137.286 158.083  1.00  0.00     0.157 A 
ATOM     15  C   UNL     1       3.708 136.649 156.739  1.00  0.00     0.068 A 
ATOM     16  C   UNL     1       3.157 137.390 157.795  1.00  0.00     0.158 A 
BRANCH  14  17
ATOM     17  O   UNL     1       1.246 138.025 159.131  1.00  0.00    -0.504 OA
ATOM     18  H   UNL     1       0.245 138.115 159.253  1.00  0.00     0.293 HD
ENDBRANCH  14  17
BRANCH  16  19
ATOM     19  O   UNL     1       3.964 138.224 158.567  1.00  0.00    -0.504 OA
ATOM     20  H   UNL     1       4.894 138.490 158.265  1.00  0.00     0.293 HD
ENDBRANCH  16  19
ENDBRANCH   1  11
BRANCH  10  21
ATOM     21  O   UNL     1       4.555 136.931 153.838  1.00  0.00    -0.500 OA
ATOM     22  H   UNL     1       5.064 137.362 153.076  1.00  0.00     0.294 HD
ENDBRANCH  10  21
BRANCH   5  23
ATOM     23  O   UNL     1       3.348 129.310 152.950  1.00  0.00    -0.507 OA
ATOM     24  H   UNL     1       3.899 128.600 152.481  1.00  0.00     0.293 HD
ENDBRANCH   5  23
BRANCH   7  25
ATOM     25  O   UNL     1       5.785 132.847 150.805  1.00  0.00    -0.507 OA
ATOM     26  H   UNL     1       6.667 132.403 150.595  1.00  0.00     0.293 HD
ENDBRANCH   7  25
TORSDOF 6
ENDMDL
MODEL 3
REMARK VINA RESULT:    10.270      1.599      6.789
REMARK INTER + INTRA:          12.771
REMARK INTER:                  12.796
REMARK INTRA:                  -0.024
REMARK UNBOUND:                 0.400
REMARK SMILES Oc1cc(O)c2cc(O)c(-c3ccc(O)c(O)c3)[o+]c2c1.[Cl-]
REMARK SMILES IDX 10 1 19 2 20 3 21 4 2 5 3 6 4 7 6 8 7 9 8 10 11 11 12 12
REMARK SMILES IDX 13 13 14 14 18 15 16 16 15 17 17 19 9 21 1 23 5 25
REMARK H PARENT 15 18 17 20 9 22 1 24 5 26
REMARK Flexibility Score: inf
ROOT
ATOM      1  C   UNL     1       3.508 134.710 154.187  1.00  0.00     0.402 A 
ATOM      2  O   UNL     1       2.880 134.181 155.234  1.00  0.00    -0.202 OA
ATOM      3  C   UNL     1       2.555 134.878 156.319  1.00  0.00     0.368 A 
ATOM      4  C   UNL     1       1.893 134.234 157.367  1.00  0.00     0.162 A 
ATOM      5  C   UNL     1       1.535 134.944 158.518  1.00  0.00     0.128 A 
ATOM      6  C   UNL     1       1.841 136.303 158.618  1.00  0.00     0.093 A 
ATOM      7  C   UNL     1       2.503 136.971 157.581  1.00  0.00     0.136 A 
ATOM      8  C   UNL     1       2.870 136.255 156.412  1.00  0.00     0.125 A 
ATOM      9  C   UNL     1       3.547 136.839 155.330  1.00  0.00     0.078 A 
ATOM     10  C   UNL     1       3.881 136.067 154.213  1.00  0.00     0.223 A 
ENDROOT
BRANCH   1  11
ATOM     11  C   UNL     1       3.808 133.832 153.034  1.00  0.00     0.087 A 
ATOM     12  C   UNL     1       2.769 133.103 152.433  1.00  0.00     0.022 A 
ATOM     13  C   UNL     1       3.026 132.283 151.330  1.00  0.00     0.051 A 
ATOM     14  C   UNL     1       4.320 132.194 150.803  1.00  0.00     0.157 A 
ATOM     15  C   UNL     1       5.103 133.756 152.487  1.00  0.00     0.068 A 
ATOM     16  C   UNL     1       5.360 132.934 151.380  1.00  0.00     0.158 A 
BRANCH  14  17
ATOM     17  O   UNL     1       4.580 131.377 149.705  1.00  0.00    -0.504 OA
ATOM     18  H   UNL     1       3.919 130.672 149.400  1.00  0.00     0.293 HD
ENDBRANCH  14  17
BRANCH  16  19
ATOM     19  O   UNL     1       6.644 132.855 150.844  1.00  0.00    -0.504 OA
ATOM     20  H   UNL     1       6.806 132.907 149.846  1.00  0.00     0.293 HD
ENDBRANCH  16  19
ENDBRANCH   1  11
BRANCH  10  21
ATOM     21  O   UNL     1       4.597 136.635 153.159  1.00  0.00    -0.500 OA
ATOM     22  H   UNL     1       4.157 136.853 152.273  1.00  0.00     0.294 HD
ENDBRANCH  10  21
BRANCH   5  23
ATOM     23  O   UNL     1       0.875 134.308 159.567  1.00  0.00    -0.507 OA
ATOM     24  H   UNL     1       1.278 133.508 160.040  1.00  0.00     0.293 HD
ENDBRANCH   5  23
BRANCH   7  25
ATOM     25  O   UNL     1       2.768 138.332 157.759  1.00  0.00    -0.507 OA
ATOM     26  H   UNL     1       3.615 138.792 157.457  1.00  0.00     0.293 HD
ENDBRANCH   7  25
TORSDOF 6
ENDMDL
MODEL 4
REMARK VINA RESULT:    10.488      1.570      7.240
REMARK INTER + INTRA:          13.033
REMARK INTER:                  13.165
REMARK INTRA:                  -0.131
REMARK UNBOUND:                 0.400
REMARK SMILES Oc1cc(O)c2cc(O)c(-c3ccc(O)c(O)c3)[o+]c2c1.[Cl-]
REMARK SMILES IDX 10 1 19 2 20 3 21 4 2 5 3 6 4 7 6 8 7 9 8 10 11 11 12 12
REMARK SMILES IDX 13 13 14 14 18 15 16 16 15 17 17 19 9 21 1 23 5 25
REMARK H PARENT 15 18 17 20 9 22 1 24 5 26
REMARK Flexibility Score: inf
ROOT
ATOM      1  C   UNL     1       2.889 133.645 154.536  1.00  0.00     0.402 A 
ATOM      2  O   UNL     1       3.064 134.924 154.858  1.00  0.00    -0.202 OA
ATOM      3  C   UNL     1       2.678 135.444 156.020  1.00  0.00     0.368 A 
ATOM      4  C   UNL     1       2.909 136.799 156.267  1.00  0.00     0.162 A 
ATOM      5  C   UNL     1       2.517 137.371 157.482  1.00  0.00     0.128 A 
ATOM      6  C   UNL     1       1.893 136.582 158.452  1.00  0.00     0.093 A 
ATOM      7  C   UNL     1       1.651 135.221 158.227  1.00  0.00     0.136 A 
ATOM      8  C   UNL     1       2.045 134.637 156.996  1.00  0.00     0.125 A 
ATOM      9  C   UNL     1       1.831 133.286 156.679  1.00  0.00     0.078 A 
ATOM     10  C   UNL     1       2.242 132.783 155.441  1.00  0.00     0.223 A 
ENDROOT
BRANCH   1  11
ATOM     11  C   UNL     1       3.370 133.184 153.214  1.00  0.00     0.087 A 
ATOM     12  C   UNL     1       2.450 132.675 152.284  1.00  0.00     0.022 A 
ATOM     13  C   UNL     1       2.880 132.252 151.022  1.00  0.00     0.051 A 
ATOM     14  C   UNL     1       4.231 132.348 150.669  1.00  0.00     0.157 A 
ATOM     15  C   UNL     1       4.724 133.297 152.847  1.00  0.00     0.068 A 
ATOM     16  C   UNL     1       5.155 132.874 151.581  1.00  0.00     0.158 A 
BRANCH  14  17
ATOM     17  O   UNL     1       4.663 131.926 149.413  1.00  0.00    -0.504 OA
ATOM     18  H   UNL     1       4.941 130.967 149.242  1.00  0.00     0.293 HD
ENDBRANCH  14  17
BRANCH  16  19
ATOM     19  O   UNL     1       6.497 132.981 151.221  1.00  0.00    -0.504 OA
ATOM     20  H   UNL     1       7.238 132.923 151.910  1.00  0.00     0.293 HD
ENDBRANCH  16  19
ENDBRANCH   1  11
BRANCH  10  21
ATOM     21  O   UNL     1       1.985 131.453 155.107  1.00  0.00    -0.500 OA
ATOM     22  H   UNL     1       1.194 130.950 155.490  1.00  0.00     0.294 HD
ENDBRANCH  10  21
BRANCH   5  23
ATOM     23  O   UNL     1       2.744 138.722 157.736  1.00  0.00    -0.507 OA
ATOM     24  H   UNL     1       2.196 139.445 157.287  1.00  0.00     0.293 HD
ENDBRANCH   5  23
BRANCH   7  25
ATOM     25  O   UNL     1       1.025 134.502 159.250  1.00  0.00    -0.507 OA
ATOM     26  H   UNL     1       0.025 134.399 159.344  1.00  0.00     0.293 HD
ENDBRANCH   7  25
TORSDOF 6
ENDMDL
MODEL 5
REMARK VINA RESULT:    10.534      1.105      2.877
REMARK INTER + INTRA:          13.090
REMARK INTER:                  12.723
REMARK INTRA:                   0.366
REMARK UNBOUND:                 0.400
REMARK SMILES Oc1cc(O)c2cc(O)c(-c3ccc(O)c(O)c3)[o+]c2c1.[Cl-]
REMARK SMILES IDX 10 1 19 2 20 3 21 4 2 5 3 6 4 7 6 8 7 9 8 10 11 11 12 12
REMARK SMILES IDX 13 13 14 14 18 15 16 16 15 17 17 19 9 21 1 23 5 25
REMARK H PARENT 15 18 17 20 9 22 1 24 5 26
REMARK Flexibility Score: inf
ROOT
ATOM      1  C   UNL     1       2.705 134.611 155.763  1.00  0.00     0.402 A 
ATOM      2  O   UNL     1       3.678 134.719 154.862  1.00  0.00    -0.202 OA
ATOM      3  C   UNL     1       3.899 133.814 153.913  1.00  0.00     0.368 A 
ATOM      4  C   UNL     1       4.944 134.019 153.009  1.00  0.00     0.162 A 
ATOM      5  C   UNL     1       5.196 133.085 151.999  1.00  0.00     0.128 A 
ATOM      6  C   UNL     1       4.398 131.943 151.894  1.00  0.00     0.093 A 
ATOM      7  C   UNL     1       3.344 131.716 152.788  1.00  0.00     0.136 A 
ATOM      8  C   UNL     1       3.086 132.659 153.815  1.00  0.00     0.125 A 
ATOM      9  C   UNL     1       2.061 132.507 154.763  1.00  0.00     0.078 A 
ATOM     10  C   UNL     1       1.870 133.478 155.751  1.00  0.00     0.223 A 
ENDROOT
BRANCH   1  11
ATOM     11  C   UNL     1       2.555 135.691 156.764  1.00  0.00     0.087 A 
ATOM     12  C   UNL     1       3.113 136.953 156.508  1.00  0.00     0.022 A 
ATOM     13  C   UNL     1       2.966 137.993 157.430  1.00  0.00     0.051 A 
ATOM     14  C   UNL     1       2.245 137.790 158.613  1.00  0.00     0.157 A 
ATOM     15  C   UNL     1       1.812 135.498 157.944  1.00  0.00     0.068 A 
ATOM     16  C   UNL     1       1.663 136.541 158.869  1.00  0.00     0.158 A 
BRANCH  14  17
ATOM     17  O   UNL     1       2.097 138.824 159.535  1.00  0.00    -0.504 OA
ATOM     18  H   UNL     1       1.200 139.037 159.954  1.00  0.00     0.293 HD
ENDBRANCH  14  17
BRANCH  16  19
ATOM     19  O   UNL     1       0.934 136.347 160.040  1.00  0.00    -0.504 OA
ATOM     20  H   UNL     1       0.484 135.462 160.245  1.00  0.00     0.293 HD
ENDBRANCH  16  19
ENDBRANCH   1  11
BRANCH  10  21
ATOM     21  O   UNL     1       0.884 133.303 156.722  1.00  0.00    -0.500 OA
ATOM     22  H   UNL     1       1.112 133.233 157.706  1.00  0.00     0.294 HD
ENDBRANCH  10  21
BRANCH   5  23
ATOM     23  O   UNL     1       6.236 133.283 151.094  1.00  0.00    -0.507 OA
ATOM     24  H   UNL     1       6.304 132.745 150.238  1.00  0.00     0.293 HD
ENDBRANCH   5  23
BRANCH   7  25
ATOM     25  O   UNL     1       2.592 130.551 152.612  1.00  0.00    -0.507 OA
ATOM     26  H   UNL     1       2.663 129.733 153.199  1.00  0.00     0.293 HD
ENDBRANCH   7  25
TORSDOF 6
ENDMDL
