MODEL 1
REMARK VINA RESULT:    99.060      0.000      0.000
REMARK INTER + INTRA:         108.110
REMARK INTER:                 107.747
REMARK INTRA:                   0.363
REMARK UNBOUND:                 0.363
REMARK SMILES C[C@@H]1[C@H]2C3=CC[C@H]4[C@]5(C)CC[C@@H](O)C(C)(C)[C@@H]5CC[C@@]4(C)[C@]3(C)CC[C@@]2(C(=O)[O-])CC[C@@H]1C
REMARK SMILES IDX 26 1 30 2 25 3 3 4 31 5 24 6 4 7 2 8 32 9 22 10 5 11 1 12
REMARK SMILES IDX 33 13 23 14 20 15 6 16 7 17 19 18 21 19 8 20 18 21 17 22
REMARK SMILES IDX 10 23 9 24 14 25 11 26 12 27 15 28 16 29 27 30 28 31 29 32
REMARK SMILES IDX 13 33
REMARK H PARENT 13 34
REMARK Flexibility Score: inf
ROOT
ATOM      1  C   UNL     1     140.913 165.095 174.896  1.00  0.00     0.017 C 
ATOM      2  C   UNL     1     139.314 165.727 174.758  1.00  0.00     0.014 C 
ATOM      3  C   UNL     1     141.784 165.446 176.227  1.00  0.00     0.014 C 
ATOM      4  C   UNL     1     141.634 166.034 173.828  1.00  0.00     0.030 C 
ATOM      5  C   UNL     1     138.947 166.176 173.243  1.00  0.00     0.004 C 
ATOM      6  C   UNL     1     142.819 166.775 176.136  1.00  0.00     0.013 C 
ATOM      7  C   UNL     1     141.334 167.627 174.381  1.00  0.00    -0.063 C 
ATOM      8  C   UNL     1     141.179 165.497 172.419  1.00  0.00    -0.003 C 
ATOM      9  C   UNL     1     139.640 165.255 172.326  1.00  0.00    -0.011 C 
ATOM     10  C   UNL     1     141.687 168.083 175.905  1.00  0.00    -0.006 C 
ATOM     11  C   UNL     1     141.202 168.617 173.423  1.00  0.00    -0.027 C 
ATOM     12  C   UNL     1     141.969 164.264 171.661  1.00  0.00     0.008 C 
ATOM     13  C   UNL     1     138.668 163.974 172.265  1.00  0.00     0.008 C 
ATOM     14  C   UNL     1     141.104 167.702 177.483  1.00  0.00     0.017 C 
ATOM     15  C   UNL     1     141.992 169.830 175.929  1.00  0.00    -0.020 C 
ATOM     16  C   UNL     1     141.001 170.126 173.517  1.00  0.00     0.032 C 
ATOM     17  C   UNL     1     141.568 170.907 174.817  1.00  0.00     0.006 C 
ATOM     18  C   UNL     1     140.850 170.485 177.079  1.00  0.00     0.008 C 
ATOM     19  C   UNL     1     143.581 169.644 175.699  1.00  0.00     0.012 C 
ATOM     20  C   UNL     1     141.728 172.503 175.286  1.00  0.00    -0.025 C 
ATOM     21  C   UNL     1     140.019 171.794 176.953  1.00  0.00     0.005 C 
ATOM     22  C   UNL     1     140.861 172.991 176.547  1.00  0.00     0.003 C 
ATOM     23  C   UNL     1     143.236 172.749 175.630  1.00  0.00     0.010 C 
ATOM     24  C   UNL     1     141.265 173.392 174.097  1.00  0.00     0.012 C 
ATOM     25  C   UNL     1     141.496 173.804 177.806  1.00  0.00    -0.006 C 
ATOM     26  C   UNL     1     143.562 172.424 177.178  1.00  0.00     0.033 C 
ATOM     27  C   UNL     1     142.666 173.011 178.294  1.00  0.00     0.120 C 
ATOM     28  C   UNL     1     140.506 173.862 178.981  1.00  0.00     0.014 C 
ATOM     29  C   UNL     1     141.832 175.354 177.519  1.00  0.00     0.014 C 
ENDROOT
BRANCH   1  30
ATOM     30  C   UNL     1     140.940 163.575 174.931  1.00  0.00     0.048 C 
ATOM     31  O   UNL     1     141.907 163.047 175.503  1.00  0.00    -0.550 OA
ATOM     32  O   UNL     1     139.754 162.846 174.879  1.00  0.00    -0.550 OA
ENDBRANCH   1  30
BRANCH  27  33
ATOM     33  O   UNL     1     143.516 173.817 179.123  1.00  0.00    -0.393 OA
ATOM     34  H   UNL     1     143.439 174.769 178.984  1.00  0.00     0.210 HD
ENDBRANCH  27  33
TORSDOF 2
ENDMDL
MODEL 2
REMARK VINA RESULT:   101.156      1.613      3.156
REMARK INTER + INTRA:         110.389
REMARK INTER:                 110.377
REMARK INTRA:                   0.013
REMARK UNBOUND:                 0.363
REMARK SMILES C[C@@H]1[C@H]2C3=CC[C@H]4[C@]5(C)CC[C@@H](O)C(C)(C)[C@@H]5CC[C@@]4(C)[C@]3(C)CC[C@@]2(C(=O)[O-])CC[C@@H]1C
REMARK SMILES IDX 26 1 30 2 25 3 3 4 31 5 24 6 4 7 2 8 32 9 22 10 5 11 1 12
REMARK SMILES IDX 33 13 23 14 20 15 6 16 7 17 19 18 21 19 8 20 18 21 17 22
REMARK SMILES IDX 10 23 9 24 14 25 11 26 12 27 15 28 16 29 27 30 28 31 29 32
REMARK SMILES IDX 13 33
REMARK H PARENT 13 34
REMARK Flexibility Score: inf
ROOT
ATOM      1  C   UNL     1     140.868 165.262 173.828  1.00  0.00     0.017 C 
ATOM      2  C   UNL     1     142.032 165.998 172.788  1.00  0.00     0.014 C 
ATOM      3  C   UNL     1     139.544 166.112 174.250  1.00  0.00     0.014 C 
ATOM      4  C   UNL     1     141.694 165.323 175.191  1.00  0.00     0.030 C 
ATOM      5  C   UNL     1     143.557 165.613 173.184  1.00  0.00     0.004 C 
ATOM      6  C   UNL     1     139.614 166.965 175.704  1.00  0.00     0.013 C 
ATOM      7  C   UNL     1     142.048 166.985 175.406  1.00  0.00    -0.063 C 
ATOM      8  C   UNL     1     142.793 164.202 175.068  1.00  0.00    -0.003 C 
ATOM      9  C   UNL     1     143.547 164.234 173.702  1.00  0.00    -0.011 C 
ATOM     10  C   UNL     1     140.879 168.120 175.370  1.00  0.00    -0.006 C 
ATOM     11  C   UNL     1     143.240 167.303 176.034  1.00  0.00    -0.027 C 
ATOM     12  C   UNL     1     142.490 162.636 175.485  1.00  0.00     0.008 C 
ATOM     13  C   UNL     1     143.581 163.327 172.374  1.00  0.00     0.008 C 
ATOM     14  C   UNL     1     139.813 168.767 174.179  1.00  0.00     0.017 C 
ATOM     15  C   UNL     1     141.395 169.511 176.342  1.00  0.00    -0.020 C 
ATOM     16  C   UNL     1     143.864 168.629 176.456  1.00  0.00     0.032 C 
ATOM     17  C   UNL     1     142.888 169.871 176.811  1.00  0.00     0.006 C 
ATOM     18  C   UNL     1     141.347 170.879 175.255  1.00  0.00     0.008 C 
ATOM     19  C   UNL     1     140.695 168.944 177.683  1.00  0.00     0.012 C 
ATOM     20  C   UNL     1     143.075 171.405 177.445  1.00  0.00    -0.025 C 
ATOM     21  C   UNL     1     142.380 172.037 175.138  1.00  0.00     0.005 C 
ATOM     22  C   UNL     1     142.738 172.646 176.483  1.00  0.00     0.003 C 
ATOM     23  C   UNL     1     142.145 171.518 178.700  1.00  0.00     0.010 C 
ATOM     24  C   UNL     1     144.572 171.576 177.830  1.00  0.00     0.012 C 
ATOM     25  C   UNL     1     141.771 173.879 176.923  1.00  0.00    -0.006 C 
ATOM     26  C   UNL     1     140.664 172.030 178.309  1.00  0.00     0.033 C 
ATOM     27  C   UNL     1     140.492 173.279 177.414  1.00  0.00     0.120 C 
ATOM     28  C   UNL     1     141.392 174.743 175.709  1.00  0.00     0.014 C 
ATOM     29  C   UNL     1     142.432 174.935 177.946  1.00  0.00     0.014 C 
ENDROOT
BRANCH   1  30
ATOM     30  C   UNL     1     140.229 164.028 173.210  1.00  0.00     0.048 C 
ATOM     31  O   UNL     1     139.384 163.433 173.898  1.00  0.00    -0.550 OA
ATOM     32  O   UNL     1     140.126 163.904 171.826  1.00  0.00    -0.550 OA
ENDBRANCH   1  30
BRANCH  27  33
ATOM     33  O   UNL     1     139.744 174.235 178.179  1.00  0.00    -0.393 OA
ATOM     34  H   UNL     1     138.859 174.426 177.844  1.00  0.00     0.210 HD
ENDBRANCH  27  33
TORSDOF 2
ENDMDL
