MODEL 1
REMARK VINA RESULT:    33.830      0.000      0.000
REMARK INTER + INTRA:          39.905
REMARK INTER:                  39.763
REMARK INTRA:                   0.142
REMARK UNBOUND:                 0.142
REMARK SMILES O=c1c(O)c(-c2ccc(O)cc2)oc2cc(O)cc(O)c12
REMARK SMILES IDX 5 1 3 2 2 3 1 4 21 5 19 6 18 7 16 8 15 9 14 10 13 11 6 12
REMARK SMILES IDX 7 13 8 14 9 15 12 16 11 17 10 18 4 20 20 22 17 24
REMARK H PARENT 10 19 4 21 20 23 17 25
REMARK Flexibility Score: inf
ROOT
ATOM      1  C   UNL     1      11.996  -2.000 -11.760  1.00  0.00     0.180 A 
ATOM      2  C   UNL     1      10.676  -2.480 -11.692  1.00  0.00     0.208 A 
ATOM      3  C   UNL     1      10.321  -3.349 -10.648  1.00  0.00     0.238 A 
ATOM      4  O   UNL     1       9.126  -3.732 -10.560  1.00  0.00    -0.285 OA
ATOM      5  C   UNL     1      11.293  -3.741  -9.695  1.00  0.00     0.111 A 
ATOM      6  C   UNL     1      11.054  -4.648  -8.620  1.00  0.00     0.134 A 
ATOM      7  C   UNL     1      12.053  -4.862  -7.662  1.00  0.00     0.093 A 
ATOM      8  C   UNL     1      13.302  -4.253  -7.776  1.00  0.00     0.123 A 
ATOM      9  C   UNL     1      13.567  -3.411  -8.857  1.00  0.00     0.094 A 
ATOM     10  C   UNL     1      12.578  -3.149  -9.808  1.00  0.00     0.146 A 
ATOM     11  O   UNL     1      12.867  -2.333 -10.815  1.00  0.00    -0.452 OA
ENDROOT
BRANCH   1  12
ATOM     12  C   UNL     1      12.452  -1.101 -12.845  1.00  0.00     0.021 A 
ATOM     13  C   UNL     1      13.690  -1.294 -13.486  1.00  0.00     0.016 A 
ATOM     14  C   UNL     1      14.110  -0.417 -14.490  1.00  0.00     0.047 A 
ATOM     15  C   UNL     1      13.309   0.668 -14.858  1.00  0.00     0.115 A 
ATOM     16  C   UNL     1      11.662   0.004 -13.205  1.00  0.00     0.016 A 
ATOM     17  C   UNL     1      12.084   0.879 -14.210  1.00  0.00     0.047 A 
BRANCH  15  18
ATOM     18  O   UNL     1      13.739   1.533 -15.862  1.00  0.00    -0.508 OA
ATOM     19  H   UNL     1      14.316   2.340 -15.655  1.00  0.00     0.293 HD
ENDBRANCH  15  18
ENDBRANCH   1  12
BRANCH   2  20
ATOM     20  O   UNL     1       9.727  -2.063 -12.629  1.00  0.00    -0.502 OA
ATOM     21  H   UNL     1       9.954  -1.440 -13.394  1.00  0.00     0.293 HD
ENDBRANCH   2  20
BRANCH   6  22
ATOM     22  O   UNL     1       9.874  -5.380  -8.464  1.00  0.00    -0.507 OA
ATOM     23  H   UNL     1       9.821  -6.387  -8.438  1.00  0.00     0.293 HD
ENDBRANCH   6  22
BRANCH   8  24
ATOM     24  O   UNL     1      14.278  -4.501  -6.813  1.00  0.00    -0.508 OA
ATOM     25  H   UNL     1      14.494  -3.825  -6.090  1.00  0.00     0.293 HD
ENDBRANCH   8  24
TORSDOF 5
ENDMDL
MODEL 2
REMARK VINA RESULT:    36.805      3.167      4.005
REMARK INTER + INTRA:          43.401
REMARK INTER:                  42.885
REMARK INTRA:                   0.516
REMARK UNBOUND:                 0.142
REMARK SMILES O=c1c(O)c(-c2ccc(O)cc2)oc2cc(O)cc(O)c12
REMARK SMILES IDX 5 1 3 2 2 3 1 4 21 5 19 6 18 7 16 8 15 9 14 10 13 11 6 12
REMARK SMILES IDX 7 13 8 14 9 15 12 16 11 17 10 18 4 20 20 22 17 24
REMARK H PARENT 10 19 4 21 20 23 17 25
REMARK Flexibility Score: inf
ROOT
ATOM      1  C   UNL     1      10.100  -3.376  -9.911  1.00  0.00     0.180 A 
ATOM      2  C   UNL     1       9.539  -3.933  -8.748  1.00  0.00     0.208 A 
ATOM      3  C   UNL     1      10.390  -4.492  -7.782  1.00  0.00     0.238 A 
ATOM      4  O   UNL     1       9.887  -4.939  -6.719  1.00  0.00    -0.285 OA
ATOM      5  C   UNL     1      11.790  -4.502  -7.997  1.00  0.00     0.111 A 
ATOM      6  C   UNL     1      12.743  -5.078  -7.105  1.00  0.00     0.134 A 
ATOM      7  C   UNL     1      14.111  -4.915  -7.356  1.00  0.00     0.093 A 
ATOM      8  C   UNL     1      14.559  -4.255  -8.499  1.00  0.00     0.123 A 
ATOM      9  C   UNL     1      13.636  -3.740  -9.410  1.00  0.00     0.094 A 
ATOM     10  C   UNL     1      12.264  -3.855  -9.168  1.00  0.00     0.146 A 
ATOM     11  O   UNL     1      11.419  -3.342 -10.053  1.00  0.00    -0.452 OA
ENDROOT
BRANCH   1  12
ATOM     12  C   UNL     1       9.265  -2.791 -10.985  1.00  0.00     0.021 A 
ATOM     13  C   UNL     1       9.801  -2.500 -12.254  1.00  0.00     0.016 A 
ATOM     14  C   UNL     1       9.000  -1.924 -13.244  1.00  0.00     0.047 A 
ATOM     15  C   UNL     1       7.662  -1.621 -12.980  1.00  0.00     0.115 A 
ATOM     16  C   UNL     1       7.925  -2.464 -10.719  1.00  0.00     0.016 A 
ATOM     17  C   UNL     1       7.126  -1.889 -11.713  1.00  0.00     0.047 A 
BRANCH  15  18
ATOM     18  O   UNL     1       6.875  -1.050 -13.977  1.00  0.00    -0.508 OA
ATOM     19  H   UNL     1       6.297  -1.616 -14.586  1.00  0.00     0.293 HD
ENDBRANCH  15  18
ENDBRANCH   1  12
BRANCH   2  20
ATOM     20  O   UNL     1       8.157  -3.892  -8.545  1.00  0.00    -0.502 OA
ATOM     21  H   UNL     1       7.608  -3.056  -8.703  1.00  0.00     0.293 HD
ENDBRANCH   2  20
BRANCH   6  22
ATOM     22  O   UNL     1      12.401  -5.838  -5.982  1.00  0.00    -0.507 OA
ATOM     23  H   UNL     1      11.826  -5.511  -5.220  1.00  0.00     0.293 HD
ENDBRANCH   6  22
BRANCH   8  24
ATOM     24  O   UNL     1      15.928  -4.125  -8.725  1.00  0.00    -0.508 OA
ATOM     25  H   UNL     1      16.541  -3.702  -8.039  1.00  0.00     0.293 HD
ENDBRANCH   8  24
TORSDOF 5
ENDMDL
