MODEL 1
REMARK VINA RESULT:    -5.088      0.000      0.000
REMARK INTER + INTRA:          -6.278
REMARK INTER:                  -5.981
REMARK INTRA:                  -0.298
REMARK UNBOUND:                -0.298
REMARK SMILES O=c1cc(-c2ccc(O)c(O)c2)oc2cc(O)cc(O)c12
REMARK SMILES IDX 4 1 3 2 2 3 1 4 21 5 19 6 18 7 16 8 15 9 14 10 13 11 5 12
REMARK SMILES IDX 6 13 7 14 8 15 12 16 10 17 9 18 11 20 20 22 17 24
REMARK H PARENT 9 19 11 21 20 23 17 25
REMARK Flexibility Score: inf
ROOT
ATOM      1  C   UNL     1       1.428  15.912  30.495  1.00  0.00     0.138 A 
ATOM      2  C   UNL     1       2.824  16.002  30.586  1.00  0.00     0.100 A 
ATOM      3  C   UNL     1       3.478  17.118  30.062  1.00  0.00     0.197 A 
ATOM      4  O   UNL     1       4.725  17.201  30.213  1.00  0.00    -0.289 OA
ATOM      5  C   UNL     1       2.732  18.132  29.415  1.00  0.00     0.107 A 
ATOM      6  C   UNL     1       3.296  19.294  28.809  1.00  0.00     0.134 A 
ATOM      7  C   UNL     1       2.448  20.288  28.301  1.00  0.00     0.093 A 
ATOM      8  C   UNL     1       1.060  20.133  28.325  1.00  0.00     0.123 A 
ATOM      9  C   UNL     1       0.502  18.977  28.867  1.00  0.00     0.094 A 
ATOM     10  C   UNL     1       1.319  17.984  29.412  1.00  0.00     0.146 A 
ATOM     11  O   UNL     1       0.746  16.904  29.932  1.00  0.00    -0.456 OA
ENDROOT
BRANCH   1  12
ATOM     12  C   UNL     1       0.681  14.747  31.035  1.00  0.00     0.021 A 
ATOM     13  C   UNL     1       1.151  13.429  30.877  1.00  0.00     0.016 A 
ATOM     14  C   UNL     1       0.422  12.351  31.385  1.00  0.00     0.051 A 
ATOM     15  C   UNL     1      -0.789  12.568  32.054  1.00  0.00     0.157 A 
ATOM     16  C   UNL     1      -0.543  14.955  31.696  1.00  0.00     0.062 A 
ATOM     17  C   UNL     1      -1.274  13.877  32.208  1.00  0.00     0.158 A 
BRANCH  15  18
ATOM     18  O   UNL     1      -1.512  11.490  32.562  1.00  0.00    -0.504 OA
ATOM     19  H   UNL     1      -1.054  10.719  33.035  1.00  0.00     0.293 HD
ENDBRANCH  15  18
BRANCH  17  20
ATOM     20  O   UNL     1      -2.478  14.126  32.865  1.00  0.00    -0.504 OA
ATOM     21  H   UNL     1      -3.220  14.670  32.442  1.00  0.00     0.293 HD
ENDBRANCH  17  20
ENDBRANCH   1  12
BRANCH   6  22
ATOM     22  O   UNL     1       4.669  19.508  28.657  1.00  0.00    -0.507 OA
ATOM     23  H   UNL     1       5.288  19.826  29.388  1.00  0.00     0.293 HD
ENDBRANCH   6  22
BRANCH   8  24
ATOM     24  O   UNL     1       0.227  21.119  27.804  1.00  0.00    -0.508 OA
ATOM     25  H   UNL     1      -0.549  20.891  27.194  1.00  0.00     0.293 HD
ENDBRANCH   8  24
TORSDOF 5
ENDMDL
MODEL 2
REMARK VINA RESULT:    -5.073     11.434     12.857
REMARK INTER + INTRA:          -6.260
REMARK INTER:                  -5.945
REMARK INTRA:                  -0.315
REMARK UNBOUND:                -0.298
REMARK SMILES O=c1cc(-c2ccc(O)c(O)c2)oc2cc(O)cc(O)c12
REMARK SMILES IDX 4 1 3 2 2 3 1 4 21 5 19 6 18 7 16 8 15 9 14 10 13 11 5 12
REMARK SMILES IDX 6 13 7 14 8 15 12 16 10 17 9 18 11 20 20 22 17 24
REMARK H PARENT 9 19 11 21 20 23 17 25
REMARK Flexibility Score: inf
ROOT
ATOM      1  C   UNL     1       7.931   6.642  31.926  1.00  0.00     0.138 A 
ATOM      2  C   UNL     1       9.252   7.038  31.673  1.00  0.00     0.100 A 
ATOM      3  C   UNL     1       9.873   6.651  30.484  1.00  0.00     0.197 A 
ATOM      4  O   UNL     1      11.036   7.073  30.257  1.00  0.00    -0.289 OA
ATOM      5  C   UNL     1       9.177   5.836  29.560  1.00  0.00     0.107 A 
ATOM      6  C   UNL     1       9.722   5.348  28.335  1.00  0.00     0.134 A 
ATOM      7  C   UNL     1       8.899   4.647  27.444  1.00  0.00     0.093 A 
ATOM      8  C   UNL     1       7.568   4.366  27.761  1.00  0.00     0.123 A 
ATOM      9  C   UNL     1       7.041   4.792  28.978  1.00  0.00     0.094 A 
ATOM     10  C   UNL     1       7.826   5.524  29.873  1.00  0.00     0.146 A 
ATOM     11  O   UNL     1       7.281   5.924  31.016  1.00  0.00    -0.456 OA
ENDROOT
BRANCH   1  12
ATOM     12  C   UNL     1       7.224   7.025  33.174  1.00  0.00     0.021 A 
ATOM     13  C   UNL     1       7.917   7.519  34.296  1.00  0.00     0.016 A 
ATOM     14  C   UNL     1       7.227   7.862  35.461  1.00  0.00     0.051 A 
ATOM     15  C   UNL     1       5.836   7.711  35.530  1.00  0.00     0.157 A 
ATOM     16  C   UNL     1       5.829   6.865  33.257  1.00  0.00     0.062 A 
ATOM     17  C   UNL     1       5.135   7.208  34.422  1.00  0.00     0.158 A 
BRANCH  15  18
ATOM     18  O   UNL     1       5.151   8.056  36.694  1.00  0.00    -0.504 OA
ATOM     19  H   UNL     1       5.238   8.977  37.108  1.00  0.00     0.293 HD
ENDBRANCH  15  18
BRANCH  17  20
ATOM     20  O   UNL     1       3.751   7.043  34.460  1.00  0.00    -0.504 OA
ATOM     21  H   UNL     1       3.321   6.155  34.688  1.00  0.00     0.293 HD
ENDBRANCH  17  20
ENDBRANCH   1  12
BRANCH   6  22
ATOM     22  O   UNL     1      11.060   5.500  27.961  1.00  0.00    -0.507 OA
ATOM     23  H   UNL     1      11.497   5.035  27.178  1.00  0.00     0.293 HD
ENDBRANCH   6  22
BRANCH   8  24
ATOM     24  O   UNL     1       6.762   3.655  26.875  1.00  0.00    -0.508 OA
ATOM     25  H   UNL     1       6.561   4.002  25.945  1.00  0.00     0.293 HD
ENDBRANCH   8  24
TORSDOF 5
ENDMDL
MODEL 3
REMARK VINA RESULT:    -5.044      2.255      6.967
REMARK INTER + INTRA:          -6.227
REMARK INTER:                  -5.934
REMARK INTRA:                  -0.293
REMARK UNBOUND:                -0.298
REMARK SMILES O=c1cc(-c2ccc(O)c(O)c2)oc2cc(O)cc(O)c12
REMARK SMILES IDX 4 1 3 2 2 3 1 4 21 5 19 6 18 7 16 8 15 9 14 10 13 11 5 12
REMARK SMILES IDX 6 13 7 14 8 15 12 16 10 17 9 18 11 20 20 22 17 24
REMARK H PARENT 9 19 11 21 20 23 17 25
REMARK Flexibility Score: inf
ROOT
ATOM      1  C   UNL     1       2.135  15.486  31.256  1.00  0.00     0.138 A 
ATOM      2  C   UNL     1       3.076  15.336  32.284  1.00  0.00     0.100 A 
ATOM      3  C   UNL     1       2.918  14.313  33.220  1.00  0.00     0.197 A 
ATOM      4  O   UNL     1       3.810  14.165  34.095  1.00  0.00    -0.289 OA
ATOM      5  C   UNL     1       1.793  13.456  33.143  1.00  0.00     0.107 A 
ATOM      6  C   UNL     1       1.508  12.405  34.065  1.00  0.00     0.134 A 
ATOM      7  C   UNL     1       0.428  11.547  33.821  1.00  0.00     0.093 A 
ATOM      8  C   UNL     1      -0.411  11.739  32.720  1.00  0.00     0.123 A 
ATOM      9  C   UNL     1      -0.172  12.796  31.844  1.00  0.00     0.094 A 
ATOM     10  C   UNL     1       0.918  13.647  32.041  1.00  0.00     0.146 A 
ATOM     11  O   UNL     1       1.119  14.633  31.174  1.00  0.00    -0.456 OA
ENDROOT
BRANCH   1  12
ATOM     12  C   UNL     1       2.254  16.557  30.234  1.00  0.00     0.021 A 
ATOM     13  C   UNL     1       3.487  16.867  29.628  1.00  0.00     0.016 A 
ATOM     14  C   UNL     1       3.572  17.888  28.678  1.00  0.00     0.051 A 
ATOM     15  C   UNL     1       2.432  18.619  28.320  1.00  0.00     0.157 A 
ATOM     16  C   UNL     1       1.118  17.305  29.879  1.00  0.00     0.062 A 
ATOM     17  C   UNL     1       1.200  18.327  28.926  1.00  0.00     0.158 A 
BRANCH  15  18
ATOM     18  O   UNL     1       2.521  19.635  27.371  1.00  0.00    -0.504 OA
ATOM     19  H   UNL     1       2.171  19.512  26.427  1.00  0.00     0.293 HD
ENDBRANCH  15  18
BRANCH  17  20
ATOM     20  O   UNL     1       0.048  19.039  28.595  1.00  0.00    -0.504 OA
ATOM     21  H   UNL     1      -0.855  18.589  28.505  1.00  0.00     0.293 HD
ENDBRANCH  17  20
ENDBRANCH   1  12
BRANCH   6  22
ATOM     22  O   UNL     1       2.231  12.179  35.240  1.00  0.00    -0.507 OA
ATOM     23  H   UNL     1       1.909  12.409  36.169  1.00  0.00     0.293 HD
ENDBRANCH   6  22
BRANCH   8  24
ATOM     24  O   UNL     1      -1.491  10.890  32.494  1.00  0.00    -0.508 OA
ATOM     25  H   UNL     1      -1.683  10.103  33.102  1.00  0.00     0.293 HD
ENDBRANCH   8  24
TORSDOF 5
ENDMDL
MODEL 4
REMARK VINA RESULT:    -5.032      3.770      9.458
REMARK INTER + INTRA:          -6.213
REMARK INTER:                  -5.939
REMARK INTRA:                  -0.274
REMARK UNBOUND:                -0.298
REMARK SMILES O=c1cc(-c2ccc(O)c(O)c2)oc2cc(O)cc(O)c12
REMARK SMILES IDX 4 1 3 2 2 3 1 4 21 5 19 6 18 7 16 8 15 9 14 10 13 11 5 12
REMARK SMILES IDX 6 13 7 14 8 15 12 16 10 17 9 18 11 20 20 22 17 24
REMARK H PARENT 9 19 11 21 20 23 17 25
REMARK Flexibility Score: inf
ROOT
ATOM      1  C   UNL     1      -0.382  11.258  33.105  1.00  0.00     0.138 A 
ATOM      2  C   UNL     1       0.644  10.848  33.967  1.00  0.00     0.100 A 
ATOM      3  C   UNL     1       0.531   9.634  34.646  1.00  0.00     0.197 A 
ATOM      4  O   UNL     1       1.495   9.263  35.364  1.00  0.00    -0.289 OA
ATOM      5  C   UNL     1      -0.632   8.843  34.484  1.00  0.00     0.107 A 
ATOM      6  C   UNL     1      -0.874   7.608  35.156  1.00  0.00     0.134 A 
ATOM      7  C   UNL     1      -2.008   6.855  34.827  1.00  0.00     0.093 A 
ATOM      8  C   UNL     1      -2.939   7.321  33.896  1.00  0.00     0.123 A 
ATOM      9  C   UNL     1      -2.738   8.552  33.274  1.00  0.00     0.094 A 
ATOM     10  C   UNL     1      -1.599   9.310  33.554  1.00  0.00     0.146 A 
ATOM     11  O   UNL     1      -1.438  10.471  32.929  1.00  0.00    -0.456 OA
ENDROOT
BRANCH   1  12
ATOM     12  C   UNL     1      -0.314  12.541  32.359  1.00  0.00     0.021 A 
ATOM     13  C   UNL     1       0.689  12.787  31.402  1.00  0.00     0.016 A 
ATOM     14  C   UNL     1       0.736  14.008  30.723  1.00  0.00     0.051 A 
ATOM     15  C   UNL     1      -0.212  15.003  30.990  1.00  0.00     0.157 A 
ATOM     16  C   UNL     1      -1.253  13.551  32.631  1.00  0.00     0.062 A 
ATOM     17  C   UNL     1      -1.210  14.774  31.951  1.00  0.00     0.158 A 
BRANCH  15  18
ATOM     18  O   UNL     1      -0.162  16.218  30.309  1.00  0.00    -0.504 OA
ATOM     19  H   UNL     1      -0.075  16.258  29.300  1.00  0.00     0.293 HD
ENDBRANCH  15  18
BRANCH  17  20
ATOM     20  O   UNL     1      -2.166  15.746  32.243  1.00  0.00    -0.504 OA
ATOM     21  H   UNL     1      -2.833  16.068  31.553  1.00  0.00     0.293 HD
ENDBRANCH  17  20
ENDBRANCH   1  12
BRANCH   6  22
ATOM     22  O   UNL     1      -0.053   7.092  36.163  1.00  0.00    -0.507 OA
ATOM     23  H   UNL     1      -0.240   7.164  37.153  1.00  0.00     0.293 HD
ENDBRANCH   6  22
BRANCH   8  24
ATOM     24  O   UNL     1      -4.071   6.572  33.587  1.00  0.00    -0.508 OA
ATOM     25  H   UNL     1      -4.011   5.718  33.046  1.00  0.00     0.293 HD
ENDBRANCH   8  24
TORSDOF 5
ENDMDL
MODEL 5
REMARK VINA RESULT:    -5.001      2.045      7.159
REMARK INTER + INTRA:          -6.176
REMARK INTER:                  -5.912
REMARK INTRA:                  -0.264
REMARK UNBOUND:                -0.298
REMARK SMILES O=c1cc(-c2ccc(O)c(O)c2)oc2cc(O)cc(O)c12
REMARK SMILES IDX 4 1 3 2 2 3 1 4 21 5 19 6 18 7 16 8 15 9 14 10 13 11 5 12
REMARK SMILES IDX 6 13 7 14 8 15 12 16 10 17 9 18 11 20 20 22 17 24
REMARK H PARENT 9 19 11 21 20 23 17 25
REMARK Flexibility Score: inf
ROOT
ATOM      1  C   UNL     1       2.737  17.118  29.979  1.00  0.00     0.138 A 
ATOM      2  C   UNL     1       1.696  17.969  30.375  1.00  0.00     0.100 A 
ATOM      3  C   UNL     1       0.524  17.425  30.903  1.00  0.00     0.197 A 
ATOM      4  O   UNL     1      -0.369  18.215  31.306  1.00  0.00    -0.289 OA
ATOM      5  C   UNL     1       0.383  16.020  31.004  1.00  0.00     0.107 A 
ATOM      6  C   UNL     1      -0.781  15.353  31.488  1.00  0.00     0.134 A 
ATOM      7  C   UNL     1      -0.761  13.962  31.652  1.00  0.00     0.093 A 
ATOM      8  C   UNL     1       0.360  13.210  31.294  1.00  0.00     0.123 A 
ATOM      9  C   UNL     1       1.483  13.847  30.770  1.00  0.00     0.094 A 
ATOM     10  C   UNL     1       1.506  15.236  30.626  1.00  0.00     0.146 A 
ATOM     11  O   UNL     1       2.602  15.806  30.136  1.00  0.00    -0.456 OA
ENDROOT
BRANCH   1  12
ATOM     12  C   UNL     1       4.005  17.644  29.411  1.00  0.00     0.021 A 
ATOM     13  C   UNL     1       4.152  17.888  28.033  1.00  0.00     0.016 A 
ATOM     14  C   UNL     1       5.361  18.372  27.524  1.00  0.00     0.051 A 
ATOM     15  C   UNL     1       6.442  18.615  28.379  1.00  0.00     0.157 A 
ATOM     16  C   UNL     1       5.101  17.877  30.261  1.00  0.00     0.062 A 
ATOM     17  C   UNL     1       6.311  18.363  29.755  1.00  0.00     0.158 A 
BRANCH  15  18
ATOM     18  O   UNL     1       7.645  19.099  27.868  1.00  0.00    -0.504 OA
ATOM     19  H   UNL     1       7.896  20.078  27.941  1.00  0.00     0.293 HD
ENDBRANCH  15  18
BRANCH  17  20
ATOM     20  O   UNL     1       7.371  18.590  30.632  1.00  0.00    -0.504 OA
ATOM     21  H   UNL     1       7.816  17.838  31.145  1.00  0.00     0.293 HD
ENDBRANCH  17  20
ENDBRANCH   1  12
BRANCH   6  22
ATOM     22  O   UNL     1      -1.982  16.000  31.794  1.00  0.00    -0.507 OA
ATOM     23  H   UNL     1      -2.794  15.551  32.192  1.00  0.00     0.293 HD
ENDBRANCH   6  22
BRANCH   8  24
ATOM     24  O   UNL     1       0.365  11.825  31.447  1.00  0.00    -0.508 OA
ATOM     25  H   UNL     1      -0.116  11.218  30.795  1.00  0.00     0.293 HD
ENDBRANCH   8  24
TORSDOF 5
ENDMDL
MODEL 6
REMARK VINA RESULT:    -4.977      2.924      5.662
REMARK INTER + INTRA:          -6.148
REMARK INTER:                  -5.830
REMARK INTRA:                  -0.318
REMARK UNBOUND:                -0.298
REMARK SMILES O=c1cc(-c2ccc(O)c(O)c2)oc2cc(O)cc(O)c12
REMARK SMILES IDX 4 1 3 2 2 3 1 4 21 5 19 6 18 7 16 8 15 9 14 10 13 11 5 12
REMARK SMILES IDX 6 13 7 14 8 15 12 16 10 17 9 18 11 20 20 22 17 24
REMARK H PARENT 9 19 11 21 20 23 17 25
REMARK Flexibility Score: inf
ROOT
ATOM      1  C   UNL     1      -1.155  12.509  32.900  1.00  0.00     0.138 A 
ATOM      2  C   UNL     1      -1.916  13.686  32.926  1.00  0.00     0.100 A 
ATOM      3  C   UNL     1      -1.408  14.850  32.347  1.00  0.00     0.197 A 
ATOM      4  O   UNL     1      -2.139  15.874  32.331  1.00  0.00    -0.289 OA
ATOM      5  C   UNL     1      -0.116  14.841  31.768  1.00  0.00     0.107 A 
ATOM      6  C   UNL     1       0.521  15.977  31.185  1.00  0.00     0.134 A 
ATOM      7  C   UNL     1       1.753  15.821  30.537  1.00  0.00     0.093 A 
ATOM      8  C   UNL     1       2.398  14.582  30.505  1.00  0.00     0.123 A 
ATOM      9  C   UNL     1       1.809  13.478  31.118  1.00  0.00     0.094 A 
ATOM     10  C   UNL     1       0.565  13.594  31.741  1.00  0.00     0.146 A 
ATOM     11  O   UNL     1       0.032  12.514  32.302  1.00  0.00    -0.456 OA
ENDROOT
BRANCH   1  12
ATOM     12  C   UNL     1      -1.647  11.244  33.502  1.00  0.00     0.021 A 
ATOM     13  C   UNL     1      -2.932  11.146  34.070  1.00  0.00     0.016 A 
ATOM     14  C   UNL     1      -3.365   9.945  34.639  1.00  0.00     0.051 A 
ATOM     15  C   UNL     1      -2.523   8.826  34.656  1.00  0.00     0.157 A 
ATOM     16  C   UNL     1      -0.804  10.119  33.535  1.00  0.00     0.062 A 
ATOM     17  C   UNL     1      -1.235   8.915  34.104  1.00  0.00     0.158 A 
BRANCH  15  18
ATOM     18  O   UNL     1      -2.960   7.630  35.223  1.00  0.00    -0.504 OA
ATOM     19  H   UNL     1      -3.455   6.933  34.678  1.00  0.00     0.293 HD
ENDBRANCH  15  18
BRANCH  17  20
ATOM     20  O   UNL     1      -0.372   7.820  34.108  1.00  0.00    -0.504 OA
ATOM     21  H   UNL     1      -0.585   6.965  33.610  1.00  0.00     0.293 HD
ENDBRANCH  17  20
ENDBRANCH   1  12
BRANCH   6  22
ATOM     22  O   UNL     1       0.003  17.275  31.236  1.00  0.00    -0.507 OA
ATOM     23  H   UNL     1      -0.416  17.760  30.457  1.00  0.00     0.293 HD
ENDBRANCH   6  22
BRANCH   8  24
ATOM     24  O   UNL     1       3.630  14.440  29.871  1.00  0.00    -0.508 OA
ATOM     25  H   UNL     1       3.793  14.802  28.940  1.00  0.00     0.293 HD
ENDBRANCH   8  24
TORSDOF 5
ENDMDL
MODEL 7
REMARK VINA RESULT:    -4.967      1.511      7.394
REMARK INTER + INTRA:          -6.136
REMARK INTER:                  -5.847
REMARK INTRA:                  -0.289
REMARK UNBOUND:                -0.298
REMARK SMILES O=c1cc(-c2ccc(O)c(O)c2)oc2cc(O)cc(O)c12
REMARK SMILES IDX 4 1 3 2 2 3 1 4 21 5 19 6 18 7 16 8 15 9 14 10 13 11 5 12
REMARK SMILES IDX 6 13 7 14 8 15 12 16 10 17 9 18 11 20 20 22 17 24
REMARK H PARENT 9 19 11 21 20 23 17 25
REMARK Flexibility Score: inf
ROOT
ATOM      1  C   UNL     1       0.623  15.733  30.988  1.00  0.00     0.138 A 
ATOM      2  C   UNL     1      -0.583  16.302  31.423  1.00  0.00     0.100 A 
ATOM      3  C   UNL     1      -1.500  15.520  32.127  1.00  0.00     0.197 A 
ATOM      4  O   UNL     1      -2.545  16.073  32.557  1.00  0.00    -0.289 OA
ATOM      5  C   UNL     1      -1.221  14.153  32.367  1.00  0.00     0.107 A 
ATOM      6  C   UNL     1      -2.099  13.250  33.038  1.00  0.00     0.134 A 
ATOM      7  C   UNL     1      -1.666  11.949  33.321  1.00  0.00     0.093 A 
ATOM      8  C   UNL     1      -0.410  11.500  32.905  1.00  0.00     0.123 A 
ATOM      9  C   UNL     1       0.434  12.358  32.203  1.00  0.00     0.094 A 
ATOM     10  C   UNL     1       0.044  13.672  31.935  1.00  0.00     0.146 A 
ATOM     11  O   UNL     1       0.884  14.462  31.275  1.00  0.00    -0.456 OA
ENDROOT
BRANCH   1  12
ATOM     12  C   UNL     1       1.633  16.519  30.235  1.00  0.00     0.021 A 
ATOM     13  C   UNL     1       2.996  16.163  30.233  1.00  0.00     0.016 A 
ATOM     14  C   UNL     1       3.927  16.927  29.525  1.00  0.00     0.051 A 
ATOM     15  C   UNL     1       3.516  18.061  28.812  1.00  0.00     0.157 A 
ATOM     16  C   UNL     1       1.232  17.666  29.528  1.00  0.00     0.062 A 
ATOM     17  C   UNL     1       2.162  18.433  28.816  1.00  0.00     0.158 A 
BRANCH  15  18
ATOM     18  O   UNL     1       4.447  18.819  28.105  1.00  0.00    -0.504 OA
ATOM     19  H   UNL     1       4.263  19.783  27.849  1.00  0.00     0.293 HD
ENDBRANCH  15  18
BRANCH  17  20
ATOM     20  O   UNL     1       1.722  19.558  28.120  1.00  0.00    -0.504 OA
ATOM     21  H   UNL     1       1.801  20.492  28.502  1.00  0.00     0.293 HD
ENDBRANCH  17  20
ENDBRANCH   1  12
BRANCH   6  22
ATOM     22  O   UNL     1      -3.405  13.570  33.420  1.00  0.00    -0.507 OA
ATOM     23  H   UNL     1      -3.704  13.735  34.370  1.00  0.00     0.293 HD
ENDBRANCH   6  22
BRANCH   8  24
ATOM     24  O   UNL     1       0.006  10.199  33.179  1.00  0.00    -0.508 OA
ATOM     25  H   UNL     1       0.124   9.514  32.442  1.00  0.00     0.293 HD
ENDBRANCH   8  24
TORSDOF 5
ENDMDL
MODEL 8
REMARK VINA RESULT:    -4.957      2.300      8.455
REMARK INTER + INTRA:          -6.124
REMARK INTER:                  -5.831
REMARK INTRA:                  -0.294
REMARK UNBOUND:                -0.298
REMARK SMILES O=c1cc(-c2ccc(O)c(O)c2)oc2cc(O)cc(O)c12
REMARK SMILES IDX 4 1 3 2 2 3 1 4 21 5 19 6 18 7 16 8 15 9 14 10 13 11 5 12
REMARK SMILES IDX 6 13 7 14 8 15 12 16 10 17 9 18 11 20 20 22 17 24
REMARK H PARENT 9 19 11 21 20 23 17 25
REMARK Flexibility Score: inf
ROOT
ATOM      1  C   UNL     1      -0.192  13.454  32.242  1.00  0.00     0.138 A 
ATOM      2  C   UNL     1      -1.511  13.821  32.542  1.00  0.00     0.100 A 
ATOM      3  C   UNL     1      -2.337  12.929  33.226  1.00  0.00     0.197 A 
ATOM      4  O   UNL     1      -3.496  13.309  33.536  1.00  0.00    -0.289 OA
ATOM      5  C   UNL     1      -1.848  11.649  33.583  1.00  0.00     0.107 A 
ATOM      6  C   UNL     1      -2.611  10.643  34.247  1.00  0.00     0.134 A 
ATOM      7  C   UNL     1      -1.985   9.458  34.654  1.00  0.00     0.093 A 
ATOM      8  C   UNL     1      -0.639   9.219  34.368  1.00  0.00     0.123 A 
ATOM      9  C   UNL     1       0.102  10.173  33.673  1.00  0.00     0.094 A 
ATOM     10  C   UNL     1      -0.485  11.380  33.285  1.00  0.00     0.146 A 
ATOM     11  O   UNL     1       0.260  12.268  32.637  1.00  0.00    -0.456 OA
ENDROOT
BRANCH   1  12
ATOM     12  C   UNL     1       0.729  14.365  31.515  1.00  0.00     0.021 A 
ATOM     13  C   UNL     1       2.112  14.114  31.442  1.00  0.00     0.016 A 
ATOM     14  C   UNL     1       2.957  14.994  30.761  1.00  0.00     0.051 A 
ATOM     15  C   UNL     1       2.439  16.140  30.147  1.00  0.00     0.157 A 
ATOM     16  C   UNL     1       0.219  15.526  30.908  1.00  0.00     0.062 A 
ATOM     17  C   UNL     1       1.062  16.408  30.223  1.00  0.00     0.158 A 
BRANCH  15  18
ATOM     18  O   UNL     1       3.285  17.015  29.467  1.00  0.00    -0.504 OA
ATOM     19  H   UNL     1       3.851  17.696  29.960  1.00  0.00     0.293 HD
ENDBRANCH  15  18
BRANCH  17  20
ATOM     20  O   UNL     1       0.515  17.543  29.626  1.00  0.00    -0.504 OA
ATOM     21  H   UNL     1       1.076  18.191  29.087  1.00  0.00     0.293 HD
ENDBRANCH  17  20
ENDBRANCH   1  12
BRANCH   6  22
ATOM     22  O   UNL     1      -3.982  10.745  34.504  1.00  0.00    -0.507 OA
ATOM     23  H   UNL     1      -4.463  10.280  35.260  1.00  0.00     0.293 HD
ENDBRANCH   6  22
BRANCH   8  24
ATOM     24  O   UNL     1      -0.029   8.031  34.764  1.00  0.00    -0.508 OA
ATOM     25  H   UNL     1      -0.493   7.377  35.382  1.00  0.00     0.293 HD
ENDBRANCH   8  24
TORSDOF 5
ENDMDL
MODEL 9
REMARK VINA RESULT:    -4.923      3.606      9.274
REMARK INTER + INTRA:          -6.085
REMARK INTER:                  -5.816
REMARK INTRA:                  -0.269
REMARK UNBOUND:                -0.298
REMARK SMILES O=c1cc(-c2ccc(O)c(O)c2)oc2cc(O)cc(O)c12
REMARK SMILES IDX 4 1 3 2 2 3 1 4 21 5 19 6 18 7 16 8 15 9 14 10 13 11 5 12
REMARK SMILES IDX 6 13 7 14 8 15 12 16 10 17 9 18 11 20 20 22 17 24
REMARK H PARENT 9 19 11 21 20 23 17 25
REMARK Flexibility Score: inf
ROOT
ATOM      1  C   UNL     1      -0.231  11.656  32.928  1.00  0.00     0.138 A 
ATOM      2  C   UNL     1      -1.394  10.877  32.845  1.00  0.00     0.100 A 
ATOM      3  C   UNL     1      -1.472   9.676  33.550  1.00  0.00     0.197 A 
ATOM      4  O   UNL     1      -2.551   9.030  33.505  1.00  0.00    -0.289 OA
ATOM      5  C   UNL     1      -0.366   9.237  34.317  1.00  0.00     0.107 A 
ATOM      6  C   UNL     1      -0.317   8.011  35.045  1.00  0.00     0.134 A 
ATOM      7  C   UNL     1       0.786   7.737  35.863  1.00  0.00     0.093 A 
ATOM      8  C   UNL     1       1.868   8.618  35.933  1.00  0.00     0.123 A 
ATOM      9  C   UNL     1       1.853   9.793  35.184  1.00  0.00     0.094 A 
ATOM     10  C   UNL     1       0.752  10.111  34.386  1.00  0.00     0.146 A 
ATOM     11  O   UNL     1       0.772  11.248  33.699  1.00  0.00    -0.456 OA
ENDROOT
BRANCH   1  12
ATOM     12  C   UNL     1      -0.094  12.941  32.197  1.00  0.00     0.021 A 
ATOM     13  C   UNL     1       1.000  13.198  31.350  1.00  0.00     0.016 A 
ATOM     14  C   UNL     1       1.109  14.421  30.683  1.00  0.00     0.051 A 
ATOM     15  C   UNL     1       0.133  15.410  30.855  1.00  0.00     0.157 A 
ATOM     16  C   UNL     1      -1.063  13.945  32.375  1.00  0.00     0.062 A 
ATOM     17  C   UNL     1      -0.957  15.171  31.708  1.00  0.00     0.158 A 
BRANCH  15  18
ATOM     18  O   UNL     1       0.244  16.628  30.187  1.00  0.00    -0.504 OA
ATOM     19  H   UNL     1      -0.574  17.171  29.933  1.00  0.00     0.293 HD
ENDBRANCH  15  18
BRANCH  17  20
ATOM     20  O   UNL     1      -1.944  16.136  31.903  1.00  0.00    -0.504 OA
ATOM     21  H   UNL     1      -1.880  16.830  32.638  1.00  0.00     0.293 HD
ENDBRANCH  17  20
ENDBRANCH   1  12
BRANCH   6  22
ATOM     22  O   UNL     1      -1.305   7.024  34.979  1.00  0.00    -0.507 OA
ATOM     23  H   UNL     1      -2.164   7.030  35.510  1.00  0.00     0.293 HD
ENDBRANCH   6  22
BRANCH   8  24
ATOM     24  O   UNL     1       2.967   8.331  36.738  1.00  0.00    -0.508 OA
ATOM     25  H   UNL     1       3.878   8.134  36.341  1.00  0.00     0.293 HD
ENDBRANCH   8  24
TORSDOF 5
ENDMDL
