MODEL 1
REMARK VINA RESULT:    -3.908      0.000      0.000
REMARK INTER + INTRA:          -4.906
REMARK INTER:                  -4.593
REMARK INTRA:                  -0.313
REMARK UNBOUND:                -0.313
REMARK SMILES O=c1cc(-c2ccc(O)c(O)c2)oc2cc(O)cc(O)c12
REMARK SMILES IDX 4 1 3 2 2 3 1 4 21 5 19 6 18 7 16 8 15 9 14 10 13 11 5 12
REMARK SMILES IDX 6 13 7 14 8 15 12 16 10 17 9 18 11 20 20 22 17 24
REMARK H PARENT 9 19 11 21 20 23 17 25
REMARK Flexibility Score: inf
ROOT
ATOM      1  C   UNL     1      27.716  20.637  12.771  1.00  0.00     0.138 A 
ATOM      2  C   UNL     1      28.528  20.679  13.912  1.00  0.00     0.100 A 
ATOM      3  C   UNL     1      27.946  20.581  15.177  1.00  0.00     0.197 A 
ATOM      4  O   UNL     1      28.704  20.559  16.180  1.00  0.00    -0.289 OA
ATOM      5  C   UNL     1      26.540  20.472  15.298  1.00  0.00     0.107 A 
ATOM      6  C   UNL     1      25.833  20.407  16.535  1.00  0.00     0.134 A 
ATOM      7  C   UNL     1      24.451  20.183  16.530  1.00  0.00     0.093 A 
ATOM      8  C   UNL     1      23.742  20.083  15.330  1.00  0.00     0.123 A 
ATOM      9  C   UNL     1      24.415  20.199  14.116  1.00  0.00     0.094 A 
ATOM     10  C   UNL     1      25.799  20.388  14.089  1.00  0.00     0.146 A 
ATOM     11  O   UNL     1      26.404  20.479  12.910  1.00  0.00    -0.456 OA
ENDROOT
BRANCH   1  12
ATOM     12  C   UNL     1      28.283  20.738  11.402  1.00  0.00     0.021 A 
ATOM     13  C   UNL     1      29.563  21.286  11.223  1.00  0.00     0.016 A 
ATOM     14  C   UNL     1      30.121  21.386   9.948  1.00  0.00     0.051 A 
ATOM     15  C   UNL     1      29.421  20.934   8.825  1.00  0.00     0.157 A 
ATOM     16  C   UNL     1      27.584  20.270  10.274  1.00  0.00     0.062 A 
ATOM     17  C   UNL     1      28.137  20.364   8.991  1.00  0.00     0.158 A 
BRANCH  15  18
ATOM     18  O   UNL     1      30.033  21.068   7.577  1.00  0.00    -0.504 OA
ATOM     19  H   UNL     1      30.345  21.948   7.192  1.00  0.00     0.293 HD
ENDBRANCH  15  18
BRANCH  17  20
ATOM     20  O   UNL     1      27.386  19.877   7.920  1.00  0.00    -0.504 OA
ATOM     21  H   UNL     1      27.192  18.897   7.764  1.00  0.00     0.293 HD
ENDBRANCH  17  20
ENDBRANCH   1  12
BRANCH   6  22
ATOM     22  O   UNL     1      26.432  20.581  17.787  1.00  0.00    -0.507 OA
ATOM     23  H   UNL     1      27.426  20.627  17.949  1.00  0.00     0.293 HD
ENDBRANCH   6  22
BRANCH   8  24
ATOM     24  O   UNL     1      22.365  19.875  15.334  1.00  0.00    -0.508 OA
ATOM     25  H   UNL     1      21.921  19.265  16.013  1.00  0.00     0.293 HD
ENDBRANCH   8  24
TORSDOF 5
ENDMDL
MODEL 2
REMARK VINA RESULT:    -1.508      2.102      6.296
REMARK INTER + INTRA:          -2.086
REMARK INTER:                  -1.767
REMARK INTRA:                  -0.318
REMARK UNBOUND:                -0.313
REMARK SMILES O=c1cc(-c2ccc(O)c(O)c2)oc2cc(O)cc(O)c12
REMARK SMILES IDX 4 1 3 2 2 3 1 4 21 5 19 6 18 7 16 8 15 9 14 10 13 11 5 12
REMARK SMILES IDX 6 13 7 14 8 15 12 16 10 17 9 18 11 20 20 22 17 24
REMARK H PARENT 9 19 11 21 20 23 17 25
REMARK Flexibility Score: inf
ROOT
ATOM      1  C   UNL     1      25.138  20.209  14.583  1.00  0.00     0.138 A 
ATOM      2  C   UNL     1      25.720  20.273  15.856  1.00  0.00     0.100 A 
ATOM      3  C   UNL     1      27.108  20.361  15.977  1.00  0.00     0.197 A 
ATOM      4  O   UNL     1      27.598  20.481  17.129  1.00  0.00    -0.289 OA
ATOM      5  C   UNL     1      27.917  20.351  14.815  1.00  0.00     0.107 A 
ATOM      6  C   UNL     1      29.343  20.395  14.818  1.00  0.00     0.134 A 
ATOM      7  C   UNL     1      30.033  20.498  13.605  1.00  0.00     0.093 A 
ATOM      8  C   UNL     1      29.350  20.498  12.385  1.00  0.00     0.123 A 
ATOM      9  C   UNL     1      27.961  20.402  12.370  1.00  0.00     0.094 A 
ATOM     10  C   UNL     1      27.242  20.333  13.566  1.00  0.00     0.146 A 
ATOM     11  O   UNL     1      25.917  20.257  13.507  1.00  0.00    -0.456 OA
ENDROOT
BRANCH   1  12
ATOM     12  C   UNL     1      23.668  20.113  14.398  1.00  0.00     0.021 A 
ATOM     13  C   UNL     1      22.827  20.136  15.521  1.00  0.00     0.016 A 
ATOM     14  C   UNL     1      21.442  20.055  15.373  1.00  0.00     0.051 A 
ATOM     15  C   UNL     1      20.864  19.959  14.104  1.00  0.00     0.157 A 
ATOM     16  C   UNL     1      23.086  20.031  13.119  1.00  0.00     0.062 A 
ATOM     17  C   UNL     1      21.697  19.952  12.960  1.00  0.00     0.158 A 
BRANCH  15  18
ATOM     18  O   UNL     1      19.472  19.875  14.024  1.00  0.00    -0.504 OA
ATOM     19  H   UNL     1      18.856  20.675  14.051  1.00  0.00     0.293 HD
ENDBRANCH  15  18
BRANCH  17  20
ATOM     20  O   UNL     1      21.192  19.875  11.661  1.00  0.00    -0.504 OA
ATOM     21  H   UNL     1      20.862  20.672  11.135  1.00  0.00     0.293 HD
ENDBRANCH  17  20
ENDBRANCH   1  12
BRANCH   6  22
ATOM     22  O   UNL     1      30.125  20.314  15.975  1.00  0.00    -0.507 OA
ATOM     23  H   UNL     1      30.939  20.878  16.161  1.00  0.00     0.293 HD
ENDBRANCH   6  22
BRANCH   8  24
ATOM     24  O   UNL     1      30.046  20.586  11.182  1.00  0.00    -0.508 OA
ATOM     25  H   UNL     1      30.972  20.188  11.073  1.00  0.00     0.293 HD
ENDBRANCH   8  24
TORSDOF 5
ENDMDL
