MODEL 1
REMARK VINA RESULT:    -3.391      0.000      0.000
REMARK INTER + INTRA:          -4.255
REMARK INTER:                  -3.986
REMARK INTRA:                  -0.269
REMARK UNBOUND:                -0.269
REMARK SMILES O=c1c(O)c(-c2ccc(O)cc2)oc2cc(O)cc(O)c12
REMARK SMILES IDX 5 1 3 2 2 3 1 4 21 5 19 6 18 7 16 8 15 9 14 10 13 11 6 12
REMARK SMILES IDX 7 13 8 14 9 15 12 16 11 17 10 18 4 20 20 22 17 24
REMARK H PARENT 10 19 4 21 20 23 17 25
REMARK Flexibility Score: inf
ROOT
ATOM      1  C   UNL     1    -127.476  39.725  16.270  1.00  0.00     0.180 A 
ATOM      2  C   UNL     1    -127.330  38.490  16.925  1.00  0.00     0.208 A 
ATOM      3  C   UNL     1    -126.039  37.982  17.141  1.00  0.00     0.238 A 
ATOM      4  O   UNL     1    -125.916  36.851  17.678  1.00  0.00    -0.285 OA
ATOM      5  C   UNL     1    -124.910  38.724  16.715  1.00  0.00     0.111 A 
ATOM      6  C   UNL     1    -123.555  38.324  16.920  1.00  0.00     0.134 A 
ATOM      7  C   UNL     1    -122.521  39.071  16.341  1.00  0.00     0.093 A 
ATOM      8  C   UNL     1    -122.790  40.238  15.623  1.00  0.00     0.123 A 
ATOM      9  C   UNL     1    -124.106  40.668  15.469  1.00  0.00     0.094 A 
ATOM     10  C   UNL     1    -125.161  39.925  16.003  1.00  0.00     0.146 A 
ATOM     11  O   UNL     1    -126.401  40.365  15.825  1.00  0.00    -0.452 OA
ENDROOT
BRANCH   1  12
ATOM     12  C   UNL     1    -128.803  40.337  16.029  1.00  0.00     0.021 A 
ATOM     13  C   UNL     1    -129.498  41.007  17.051  1.00  0.00     0.016 A 
ATOM     14  C   UNL     1    -130.738  41.598  16.793  1.00  0.00     0.047 A 
ATOM     15  C   UNL     1    -131.293  41.538  15.508  1.00  0.00     0.115 A 
ATOM     16  C   UNL     1    -129.357  40.300  14.738  1.00  0.00     0.016 A 
ATOM     17  C   UNL     1    -130.598  40.890  14.483  1.00  0.00     0.047 A 
BRANCH  15  18
ATOM     18  O   UNL     1    -132.529  42.122  15.238  1.00  0.00    -0.508 OA
ATOM     19  H   UNL     1    -132.899  42.167  14.295  1.00  0.00     0.293 HD
ENDBRANCH  15  18
ENDBRANCH   1  12
BRANCH   2  20
ATOM     20  O   UNL     1    -128.459  37.764  17.316  1.00  0.00    -0.502 OA
ATOM     21  H   UNL     1    -128.434  37.081  18.064  1.00  0.00     0.293 HD
ENDBRANCH   2  20
BRANCH   6  22
ATOM     22  O   UNL     1    -123.173  37.227  17.697  1.00  0.00    -0.507 OA
ATOM     23  H   UNL     1    -122.455  36.565  17.444  1.00  0.00     0.293 HD
ENDBRANCH   6  22
BRANCH   8  24
ATOM     24  O   UNL     1    -121.753  40.984  15.064  1.00  0.00    -0.508 OA
ATOM     25  H   UNL     1    -120.887  41.145  15.564  1.00  0.00     0.293 HD
ENDBRANCH   8  24
TORSDOF 5
ENDMDL
MODEL 2
REMARK VINA RESULT:    -3.343      1.903      6.795
REMARK INTER + INTRA:          -4.198
REMARK INTER:                  -3.923
REMARK INTRA:                  -0.276
REMARK UNBOUND:                -0.269
REMARK SMILES O=c1c(O)c(-c2ccc(O)cc2)oc2cc(O)cc(O)c12
REMARK SMILES IDX 5 1 3 2 2 3 1 4 21 5 19 6 18 7 16 8 15 9 14 10 13 11 6 12
REMARK SMILES IDX 7 13 8 14 9 15 12 16 11 17 10 18 4 20 20 22 17 24
REMARK H PARENT 10 19 4 21 20 23 17 25
REMARK Flexibility Score: inf
ROOT
ATOM      1  C   UNL     1    -126.535  39.039  16.037  1.00  0.00     0.180 A 
ATOM      2  C   UNL     1    -126.488  39.205  14.643  1.00  0.00     0.208 A 
ATOM      3  C   UNL     1    -127.463  39.998  14.017  1.00  0.00     0.238 A 
ATOM      4  O   UNL     1    -127.447  40.098  12.763  1.00  0.00    -0.285 OA
ATOM      5  C   UNL     1    -128.462  40.630  14.796  1.00  0.00     0.111 A 
ATOM      6  C   UNL     1    -129.475  41.489  14.272  1.00  0.00     0.134 A 
ATOM      7  C   UNL     1    -130.491  41.954  15.117  1.00  0.00     0.093 A 
ATOM      8  C   UNL     1    -130.492  41.645  16.479  1.00  0.00     0.123 A 
ATOM      9  C   UNL     1    -129.475  40.856  17.010  1.00  0.00     0.094 A 
ATOM     10  C   UNL     1    -128.469  40.347  16.187  1.00  0.00     0.146 A 
ATOM     11  O   UNL     1    -127.523  39.591  16.732  1.00  0.00    -0.452 OA
ENDROOT
BRANCH   1  12
ATOM     12  C   UNL     1    -125.528  38.239  16.771  1.00  0.00     0.021 A 
ATOM     13  C   UNL     1    -124.262  38.764  17.085  1.00  0.00     0.016 A 
ATOM     14  C   UNL     1    -123.336  37.998  17.800  1.00  0.00     0.047 A 
ATOM     15  C   UNL     1    -123.669  36.703  18.220  1.00  0.00     0.115 A 
ATOM     16  C   UNL     1    -125.861  36.948  17.214  1.00  0.00     0.016 A 
ATOM     17  C   UNL     1    -124.933  36.183  17.927  1.00  0.00     0.047 A 
BRANCH  15  18
ATOM     18  O   UNL     1    -122.754  35.929  18.931  1.00  0.00    -0.508 OA
ATOM     19  H   UNL     1    -121.758  35.990  18.754  1.00  0.00     0.293 HD
ENDBRANCH  15  18
ENDBRANCH   1  12
BRANCH   2  20
ATOM     20  O   UNL     1    -125.505  38.554  13.890  1.00  0.00    -0.502 OA
ATOM     21  H   UNL     1    -124.709  38.096  14.317  1.00  0.00     0.293 HD
ENDBRANCH   2  20
BRANCH   6  22
ATOM     22  O   UNL     1    -129.513  41.933  12.947  1.00  0.00    -0.507 OA
ATOM     23  H   UNL     1    -129.764  41.360  12.156  1.00  0.00     0.293 HD
ENDBRANCH   6  22
BRANCH   8  24
ATOM     24  O   UNL     1    -131.498  42.125  17.316  1.00  0.00    -0.508 OA
ATOM     25  H   UNL     1    -131.733  43.110  17.352  1.00  0.00     0.293 HD
ENDBRANCH   8  24
TORSDOF 5
ENDMDL
MODEL 3
REMARK VINA RESULT:    -3.312     11.450     13.929
REMARK INTER + INTRA:          -4.162
REMARK INTER:                  -3.877
REMARK INTRA:                  -0.285
REMARK UNBOUND:                -0.269
REMARK SMILES O=c1c(O)c(-c2ccc(O)cc2)oc2cc(O)cc(O)c12
REMARK SMILES IDX 5 1 3 2 2 3 1 4 21 5 19 6 18 7 16 8 15 9 14 10 13 11 6 12
REMARK SMILES IDX 7 13 8 14 9 15 12 16 11 17 10 18 4 20 20 22 17 24
REMARK H PARENT 10 19 4 21 20 23 17 25
REMARK Flexibility Score: inf
ROOT
ATOM      1  C   UNL     1    -123.007  39.901   4.166  1.00  0.00     0.180 A 
ATOM      2  C   UNL     1    -123.250  38.613   3.661  1.00  0.00     0.208 A 
ATOM      3  C   UNL     1    -124.567  38.127   3.638  1.00  0.00     0.238 A 
ATOM      4  O   UNL     1    -124.772  36.952   3.235  1.00  0.00    -0.285 OA
ATOM      5  C   UNL     1    -125.626  38.942   4.105  1.00  0.00     0.111 A 
ATOM      6  C   UNL     1    -127.004  38.567   4.090  1.00  0.00     0.134 A 
ATOM      7  C   UNL     1    -127.952  39.400   4.698  1.00  0.00     0.093 A 
ATOM      8  C   UNL     1    -127.581  40.623   5.260  1.00  0.00     0.123 A 
ATOM      9  C   UNL     1    -126.248  41.024   5.226  1.00  0.00     0.094 A 
ATOM     10  C   UNL     1    -125.274  40.199   4.660  1.00  0.00     0.146 A 
ATOM     11  O   UNL     1    -124.013  40.615   4.657  1.00  0.00    -0.452 OA
ENDROOT
BRANCH   1  12
ATOM     12  C   UNL     1    -121.649  40.492   4.200  1.00  0.00     0.021 A 
ATOM     13  C   UNL     1    -120.825  40.371   5.333  1.00  0.00     0.016 A 
ATOM     14  C   UNL     1    -119.538  40.916   5.333  1.00  0.00     0.047 A 
ATOM     15  C   UNL     1    -119.054  41.576   4.197  1.00  0.00     0.115 A 
ATOM     16  C   UNL     1    -121.148  41.137   3.057  1.00  0.00     0.016 A 
ATOM     17  C   UNL     1    -119.860  41.682   3.060  1.00  0.00     0.047 A 
BRANCH  15  18
ATOM     18  O   UNL     1    -117.773  42.125   4.185  1.00  0.00    -0.508 OA
ATOM     19  H   UNL     1    -117.617  43.103   3.967  1.00  0.00     0.293 HD
ENDBRANCH  15  18
ENDBRANCH   1  12
BRANCH   2  20
ATOM     20  O   UNL     1    -122.187  37.816   3.225  1.00  0.00    -0.502 OA
ATOM     21  H   UNL     1    -122.327  36.961   2.701  1.00  0.00     0.293 HD
ENDBRANCH   2  20
BRANCH   6  22
ATOM     22  O   UNL     1    -127.492  37.411   3.474  1.00  0.00    -0.507 OA
ATOM     23  H   UNL     1    -128.411  37.024   3.625  1.00  0.00     0.293 HD
ENDBRANCH   6  22
BRANCH   8  24
ATOM     24  O   UNL     1    -128.534  41.453   5.849  1.00  0.00    -0.508 OA
ATOM     25  H   UNL     1    -128.974  41.213   6.730  1.00  0.00     0.293 HD
ENDBRANCH   8  24
TORSDOF 5
ENDMDL
MODEL 4
REMARK VINA RESULT:    -3.304      1.497      3.338
REMARK INTER + INTRA:          -4.153
REMARK INTER:                  -3.857
REMARK INTRA:                  -0.296
REMARK UNBOUND:                -0.269
REMARK SMILES O=c1c(O)c(-c2ccc(O)cc2)oc2cc(O)cc(O)c12
REMARK SMILES IDX 5 1 3 2 2 3 1 4 21 5 19 6 18 7 16 8 15 9 14 10 13 11 6 12
REMARK SMILES IDX 7 13 8 14 9 15 12 16 11 17 10 18 4 20 20 22 17 24
REMARK H PARENT 10 19 4 21 20 23 17 25
REMARK Flexibility Score: inf
ROOT
ATOM      1  C   UNL     1    -127.158  39.279  16.546  1.00  0.00     0.180 A 
ATOM      2  C   UNL     1    -126.012  39.900  16.020  1.00  0.00     0.208 A 
ATOM      3  C   UNL     1    -124.753  39.331  16.271  1.00  0.00     0.238 A 
ATOM      4  O   UNL     1    -123.727  39.922  15.842  1.00  0.00    -0.285 OA
ATOM      5  C   UNL     1    -124.657  38.141  17.030  1.00  0.00     0.111 A 
ATOM      6  C   UNL     1    -123.436  37.455  17.310  1.00  0.00     0.134 A 
ATOM      7  C   UNL     1    -123.445  36.359  18.181  1.00  0.00     0.093 A 
ATOM      8  C   UNL     1    -124.639  35.883  18.728  1.00  0.00     0.123 A 
ATOM      9  C   UNL     1    -125.842  36.509  18.413  1.00  0.00     0.094 A 
ATOM     10  C   UNL     1    -125.861  37.627  17.577  1.00  0.00     0.146 A 
ATOM     11  O   UNL     1    -127.029  38.200  17.309  1.00  0.00    -0.452 OA
ENDROOT
BRANCH   1  12
ATOM     12  C   UNL     1    -128.521  39.805  16.305  1.00  0.00     0.021 A 
ATOM     13  C   UNL     1    -129.245  39.460  15.149  1.00  0.00     0.016 A 
ATOM     14  C   UNL     1    -130.540  39.949  14.954  1.00  0.00     0.047 A 
ATOM     15  C   UNL     1    -131.132  40.777  15.917  1.00  0.00     0.115 A 
ATOM     16  C   UNL     1    -129.130  40.618  17.274  1.00  0.00     0.016 A 
ATOM     17  C   UNL     1    -130.425  41.107  17.076  1.00  0.00     0.047 A 
BRANCH  15  18
ATOM     18  O   UNL     1    -132.422  41.272  15.733  1.00  0.00    -0.508 OA
ATOM     19  H   UNL     1    -132.727  42.132  16.175  1.00  0.00     0.293 HD
ENDBRANCH  15  18
ENDBRANCH   1  12
BRANCH   2  20
ATOM     20  O   UNL     1    -126.129  41.088  15.291  1.00  0.00    -0.502 OA
ATOM     21  H   UNL     1    -126.178  41.996  15.737  1.00  0.00     0.293 HD
ENDBRANCH   2  20
BRANCH   6  22
ATOM     22  O   UNL     1    -122.204  37.792  16.743  1.00  0.00    -0.507 OA
ATOM     23  H   UNL     1    -121.307  37.616  17.170  1.00  0.00     0.293 HD
ENDBRANCH   6  22
BRANCH   8  24
ATOM     24  O   UNL     1    -124.640  34.781  19.582  1.00  0.00    -0.508 OA
ATOM     25  H   UNL     1    -125.103  34.808  20.482  1.00  0.00     0.293 HD
ENDBRANCH   8  24
TORSDOF 5
ENDMDL
MODEL 5
REMARK VINA RESULT:    -3.279     11.977     14.163
REMARK INTER + INTRA:          -4.123
REMARK INTER:                  -3.835
REMARK INTRA:                  -0.288
REMARK UNBOUND:                -0.269
REMARK SMILES O=c1c(O)c(-c2ccc(O)cc2)oc2cc(O)cc(O)c12
REMARK SMILES IDX 5 1 3 2 2 3 1 4 21 5 19 6 18 7 16 8 15 9 14 10 13 11 6 12
REMARK SMILES IDX 7 13 8 14 9 15 12 16 11 17 10 18 4 20 20 22 17 24
REMARK H PARENT 10 19 4 21 20 23 17 25
REMARK Flexibility Score: inf
ROOT
ATOM      1  C   UNL     1    -123.410  39.607   4.111  1.00  0.00     0.180 A 
ATOM      2  C   UNL     1    -124.577  40.157   4.668  1.00  0.00     0.208 A 
ATOM      3  C   UNL     1    -125.798  39.487   4.490  1.00  0.00     0.238 A 
ATOM      4  O   UNL     1    -126.847  40.013   4.946  1.00  0.00    -0.285 OA
ATOM      5  C   UNL     1    -125.834  38.268   3.772  1.00  0.00     0.111 A 
ATOM      6  C   UNL     1    -127.010  37.484   3.567  1.00  0.00     0.134 A 
ATOM      7  C   UNL     1    -126.954  36.362   2.729  1.00  0.00     0.093 A 
ATOM      8  C   UNL     1    -125.750  35.960   2.145  1.00  0.00     0.123 A 
ATOM      9  C   UNL     1    -124.587  36.685   2.388  1.00  0.00     0.094 A 
ATOM     10  C   UNL     1    -124.618  37.828   3.189  1.00  0.00     0.146 A 
ATOM     11  O   UNL     1    -123.487  38.496   3.387  1.00  0.00    -0.452 OA
ENDROOT
BRANCH   1  12
ATOM     12  C   UNL     1    -122.082  40.241   4.276  1.00  0.00     0.021 A 
ATOM     13  C   UNL     1    -121.311  40.035   5.434  1.00  0.00     0.016 A 
ATOM     14  C   UNL     1    -120.049  40.625   5.557  1.00  0.00     0.047 A 
ATOM     15  C   UNL     1    -119.538  41.417   4.521  1.00  0.00     0.115 A 
ATOM     16  C   UNL     1    -121.553  41.019   3.233  1.00  0.00     0.016 A 
ATOM     17  C   UNL     1    -120.291  41.609   3.360  1.00  0.00     0.047 A 
BRANCH  15  18
ATOM     18  O   UNL     1    -118.282  42.011   4.633  1.00  0.00    -0.508 OA
ATOM     19  H   UNL     1    -117.694  41.858   5.444  1.00  0.00     0.293 HD
ENDBRANCH  15  18
ENDBRANCH   1  12
BRANCH   2  20
ATOM     20  O   UNL     1    -124.521  41.373   5.355  1.00  0.00    -0.502 OA
ATOM     21  H   UNL     1    -123.647  41.795   5.646  1.00  0.00     0.293 HD
ENDBRANCH   2  20
BRANCH   6  22
ATOM     22  O   UNL     1    -128.240  37.746   4.178  1.00  0.00    -0.507 OA
ATOM     23  H   UNL     1    -129.120  37.346   3.891  1.00  0.00     0.293 HD
ENDBRANCH   6  22
BRANCH   8  24
ATOM     24  O   UNL     1    -125.701  34.833   1.326  1.00  0.00    -0.508 OA
ATOM     25  H   UNL     1    -126.464  34.597   0.702  1.00  0.00     0.293 HD
ENDBRANCH   8  24
TORSDOF 5
ENDMDL
MODEL 6
REMARK VINA RESULT:    -3.252      1.810      6.106
REMARK INTER + INTRA:          -4.091
REMARK INTER:                  -3.806
REMARK INTRA:                  -0.286
REMARK UNBOUND:                -0.269
REMARK SMILES O=c1c(O)c(-c2ccc(O)cc2)oc2cc(O)cc(O)c12
REMARK SMILES IDX 5 1 3 2 2 3 1 4 21 5 19 6 18 7 16 8 15 9 14 10 13 11 6 12
REMARK SMILES IDX 7 13 8 14 9 15 12 16 11 17 10 18 4 20 20 22 17 24
REMARK H PARENT 10 19 4 21 20 23 17 25
REMARK Flexibility Score: inf
ROOT
ATOM      1  C   UNL     1    -126.853  39.819  15.980  1.00  0.00     0.180 A 
ATOM      2  C   UNL     1    -126.821  38.658  16.772  1.00  0.00     0.208 A 
ATOM      3  C   UNL     1    -127.935  38.345  17.567  1.00  0.00     0.238 A 
ATOM      4  O   UNL     1    -127.878  37.334  18.315  1.00  0.00    -0.285 OA
ATOM      5  C   UNL     1    -129.073  39.186  17.548  1.00  0.00     0.111 A 
ATOM      6  C   UNL     1    -130.273  38.942  18.282  1.00  0.00     0.134 A 
ATOM      7  C   UNL     1    -131.286  39.909  18.290  1.00  0.00     0.093 A 
ATOM      8  C   UNL     1    -131.169  41.080  17.537  1.00  0.00     0.123 A 
ATOM      9  C   UNL     1    -130.027  41.299  16.771  1.00  0.00     0.094 A 
ATOM     10  C   UNL     1    -128.985  40.370  16.771  1.00  0.00     0.146 A 
ATOM     11  O   UNL     1    -127.909  40.622  16.034  1.00  0.00    -0.452 OA
ENDROOT
BRANCH   1  12
ATOM     12  C   UNL     1    -125.728  40.203  15.097  1.00  0.00     0.021 A 
ATOM     13  C   UNL     1    -124.641  40.955  15.580  1.00  0.00     0.016 A 
ATOM     14  C   UNL     1    -123.579  41.284  14.734  1.00  0.00     0.047 A 
ATOM     15  C   UNL     1    -123.583  40.857  13.399  1.00  0.00     0.115 A 
ATOM     16  C   UNL     1    -125.713  39.761  13.764  1.00  0.00     0.016 A 
ATOM     17  C   UNL     1    -124.650  40.093  12.920  1.00  0.00     0.047 A 
BRANCH  15  18
ATOM     18  O   UNL     1    -122.530  41.181  12.546  1.00  0.00    -0.508 OA
ATOM     19  H   UNL     1    -122.686  41.683  11.679  1.00  0.00     0.293 HD
ENDBRANCH  15  18
ENDBRANCH   1  12
BRANCH   2  20
ATOM     20  O   UNL     1    -125.678  37.854  16.793  1.00  0.00    -0.502 OA
ATOM     21  H   UNL     1    -125.493  37.190  17.536  1.00  0.00     0.293 HD
ENDBRANCH   2  20
BRANCH   6  22
ATOM     22  O   UNL     1    -130.528  37.765  18.992  1.00  0.00    -0.507 OA
ATOM     23  H   UNL     1    -131.440  37.470  19.307  1.00  0.00     0.293 HD
ENDBRANCH   6  22
BRANCH   8  24
ATOM     24  O   UNL     1    -132.189  42.030  17.539  1.00  0.00    -0.508 OA
ATOM     25  H   UNL     1    -131.990  43.022  17.592  1.00  0.00     0.293 HD
ENDBRANCH   8  24
TORSDOF 5
ENDMDL
MODEL 7
REMARK VINA RESULT:    -3.205      2.023      6.850
REMARK INTER + INTRA:          -4.036
REMARK INTER:                  -3.754
REMARK INTRA:                  -0.282
REMARK UNBOUND:                -0.269
REMARK SMILES O=c1c(O)c(-c2ccc(O)cc2)oc2cc(O)cc(O)c12
REMARK SMILES IDX 5 1 3 2 2 3 1 4 21 5 19 6 18 7 16 8 15 9 14 10 13 11 6 12
REMARK SMILES IDX 7 13 8 14 9 15 12 16 11 17 10 18 4 20 20 22 17 24
REMARK H PARENT 10 19 4 21 20 23 17 25
REMARK Flexibility Score: inf
ROOT
ATOM      1  C   UNL     1    -127.264  40.268  15.529  1.00  0.00     0.180 A 
ATOM      2  C   UNL     1    -128.187  40.932  14.703  1.00  0.00     0.208 A 
ATOM      3  C   UNL     1    -129.507  41.098  15.151  1.00  0.00     0.238 A 
ATOM      4  O   UNL     1    -130.342  41.645  14.383  1.00  0.00    -0.285 OA
ATOM      5  C   UNL     1    -129.884  40.615  16.427  1.00  0.00     0.111 A 
ATOM      6  C   UNL     1    -131.183  40.766  16.999  1.00  0.00     0.134 A 
ATOM      7  C   UNL     1    -131.480  40.133  18.213  1.00  0.00     0.093 A 
ATOM      8  C   UNL     1    -130.505  39.412  18.907  1.00  0.00     0.123 A 
ATOM      9  C   UNL     1    -129.218  39.310  18.385  1.00  0.00     0.094 A 
ATOM     10  C   UNL     1    -128.902  39.899  17.159  1.00  0.00     0.146 A 
ATOM     11  O   UNL     1    -127.665  39.769  16.693  1.00  0.00    -0.452 OA
ENDROOT
BRANCH   1  12
ATOM     12  C   UNL     1    -125.849  40.076  15.137  1.00  0.00     0.021 A 
ATOM     13  C   UNL     1    -124.898  41.100  15.299  1.00  0.00     0.016 A 
ATOM     14  C   UNL     1    -123.563  40.887  14.944  1.00  0.00     0.047 A 
ATOM     15  C   UNL     1    -123.160  39.646  14.435  1.00  0.00     0.115 A 
ATOM     16  C   UNL     1    -125.432  38.828  14.645  1.00  0.00     0.016 A 
ATOM     17  C   UNL     1    -124.096  38.618  14.290  1.00  0.00     0.047 A 
BRANCH  15  18
ATOM     18  O   UNL     1    -121.832  39.422  14.076  1.00  0.00    -0.508 OA
ATOM     19  H   UNL     1    -121.366  38.547  14.289  1.00  0.00     0.293 HD
ENDBRANCH  15  18
ENDBRANCH   1  12
BRANCH   2  20
ATOM     20  O   UNL     1    -127.799  41.381  13.437  1.00  0.00    -0.502 OA
ATOM     21  H   UNL     1    -128.469  41.683  12.738  1.00  0.00     0.293 HD
ENDBRANCH   2  20
BRANCH   6  22
ATOM     22  O   UNL     1    -132.200  41.540  16.433  1.00  0.00    -0.507 OA
ATOM     23  H   UNL     1    -133.182  41.312  16.466  1.00  0.00     0.293 HD
ENDBRANCH   6  22
BRANCH   8  24
ATOM     24  O   UNL     1    -130.806  38.799  20.122  1.00  0.00    -0.508 OA
ATOM     25  H   UNL     1    -131.048  39.341  20.943  1.00  0.00     0.293 HD
ENDBRANCH   8  24
TORSDOF 5
ENDMDL
MODEL 8
REMARK VINA RESULT:    -3.197     11.610     12.878
REMARK INTER + INTRA:          -4.027
REMARK INTER:                  -3.738
REMARK INTRA:                  -0.289
REMARK UNBOUND:                -0.269
REMARK SMILES O=c1c(O)c(-c2ccc(O)cc2)oc2cc(O)cc(O)c12
REMARK SMILES IDX 5 1 3 2 2 3 1 4 21 5 19 6 18 7 16 8 15 9 14 10 13 11 6 12
REMARK SMILES IDX 7 13 8 14 9 15 12 16 11 17 10 18 4 20 20 22 17 24
REMARK H PARENT 10 19 4 21 20 23 17 25
REMARK Flexibility Score: inf
ROOT
ATOM      1  C   UNL     1    -123.677  39.919   4.535  1.00  0.00     0.180 A 
ATOM      2  C   UNL     1    -123.758  38.729   3.793  1.00  0.00     0.208 A 
ATOM      3  C   UNL     1    -122.710  38.396   2.920  1.00  0.00     0.238 A 
ATOM      4  O   UNL     1    -122.814  37.356   2.219  1.00  0.00    -0.285 OA
ATOM      5  C   UNL     1    -121.586  39.249   2.813  1.00  0.00     0.111 A 
ATOM      6  C   UNL     1    -120.447  38.989   1.991  1.00  0.00     0.134 A 
ATOM      7  C   UNL     1    -119.452  39.966   1.862  1.00  0.00     0.093 A 
ATOM      8  C   UNL     1    -119.521  41.164   2.578  1.00  0.00     0.123 A 
ATOM      9  C   UNL     1    -120.599  41.400   3.428  1.00  0.00     0.094 A 
ATOM     10  C   UNL     1    -121.625  40.462   3.549  1.00  0.00     0.146 A 
ATOM     11  O   UNL     1    -122.640  40.731   4.363  1.00  0.00    -0.452 OA
ENDROOT
BRANCH   1  12
ATOM     12  C   UNL     1    -124.730  40.326   5.493  1.00  0.00     0.021 A 
ATOM     13  C   UNL     1    -125.832  41.100   5.086  1.00  0.00     0.016 A 
ATOM     14  C   UNL     1    -126.826  41.450   6.004  1.00  0.00     0.047 A 
ATOM     15  C   UNL     1    -126.739  41.022   7.335  1.00  0.00     0.115 A 
ATOM     16  C   UNL     1    -124.661  39.882   6.824  1.00  0.00     0.016 A 
ATOM     17  C   UNL     1    -125.657  40.236   7.740  1.00  0.00     0.047 A 
BRANCH  15  18
ATOM     18  O   UNL     1    -127.724  41.366   8.259  1.00  0.00    -0.508 OA
ATOM     19  H   UNL     1    -127.495  41.845   9.123  1.00  0.00     0.293 HD
ENDBRANCH  15  18
ENDBRANCH   1  12
BRANCH   2  20
ATOM     20  O   UNL     1    -124.888  37.912   3.898  1.00  0.00    -0.502 OA
ATOM     21  H   UNL     1    -125.053  37.129   3.276  1.00  0.00     0.293 HD
ENDBRANCH   2  20
BRANCH   6  22
ATOM     22  O   UNL     1    -120.235  37.788   1.308  1.00  0.00    -0.507 OA
ATOM     23  H   UNL     1    -119.759  36.986   1.691  1.00  0.00     0.293 HD
ENDBRANCH   6  22
BRANCH   8  24
ATOM     24  O   UNL     1    -118.518  42.124   2.455  1.00  0.00    -0.508 OA
ATOM     25  H   UNL     1    -117.745  42.004   1.811  1.00  0.00     0.293 HD
ENDBRANCH   8  24
TORSDOF 5
ENDMDL
