MODEL 1
REMARK VINA RESULT:    -3.908      0.000      0.000
REMARK INTER + INTRA:          -9.002
REMARK INTER:                  -7.107
REMARK INTRA:                  -1.895
REMARK UNBOUND:                -1.895
REMARK SMILES CCCCCCCCCCCCCCCC(=O)[O-]
REMARK SMILES IDX 9 1 10 2 11 3 12 4 13 5 14 6 15 7 16 8 17 9 18 10 8 11 7 12
REMARK SMILES IDX 6 13 5 14 4 15 3 16 2 17 1 18
REMARK H PARENT
REMARK Flexibility Score: inf
ROOT
ATOM      1  C   UNL     1      37.993  20.928   4.287  1.00  0.00     0.000 C 
ENDROOT
BRANCH   1   2
ATOM      2  C   UNL     1      39.189  20.361   3.503  1.00  0.00     0.000 C 
BRANCH   2   3
ATOM      3  C   UNL     1      40.462  21.207   3.671  1.00  0.00     0.000 C 
BRANCH   3   4
ATOM      4  C   UNL     1      40.331  22.247   4.797  1.00  0.00     0.000 C 
BRANCH   4   5
ATOM      5  C   UNL     1      41.125  21.866   6.059  1.00  0.00     0.000 C 
BRANCH   5   6
ATOM      6  C   UNL     1      40.276  21.354   7.241  1.00  0.00     0.006 C 
BRANCH   6   7
ATOM      7  C   UNL     1      40.181  19.823   7.343  1.00  0.00     0.053 C 
BRANCH   7   8
ATOM      8  C   UNL     1      38.777  19.364   7.590  1.00  0.00     0.041 C 
ATOM      9  O   UNL     1      38.534  18.144   7.784  1.00  0.00    -0.550 OA
ATOM     10  O   UNL     1      37.740  20.288   7.636  1.00  0.00    -0.550 OA
ENDBRANCH   7   8
ENDBRANCH   6   7
ENDBRANCH   5   6
ENDBRANCH   4   5
ENDBRANCH   3   4
ENDBRANCH   2   3
ENDBRANCH   1   2
BRANCH   1  11
ATOM     11  C   UNL     1      36.713  20.094   4.106  1.00  0.00     0.000 C 
BRANCH  11  12
ATOM     12  C   UNL     1      35.643  20.737   3.200  1.00  0.00    -0.000 C 
BRANCH  12  13
ATOM     13  C   UNL     1      36.052  20.898   1.723  1.00  0.00    -0.000 C 
BRANCH  13  14
ATOM     14  C   UNL     1      36.198  22.355   1.240  1.00  0.00    -0.000 C 
BRANCH  14  15
ATOM     15  C   UNL     1      37.629  22.918   1.303  1.00  0.00    -0.000 C 
BRANCH  15  16
ATOM     16  C   UNL     1      37.770  24.077   2.306  1.00  0.00    -0.000 C 
BRANCH  16  17
ATOM     17  C   UNL     1      38.980  24.974   2.003  1.00  0.00    -0.003 C 
ATOM     18  C   UNL     1      38.831  26.379   2.584  1.00  0.00     0.004 C 
ENDBRANCH  16  17
ENDBRANCH  15  16
ENDBRANCH  14  15
ENDBRANCH  13  14
ENDBRANCH  12  13
ENDBRANCH  11  12
ENDBRANCH   1  11
TORSDOF 14
ENDMDL
MODEL 2
REMARK VINA RESULT:    -3.837      3.198      6.599
REMARK INTER + INTRA:          -8.872
REMARK INTER:                  -7.044
REMARK INTRA:                  -1.829
REMARK UNBOUND:                -1.895
REMARK SMILES CCCCCCCCCCCCCCCC(=O)[O-]
REMARK SMILES IDX 9 1 10 2 11 3 12 4 13 5 14 6 15 7 16 8 17 9 18 10 8 11 7 12
REMARK SMILES IDX 6 13 5 14 4 15 3 16 2 17 1 18
REMARK H PARENT
REMARK Flexibility Score: inf
ROOT
ATOM      1  C   UNL     1      36.557  20.224   4.182  1.00  0.00     0.000 C 
ENDROOT
BRANCH   1   2
ATOM      2  C   UNL     1      35.536  20.658   3.116  1.00  0.00     0.000 C 
BRANCH   2   3
ATOM      3  C   UNL     1      36.171  20.842   1.729  1.00  0.00     0.000 C 
BRANCH   3   4
ATOM      4  C   UNL     1      35.995  22.271   1.187  1.00  0.00     0.000 C 
BRANCH   4   5
ATOM      5  C   UNL     1      37.332  23.011   1.005  1.00  0.00     0.000 C 
BRANCH   5   6
ATOM      6  C   UNL     1      37.341  24.479   1.479  1.00  0.00     0.006 C 
BRANCH   6   7
ATOM      7  C   UNL     1      38.533  24.855   2.374  1.00  0.00     0.053 C 
BRANCH   7   8
ATOM      8  C   UNL     1      38.717  26.338   2.470  1.00  0.00     0.041 C 
ATOM      9  O   UNL     1      37.723  27.106   2.384  1.00  0.00    -0.550 OA
ATOM     10  O   UNL     1      39.982  26.871   2.683  1.00  0.00    -0.550 OA
ENDBRANCH   7   8
ENDBRANCH   6   7
ENDBRANCH   5   6
ENDBRANCH   4   5
ENDBRANCH   3   4
ENDBRANCH   2   3
ENDBRANCH   1   2
BRANCH   1  11
ATOM     11  C   UNL     1      38.005  20.570   3.795  1.00  0.00     0.000 C 
BRANCH  11  12
ATOM     12  C   UNL     1      38.571  21.837   4.469  1.00  0.00    -0.000 C 
BRANCH  12  13
ATOM     13  C   UNL     1      40.077  21.786   4.792  1.00  0.00    -0.000 C 
BRANCH  13  14
ATOM     14  C   UNL     1      40.443  22.109   6.255  1.00  0.00    -0.000 C 
BRANCH  14  15
ATOM     15  C   UNL     1      39.742  21.232   7.307  1.00  0.00    -0.000 C 
BRANCH  15  16
ATOM     16  C   UNL     1      40.003  19.730   7.100  1.00  0.00    -0.000 C 
BRANCH  16  17
ATOM     17  C   UNL     1      38.734  18.882   7.273  1.00  0.00    -0.003 C 
ATOM     18  C   UNL     1      37.515  19.718   7.661  1.00  0.00     0.004 C 
ENDBRANCH  16  17
ENDBRANCH  15  16
ENDBRANCH  14  15
ENDBRANCH  13  14
ENDBRANCH  12  13
ENDBRANCH  11  12
ENDBRANCH   1  11
TORSDOF 14
ENDMDL
MODEL 3
REMARK VINA RESULT:    -3.814     18.553     20.342
REMARK INTER + INTRA:          -8.830
REMARK INTER:                  -6.218
REMARK INTRA:                  -2.612
REMARK UNBOUND:                -1.895
REMARK SMILES CCCCCCCCCCCCCCCC(=O)[O-]
REMARK SMILES IDX 9 1 10 2 11 3 12 4 13 5 14 6 15 7 16 8 17 9 18 10 8 11 7 12
REMARK SMILES IDX 6 13 5 14 4 15 3 16 2 17 1 18
REMARK H PARENT
REMARK Flexibility Score: inf
ROOT
ATOM      1  C   UNL     1      22.051  22.487  16.500  1.00  0.00     0.000 C 
ENDROOT
BRANCH   1   2
ATOM      2  C   UNL     1      21.749  23.839  17.169  1.00  0.00     0.000 C 
BRANCH   2   3
ATOM      3  C   UNL     1      21.305  23.688  18.633  1.00  0.00     0.000 C 
BRANCH   3   4
ATOM      4  C   UNL     1      22.198  24.483  19.602  1.00  0.00     0.000 C 
BRANCH   4   5
ATOM      5  C   UNL     1      23.190  25.410  18.877  1.00  0.00     0.000 C 
BRANCH   5   6
ATOM      6  C   UNL     1      24.108  26.239  19.799  1.00  0.00     0.006 C 
BRANCH   6   7
ATOM      7  C   UNL     1      25.603  26.163  19.449  1.00  0.00     0.053 C 
BRANCH   7   8
ATOM      8  C   UNL     1      26.134  27.479  18.970  1.00  0.00     0.041 C 
ATOM      9  O   UNL     1      27.228  27.532  18.347  1.00  0.00    -0.550 OA
ATOM     10  O   UNL     1      25.408  28.644  19.186  1.00  0.00    -0.550 OA
ENDBRANCH   7   8
ENDBRANCH   6   7
ENDBRANCH   5   6
ENDBRANCH   4   5
ENDBRANCH   3   4
ENDBRANCH   2   3
ENDBRANCH   1   2
BRANCH   1  11
ATOM     11  C   UNL     1      22.259  21.352  17.518  1.00  0.00     0.000 C 
BRANCH  11  12
ATOM     12  C   UNL     1      23.730  20.949  17.747  1.00  0.00    -0.000 C 
BRANCH  12  13
ATOM     13  C   UNL     1      24.411  21.624  18.954  1.00  0.00    -0.000 C 
BRANCH  13  14
ATOM     14  C   UNL     1      25.580  22.567  18.602  1.00  0.00    -0.000 C 
BRANCH  14  15
ATOM     15  C   UNL     1      25.966  22.591  17.113  1.00  0.00    -0.000 C 
BRANCH  15  16
ATOM     16  C   UNL     1      25.799  23.982  16.477  1.00  0.00    -0.000 C 
BRANCH  16  17
ATOM     17  C   UNL     1      25.512  23.910  14.969  1.00  0.00    -0.003 C 
ATOM     18  C   UNL     1      25.333  22.476  14.472  1.00  0.00     0.004 C 
ENDBRANCH  16  17
ENDBRANCH  15  16
ENDBRANCH  14  15
ENDBRANCH  13  14
ENDBRANCH  12  13
ENDBRANCH  11  12
ENDBRANCH   1  11
TORSDOF 14
ENDMDL
MODEL 4
REMARK VINA RESULT:    -3.778     18.215     20.000
REMARK INTER + INTRA:          -8.765
REMARK INTER:                  -6.345
REMARK INTRA:                  -2.420
REMARK UNBOUND:                -1.895
REMARK SMILES CCCCCCCCCCCCCCCC(=O)[O-]
REMARK SMILES IDX 9 1 10 2 11 3 12 4 13 5 14 6 15 7 16 8 17 9 18 10 8 11 7 12
REMARK SMILES IDX 6 13 5 14 4 15 3 16 2 17 1 18
REMARK H PARENT
REMARK Flexibility Score: inf
ROOT
ATOM      1  C   UNL     1      22.219  22.302  15.817  1.00  0.00     0.000 C 
ENDROOT
BRANCH   1   2
ATOM      2  C   UNL     1      21.400  23.279  16.678  1.00  0.00     0.000 C 
BRANCH   2   3
ATOM      3  C   UNL     1      22.281  24.302  17.413  1.00  0.00     0.000 C 
BRANCH   3   4
ATOM      4  C   UNL     1      22.157  24.192  18.942  1.00  0.00     0.000 C 
BRANCH   4   5
ATOM      5  C   UNL     1      22.978  25.259  19.688  1.00  0.00     0.000 C 
BRANCH   5   6
ATOM      6  C   UNL     1      23.997  26.029  18.823  1.00  0.00     0.006 C 
BRANCH   6   7
ATOM      7  C   UNL     1      25.400  26.148  19.440  1.00  0.00     0.053 C 
BRANCH   7   8
ATOM      8  C   UNL     1      26.046  27.460  19.116  1.00  0.00     0.041 C 
ATOM      9  O   UNL     1      27.045  27.502  18.351  1.00  0.00    -0.550 OA
ATOM     10  O   UNL     1      25.526  28.640  19.634  1.00  0.00    -0.550 OA
ENDBRANCH   7   8
ENDBRANCH   6   7
ENDBRANCH   5   6
ENDBRANCH   4   5
ENDBRANCH   3   4
ENDBRANCH   2   3
ENDBRANCH   1   2
BRANCH   1  11
ATOM     11  C   UNL     1      22.170  22.643  14.318  1.00  0.00     0.000 C 
BRANCH  11  12
ATOM     12  C   UNL     1      23.546  22.718  13.624  1.00  0.00    -0.000 C 
BRANCH  12  13
ATOM     13  C   UNL     1      24.758  22.561  14.562  1.00  0.00    -0.000 C 
BRANCH  13  14
ATOM     14  C   UNL     1      25.478  23.876  14.926  1.00  0.00    -0.000 C 
BRANCH  14  15
ATOM     15  C   UNL     1      25.918  23.988  16.396  1.00  0.00    -0.000 C 
BRANCH  15  16
ATOM     16  C   UNL     1      26.118  22.617  17.064  1.00  0.00    -0.000 C 
BRANCH  16  17
ATOM     17  C   UNL     1      25.403  22.512  18.419  1.00  0.00    -0.003 C 
ATOM     18  C   UNL     1      24.457  21.314  18.496  1.00  0.00     0.004 C 
ENDBRANCH  16  17
ENDBRANCH  15  16
ENDBRANCH  14  15
ENDBRANCH  13  14
ENDBRANCH  12  13
ENDBRANCH  11  12
ENDBRANCH   1  11
TORSDOF 14
ENDMDL
MODEL 5
REMARK VINA RESULT:    -3.718      2.216      4.203
REMARK INTER + INTRA:          -8.656
REMARK INTER:                  -7.589
REMARK INTRA:                  -1.067
REMARK UNBOUND:                -1.895
REMARK SMILES CCCCCCCCCCCCCCCC(=O)[O-]
REMARK SMILES IDX 9 1 10 2 11 3 12 4 13 5 14 6 15 7 16 8 17 9 18 10 8 11 7 12
REMARK SMILES IDX 6 13 5 14 4 15 3 16 2 17 1 18
REMARK H PARENT
REMARK Flexibility Score: inf
ROOT
ATOM      1  C   UNL     1      36.115  22.609   1.176  1.00  0.00     0.000 C 
ENDROOT
BRANCH   1   2
ATOM      2  C   UNL     1      36.388  21.156   1.601  1.00  0.00     0.000 C 
BRANCH   2   3
ATOM      3  C   UNL     1      35.530  20.719   2.799  1.00  0.00     0.000 C 
BRANCH   3   4
ATOM      4  C   UNL     1      36.382  20.259   3.994  1.00  0.00     0.000 C 
BRANCH   4   5
ATOM      5  C   UNL     1      37.807  20.840   3.973  1.00  0.00     0.000 C 
BRANCH   5   6
ATOM      6  C   UNL     1      38.781  20.231   5.002  1.00  0.00     0.006 C 
BRANCH   6   7
ATOM      7  C   UNL     1      39.199  21.187   6.131  1.00  0.00     0.053 C 
BRANCH   7   8
ATOM      8  C   UNL     1      38.111  21.367   7.145  1.00  0.00     0.041 C 
ATOM      9  O   UNL     1      37.799  22.521   7.540  1.00  0.00    -0.550 OA
ATOM     10  O   UNL     1      37.422  20.263   7.631  1.00  0.00    -0.550 OA
ENDBRANCH   7   8
ENDBRANCH   6   7
ENDBRANCH   5   6
ENDBRANCH   4   5
ENDBRANCH   3   4
ENDBRANCH   2   3
ENDBRANCH   1   2
BRANCH   1  11
ATOM     11  C   UNL     1      37.397  23.455   1.089  1.00  0.00     0.000 C 
BRANCH  11  12
ATOM     12  C   UNL     1      37.772  24.200   2.386  1.00  0.00    -0.000 C 
BRANCH  12  13
ATOM     13  C   UNL     1      38.674  25.434   2.192  1.00  0.00    -0.000 C 
BRANCH  13  14
ATOM     14  C   UNL     1      38.034  26.780   2.590  1.00  0.00    -0.000 C 
BRANCH  14  15
ATOM     15  C   UNL     1      37.157  27.426   1.503  1.00  0.00    -0.000 C 
BRANCH  15  16
ATOM     16  C   UNL     1      35.804  27.920   2.045  1.00  0.00    -0.000 C 
BRANCH  16  17
ATOM     17  C   UNL     1      34.647  27.659   1.069  1.00  0.00    -0.003 C 
ATOM     18  C   UNL     1      33.278  27.923   1.693  1.00  0.00     0.004 C 
ENDBRANCH  16  17
ENDBRANCH  15  16
ENDBRANCH  14  15
ENDBRANCH  13  14
ENDBRANCH  12  13
ENDBRANCH  11  12
ENDBRANCH   1  11
TORSDOF 14
ENDMDL
MODEL 6
REMARK VINA RESULT:    -3.684      2.407      4.728
REMARK INTER + INTRA:          -8.593
REMARK INTER:                  -6.925
REMARK INTRA:                  -1.668
REMARK UNBOUND:                -1.895
REMARK SMILES CCCCCCCCCCCCCCCC(=O)[O-]
REMARK SMILES IDX 9 1 10 2 11 3 12 4 13 5 14 6 15 7 16 8 17 9 18 10 8 11 7 12
REMARK SMILES IDX 6 13 5 14 4 15 3 16 2 17 1 18
REMARK H PARENT
REMARK Flexibility Score: inf
ROOT
ATOM      1  C   UNL     1      40.058  21.392   7.265  1.00  0.00     0.000 C 
ENDROOT
BRANCH   1   2
ATOM      2  C   UNL     1      38.639  21.813   6.846  1.00  0.00     0.000 C 
BRANCH   2   3
ATOM      3  C   UNL     1      37.593  20.721   7.122  1.00  0.00     0.000 C 
BRANCH   3   4
ATOM      4  C   UNL     1      37.490  19.704   5.974  1.00  0.00     0.000 C 
BRANCH   4   5
ATOM      5  C   UNL     1      36.639  20.213   4.796  1.00  0.00     0.000 C 
BRANCH   5   6
ATOM      6  C   UNL     1      37.436  20.663   3.555  1.00  0.00     0.006 C 
BRANCH   6   7
ATOM      7  C   UNL     1      36.573  21.200   2.401  1.00  0.00     0.053 C 
BRANCH   7   8
ATOM      8  C   UNL     1      35.192  20.619   2.416  1.00  0.00     0.041 C 
ATOM      9  O   UNL     1      34.202  21.346   2.693  1.00  0.00    -0.550 OA
ATOM     10  O   UNL     1      34.996  19.282   2.096  1.00  0.00    -0.550 OA
ENDBRANCH   7   8
ENDBRANCH   6   7
ENDBRANCH   5   6
ENDBRANCH   4   5
ENDBRANCH   3   4
ENDBRANCH   2   3
ENDBRANCH   1   2
BRANCH   1  11
ATOM     11  C   UNL     1      41.124  21.772   6.221  1.00  0.00     0.000 C 
BRANCH  11  12
ATOM     12  C   UNL     1      40.564  22.224   4.858  1.00  0.00    -0.000 C 
BRANCH  12  13
ATOM     13  C   UNL     1      41.076  21.424   3.645  1.00  0.00    -0.000 C 
BRANCH  13  14
ATOM     14  C   UNL     1      40.595  21.938   2.272  1.00  0.00    -0.000 C 
BRANCH  14  15
ATOM     15  C   UNL     1      40.322  23.451   2.207  1.00  0.00    -0.000 C 
BRANCH  15  16
ATOM     16  C   UNL     1      39.015  23.789   1.468  1.00  0.00    -0.000 C 
BRANCH  16  17
ATOM     17  C   UNL     1      38.042  24.601   2.335  1.00  0.00    -0.003 C 
ATOM     18  C   UNL     1      38.397  26.087   2.386  1.00  0.00     0.004 C 
ENDBRANCH  16  17
ENDBRANCH  15  16
ENDBRANCH  14  15
ENDBRANCH  13  14
ENDBRANCH  12  13
ENDBRANCH  11  12
ENDBRANCH   1  11
TORSDOF 14
ENDMDL
MODEL 7
REMARK VINA RESULT:    -3.657      1.804      2.767
REMARK INTER + INTRA:          -8.545
REMARK INTER:                  -7.495
REMARK INTRA:                  -1.050
REMARK UNBOUND:                -1.895
REMARK SMILES CCCCCCCCCCCCCCCC(=O)[O-]
REMARK SMILES IDX 9 1 10 2 11 3 12 4 13 5 14 6 15 7 16 8 17 9 18 10 8 11 7 12
REMARK SMILES IDX 6 13 5 14 4 15 3 16 2 17 1 18
REMARK H PARENT
REMARK Flexibility Score: inf
ROOT
ATOM      1  C   UNL     1      35.653  20.494   3.359  1.00  0.00     0.000 C 
ENDROOT
BRANCH   1   2
ATOM      2  C   UNL     1      37.081  20.934   3.723  1.00  0.00     0.000 C 
BRANCH   2   3
ATOM      3  C   UNL     1      37.793  19.930   4.644  1.00  0.00     0.000 C 
BRANCH   3   4
ATOM      4  C   UNL     1      37.053  19.731   5.978  1.00  0.00     0.000 C 
BRANCH   4   5
ATOM      5  C   UNL     1      37.938  20.022   7.204  1.00  0.00     0.000 C 
BRANCH   5   6
ATOM      6  C   UNL     1      39.285  19.272   7.235  1.00  0.00     0.006 C 
BRANCH   6   7
ATOM      7  C   UNL     1      40.499  20.152   7.575  1.00  0.00     0.053 C 
BRANCH   7   8
ATOM      8  C   UNL     1      40.615  21.328   6.654  1.00  0.00     0.041 C 
ATOM      9  O   UNL     1      40.844  21.153   5.428  1.00  0.00    -0.550 OA
ATOM     10  O   UNL     1      40.440  22.616   7.144  1.00  0.00    -0.550 OA
ENDBRANCH   7   8
ENDBRANCH   6   7
ENDBRANCH   5   6
ENDBRANCH   4   5
ENDBRANCH   3   4
ENDBRANCH   2   3
ENDBRANCH   1   2
BRANCH   1  11
ATOM     11  C   UNL     1      35.459  20.292   1.846  1.00  0.00     0.000 C 
BRANCH  11  12
ATOM     12  C   UNL     1      36.307  21.221   0.954  1.00  0.00    -0.000 C 
BRANCH  12  13
ATOM     13  C   UNL     1      35.900  22.707   0.988  1.00  0.00    -0.000 C 
BRANCH  13  14
ATOM     14  C   UNL     1      37.068  23.708   0.875  1.00  0.00    -0.000 C 
BRANCH  14  15
ATOM     15  C   UNL     1      37.695  24.126   2.217  1.00  0.00    -0.000 C 
BRANCH  15  16
ATOM     16  C   UNL     1      38.078  25.616   2.256  1.00  0.00    -0.000 C 
BRANCH  16  17
ATOM     17  C   UNL     1      37.278  26.457   1.250  1.00  0.00    -0.003 C 
ATOM     18  C   UNL     1      36.479  27.575   1.919  1.00  0.00     0.004 C 
ENDBRANCH  16  17
ENDBRANCH  15  16
ENDBRANCH  14  15
ENDBRANCH  13  14
ENDBRANCH  12  13
ENDBRANCH  11  12
ENDBRANCH   1  11
TORSDOF 14
ENDMDL
MODEL 8
REMARK VINA RESULT:    -3.588      1.528      3.727
REMARK INTER + INTRA:          -8.418
REMARK INTER:                  -6.546
REMARK INTRA:                  -1.873
REMARK UNBOUND:                -1.895
REMARK SMILES CCCCCCCCCCCCCCCC(=O)[O-]
REMARK SMILES IDX 9 1 10 2 11 3 12 4 13 5 14 6 15 7 16 8 17 9 18 10 8 11 7 12
REMARK SMILES IDX 6 13 5 14 4 15 3 16 2 17 1 18
REMARK H PARENT
REMARK Flexibility Score: inf
ROOT
ATOM      1  C   UNL     1      39.953  21.318   1.334  1.00  0.00     0.000 C 
ENDROOT
BRANCH   1   2
ATOM      2  C   UNL     1      40.649  20.339   2.295  1.00  0.00     0.000 C 
BRANCH   2   3
ATOM      3  C   UNL     1      39.992  20.306   3.684  1.00  0.00     0.000 C 
BRANCH   3   4
ATOM      4  C   UNL     1      38.571  20.896   3.675  1.00  0.00     0.000 C 
BRANCH   4   5
ATOM      5  C   UNL     1      37.539  19.984   4.362  1.00  0.00     0.000 C 
BRANCH   5   6
ATOM      6  C   UNL     1      37.372  20.205   5.879  1.00  0.00     0.006 C 
BRANCH   6   7
ATOM      7  C   UNL     1      38.272  19.321   6.757  1.00  0.00     0.053 C 
BRANCH   7   8
ATOM      8  C   UNL     1      39.430  20.085   7.322  1.00  0.00     0.041 C 
ATOM      9  O   UNL     1      39.518  21.328   7.139  1.00  0.00    -0.550 OA
ATOM     10  O   UNL     1      40.397  19.430   8.075  1.00  0.00    -0.550 OA
ENDBRANCH   7   8
ENDBRANCH   6   7
ENDBRANCH   5   6
ENDBRANCH   4   5
ENDBRANCH   3   4
ENDBRANCH   2   3
ENDBRANCH   1   2
BRANCH   1  11
ATOM     11  C   UNL     1      40.709  22.651   1.192  1.00  0.00     0.000 C 
BRANCH  11  12
ATOM     12  C   UNL     1      39.810  23.888   0.991  1.00  0.00    -0.000 C 
BRANCH  12  13
ATOM     13  C   UNL     1      39.060  24.359   2.252  1.00  0.00    -0.000 C 
BRANCH  13  14
ATOM     14  C   UNL     1      37.554  24.027   2.279  1.00  0.00    -0.000 C 
BRANCH  14  15
ATOM     15  C   UNL     1      36.969  23.564   0.933  1.00  0.00    -0.000 C 
BRANCH  15  16
ATOM     16  C   UNL     1      36.422  22.127   0.983  1.00  0.00    -0.000 C 
BRANCH  16  17
ATOM     17  C   UNL     1      34.907  22.081   1.235  1.00  0.00    -0.003 C 
ATOM     18  C   UNL     1      34.519  21.074   2.317  1.00  0.00     0.004 C 
ENDBRANCH  16  17
ENDBRANCH  15  16
ENDBRANCH  14  15
ENDBRANCH  13  14
ENDBRANCH  12  13
ENDBRANCH  11  12
ENDBRANCH   1  11
TORSDOF 14
ENDMDL
MODEL 9
REMARK VINA RESULT:    -3.574      3.192      5.830
REMARK INTER + INTRA:          -8.393
REMARK INTER:                  -6.825
REMARK INTRA:                  -1.567
REMARK UNBOUND:                -1.895
REMARK SMILES CCCCCCCCCCCCCCCC(=O)[O-]
REMARK SMILES IDX 9 1 10 2 11 3 12 4 13 5 14 6 15 7 16 8 17 9 18 10 8 11 7 12
REMARK SMILES IDX 6 13 5 14 4 15 3 16 2 17 1 18
REMARK H PARENT
REMARK Flexibility Score: inf
ROOT
ATOM      1  C   UNL     1      40.572  21.901   6.022  1.00  0.00     0.000 C 
ENDROOT
BRANCH   1   2
ATOM      2  C   UNL     1      40.993  21.702   4.555  1.00  0.00     0.000 C 
BRANCH   2   3
ATOM      3  C   UNL     1      40.875  22.992   3.726  1.00  0.00     0.000 C 
BRANCH   3   4
ATOM      4  C   UNL     1      39.806  22.886   2.625  1.00  0.00     0.000 C 
BRANCH   4   5
ATOM      5  C   UNL     1      38.386  23.192   3.136  1.00  0.00     0.000 C 
BRANCH   5   6
ATOM      6  C   UNL     1      37.446  23.853   2.109  1.00  0.00     0.006 C 
BRANCH   6   7
ATOM      7  C   UNL     1      38.088  24.984   1.289  1.00  0.00     0.053 C 
BRANCH   7   8
ATOM      8  C   UNL     1      37.902  26.322   1.937  1.00  0.00     0.041 C 
ATOM      9  O   UNL     1      36.940  27.061   1.600  1.00  0.00    -0.550 OA
ATOM     10  O   UNL     1      38.774  26.739   2.935  1.00  0.00    -0.550 OA
ENDBRANCH   7   8
ENDBRANCH   6   7
ENDBRANCH   5   6
ENDBRANCH   4   5
ENDBRANCH   3   4
ENDBRANCH   2   3
ENDBRANCH   1   2
BRANCH   1  11
ATOM     11  C   UNL     1      40.044  20.609   6.670  1.00  0.00     0.000 C 
BRANCH  11  12
ATOM     12  C   UNL     1      38.528  20.601   6.957  1.00  0.00    -0.000 C 
BRANCH  12  13
ATOM     13  C   UNL     1      37.706  19.630   6.088  1.00  0.00    -0.000 C 
BRANCH  13  14
ATOM     14  C   UNL     1      37.539  20.052   4.614  1.00  0.00    -0.000 C 
BRANCH  14  15
ATOM     15  C   UNL     1      36.091  20.345   4.184  1.00  0.00    -0.000 C 
BRANCH  15  16
ATOM     16  C   UNL     1      35.943  20.506   2.661  1.00  0.00    -0.000 C 
BRANCH  16  17
ATOM     17  C   UNL     1      34.502  20.833   2.240  1.00  0.00    -0.003 C 
ATOM     18  C   UNL     1      34.432  21.943   1.193  1.00  0.00     0.004 C 
ENDBRANCH  16  17
ENDBRANCH  15  16
ENDBRANCH  14  15
ENDBRANCH  13  14
ENDBRANCH  12  13
ENDBRANCH  11  12
ENDBRANCH   1  11
TORSDOF 14
ENDMDL
