MODEL 1
REMARK VINA RESULT:    -6.485      0.000      0.000
REMARK INTER + INTRA:         -10.447
REMARK INTER:                  -9.518
REMARK INTRA:                  -0.928
REMARK UNBOUND:                -0.928
REMARK SMILES O=c1c(O[C@@H]2O[C@H](CO)[C@@H](O)[C@@H](O)[C@@H]2O)c(-c2ccc(O)c(O)c2)oc2cc(O)cc(O)c12
REMARK SMILES IDX 4 1 3 2 16 3 25 4 2 5 26 6 1 7 33 8 27 9 31 10 28 11 30 12
REMARK SMILES IDX 17 13 20 14 19 15 22 16 18 17 24 18 21 19 23 21 32 23 29 25
REMARK SMILES IDX 5 27 14 28 6 29 12 30 7 31 10 32 15 33 13 35 8 37 9 38 11 40
REMARK H PARENT 21 20 23 22 32 24 29 26 15 34 13 36 9 39 11 41
REMARK Flexibility Score: inf
ROOT
ATOM      1  O   UNL     1      -5.558   7.101  14.536  1.00  0.00    -0.454 OA
ENDROOT
BRANCH   1   2
ATOM      2  C   UNL     1      -4.619   6.185  15.039  1.00  0.00     0.214 A 
ATOM      3  C   UNL     1      -3.311   6.202  14.528  1.00  0.00     0.180 A 
ATOM      4  O   UNL     1      -2.441   5.267  14.896  1.00  0.00    -0.452 OA
ATOM      5  C   UNL     1      -4.951   5.232  16.020  1.00  0.00     0.239 A 
ATOM      6  C   UNL     1      -2.735   4.294  15.753  1.00  0.00     0.146 A 
ATOM      7  O   UNL     1      -6.041   5.348  16.640  1.00  0.00    -0.285 OA
ATOM      8  C   UNL     1      -4.026   4.210  16.343  1.00  0.00     0.111 A 
ATOM      9  C   UNL     1      -1.742   3.366  16.078  1.00  0.00     0.094 A 
ATOM     10  C   UNL     1      -4.293   3.130  17.236  1.00  0.00     0.134 A 
ATOM     11  C   UNL     1      -1.999   2.351  17.001  1.00  0.00     0.123 A 
ATOM     12  C   UNL     1      -3.264   2.243  17.576  1.00  0.00     0.093 A 
BRANCH   3  13
ATOM     13  C   UNL     1      -2.882   7.233  13.558  1.00  0.00     0.025 A 
ATOM     14  C   UNL     1      -2.012   9.174  11.715  1.00  0.00     0.157 A 
ATOM     15  C   UNL     1      -2.964   8.217  11.333  1.00  0.00     0.051 A 
ATOM     16  C   UNL     1      -1.507   9.173  13.023  1.00  0.00     0.158 A 
ATOM     17  C   UNL     1      -3.399   7.255  12.248  1.00  0.00     0.016 A 
ATOM     18  C   UNL     1      -1.950   8.211  13.945  1.00  0.00     0.062 A 
BRANCH  14  19
ATOM     19  O   UNL     1      -1.562  10.125  10.801  1.00  0.00    -0.504 OA
ATOM     20  H   UNL     1      -0.592  10.406  10.762  1.00  0.00     0.293 HD
ENDBRANCH  14  19
BRANCH  16  21
ATOM     21  O   UNL     1      -0.560  10.125  13.396  1.00  0.00    -0.504 OA
ATOM     22  H   UNL     1       0.233   9.886  13.980  1.00  0.00     0.293 HD
ENDBRANCH  16  21
ENDBRANCH   3  13
BRANCH  10  23
ATOM     23  O   UNL     1      -5.551   2.867  17.785  1.00  0.00    -0.507 OA
ATOM     24  H   UNL     1      -5.869   1.954  18.091  1.00  0.00     0.293 HD
ENDBRANCH  10  23
BRANCH  11  25
ATOM     25  O   UNL     1      -1.002   1.441  17.350  1.00  0.00    -0.508 OA
ATOM     26  H   UNL     1      -0.025   1.711  17.379  1.00  0.00     0.293 HD
ENDBRANCH  11  25
ENDBRANCH   1   2
BRANCH   1  27
ATOM     27  C   UNL     1      -6.568   6.789  13.568  1.00  0.00     0.339 C 
ATOM     28  C   UNL     1      -6.963   8.076  12.787  1.00  0.00     0.214 C 
ATOM     29  O   UNL     1      -6.079   5.799  12.680  1.00  0.00    -0.332 OA
ATOM     30  C   UNL     1      -7.075   7.809  11.268  1.00  0.00     0.180 C 
ATOM     31  C   UNL     1      -7.144   5.306  11.883  1.00  0.00     0.179 C 
ATOM     32  C   UNL     1      -7.721   6.429  10.965  1.00  0.00     0.177 C 
BRANCH  28  33
ATOM     33  O   UNL     1      -5.999   9.087  12.991  1.00  0.00    -0.384 OA
ATOM     34  H   UNL     1      -5.105   8.648  13.022  1.00  0.00     0.211 HD
ENDBRANCH  28  33
BRANCH  30  35
ATOM     35  O   UNL     1      -7.809   8.849  10.670  1.00  0.00    -0.387 OA
ATOM     36  H   UNL     1      -7.273   9.674  10.774  1.00  0.00     0.211 HD
ENDBRANCH  30  35
BRANCH  31  37
ATOM     37  C   UNL     1      -6.622   4.115  11.064  1.00  0.00     0.191 C 
BRANCH  37  38
ATOM     38  O   UNL     1      -7.628   3.624  10.219  1.00  0.00    -0.394 OA
ATOM     39  H   UNL     1      -7.291   2.772   9.826  1.00  0.00     0.210 HD
ENDBRANCH  37  38
ENDBRANCH  31  37
BRANCH  32  40
ATOM     40  O   UNL     1      -9.125   6.486  11.081  1.00  0.00    -0.387 OA
ATOM     41  H   UNL     1      -9.454   7.145  10.415  1.00  0.00     0.211 HD
ENDBRANCH  32  40
ENDBRANCH   1  27
TORSDOF 12
ENDMDL
MODEL 2
REMARK VINA RESULT:    -5.880      1.669      4.794
REMARK INTER + INTRA:          -9.558
REMARK INTER:                  -8.477
REMARK INTRA:                  -1.081
REMARK UNBOUND:                -0.928
REMARK SMILES O=c1c(O[C@@H]2O[C@H](CO)[C@@H](O)[C@@H](O)[C@@H]2O)c(-c2ccc(O)c(O)c2)oc2cc(O)cc(O)c12
REMARK SMILES IDX 4 1 3 2 16 3 25 4 2 5 26 6 1 7 33 8 27 9 31 10 28 11 30 12
REMARK SMILES IDX 17 13 20 14 19 15 22 16 18 17 24 18 21 19 23 21 32 23 29 25
REMARK SMILES IDX 5 27 14 28 6 29 12 30 7 31 10 32 15 33 13 35 8 37 9 38 11 40
REMARK H PARENT 21 20 23 22 32 24 29 26 15 34 13 36 9 39 11 41
REMARK Flexibility Score: inf
ROOT
ATOM      1  O   UNL     1      -3.428   5.425  13.765  1.00  0.00    -0.454 OA
ENDROOT
BRANCH   1   2
ATOM      2  C   UNL     1      -3.718   4.409  14.692  1.00  0.00     0.214 A 
ATOM      3  C   UNL     1      -5.036   3.933  14.788  1.00  0.00     0.180 A 
ATOM      4  O   UNL     1      -5.360   3.064  15.741  1.00  0.00    -0.452 OA
ATOM      5  C   UNL     1      -2.738   3.870  15.546  1.00  0.00     0.239 A 
ATOM      6  C   UNL     1      -4.488   2.593  16.626  1.00  0.00     0.146 A 
ATOM      7  O   UNL     1      -1.525   4.124  15.320  1.00  0.00    -0.285 OA
ATOM      8  C   UNL     1      -3.125   2.997  16.591  1.00  0.00     0.111 A 
ATOM      9  C   UNL     1      -4.934   1.676  17.582  1.00  0.00     0.094 A 
ATOM     10  C   UNL     1      -2.239   2.479  17.582  1.00  0.00     0.134 A 
ATOM     11  C   UNL     1      -4.042   1.129  18.506  1.00  0.00     0.123 A 
ATOM     12  C   UNL     1      -2.706   1.527  18.497  1.00  0.00     0.093 A 
BRANCH   3  13
ATOM     13  C   UNL     1      -6.089   4.402  13.862  1.00  0.00     0.025 A 
ATOM     14  C   UNL     1      -8.113   5.241  12.096  1.00  0.00     0.157 A 
ATOM     15  C   UNL     1      -8.059   5.755  13.400  1.00  0.00     0.051 A 
ATOM     16  C   UNL     1      -7.146   4.320  11.668  1.00  0.00     0.158 A 
ATOM     17  C   UNL     1      -7.052   5.342  14.277  1.00  0.00     0.016 A 
ATOM     18  C   UNL     1      -6.130   3.911  12.547  1.00  0.00     0.062 A 
BRANCH  14  19
ATOM     19  O   UNL     1      -9.125   5.636  11.223  1.00  0.00    -0.504 OA
ATOM     20  H   UNL     1     -10.102   5.543  11.465  1.00  0.00     0.293 HD
ENDBRANCH  14  19
BRANCH  16  21
ATOM     21  O   UNL     1      -7.206   3.810  10.372  1.00  0.00    -0.504 OA
ATOM     22  H   UNL     1      -7.159   4.415   9.560  1.00  0.00     0.293 HD
ENDBRANCH  16  21
ENDBRANCH   3  13
BRANCH  10  23
ATOM     23  O   UNL     1      -0.911   2.888  17.729  1.00  0.00    -0.507 OA
ATOM     24  H   UNL     1      -0.215   2.404  18.286  1.00  0.00     0.293 HD
ENDBRANCH  10  23
BRANCH  11  25
ATOM     25  O   UNL     1      -4.476   0.191  19.442  1.00  0.00    -0.508 OA
ATOM     26  H   UNL     1      -4.821  -0.720  19.158  1.00  0.00     0.293 HD
ENDBRANCH  11  25
ENDBRANCH   1   2
BRANCH   1  27
ATOM     27  C   UNL     1      -4.038   6.722  13.756  1.00  0.00     0.339 C 
ATOM     28  C   UNL     1      -2.996   7.796  14.185  1.00  0.00     0.214 C 
ATOM     29  O   UNL     1      -4.535   7.001  12.459  1.00  0.00    -0.332 OA
ATOM     30  C   UNL     1      -3.059   9.046  13.278  1.00  0.00     0.180 C 
ATOM     31  C   UNL     1      -5.353   8.159  12.501  1.00  0.00     0.179 C 
ATOM     32  C   UNL     1      -4.519   9.418  12.899  1.00  0.00     0.177 C 
BRANCH  28  33
ATOM     33  O   UNL     1      -1.690   7.264  14.119  1.00  0.00    -0.384 OA
ATOM     34  H   UNL     1      -1.704   6.513  13.465  1.00  0.00     0.211 HD
ENDBRANCH  28  33
BRANCH  30  35
ATOM     35  O   UNL     1      -2.420  10.118  13.923  1.00  0.00    -0.387 OA
ATOM     36  H   UNL     1      -2.283   9.846  14.865  1.00  0.00     0.211 HD
ENDBRANCH  30  35
BRANCH  31  37
ATOM     37  C   UNL     1      -6.018   8.329  11.126  1.00  0.00     0.191 C 
BRANCH  37  38
ATOM     38  O   UNL     1      -5.731   7.231  10.303  1.00  0.00    -0.394 OA
ATOM     39  H   UNL     1      -4.740   7.185  10.210  1.00  0.00     0.210 HD
ENDBRANCH  37  38
ENDBRANCH  31  37
BRANCH  32  40
ATOM     40  O   UNL     1      -5.155  10.118  13.944  1.00  0.00    -0.387 OA
ATOM     41  H   UNL     1      -6.104  10.250  13.682  1.00  0.00     0.211 HD
ENDBRANCH  32  40
ENDBRANCH   1  27
TORSDOF 12
ENDMDL
MODEL 3
REMARK VINA RESULT:    -5.816     13.642     18.970
REMARK INTER + INTRA:          -9.464
REMARK INTER:                  -8.177
REMARK INTRA:                  -1.287
REMARK UNBOUND:                -0.928
REMARK SMILES O=c1c(O[C@@H]2O[C@H](CO)[C@@H](O)[C@@H](O)[C@@H]2O)c(-c2ccc(O)c(O)c2)oc2cc(O)cc(O)c12
REMARK SMILES IDX 4 1 3 2 16 3 25 4 2 5 26 6 1 7 33 8 27 9 31 10 28 11 30 12
REMARK SMILES IDX 17 13 20 14 19 15 22 16 18 17 24 18 21 19 23 21 32 23 29 25
REMARK SMILES IDX 5 27 14 28 6 29 12 30 7 31 10 32 15 33 13 35 8 37 9 38 11 40
REMARK H PARENT 21 20 23 22 32 24 29 26 15 34 13 36 9 39 11 41
REMARK Flexibility Score: inf
ROOT
ATOM      1  O   UNL     1      -4.745  -5.947  25.993  1.00  0.00    -0.454 OA
ENDROOT
BRANCH   1   2
ATOM      2  C   UNL     1      -5.368  -6.021  24.736  1.00  0.00     0.214 A 
ATOM      3  C   UNL     1      -6.584  -6.714  24.618  1.00  0.00     0.180 A 
ATOM      4  O   UNL     1      -7.127  -6.905  23.420  1.00  0.00    -0.452 OA
ATOM      5  C   UNL     1      -4.801  -5.446  23.583  1.00  0.00     0.239 A 
ATOM      6  C   UNL     1      -6.583  -6.457  22.293  1.00  0.00     0.146 A 
ATOM      7  O   UNL     1      -3.840  -4.642  23.711  1.00  0.00    -0.285 OA
ATOM      8  C   UNL     1      -5.367  -5.721  22.314  1.00  0.00     0.111 A 
ATOM      9  C   UNL     1      -7.243  -6.706  21.087  1.00  0.00     0.094 A 
ATOM     10  C   UNL     1      -4.816  -5.287  21.072  1.00  0.00     0.134 A 
ATOM     11  C   UNL     1      -6.725  -6.221  19.884  1.00  0.00     0.123 A 
ATOM     12  C   UNL     1      -5.524  -5.513  19.885  1.00  0.00     0.093 A 
BRANCH   3  13
ATOM     13  C   UNL     1      -7.268  -7.268  25.808  1.00  0.00     0.025 A 
ATOM     14  C   UNL     1      -8.521  -8.312  28.100  1.00  0.00     0.157 A 
ATOM     15  C   UNL     1      -9.017  -7.148  27.496  1.00  0.00     0.051 A 
ATOM     16  C   UNL     1      -7.409  -8.965  27.550  1.00  0.00     0.158 A 
ATOM     17  C   UNL     1      -8.397  -6.630  26.355  1.00  0.00     0.016 A 
ATOM     18  C   UNL     1      -6.791  -8.449  26.399  1.00  0.00     0.062 A 
BRANCH  14  19
ATOM     19  O   UNL     1      -9.124  -8.823  29.248  1.00  0.00    -0.504 OA
ATOM     20  H   UNL     1      -8.751  -9.629  29.731  1.00  0.00     0.293 HD
ENDBRANCH  14  19
BRANCH  16  21
ATOM     21  O   UNL     1      -6.919 -10.121  28.156  1.00  0.00    -0.504 OA
ATOM     22  H   UNL     1      -7.537 -10.864  28.461  1.00  0.00     0.293 HD
ENDBRANCH  16  21
ENDBRANCH   3  13
BRANCH  10  23
ATOM     23  O   UNL     1      -3.571  -4.664  20.948  1.00  0.00    -0.507 OA
ATOM     24  H   UNL     1      -3.044  -4.593  20.085  1.00  0.00     0.293 HD
ENDBRANCH  10  23
BRANCH  11  25
ATOM     25  O   UNL     1      -7.395  -6.442  18.683  1.00  0.00    -0.508 OA
ATOM     26  H   UNL     1      -7.682  -5.673  18.086  1.00  0.00     0.293 HD
ENDBRANCH  11  25
ENDBRANCH   1   2
BRANCH   1  27
ATOM     27  C   UNL     1      -3.466  -6.511  26.307  1.00  0.00     0.339 C 
ATOM     28  C   UNL     1      -2.703  -5.571  27.286  1.00  0.00     0.214 C 
ATOM     29  O   UNL     1      -3.642  -7.792  26.884  1.00  0.00    -0.332 OA
ATOM     30  C   UNL     1      -2.029  -6.364  28.429  1.00  0.00     0.180 C 
ATOM     31  C   UNL     1      -2.392  -8.456  26.965  1.00  0.00     0.179 C 
ATOM     32  C   UNL     1      -1.421  -7.703  27.929  1.00  0.00     0.177 C 
BRANCH  28  33
ATOM     33  O   UNL     1      -3.593  -4.635  27.858  1.00  0.00    -0.384 OA
ATOM     34  H   UNL     1      -3.183  -4.311  28.706  1.00  0.00     0.211 HD
ENDBRANCH  28  33
BRANCH  30  35
ATOM     35  O   UNL     1      -1.046  -5.561  29.032  1.00  0.00    -0.387 OA
ATOM     36  H   UNL     1      -1.505  -4.753  29.372  1.00  0.00     0.211 HD
ENDBRANCH  30  35
BRANCH  31  37
ATOM     37  C   UNL     1      -2.641  -9.901  27.423  1.00  0.00     0.191 C 
BRANCH  37  38
ATOM     38  O   UNL     1      -3.990 -10.083  27.758  1.00  0.00    -0.394 OA
ATOM     39  H   UNL     1      -4.014 -10.573  28.626  1.00  0.00     0.210 HD
ENDBRANCH  37  38
ENDBRANCH  31  37
BRANCH  32  40
ATOM     40  O   UNL     1      -0.173  -7.497  27.308  1.00  0.00    -0.387 OA
ATOM     41  H   UNL     1      -0.338  -7.011  26.458  1.00  0.00     0.211 HD
ENDBRANCH  32  40
ENDBRANCH   1  27
TORSDOF 12
ENDMDL
MODEL 4
REMARK VINA RESULT:    -5.795      1.937      5.002
REMARK INTER + INTRA:          -9.433
REMARK INTER:                  -9.185
REMARK INTRA:                  -0.248
REMARK UNBOUND:                -0.928
REMARK SMILES O=c1c(O[C@@H]2O[C@H](CO)[C@@H](O)[C@@H](O)[C@@H]2O)c(-c2ccc(O)c(O)c2)oc2cc(O)cc(O)c12
REMARK SMILES IDX 4 1 3 2 16 3 25 4 2 5 26 6 1 7 33 8 27 9 31 10 28 11 30 12
REMARK SMILES IDX 17 13 20 14 19 15 22 16 18 17 24 18 21 19 23 21 32 23 29 25
REMARK SMILES IDX 5 27 14 28 6 29 12 30 7 31 10 32 15 33 13 35 8 37 9 38 11 40
REMARK H PARENT 21 20 23 22 32 24 29 26 15 34 13 36 9 39 11 41
REMARK Flexibility Score: inf
ROOT
ATOM      1  O   UNL     1      -3.464   5.259  14.176  1.00  0.00    -0.454 OA
ENDROOT
BRANCH   1   2
ATOM      2  C   UNL     1      -3.763   4.203  15.054  1.00  0.00     0.214 A 
ATOM      3  C   UNL     1      -5.080   3.718  15.111  1.00  0.00     0.180 A 
ATOM      4  O   UNL     1      -5.415   2.807  16.020  1.00  0.00    -0.452 OA
ATOM      5  C   UNL     1      -2.793   3.630  15.898  1.00  0.00     0.239 A 
ATOM      6  C   UNL     1      -4.553   2.301  16.896  1.00  0.00     0.146 A 
ATOM      7  O   UNL     1      -1.578   3.898  15.700  1.00  0.00    -0.285 OA
ATOM      8  C   UNL     1      -3.191   2.711  16.898  1.00  0.00     0.111 A 
ATOM      9  C   UNL     1      -5.008   1.342  17.805  1.00  0.00     0.094 A 
ATOM     10  C   UNL     1      -2.317   2.154  17.878  1.00  0.00     0.134 A 
ATOM     11  C   UNL     1      -4.127   0.758  18.717  1.00  0.00     0.123 A 
ATOM     12  C   UNL     1      -2.793   1.162  18.745  1.00  0.00     0.093 A 
BRANCH   3  13
ATOM     13  C   UNL     1      -6.123   4.223  14.190  1.00  0.00     0.025 A 
ATOM     14  C   UNL     1      -8.124   5.130  12.433  1.00  0.00     0.157 A 
ATOM     15  C   UNL     1      -8.100   5.576  13.763  1.00  0.00     0.051 A 
ATOM     16  C   UNL     1      -7.138   4.244  11.976  1.00  0.00     0.158 A 
ATOM     17  C   UNL     1      -7.104   5.128  14.636  1.00  0.00     0.016 A 
ATOM     18  C   UNL     1      -6.134   3.801  12.851  1.00  0.00     0.062 A 
BRANCH  14  19
ATOM     19  O   UNL     1      -9.125   5.559  11.563  1.00  0.00    -0.504 OA
ATOM     20  H   UNL     1      -9.865   6.178  11.868  1.00  0.00     0.293 HD
ENDBRANCH  14  19
BRANCH  16  21
ATOM     21  O   UNL     1      -7.168   3.803  10.654  1.00  0.00    -0.504 OA
ATOM     22  H   UNL     1      -6.943   4.420   9.882  1.00  0.00     0.293 HD
ENDBRANCH  16  21
ENDBRANCH   3  13
BRANCH  10  23
ATOM     23  O   UNL     1      -0.993   2.561  18.062  1.00  0.00    -0.507 OA
ATOM     24  H   UNL     1      -0.517   2.591  18.957  1.00  0.00     0.293 HD
ENDBRANCH  10  23
BRANCH  11  25
ATOM     25  O   UNL     1      -4.571  -0.220  19.605  1.00  0.00    -0.508 OA
ATOM     26  H   UNL     1      -4.185  -0.301  20.540  1.00  0.00     0.293 HD
ENDBRANCH  11  25
ENDBRANCH   1   2
BRANCH   1  27
ATOM     27  C   UNL     1      -3.790   6.634  14.412  1.00  0.00     0.339 C 
ATOM     28  C   UNL     1      -4.069   7.348  13.056  1.00  0.00     0.214 C 
ATOM     29  O   UNL     1      -4.924   6.713  15.257  1.00  0.00    -0.332 OA
ATOM     30  C   UNL     1      -5.322   8.250  13.135  1.00  0.00     0.180 C 
ATOM     31  C   UNL     1      -5.100   8.049  15.696  1.00  0.00     0.179 C 
ATOM     32  C   UNL     1      -5.421   8.994  14.494  1.00  0.00     0.177 C 
BRANCH  28  33
ATOM     33  O   UNL     1      -4.270   6.395  12.034  1.00  0.00    -0.384 OA
ATOM     34  H   UNL     1      -4.256   5.492  12.457  1.00  0.00     0.211 HD
ENDBRANCH  28  33
BRANCH  30  35
ATOM     35  O   UNL     1      -5.303   9.161  12.064  1.00  0.00    -0.387 OA
ATOM     36  H   UNL     1      -5.676   8.688  11.279  1.00  0.00     0.211 HD
ENDBRANCH  30  35
BRANCH  31  37
ATOM     37  C   UNL     1      -6.220   8.069  16.748  1.00  0.00     0.191 C 
BRANCH  37  38
ATOM     38  O   UNL     1      -6.074   6.996  17.639  1.00  0.00    -0.394 OA
ATOM     39  H   UNL     1      -6.926   6.478  17.616  1.00  0.00     0.210 HD
ENDBRANCH  37  38
ENDBRANCH  31  37
BRANCH  32  40
ATOM     40  O   UNL     1      -4.579  10.125  14.520  1.00  0.00    -0.387 OA
ATOM     41  H   UNL     1      -3.941  10.006  15.271  1.00  0.00     0.211 HD
ENDBRANCH  32  40
ENDBRANCH   1  27
TORSDOF 12
ENDMDL
MODEL 5
REMARK VINA RESULT:    -5.727     13.605     18.884
REMARK INTER + INTRA:          -9.334
REMARK INTER:                  -8.059
REMARK INTRA:                  -1.275
REMARK UNBOUND:                -0.928
REMARK SMILES O=c1c(O[C@@H]2O[C@H](CO)[C@@H](O)[C@@H](O)[C@@H]2O)c(-c2ccc(O)c(O)c2)oc2cc(O)cc(O)c12
REMARK SMILES IDX 4 1 3 2 16 3 25 4 2 5 26 6 1 7 33 8 27 9 31 10 28 11 30 12
REMARK SMILES IDX 17 13 20 14 19 15 22 16 18 17 24 18 21 19 23 21 32 23 29 25
REMARK SMILES IDX 5 27 14 28 6 29 12 30 7 31 10 32 15 33 13 35 8 37 9 38 11 40
REMARK H PARENT 21 20 23 22 32 24 29 26 15 34 13 36 9 39 11 41
REMARK Flexibility Score: inf
ROOT
ATOM      1  O   UNL     1      -5.062  -9.360  25.215  1.00  0.00    -0.454 OA
ENDROOT
BRANCH   1   2
ATOM      2  C   UNL     1      -5.041  -8.512  24.095  1.00  0.00     0.214 A 
ATOM      3  C   UNL     1      -4.319  -7.309  24.166  1.00  0.00     0.180 A 
ATOM      4  O   UNL     1      -4.386  -6.433  23.168  1.00  0.00    -0.452 OA
ATOM      5  C   UNL     1      -5.741  -8.813  22.912  1.00  0.00     0.239 A 
ATOM      6  C   UNL     1      -5.104  -6.635  22.068  1.00  0.00     0.146 A 
ATOM      7  O   UNL     1      -6.202  -9.974  22.755  1.00  0.00    -0.285 OA
ATOM      8  C   UNL     1      -5.848  -7.835  21.894  1.00  0.00     0.111 A 
ATOM      9  C   UNL     1      -5.098  -5.651  21.075  1.00  0.00     0.094 A 
ATOM     10  C   UNL     1      -6.621  -7.986  20.704  1.00  0.00     0.134 A 
ATOM     11  C   UNL     1      -5.809  -5.841  19.889  1.00  0.00     0.123 A 
ATOM     12  C   UNL     1      -6.558  -7.003  19.709  1.00  0.00     0.093 A 
BRANCH   3  13
ATOM     13  C   UNL     1      -3.498  -6.978  25.351  1.00  0.00     0.025 A 
ATOM     14  C   UNL     1      -1.981  -6.358  27.639  1.00  0.00     0.157 A 
ATOM     15  C   UNL     1      -1.611  -7.435  26.820  1.00  0.00     0.051 A 
ATOM     16  C   UNL     1      -3.099  -5.580  27.306  1.00  0.00     0.158 A 
ATOM     17  C   UNL     1      -2.362  -7.742  25.681  1.00  0.00     0.016 A 
ATOM     18  C   UNL     1      -3.848  -5.883  26.159  1.00  0.00     0.062 A 
BRANCH  14  19
ATOM     19  O   UNL     1      -1.246  -6.059  28.785  1.00  0.00    -0.504 OA
ATOM     20  H   UNL     1      -1.583  -5.402  29.475  1.00  0.00     0.293 HD
ENDBRANCH  14  19
BRANCH  16  21
ATOM     21  O   UNL     1      -3.463  -4.512  28.126  1.00  0.00    -0.504 OA
ATOM     22  H   UNL     1      -3.246  -4.503  29.115  1.00  0.00     0.293 HD
ENDBRANCH  16  21
ENDBRANCH   3  13
BRANCH  10  23
ATOM     23  O   UNL     1      -7.486  -9.058  20.469  1.00  0.00    -0.507 OA
ATOM     24  H   UNL     1      -8.464  -9.080  20.734  1.00  0.00     0.293 HD
ENDBRANCH  10  23
BRANCH  11  25
ATOM     25  O   UNL     1      -5.782  -4.875  18.884  1.00  0.00    -0.508 OA
ATOM     26  H   UNL     1      -5.366  -5.065  17.978  1.00  0.00     0.293 HD
ENDBRANCH  11  25
ENDBRANCH   1   2
BRANCH   1  27
ATOM     27  C   UNL     1      -6.175  -9.510  26.105  1.00  0.00     0.339 C 
ATOM     28  C   UNL     1      -5.682 -10.067  27.473  1.00  0.00     0.214 C 
ATOM     29  O   UNL     1      -6.814  -8.258  26.279  1.00  0.00    -0.332 OA
ATOM     30  C   UNL     1      -6.333  -9.319  28.660  1.00  0.00     0.180 C 
ATOM     31  C   UNL     1      -8.050  -8.442  26.948  1.00  0.00     0.179 C 
ATOM     32  C   UNL     1      -7.827  -8.990  28.394  1.00  0.00     0.177 C 
BRANCH  28  33
ATOM     33  O   UNL     1      -4.280  -9.934  27.579  1.00  0.00    -0.384 OA
ATOM     34  H   UNL     1      -3.970  -9.397  26.799  1.00  0.00     0.211 HD
ENDBRANCH  28  33
BRANCH  30  35
ATOM     35  O   UNL     1      -6.189 -10.090  29.826  1.00  0.00    -0.387 OA
ATOM     36  H   UNL     1      -5.328  -9.829  30.239  1.00  0.00     0.211 HD
ENDBRANCH  30  35
BRANCH  31  37
ATOM     37  C   UNL     1      -8.798  -7.099  26.960  1.00  0.00     0.191 C 
BRANCH  37  38
ATOM     38  O   UNL     1      -7.956  -6.066  26.525  1.00  0.00    -0.394 OA
ATOM     39  H   UNL     1      -8.026  -6.029  25.531  1.00  0.00     0.210 HD
ENDBRANCH  37  38
ENDBRANCH  31  37
BRANCH  32  40
ATOM     40  O   UNL     1      -8.646 -10.114  28.625  1.00  0.00    -0.387 OA
ATOM     41  H   UNL     1      -8.660 -10.652  27.790  1.00  0.00     0.211 HD
ENDBRANCH  32  40
ENDBRANCH   1  27
TORSDOF 12
ENDMDL
MODEL 6
REMARK VINA RESULT:    -5.412     13.625     16.619
REMARK INTER + INTRA:          -8.872
REMARK INTER:                  -7.519
REMARK INTRA:                  -1.353
REMARK UNBOUND:                -0.928
REMARK SMILES O=c1c(O[C@@H]2O[C@H](CO)[C@@H](O)[C@@H](O)[C@@H]2O)c(-c2ccc(O)c(O)c2)oc2cc(O)cc(O)c12
REMARK SMILES IDX 4 1 3 2 16 3 25 4 2 5 26 6 1 7 33 8 27 9 31 10 28 11 30 12
REMARK SMILES IDX 17 13 20 14 19 15 22 16 18 17 24 18 21 19 23 21 32 23 29 25
REMARK SMILES IDX 5 27 14 28 6 29 12 30 7 31 10 32 15 33 13 35 8 37 9 38 11 40
REMARK H PARENT 21 20 23 22 32 24 29 26 15 34 13 36 9 39 11 41
REMARK Flexibility Score: inf
ROOT
ATOM      1  O   UNL     1      -4.606  -5.539  22.417  1.00  0.00    -0.454 OA
ENDROOT
BRANCH   1   2
ATOM      2  C   UNL     1      -4.209  -6.333  23.507  1.00  0.00     0.214 A 
ATOM      3  C   UNL     1      -4.284  -7.731  23.392  1.00  0.00     0.180 A 
ATOM      4  O   UNL     1      -4.035  -8.499  24.449  1.00  0.00    -0.452 OA
ATOM      5  C   UNL     1      -3.763  -5.775  24.720  1.00  0.00     0.239 A 
ATOM      6  C   UNL     1      -3.695  -8.013  25.639  1.00  0.00     0.146 A 
ATOM      7  O   UNL     1      -3.482  -4.548  24.759  1.00  0.00    -0.285 OA
ATOM      8  C   UNL     1      -3.568  -6.612  25.844  1.00  0.00     0.111 A 
ATOM      9  C   UNL     1      -3.447  -8.911  26.681  1.00  0.00     0.094 A 
ATOM     10  C   UNL     1      -3.227  -6.147  27.149  1.00  0.00     0.134 A 
ATOM     11  C   UNL     1      -3.052  -8.444  27.936  1.00  0.00     0.123 A 
ATOM     12  C   UNL     1      -2.940  -7.073  28.160  1.00  0.00     0.093 A 
BRANCH   3  13
ATOM     13  C   UNL     1      -4.666  -8.375  22.116  1.00  0.00     0.025 A 
ATOM     14  C   UNL     1      -5.425  -9.557  19.678  1.00  0.00     0.157 A 
ATOM     15  C   UNL     1      -4.084  -9.218  19.908  1.00  0.00     0.051 A 
ATOM     16  C   UNL     1      -6.385  -9.321  20.673  1.00  0.00     0.158 A 
ATOM     17  C   UNL     1      -3.705  -8.634  21.120  1.00  0.00     0.016 A 
ATOM     18  C   UNL     1      -6.003  -8.742  21.893  1.00  0.00     0.062 A 
BRANCH  14  19
ATOM     19  O   UNL     1      -5.811 -10.123  18.465  1.00  0.00    -0.504 OA
ATOM     20  H   UNL     1      -5.247 -10.821  18.001  1.00  0.00     0.293 HD
ENDBRANCH  14  19
BRANCH  16  21
ATOM     21  O   UNL     1      -7.717  -9.658  20.437  1.00  0.00    -0.504 OA
ATOM     22  H   UNL     1      -8.004 -10.617  20.280  1.00  0.00     0.293 HD
ENDBRANCH  16  21
ENDBRANCH   3  13
BRANCH  10  23
ATOM     23  O   UNL     1      -3.189  -4.797  27.509  1.00  0.00    -0.507 OA
ATOM     24  H   UNL     1      -2.374  -4.200  27.426  1.00  0.00     0.293 HD
ENDBRANCH  10  23
BRANCH  11  25
ATOM     25  O   UNL     1      -2.774  -9.338  28.969  1.00  0.00    -0.508 OA
ATOM     26  H   UNL     1      -2.061  -9.140  29.663  1.00  0.00     0.293 HD
ENDBRANCH  11  25
ENDBRANCH   1   2
BRANCH   1  27
ATOM     27  C   UNL     1      -5.927  -5.019  22.223  1.00  0.00     0.339 C 
ATOM     28  C   UNL     1      -6.262  -4.990  20.703  1.00  0.00     0.214 C 
ATOM     29  O   UNL     1      -6.859  -5.825  22.922  1.00  0.00    -0.332 OA
ATOM     30  C   UNL     1      -7.690  -5.515  20.424  1.00  0.00     0.180 C 
ATOM     31  C   UNL     1      -8.123  -5.182  22.945  1.00  0.00     0.179 C 
ATOM     32  C   UNL     1      -8.705  -5.044  21.502  1.00  0.00     0.177 C 
BRANCH  28  33
ATOM     33  O   UNL     1      -5.347  -5.790  19.985  1.00  0.00    -0.384 OA
ATOM     34  H   UNL     1      -5.361  -5.487  19.036  1.00  0.00     0.211 HD
ENDBRANCH  28  33
BRANCH  30  35
ATOM     35  O   UNL     1      -8.091  -5.101  19.142  1.00  0.00    -0.387 OA
ATOM     36  H   UNL     1      -7.923  -5.861  18.530  1.00  0.00     0.211 HD
ENDBRANCH  30  35
BRANCH  31  37
ATOM     37  C   UNL     1      -9.059  -5.989  23.859  1.00  0.00     0.191 C 
BRANCH  37  38
ATOM     38  O   UNL     1      -9.028  -5.477  25.164  1.00  0.00    -0.394 OA
ATOM     39  H   UNL     1      -8.374  -6.025  25.679  1.00  0.00     0.210 HD
ENDBRANCH  37  38
ENDBRANCH  31  37
BRANCH  32  40
ATOM     40  O   UNL     1      -9.122  -3.718  21.265  1.00  0.00    -0.387 OA
ATOM     41  H   UNL     1      -8.408  -3.115  21.599  1.00  0.00     0.211 HD
ENDBRANCH  32  40
ENDBRANCH   1  27
TORSDOF 12
ENDMDL
MODEL 7
REMARK VINA RESULT:    -5.380     13.098     16.988
REMARK INTER + INTRA:          -8.824
REMARK INTER:                  -8.642
REMARK INTRA:                  -0.182
REMARK UNBOUND:                -0.928
REMARK SMILES O=c1c(O[C@@H]2O[C@H](CO)[C@@H](O)[C@@H](O)[C@@H]2O)c(-c2ccc(O)c(O)c2)oc2cc(O)cc(O)c12
REMARK SMILES IDX 4 1 3 2 16 3 25 4 2 5 26 6 1 7 33 8 27 9 31 10 28 11 30 12
REMARK SMILES IDX 17 13 20 14 19 15 22 16 18 17 24 18 21 19 23 21 32 23 29 25
REMARK SMILES IDX 5 27 14 28 6 29 12 30 7 31 10 32 15 33 13 35 8 37 9 38 11 40
REMARK H PARENT 21 20 23 22 32 24 29 26 15 34 13 36 9 39 11 41
REMARK Flexibility Score: inf
ROOT
ATOM      1  O   UNL     1      -3.701  -7.867  22.503  1.00  0.00    -0.454 OA
ENDROOT
BRANCH   1   2
ATOM      2  C   UNL     1      -3.553  -7.378  23.812  1.00  0.00     0.214 A 
ATOM      3  C   UNL     1      -4.314  -6.267  24.213  1.00  0.00     0.180 A 
ATOM      4  O   UNL     1      -4.101  -5.710  25.402  1.00  0.00    -0.452 OA
ATOM      5  C   UNL     1      -2.649  -7.946  24.729  1.00  0.00     0.239 A 
ATOM      6  C   UNL     1      -3.197  -6.158  26.266  1.00  0.00     0.146 A 
ATOM      7  O   UNL     1      -2.132  -9.063  24.462  1.00  0.00    -0.285 OA
ATOM      8  C   UNL     1      -2.397  -7.293  25.959  1.00  0.00     0.111 A 
ATOM      9  C   UNL     1      -3.061  -5.502  27.492  1.00  0.00     0.094 A 
ATOM     10  C   UNL     1      -1.424  -7.715  26.914  1.00  0.00     0.134 A 
ATOM     11  C   UNL     1      -2.148  -5.964  28.443  1.00  0.00     0.123 A 
ATOM     12  C   UNL     1      -1.343  -7.064  28.151  1.00  0.00     0.093 A 
BRANCH   3  13
ATOM     13  C   UNL     1      -5.339  -5.679  23.323  1.00  0.00     0.025 A 
ATOM     14  C   UNL     1      -7.264  -4.587  21.586  1.00  0.00     0.157 A 
ATOM     15  C   UNL     1      -7.657  -5.453  22.616  1.00  0.00     0.051 A 
ATOM     16  C   UNL     1      -5.911  -4.253  21.433  1.00  0.00     0.158 A 
ATOM     17  C   UNL     1      -6.702  -5.994  23.482  1.00  0.00     0.016 A 
ATOM     18  C   UNL     1      -4.953  -4.789  22.308  1.00  0.00     0.062 A 
BRANCH  14  19
ATOM     19  O   UNL     1      -8.210  -4.059  20.709  1.00  0.00    -0.504 OA
ATOM     20  H   UNL     1      -9.006  -3.530  21.041  1.00  0.00     0.293 HD
ENDBRANCH  14  19
BRANCH  16  21
ATOM     21  O   UNL     1      -5.527  -3.393  20.405  1.00  0.00    -0.504 OA
ATOM     22  H   UNL     1      -5.613  -3.656  19.431  1.00  0.00     0.293 HD
ENDBRANCH  16  21
ENDBRANCH   3  13
BRANCH  10  23
ATOM     23  O   UNL     1      -0.499  -8.736  26.683  1.00  0.00    -0.507 OA
ATOM     24  H   UNL     1      -0.253  -9.456  27.354  1.00  0.00     0.293 HD
ENDBRANCH  10  23
BRANCH  11  25
ATOM     25  O   UNL     1      -2.030  -5.330  29.679  1.00  0.00    -0.508 OA
ATOM     26  H   UNL     1      -1.125  -5.061  30.052  1.00  0.00     0.293 HD
ENDBRANCH  11  25
ENDBRANCH   1   2
BRANCH   1  27
ATOM     27  C   UNL     1      -4.957  -8.160  21.878  1.00  0.00     0.339 C 
ATOM     28  C   UNL     1      -4.713  -8.701  20.438  1.00  0.00     0.214 C 
ATOM     29  O   UNL     1      -5.659  -9.115  22.654  1.00  0.00    -0.332 OA
ATOM     30  C   UNL     1      -5.601  -9.929  20.132  1.00  0.00     0.180 C 
ATOM     31  C   UNL     1      -6.993  -9.223  22.185  1.00  0.00     0.179 C 
ATOM     32  C   UNL     1      -7.029  -9.778  20.726  1.00  0.00     0.177 C 
BRANCH  28  33
ATOM     33  O   UNL     1      -3.362  -9.079  20.280  1.00  0.00    -0.384 OA
ATOM     34  H   UNL     1      -3.022  -8.645  19.450  1.00  0.00     0.211 HD
ENDBRANCH  28  33
BRANCH  30  35
ATOM     35  O   UNL     1      -5.654 -10.125  18.741  1.00  0.00    -0.387 OA
ATOM     36  H   UNL     1      -6.609 -10.236  18.504  1.00  0.00     0.211 HD
ENDBRANCH  30  35
BRANCH  31  37
ATOM     37  C   UNL     1      -7.775 -10.123  23.154  1.00  0.00     0.191 C 
BRANCH  37  38
ATOM     38  O   UNL     1      -8.647  -9.356  23.940  1.00  0.00    -0.394 OA
ATOM     39  H   UNL     1      -8.088  -8.855  24.595  1.00  0.00     0.210 HD
ENDBRANCH  37  38
ENDBRANCH  31  37
BRANCH  32  40
ATOM     40  O   UNL     1      -7.838  -8.962  19.909  1.00  0.00    -0.387 OA
ATOM     41  H   UNL     1      -8.230  -9.540  19.204  1.00  0.00     0.211 HD
ENDBRANCH  32  40
ENDBRANCH   1  27
TORSDOF 12
ENDMDL
MODEL 8
REMARK VINA RESULT:    -5.260     12.448     16.843
REMARK INTER + INTRA:          -8.648
REMARK INTER:                  -7.862
REMARK INTRA:                  -0.786
REMARK UNBOUND:                -0.928
REMARK SMILES O=c1c(O[C@@H]2O[C@H](CO)[C@@H](O)[C@@H](O)[C@@H]2O)c(-c2ccc(O)c(O)c2)oc2cc(O)cc(O)c12
REMARK SMILES IDX 4 1 3 2 16 3 25 4 2 5 26 6 1 7 33 8 27 9 31 10 28 11 30 12
REMARK SMILES IDX 17 13 20 14 19 15 22 16 18 17 24 18 21 19 23 21 32 23 29 25
REMARK SMILES IDX 5 27 14 28 6 29 12 30 7 31 10 32 15 33 13 35 8 37 9 38 11 40
REMARK H PARENT 21 20 23 22 32 24 29 26 15 34 13 36 9 39 11 41
REMARK Flexibility Score: inf
ROOT
ATOM      1  O   UNL     1      -6.046  -5.716  23.624  1.00  0.00    -0.454 OA
ENDROOT
BRANCH   1   2
ATOM      2  C   UNL     1      -5.342  -6.603  24.456  1.00  0.00     0.214 A 
ATOM      3  C   UNL     1      -5.612  -7.978  24.366  1.00  0.00     0.180 A 
ATOM      4  O   UNL     1      -5.052  -8.823  25.227  1.00  0.00    -0.452 OA
ATOM      5  C   UNL     1      -4.393  -6.158  25.395  1.00  0.00     0.239 A 
ATOM      6  C   UNL     1      -4.218  -8.438  26.188  1.00  0.00     0.146 A 
ATOM      7  O   UNL     1      -3.983  -4.969  25.332  1.00  0.00    -0.285 OA
ATOM      8  C   UNL     1      -3.864  -7.070  26.340  1.00  0.00     0.111 A 
ATOM      9  C   UNL     1      -3.679  -9.411  27.034  1.00  0.00     0.094 A 
ATOM     10  C   UNL     1      -2.983  -6.712  27.404  1.00  0.00     0.134 A 
ATOM     11  C   UNL     1      -2.770  -9.054  28.032  1.00  0.00     0.123 A 
ATOM     12  C   UNL     1      -2.426  -7.715  28.207  1.00  0.00     0.093 A 
BRANCH   3  13
ATOM     13  C   UNL     1      -6.537  -8.512  23.343  1.00  0.00     0.025 A 
ATOM     14  C   UNL     1      -8.268  -9.577  21.398  1.00  0.00     0.157 A 
ATOM     15  C   UNL     1      -8.777  -9.140  22.629  1.00  0.00     0.051 A 
ATOM     16  C   UNL     1      -6.897  -9.467  21.130  1.00  0.00     0.158 A 
ATOM     17  C   UNL     1      -7.919  -8.607  23.595  1.00  0.00     0.016 A 
ATOM     18  C   UNL     1      -6.035  -8.925  22.097  1.00  0.00     0.062 A 
BRANCH  14  19
ATOM     19  O   UNL     1      -9.118 -10.125  20.438  1.00  0.00    -0.504 OA
ATOM     20  H   UNL     1     -10.124 -10.062  20.521  1.00  0.00     0.293 HD
ENDBRANCH  14  19
BRANCH  16  21
ATOM     21  O   UNL     1      -6.396  -9.906  19.905  1.00  0.00    -0.504 OA
ATOM     22  H   UNL     1      -6.989  -9.989  19.087  1.00  0.00     0.293 HD
ENDBRANCH  16  21
ENDBRANCH   3  13
BRANCH  10  23
ATOM     23  O   UNL     1      -2.656  -5.394  27.733  1.00  0.00    -0.507 OA
ATOM     24  H   UNL     1      -3.312  -4.620  27.742  1.00  0.00     0.293 HD
ENDBRANCH  10  23
BRANCH  11  25
ATOM     25  O   UNL     1      -2.208 -10.025  28.859  1.00  0.00    -0.508 OA
ATOM     26  H   UNL     1      -2.067 -10.978  28.539  1.00  0.00     0.293 HD
ENDBRANCH  11  25
ENDBRANCH   1   2
BRANCH   1  27
ATOM     27  C   UNL     1      -5.887  -5.628  22.202  1.00  0.00     0.339 C 
ATOM     28  C   UNL     1      -7.005  -4.727  21.603  1.00  0.00     0.214 C 
ATOM     29  O   UNL     1      -4.608  -5.099  21.902  1.00  0.00    -0.332 OA
ATOM     30  C   UNL     1      -6.442  -3.741  20.554  1.00  0.00     0.180 C 
ATOM     31  C   UNL     1      -4.346  -5.242  20.516  1.00  0.00     0.179 C 
ATOM     32  C   UNL     1      -5.347  -4.396  19.667  1.00  0.00     0.177 C 
BRANCH  28  33
ATOM     33  O   UNL     1      -7.630  -3.979  22.625  1.00  0.00    -0.384 OA
ATOM     34  H   UNL     1      -8.517  -3.682  22.281  1.00  0.00     0.211 HD
ENDBRANCH  28  33
BRANCH  30  35
ATOM     35  O   UNL     1      -7.498  -3.251  19.766  1.00  0.00    -0.387 OA
ATOM     36  H   UNL     1      -7.141  -2.483  19.254  1.00  0.00     0.211 HD
ENDBRANCH  30  35
BRANCH  31  37
ATOM     37  C   UNL     1      -2.889  -4.828  20.254  1.00  0.00     0.191 C 
BRANCH  37  38
ATOM     38  O   UNL     1      -2.094  -5.959  20.015  1.00  0.00    -0.394 OA
ATOM     39  H   UNL     1      -1.419  -6.003  20.748  1.00  0.00     0.210 HD
ENDBRANCH  37  38
ENDBRANCH  31  37
BRANCH  32  40
ATOM     40  O   UNL     1      -5.919  -5.186  18.650  1.00  0.00    -0.387 OA
ATOM     41  H   UNL     1      -5.597  -6.116  18.776  1.00  0.00     0.211 HD
ENDBRANCH  32  40
ENDBRANCH   1  27
TORSDOF 12
ENDMDL
MODEL 9
REMARK VINA RESULT:    -5.209     14.592     18.511
REMARK INTER + INTRA:          -8.573
REMARK INTER:                  -7.373
REMARK INTRA:                  -1.201
REMARK UNBOUND:                -0.928
REMARK SMILES O=c1c(O[C@@H]2O[C@H](CO)[C@@H](O)[C@@H](O)[C@@H]2O)c(-c2ccc(O)c(O)c2)oc2cc(O)cc(O)c12
REMARK SMILES IDX 4 1 3 2 16 3 25 4 2 5 26 6 1 7 33 8 27 9 31 10 28 11 30 12
REMARK SMILES IDX 17 13 20 14 19 15 22 16 18 17 24 18 21 19 23 21 32 23 29 25
REMARK SMILES IDX 5 27 14 28 6 29 12 30 7 31 10 32 15 33 13 35 8 37 9 38 11 40
REMARK H PARENT 21 20 23 22 32 24 29 26 15 34 13 36 9 39 11 41
REMARK Flexibility Score: inf
ROOT
ATOM      1  O   UNL     1      -3.516  -9.176  24.331  1.00  0.00    -0.454 OA
ENDROOT
BRANCH   1   2
ATOM      2  C   UNL     1      -2.766  -8.619  25.380  1.00  0.00     0.214 A 
ATOM      3  C   UNL     1      -3.441  -7.976  26.431  1.00  0.00     0.180 A 
ATOM      4  O   UNL     1      -2.751  -7.332  27.369  1.00  0.00    -0.452 OA
ATOM      5  C   UNL     1      -1.359  -8.659  25.402  1.00  0.00     0.239 A 
ATOM      6  C   UNL     1      -1.424  -7.269  27.382  1.00  0.00     0.146 A 
ATOM      7  O   UNL     1      -0.758  -9.415  24.594  1.00  0.00    -0.285 OA
ATOM      8  C   UNL     1      -0.654  -7.911  26.375  1.00  0.00     0.111 A 
ATOM      9  C   UNL     1      -0.799  -6.573  28.421  1.00  0.00     0.094 A 
ATOM     10  C   UNL     1       0.767  -7.787  26.426  1.00  0.00     0.134 A 
ATOM     11  C   UNL     1       0.594  -6.513  28.493  1.00  0.00     0.123 A 
ATOM     12  C   UNL     1       1.365  -7.122  27.503  1.00  0.00     0.093 A 
BRANCH   3  13
ATOM     13  C   UNL     1      -4.918  -7.974  26.505  1.00  0.00     0.025 A 
ATOM     14  C   UNL     1      -7.731  -7.974  26.588  1.00  0.00     0.157 A 
ATOM     15  C   UNL     1      -7.008  -9.003  27.209  1.00  0.00     0.051 A 
ATOM     16  C   UNL     1      -7.048  -6.935  25.940  1.00  0.00     0.158 A 
ATOM     17  C   UNL     1      -5.611  -9.003  27.171  1.00  0.00     0.016 A 
ATOM     18  C   UNL     1      -5.645  -6.930  25.908  1.00  0.00     0.062 A 
BRANCH  14  19
ATOM     19  O   UNL     1      -9.124  -7.979  26.608  1.00  0.00    -0.504 OA
ATOM     20  H   UNL     1      -9.661  -8.631  26.052  1.00  0.00     0.293 HD
ENDBRANCH  14  19
BRANCH  16  21
ATOM     21  O   UNL     1      -7.772  -5.916  25.323  1.00  0.00    -0.504 OA
ATOM     22  H   UNL     1      -8.556  -6.114  24.712  1.00  0.00     0.293 HD
ENDBRANCH  16  21
ENDBRANCH   3  13
BRANCH  10  23
ATOM     23  O   UNL     1       1.626  -8.267  25.434  1.00  0.00    -0.507 OA
ATOM     24  H   UNL     1       1.417  -9.042  24.814  1.00  0.00     0.293 HD
ENDBRANCH  10  23
BRANCH  11  25
ATOM     25  O   UNL     1       1.222  -5.844  29.543  1.00  0.00    -0.508 OA
ATOM     26  H   UNL     1       1.869  -6.321  30.163  1.00  0.00     0.293 HD
ENDBRANCH  11  25
ENDBRANCH   1   2
BRANCH   1  27
ATOM     27  C   UNL     1      -3.884  -8.484  23.131  1.00  0.00     0.339 C 
ATOM     28  C   UNL     1      -5.230  -9.048  22.590  1.00  0.00     0.214 C 
ATOM     29  O   UNL     1      -3.999  -7.098  23.402  1.00  0.00    -0.332 OA
ATOM     30  C   UNL     1      -6.185  -7.916  22.147  1.00  0.00     0.180 C 
ATOM     31  C   UNL     1      -4.113  -6.382  22.184  1.00  0.00     0.179 C 
ATOM     32  C   UNL     1      -5.429  -6.761  21.434  1.00  0.00     0.177 C 
BRANCH  28  33
ATOM     33  O   UNL     1      -5.877  -9.809  23.588  1.00  0.00    -0.384 OA
ATOM     34  H   UNL     1      -5.171 -10.242  24.142  1.00  0.00     0.211 HD
ENDBRANCH  28  33
BRANCH  30  35
ATOM     35  O   UNL     1      -7.182  -8.453  21.313  1.00  0.00    -0.387 OA
ATOM     36  H   UNL     1      -7.426  -9.335  21.690  1.00  0.00     0.211 HD
ENDBRANCH  30  35
BRANCH  31  37
ATOM     37  C   UNL     1      -4.053  -4.879  22.500  1.00  0.00     0.191 C 
BRANCH  37  38
ATOM     38  O   UNL     1      -5.201  -4.479  23.198  1.00  0.00    -0.394 OA
ATOM     39  H   UNL     1      -5.980  -4.921  22.760  1.00  0.00     0.210 HD
ENDBRANCH  37  38
ENDBRANCH  31  37
BRANCH  32  40
ATOM     40  O   UNL     1      -5.154  -7.085  20.090  1.00  0.00    -0.387 OA
ATOM     41  H   UNL     1      -5.591  -7.954  19.895  1.00  0.00     0.211 HD
ENDBRANCH  32  40
ENDBRANCH   1  27
TORSDOF 12
ENDMDL
