MODEL 1
REMARK VINA RESULT:    -5.076      0.000      0.000
REMARK INTER + INTRA:          -6.245
REMARK INTER:                  -5.966
REMARK INTRA:                  -0.279
REMARK UNBOUND:                -0.279
REMARK SMILES O=c1c(O)c(-c2ccc(O)cc2)oc2cc(O)cc(O)c12
REMARK SMILES IDX 5 1 3 2 2 3 1 4 21 5 19 6 18 7 16 8 15 9 14 10 13 11 6 12
REMARK SMILES IDX 7 13 8 14 9 15 12 16 11 17 10 18 4 20 20 22 17 24
REMARK H PARENT 10 19 4 21 20 23 17 25
REMARK Flexibility Score: inf
ROOT
ATOM      1  C   UNL     1      69.518   9.305 356.902  1.00  0.00     0.180 A 
ATOM      2  C   UNL     1      68.487   9.100 355.966  1.00  0.00     0.208 A 
ATOM      3  C   UNL     1      68.595   8.036 355.058  1.00  0.00     0.238 A 
ATOM      4  O   UNL     1      67.673   7.836 354.222  1.00  0.00    -0.285 OA
ATOM      5  C   UNL     1      69.737   7.208 355.087  1.00  0.00     0.111 A 
ATOM      6  C   UNL     1      69.925   6.117 354.205  1.00  0.00     0.134 A 
ATOM      7  C   UNL     1      71.095   5.347 354.292  1.00  0.00     0.093 A 
ATOM      8  C   UNL     1      72.076   5.644 355.240  1.00  0.00     0.123 A 
ATOM      9  C   UNL     1      71.895   6.721 356.114  1.00  0.00     0.094 A 
ATOM     10  C   UNL     1      70.736   7.500 356.044  1.00  0.00     0.146 A 
ATOM     11  O   UNL     1      70.587   8.514 356.891  1.00  0.00    -0.452 OA
ENDROOT
BRANCH   1  12
ATOM     12  C   UNL     1      69.467  10.394 357.903  1.00  0.00     0.021 A 
ATOM     13  C   UNL     1      70.233  11.555 357.701  1.00  0.00     0.016 A 
ATOM     14  C   UNL     1      70.217  12.587 358.644  1.00  0.00     0.047 A 
ATOM     15  C   UNL     1      69.449  12.464 359.810  1.00  0.00     0.115 A 
ATOM     16  C   UNL     1      68.715  10.269 359.086  1.00  0.00     0.016 A 
ATOM     17  C   UNL     1      68.702  11.302 360.028  1.00  0.00     0.047 A 
BRANCH  15  18
ATOM     18  O   UNL     1      69.426  13.485 360.757  1.00  0.00    -0.508 OA
ATOM     19  H   UNL     1      68.894  13.398 361.616  1.00  0.00     0.293 HD
ENDBRANCH  15  18
ENDBRANCH   1  12
BRANCH   2  20
ATOM     20  O   UNL     1      67.389   9.964 355.924  1.00  0.00    -0.502 OA
ATOM     21  H   UNL     1      66.533   9.779 356.433  1.00  0.00     0.293 HD
ENDBRANCH   2  20
BRANCH   6  22
ATOM     22  O   UNL     1      68.964   5.795 353.246  1.00  0.00    -0.507 OA
ATOM     23  H   UNL     1      69.175   5.185 352.465  1.00  0.00     0.293 HD
ENDBRANCH   6  22
BRANCH   8  24
ATOM     24  O   UNL     1      73.228   4.864 355.305  1.00  0.00    -0.508 OA
ATOM     25  H   UNL     1      73.200   3.863 355.151  1.00  0.00     0.293 HD
ENDBRANCH   8  24
TORSDOF 5
ENDMDL
MODEL 2
REMARK VINA RESULT:    -4.955      2.679      6.275
REMARK INTER + INTRA:          -6.103
REMARK INTER:                  -5.818
REMARK INTRA:                  -0.284
REMARK UNBOUND:                -0.279
REMARK SMILES O=c1c(O)c(-c2ccc(O)cc2)oc2cc(O)cc(O)c12
REMARK SMILES IDX 5 1 3 2 2 3 1 4 21 5 19 6 18 7 16 8 15 9 14 10 13 11 6 12
REMARK SMILES IDX 7 13 8 14 9 15 12 16 11 17 10 18 4 20 20 22 17 24
REMARK H PARENT 10 19 4 21 20 23 17 25
REMARK Flexibility Score: inf
ROOT
ATOM      1  C   UNL     1      68.896   9.597 356.064  1.00  0.00     0.180 A 
ATOM      2  C   UNL     1      68.802  10.857 355.442  1.00  0.00     0.208 A 
ATOM      3  C   UNL     1      69.535  11.931 355.971  1.00  0.00     0.238 A 
ATOM      4  O   UNL     1      69.468  13.061 355.416  1.00  0.00    -0.285 OA
ATOM      5  C   UNL     1      70.330  11.735 357.118  1.00  0.00     0.111 A 
ATOM      6  C   UNL     1      71.096  12.765 357.716  1.00  0.00     0.134 A 
ATOM      7  C   UNL     1      71.855  12.490 358.864  1.00  0.00     0.093 A 
ATOM      8  C   UNL     1      71.863  11.212 359.425  1.00  0.00     0.123 A 
ATOM      9  C   UNL     1      71.110  10.190 358.839  1.00  0.00     0.094 A 
ATOM     10  C   UNL     1      70.347  10.442 357.694  1.00  0.00     0.146 A 
ATOM     11  O   UNL     1      69.644   9.452 357.154  1.00  0.00    -0.452 OA
ENDROOT
BRANCH   1  12
ATOM     12  C   UNL     1      68.169   8.412 355.555  1.00  0.00     0.021 A 
ATOM     13  C   UNL     1      66.848   8.180 355.973  1.00  0.00     0.016 A 
ATOM     14  C   UNL     1      66.150   7.055 355.523  1.00  0.00     0.047 A 
ATOM     15  C   UNL     1      66.770   6.140 354.662  1.00  0.00     0.115 A 
ATOM     16  C   UNL     1      68.792   7.477 354.707  1.00  0.00     0.016 A 
ATOM     17  C   UNL     1      68.091   6.353 354.259  1.00  0.00     0.047 A 
BRANCH  15  18
ATOM     18  O   UNL     1      66.085   5.016 354.207  1.00  0.00    -0.508 OA
ATOM     19  H   UNL     1      65.798   4.278 354.840  1.00  0.00     0.293 HD
ENDBRANCH  15  18
ENDBRANCH   1  12
BRANCH   2  20
ATOM     20  O   UNL     1      67.969  11.038 354.335  1.00  0.00    -0.502 OA
ATOM     21  H   UNL     1      67.930  10.374 353.571  1.00  0.00     0.293 HD
ENDBRANCH   2  20
BRANCH   6  22
ATOM     22  O   UNL     1      71.108  14.053 357.181  1.00  0.00    -0.507 OA
ATOM     23  H   UNL     1      70.813  14.237 356.228  1.00  0.00     0.293 HD
ENDBRANCH   6  22
BRANCH   8  24
ATOM     24  O   UNL     1      72.624  10.967 360.565  1.00  0.00    -0.508 OA
ATOM     25  H   UNL     1      73.637  10.969 360.537  1.00  0.00     0.293 HD
ENDBRANCH   8  24
TORSDOF 5
ENDMDL
MODEL 3
REMARK VINA RESULT:    -4.909      1.970      7.074
REMARK INTER + INTRA:          -6.049
REMARK INTER:                  -6.051
REMARK INTRA:                   0.002
REMARK UNBOUND:                -0.279
REMARK SMILES O=c1c(O)c(-c2ccc(O)cc2)oc2cc(O)cc(O)c12
REMARK SMILES IDX 5 1 3 2 2 3 1 4 21 5 19 6 18 7 16 8 15 9 14 10 13 11 6 12
REMARK SMILES IDX 7 13 8 14 9 15 12 16 11 17 10 18 4 20 20 22 17 24
REMARK H PARENT 10 19 4 21 20 23 17 25
REMARK Flexibility Score: inf
ROOT
ATOM      1  C   UNL     1      69.595   8.150 355.335  1.00  0.00     0.180 A 
ATOM      2  C   UNL     1      70.276   8.260 356.562  1.00  0.00     0.208 A 
ATOM      3  C   UNL     1      70.245   9.484 357.249  1.00  0.00     0.238 A 
ATOM      4  O   UNL     1      70.842   9.590 358.354  1.00  0.00    -0.285 OA
ATOM      5  C   UNL     1      69.553  10.579 356.691  1.00  0.00     0.111 A 
ATOM      6  C   UNL     1      69.476  11.846 357.317  1.00  0.00     0.134 A 
ATOM      7  C   UNL     1      68.776  12.889 356.691  1.00  0.00     0.093 A 
ATOM      8  C   UNL     1      68.153  12.690 355.457  1.00  0.00     0.123 A 
ATOM      9  C   UNL     1      68.225  11.440 354.835  1.00  0.00     0.094 A 
ATOM     10  C   UNL     1      68.918  10.388 355.442  1.00  0.00     0.146 A 
ATOM     11  O   UNL     1      68.966   9.208 354.832  1.00  0.00    -0.452 OA
ENDROOT
BRANCH   1  12
ATOM     12  C   UNL     1      69.566   6.889 354.561  1.00  0.00     0.021 A 
ATOM     13  C   UNL     1      70.776   6.277 354.190  1.00  0.00     0.016 A 
ATOM     14  C   UNL     1      70.773   5.097 353.440  1.00  0.00     0.047 A 
ATOM     15  C   UNL     1      69.560   4.523 353.037  1.00  0.00     0.115 A 
ATOM     16  C   UNL     1      68.353   6.317 354.134  1.00  0.00     0.016 A 
ATOM     17  C   UNL     1      68.353   5.138 353.383  1.00  0.00     0.047 A 
BRANCH  15  18
ATOM     18  O   UNL     1      69.544   3.348 352.289  1.00  0.00    -0.508 OA
ATOM     19  H   UNL     1      68.815   3.164 351.609  1.00  0.00     0.293 HD
ENDBRANCH  15  18
ENDBRANCH   1  12
BRANCH   2  20
ATOM     20  O   UNL     1      70.996   7.175 357.070  1.00  0.00    -0.502 OA
ATOM     21  H   UNL     1      70.544   6.381 357.508  1.00  0.00     0.293 HD
ENDBRANCH   2  20
BRANCH   6  22
ATOM     22  O   UNL     1      70.089  12.077 358.549  1.00  0.00    -0.507 OA
ATOM     23  H   UNL     1      70.894  11.541 358.853  1.00  0.00     0.293 HD
ENDBRANCH   6  22
BRANCH   8  24
ATOM     24  O   UNL     1      67.465  13.742 354.858  1.00  0.00    -0.508 OA
ATOM     25  H   UNL     1      66.604  14.104 355.250  1.00  0.00     0.293 HD
ENDBRANCH   8  24
TORSDOF 5
ENDMDL
MODEL 4
REMARK VINA RESULT:    -4.886      6.851      9.036
REMARK INTER + INTRA:          -6.022
REMARK INTER:                  -5.954
REMARK INTRA:                  -0.068
REMARK UNBOUND:                -0.279
REMARK SMILES O=c1c(O)c(-c2ccc(O)cc2)oc2cc(O)cc(O)c12
REMARK SMILES IDX 5 1 3 2 2 3 1 4 21 5 19 6 18 7 16 8 15 9 14 10 13 11 6 12
REMARK SMILES IDX 7 13 8 14 9 15 12 16 11 17 10 18 4 20 20 22 17 24
REMARK H PARENT 10 19 4 21 20 23 17 25
REMARK Flexibility Score: inf
ROOT
ATOM      1  C   UNL     1      73.912  11.808 361.498  1.00  0.00     0.180 A 
ATOM      2  C   UNL     1      72.527  11.610 361.340  1.00  0.00     0.208 A 
ATOM      3  C   UNL     1      71.787  11.102 362.419  1.00  0.00     0.238 A 
ATOM      4  O   UNL     1      70.544  10.931 362.293  1.00  0.00    -0.285 OA
ATOM      5  C   UNL     1      72.442  10.782 363.626  1.00  0.00     0.111 A 
ATOM      6  C   UNL     1      71.770  10.262 364.758  1.00  0.00     0.134 A 
ATOM      7  C   UNL     1      72.497   9.960 365.920  1.00  0.00     0.093 A 
ATOM      8  C   UNL     1      73.877  10.167 365.972  1.00  0.00     0.123 A 
ATOM      9  C   UNL     1      74.546  10.681 364.856  1.00  0.00     0.094 A 
ATOM     10  C   UNL     1      73.840  10.989 363.689  1.00  0.00     0.146 A 
ATOM     11  O   UNL     1      74.499  11.482 362.646  1.00  0.00    -0.452 OA
ENDROOT
BRANCH   1  12
ATOM     12  C   UNL     1      74.757  12.358 360.414  1.00  0.00     0.021 A 
ATOM     13  C   UNL     1      75.904  11.655 360.007  1.00  0.00     0.016 A 
ATOM     14  C   UNL     1      76.729  12.166 359.001  1.00  0.00     0.047 A 
ATOM     15  C   UNL     1      76.426  13.395 358.400  1.00  0.00     0.115 A 
ATOM     16  C   UNL     1      74.472  13.601 359.820  1.00  0.00     0.016 A 
ATOM     17  C   UNL     1      75.299  14.111 358.814  1.00  0.00     0.047 A 
BRANCH  15  18
ATOM     18  O   UNL     1      77.240  13.915 357.396  1.00  0.00    -0.508 OA
ATOM     19  H   UNL     1      78.251  13.860 357.453  1.00  0.00     0.293 HD
ENDBRANCH  15  18
ENDBRANCH   1  12
BRANCH   2  20
ATOM     20  O   UNL     1      71.909  11.888 360.118  1.00  0.00    -0.502 OA
ATOM     21  H   UNL     1      72.033  12.770 359.635  1.00  0.00     0.293 HD
ENDBRANCH   2  20
BRANCH   6  22
ATOM     22  O   UNL     1      70.393  10.043 364.738  1.00  0.00    -0.507 OA
ATOM     23  H   UNL     1      69.941   9.428 365.404  1.00  0.00     0.293 HD
ENDBRANCH   6  22
BRANCH   8  24
ATOM     24  O   UNL     1      74.575   9.859 367.137  1.00  0.00    -0.508 OA
ATOM     25  H   UNL     1      75.230   9.087 367.174  1.00  0.00     0.293 HD
ENDBRANCH   8  24
TORSDOF 5
ENDMDL
MODEL 5
REMARK VINA RESULT:    -4.886      1.898      6.531
REMARK INTER + INTRA:          -6.021
REMARK INTER:                  -5.795
REMARK INTRA:                  -0.226
REMARK UNBOUND:                -0.279
REMARK SMILES O=c1c(O)c(-c2ccc(O)cc2)oc2cc(O)cc(O)c12
REMARK SMILES IDX 5 1 3 2 2 3 1 4 21 5 19 6 18 7 16 8 15 9 14 10 13 11 6 12
REMARK SMILES IDX 7 13 8 14 9 15 12 16 11 17 10 18 4 20 20 22 17 24
REMARK H PARENT 10 19 4 21 20 23 17 25
REMARK Flexibility Score: inf
ROOT
ATOM      1  C   UNL     1      69.563   9.090 356.171  1.00  0.00     0.180 A 
ATOM      2  C   UNL     1      68.164   9.072 356.327  1.00  0.00     0.208 A 
ATOM      3  C   UNL     1      67.507  10.254 356.702  1.00  0.00     0.238 A 
ATOM      4  O   UNL     1      66.253  10.253 356.833  1.00  0.00    -0.285 OA
ATOM      5  C   UNL     1      68.257  11.426 356.933  1.00  0.00     0.111 A 
ATOM      6  C   UNL     1      67.673  12.657 357.316  1.00  0.00     0.134 A 
ATOM      7  C   UNL     1      68.491  13.775 357.537  1.00  0.00     0.093 A 
ATOM      8  C   UNL     1      69.876  13.688 357.383  1.00  0.00     0.123 A 
ATOM      9  C   UNL     1      70.458  12.475 357.003  1.00  0.00     0.094 A 
ATOM     10  C   UNL     1      69.661  11.349 356.777  1.00  0.00     0.146 A 
ATOM     11  O   UNL     1      70.240  10.209 356.412  1.00  0.00    -0.452 OA
ENDROOT
BRANCH   1  12
ATOM     12  C   UNL     1      70.325   7.889 355.760  1.00  0.00     0.021 A 
ATOM     13  C   UNL     1      71.173   7.258 356.686  1.00  0.00     0.016 A 
ATOM     14  C   UNL     1      71.919   6.136 356.313  1.00  0.00     0.047 A 
ATOM     15  C   UNL     1      71.838   5.641 355.005  1.00  0.00     0.115 A 
ATOM     16  C   UNL     1      70.265   7.398 354.443  1.00  0.00     0.016 A 
ATOM     17  C   UNL     1      71.014   6.276 354.073  1.00  0.00     0.047 A 
BRANCH  15  18
ATOM     18  O   UNL     1      72.577   4.524 354.622  1.00  0.00    -0.508 OA
ATOM     19  H   UNL     1      73.049   4.483 353.725  1.00  0.00     0.293 HD
ENDBRANCH  15  18
ENDBRANCH   1  12
BRANCH   2  20
ATOM     20  O   UNL     1      67.447   7.886 356.140  1.00  0.00    -0.502 OA
ATOM     21  H   UNL     1      67.759   7.158 355.508  1.00  0.00     0.293 HD
ENDBRANCH   2  20
BRANCH   6  22
ATOM     22  O   UNL     1      66.293  12.776 357.481  1.00  0.00    -0.507 OA
ATOM     23  H   UNL     1      65.706  13.203 356.773  1.00  0.00     0.293 HD
ENDBRANCH   6  22
BRANCH   8  24
ATOM     24  O   UNL     1      70.664  14.813 357.608  1.00  0.00    -0.508 OA
ATOM     25  H   UNL     1      71.256  14.891 358.427  1.00  0.00     0.293 HD
ENDBRANCH   8  24
TORSDOF 5
ENDMDL
MODEL 6
REMARK VINA RESULT:    -4.881      6.798      9.340
REMARK INTER + INTRA:          -6.016
REMARK INTER:                  -5.738
REMARK INTRA:                  -0.277
REMARK UNBOUND:                -0.279
REMARK SMILES O=c1c(O)c(-c2ccc(O)cc2)oc2cc(O)cc(O)c12
REMARK SMILES IDX 5 1 3 2 2 3 1 4 21 5 19 6 18 7 16 8 15 9 14 10 13 11 6 12
REMARK SMILES IDX 7 13 8 14 9 15 12 16 11 17 10 18 4 20 20 22 17 24
REMARK H PARENT 10 19 4 21 20 23 17 25
REMARK Flexibility Score: inf
ROOT
ATOM      1  C   UNL     1      75.737  13.402 360.108  1.00  0.00     0.180 A 
ATOM      2  C   UNL     1      74.668  13.622 359.218  1.00  0.00     0.208 A 
ATOM      3  C   UNL     1      73.386  13.173 359.572  1.00  0.00     0.238 A 
ATOM      4  O   UNL     1      72.420  13.374 358.787  1.00  0.00    -0.285 OA
ATOM      5  C   UNL     1      73.197  12.498 360.795  1.00  0.00     0.111 A 
ATOM      6  C   UNL     1      71.939  12.011 361.225  1.00  0.00     0.134 A 
ATOM      7  C   UNL     1      71.835  11.340 362.452  1.00  0.00     0.093 A 
ATOM      8  C   UNL     1      72.960  11.147 363.257  1.00  0.00     0.123 A 
ATOM      9  C   UNL     1      74.206  11.626 362.838  1.00  0.00     0.094 A 
ATOM     10  C   UNL     1      74.330  12.298 361.618  1.00  0.00     0.146 A 
ATOM     11  O   UNL     1      75.524  12.748 361.247  1.00  0.00    -0.452 OA
ENDROOT
BRANCH   1  12
ATOM     12  C   UNL     1      77.113  13.861 359.815  1.00  0.00     0.021 A 
ATOM     13  C   UNL     1      78.073  12.933 359.376  1.00  0.00     0.016 A 
ATOM     14  C   UNL     1      79.384  13.341 359.115  1.00  0.00     0.047 A 
ATOM     15  C   UNL     1      79.757  14.678 359.304  1.00  0.00     0.115 A 
ATOM     16  C   UNL     1      77.500  15.198 360.022  1.00  0.00     0.016 A 
ATOM     17  C   UNL     1      78.813  15.603 359.760  1.00  0.00     0.047 A 
BRANCH  15  18
ATOM     18  O   UNL     1      81.060  15.096 359.047  1.00  0.00    -0.508 OA
ATOM     19  H   UNL     1      81.465  15.027 358.120  1.00  0.00     0.293 HD
ENDBRANCH  15  18
ENDBRANCH   1  12
BRANCH   2  20
ATOM     20  O   UNL     1      74.891  14.250 357.989  1.00  0.00    -0.502 OA
ATOM     21  H   UNL     1      74.914  15.258 357.891  1.00  0.00     0.293 HD
ENDBRANCH   2  20
BRANCH   6  22
ATOM     22  O   UNL     1      70.796  12.187 360.443  1.00  0.00    -0.507 OA
ATOM     23  H   UNL     1      70.423  13.108 360.245  1.00  0.00     0.293 HD
ENDBRANCH   6  22
BRANCH   8  24
ATOM     24  O   UNL     1      72.830  10.477 364.471  1.00  0.00    -0.508 OA
ATOM     25  H   UNL     1      71.924  10.207 364.833  1.00  0.00     0.293 HD
ENDBRANCH   8  24
TORSDOF 5
ENDMDL
MODEL 7
REMARK VINA RESULT:    -4.830      1.906      2.372
REMARK INTER + INTRA:          -5.956
REMARK INTER:                  -5.829
REMARK INTRA:                  -0.127
REMARK UNBOUND:                -0.279
REMARK SMILES O=c1c(O)c(-c2ccc(O)cc2)oc2cc(O)cc(O)c12
REMARK SMILES IDX 5 1 3 2 2 3 1 4 21 5 19 6 18 7 16 8 15 9 14 10 13 11 6 12
REMARK SMILES IDX 7 13 8 14 9 15 12 16 11 17 10 18 4 20 20 22 17 24
REMARK H PARENT 10 19 4 21 20 23 17 25
REMARK Flexibility Score: inf
ROOT
ATOM      1  C   UNL     1      69.098   8.295 355.424  1.00  0.00     0.180 A 
ATOM      2  C   UNL     1      67.743   8.068 355.118  1.00  0.00     0.208 A 
ATOM      3  C   UNL     1      67.400   6.946 354.347  1.00  0.00     0.238 A 
ATOM      4  O   UNL     1      66.188   6.726 354.076  1.00  0.00    -0.285 OA
ATOM      5  C   UNL     1      68.413   6.084 353.881  1.00  0.00     0.111 A 
ATOM      6  C   UNL     1      68.152   4.934 353.097  1.00  0.00     0.134 A 
ATOM      7  C   UNL     1      69.219   4.133 352.663  1.00  0.00     0.093 A 
ATOM      8  C   UNL     1      70.536   4.455 352.996  1.00  0.00     0.123 A 
ATOM      9  C   UNL     1      70.800   5.589 353.772  1.00  0.00     0.094 A 
ATOM     10  C   UNL     1      69.751   6.401 354.214  1.00  0.00     0.146 A 
ATOM     11  O   UNL     1      70.029   7.469 354.954  1.00  0.00    -0.452 OA
ENDROOT
BRANCH   1  12
ATOM     12  C   UNL     1      69.537   9.445 356.246  1.00  0.00     0.021 A 
ATOM     13  C   UNL     1      69.377  10.750 355.751  1.00  0.00     0.016 A 
ATOM     14  C   UNL     1      69.805  11.850 356.500  1.00  0.00     0.047 A 
ATOM     15  C   UNL     1      70.413  11.657 357.748  1.00  0.00     0.115 A 
ATOM     16  C   UNL     1      70.167   9.259 357.491  1.00  0.00     0.016 A 
ATOM     17  C   UNL     1      70.595  10.361 358.238  1.00  0.00     0.047 A 
BRANCH  15  18
ATOM     18  O   UNL     1      70.844  12.745 358.504  1.00  0.00    -0.508 OA
ATOM     19  H   UNL     1      70.759  13.696 358.160  1.00  0.00     0.293 HD
ENDBRANCH  15  18
ENDBRANCH   1  12
BRANCH   2  20
ATOM     20  O   UNL     1      66.761   8.964 355.550  1.00  0.00    -0.502 OA
ATOM     21  H   UNL     1      66.441   8.996 356.511  1.00  0.00     0.293 HD
ENDBRANCH   2  20
BRANCH   6  22
ATOM     22  O   UNL     1      66.848   4.586 352.745  1.00  0.00    -0.507 OA
ATOM     23  H   UNL     1      66.250   4.058 353.371  1.00  0.00     0.293 HD
ENDBRANCH   6  22
BRANCH   8  24
ATOM     24  O   UNL     1      71.576   3.642 352.553  1.00  0.00    -0.508 OA
ATOM     25  H   UNL     1      71.943   3.717 351.611  1.00  0.00     0.293 HD
ENDBRANCH   8  24
TORSDOF 5
ENDMDL
MODEL 8
REMARK VINA RESULT:    -4.673      7.422      8.856
REMARK INTER + INTRA:          -5.771
REMARK INTER:                  -5.496
REMARK INTRA:                  -0.276
REMARK UNBOUND:                -0.279
REMARK SMILES O=c1c(O)c(-c2ccc(O)cc2)oc2cc(O)cc(O)c12
REMARK SMILES IDX 5 1 3 2 2 3 1 4 21 5 19 6 18 7 16 8 15 9 14 10 13 11 6 12
REMARK SMILES IDX 7 13 8 14 9 15 12 16 11 17 10 18 4 20 20 22 17 24
REMARK H PARENT 10 19 4 21 20 23 17 25
REMARK Flexibility Score: inf
ROOT
ATOM      1  C   UNL     1      70.434   9.527 365.226  1.00  0.00     0.180 A 
ATOM      2  C   UNL     1      69.539   9.963 364.230  1.00  0.00     0.208 A 
ATOM      3  C   UNL     1      68.738   9.016 363.575  1.00  0.00     0.238 A 
ATOM      4  O   UNL     1      67.925   9.396 362.689  1.00  0.00    -0.285 OA
ATOM      5  C   UNL     1      68.858   7.651 363.908  1.00  0.00     0.111 A 
ATOM      6  C   UNL     1      68.091   6.632 363.293  1.00  0.00     0.134 A 
ATOM      7  C   UNL     1      68.278   5.295 363.675  1.00  0.00     0.093 A 
ATOM      8  C   UNL     1      69.212   4.957 364.656  1.00  0.00     0.123 A 
ATOM      9  C   UNL     1      69.971   5.959 365.268  1.00  0.00     0.094 A 
ATOM     10  C   UNL     1      69.800   7.298 364.903  1.00  0.00     0.146 A 
ATOM     11  O   UNL     1      70.532   8.230 365.504  1.00  0.00    -0.452 OA
ENDROOT
BRANCH   1  12
ATOM     12  C   UNL     1      71.298  10.467 365.975  1.00  0.00     0.021 A 
ATOM     13  C   UNL     1      72.661  10.566 365.646  1.00  0.00     0.016 A 
ATOM     14  C   UNL     1      73.500  11.431 366.355  1.00  0.00     0.047 A 
ATOM     15  C   UNL     1      72.990  12.197 367.411  1.00  0.00     0.115 A 
ATOM     16  C   UNL     1      70.798  11.225 367.050  1.00  0.00     0.016 A 
ATOM     17  C   UNL     1      71.640  12.088 367.758  1.00  0.00     0.047 A 
BRANCH  15  18
ATOM     18  O   UNL     1      73.816  13.062 368.125  1.00  0.00    -0.508 OA
ATOM     19  H   UNL     1      74.765  13.256 367.825  1.00  0.00     0.293 HD
ENDBRANCH  15  18
ENDBRANCH   1  12
BRANCH   2  20
ATOM     20  O   UNL     1      69.474  11.316 363.883  1.00  0.00    -0.502 OA
ATOM     21  H   UNL     1      69.274  11.625 362.939  1.00  0.00     0.293 HD
ENDBRANCH   2  20
BRANCH   6  22
ATOM     22  O   UNL     1      67.152   6.938 362.308  1.00  0.00    -0.507 OA
ATOM     23  H   UNL     1      67.151   7.832 361.831  1.00  0.00     0.293 HD
ENDBRANCH   6  22
BRANCH   8  24
ATOM     24  O   UNL     1      69.377   3.622 365.016  1.00  0.00    -0.508 OA
ATOM     25  H   UNL     1      69.885   2.972 364.428  1.00  0.00     0.293 HD
ENDBRANCH   8  24
TORSDOF 5
ENDMDL
MODEL 9
REMARK VINA RESULT:    -4.601      4.850      6.828
REMARK INTER + INTRA:          -5.687
REMARK INTER:                  -5.424
REMARK INTRA:                  -0.263
REMARK UNBOUND:                -0.279
REMARK SMILES O=c1c(O)c(-c2ccc(O)cc2)oc2cc(O)cc(O)c12
REMARK SMILES IDX 5 1 3 2 2 3 1 4 21 5 19 6 18 7 16 8 15 9 14 10 13 11 6 12
REMARK SMILES IDX 7 13 8 14 9 15 12 16 11 17 10 18 4 20 20 22 17 24
REMARK H PARENT 10 19 4 21 20 23 17 25
REMARK Flexibility Score: inf
ROOT
ATOM      1  C   UNL     1      68.141  12.650 353.468  1.00  0.00     0.180 A 
ATOM      2  C   UNL     1      67.792  11.287 353.522  1.00  0.00     0.208 A 
ATOM      3  C   UNL     1      68.274  10.504 354.583  1.00  0.00     0.238 A 
ATOM      4  O   UNL     1      67.958   9.285 354.648  1.00  0.00    -0.285 OA
ATOM      5  C   UNL     1      69.108  11.089 355.557  1.00  0.00     0.111 A 
ATOM      6  C   UNL     1      69.638  10.370 356.656  1.00  0.00     0.134 A 
ATOM      7  C   UNL     1      70.471  11.023 357.577  1.00  0.00     0.093 A 
ATOM      8  C   UNL     1      70.783  12.375 357.424  1.00  0.00     0.123 A 
ATOM      9  C   UNL     1      70.261  13.091 356.342  1.00  0.00     0.094 A 
ATOM     10  C   UNL     1      69.429  12.459 355.412  1.00  0.00     0.146 A 
ATOM     11  O   UNL     1      68.943  13.164 354.396  1.00  0.00    -0.452 OA
ENDROOT
BRANCH   1  12
ATOM     12  C   UNL     1      67.658  13.544 352.391  1.00  0.00     0.021 A 
ATOM     13  C   UNL     1      68.311  13.544 351.147  1.00  0.00     0.016 A 
ATOM     14  C   UNL     1      67.886  14.396 350.123  1.00  0.00     0.047 A 
ATOM     15  C   UNL     1      66.812  15.270 350.337  1.00  0.00     0.115 A 
ATOM     16  C   UNL     1      66.594  14.440 352.604  1.00  0.00     0.016 A 
ATOM     17  C   UNL     1      66.172  15.292 351.578  1.00  0.00     0.047 A 
BRANCH  15  18
ATOM     18  O   UNL     1      66.380  16.124 349.325  1.00  0.00    -0.508 OA
ATOM     19  H   UNL     1      67.014  16.461 348.609  1.00  0.00     0.293 HD
ENDBRANCH  15  18
ENDBRANCH   1  12
BRANCH   2  20
ATOM     20  O   UNL     1      67.003  10.719 352.517  1.00  0.00    -0.502 OA
ATOM     21  H   UNL     1      66.062  10.388 352.689  1.00  0.00     0.293 HD
ENDBRANCH   2  20
BRANCH   6  22
ATOM     22  O   UNL     1      69.347   9.017 356.836  1.00  0.00    -0.507 OA
ATOM     23  H   UNL     1      70.003   8.291 356.571  1.00  0.00     0.293 HD
ENDBRANCH   6  22
BRANCH   8  24
ATOM     24  O   UNL     1      71.611  12.999 358.353  1.00  0.00    -0.508 OA
ATOM     25  H   UNL     1      71.470  13.964 358.627  1.00  0.00     0.293 HD
ENDBRANCH   8  24
TORSDOF 5
ENDMDL
