MODEL 1
REMARK VINA RESULT:     9.419      0.000      0.000
REMARK INTER + INTRA:          20.160
REMARK INTER:                  20.432
REMARK INTRA:                  -0.271
REMARK UNBOUND:                -0.271
REMARK SMILES CCCCCCCCCCCCCCCCCCCCCC(=O)[O-]
REMARK SMILES IDX 12 1 11 2 10 3 9 4 8 5 7 6 6 7 5 8 4 9 3 10 2 11 1 12 13 13
REMARK SMILES IDX 14 14 15 15 16 16 17 17 18 18 19 19 20 20 21 21 22 22 23 23
REMARK SMILES IDX 24 24
REMARK H PARENT
REMARK Flexibility Score: inf
ROOT
ATOM      1  C   UNL     1      89.434  11.936 106.664  1.00  0.00     0.000 C 
ENDROOT
BRANCH   1   2
ATOM      2  C   UNL     1      88.758  10.712 106.028  1.00  0.00     0.000 C 
BRANCH   2   3
ATOM      3  C   UNL     1      89.680   9.953 105.056  1.00  0.00     0.000 C 
BRANCH   3   4
ATOM      4  C   UNL     1      90.261   8.636 105.605  1.00  0.00    -0.000 C 
BRANCH   4   5
ATOM      5  C   UNL     1      90.374   8.556 107.139  1.00  0.00    -0.000 C 
BRANCH   5   6
ATOM      6  C   UNL     1      90.863   7.187 107.661  1.00  0.00    -0.000 C 
BRANCH   6   7
ATOM      7  C   UNL     1      90.374   6.892 109.090  1.00  0.00    -0.000 C 
BRANCH   7   8
ATOM      8  C   UNL     1      89.132   7.711 109.472  1.00  0.00    -0.000 C 
BRANCH   8   9
ATOM      9  C   UNL     1      88.079   6.877 110.224  1.00  0.00    -0.000 C 
BRANCH   9  10
ATOM     10  C   UNL     1      87.963   7.290 111.707  1.00  0.00    -0.000 C 
BRANCH  10  11
ATOM     11  C   UNL     1      86.512   7.350 112.216  1.00  0.00    -0.003 C 
ATOM     12  C   UNL     1      86.296   8.418 113.284  1.00  0.00     0.004 C 
ENDBRANCH  10  11
ENDBRANCH   9  10
ENDBRANCH   8   9
ENDBRANCH   7   8
ENDBRANCH   6   7
ENDBRANCH   5   6
ENDBRANCH   4   5
ENDBRANCH   3   4
ENDBRANCH   2   3
ENDBRANCH   1   2
BRANCH   1  13
ATOM     13  C   UNL     1      89.137  13.206 105.857  1.00  0.00     0.000 C 
BRANCH  13  14
ATOM     14  C   UNL     1      88.561  14.309 106.758  1.00  0.00     0.000 C 
BRANCH  14  15
ATOM     15  C   UNL     1      87.119  14.018 107.204  1.00  0.00     0.000 C 
BRANCH  15  16
ATOM     16  C   UNL     1      86.310  15.297 107.466  1.00  0.00     0.000 C 
BRANCH  16  17
ATOM     17  C   UNL     1      85.042  15.328 106.605  1.00  0.00     0.000 C 
BRANCH  17  18
ATOM     18  C   UNL     1      83.782  15.422 107.477  1.00  0.00     0.000 C 
BRANCH  18  19
ATOM     19  C   UNL     1      82.803  14.262 107.202  1.00  0.00     0.000 C 
BRANCH  19  20
ATOM     20  C   UNL     1      83.460  12.870 107.228  1.00  0.00     0.006 C 
BRANCH  20  21
ATOM     21  C   UNL     1      83.853  12.385 108.637  1.00  0.00     0.053 C 
BRANCH  21  22
ATOM     22  C   UNL     1      83.774  13.472 109.669  1.00  0.00     0.041 C 
ATOM     23  O   UNL     1      82.655  13.874 110.082  1.00  0.00    -0.550 OA
ATOM     24  O   UNL     1      84.936  13.999 110.218  1.00  0.00    -0.550 OA
ENDBRANCH  21  22
ENDBRANCH  20  21
ENDBRANCH  19  20
ENDBRANCH  18  19
ENDBRANCH  17  18
ENDBRANCH  16  17
ENDBRANCH  15  16
ENDBRANCH  14  15
ENDBRANCH  13  14
ENDBRANCH   1  13
TORSDOF 20
ENDMDL
MODEL 2
REMARK VINA RESULT:    10.176      2.330      7.557
REMARK INTER + INTRA:          21.803
REMARK INTER:                  20.902
REMARK INTRA:                   0.901
REMARK UNBOUND:                -0.271
REMARK SMILES CCCCCCCCCCCCCCCCCCCCCC(=O)[O-]
REMARK SMILES IDX 12 1 11 2 10 3 9 4 8 5 7 6 6 7 5 8 4 9 3 10 2 11 1 12 13 13
REMARK SMILES IDX 14 14 15 15 16 16 17 17 18 18 19 19 20 20 21 21 22 22 23 23
REMARK SMILES IDX 24 24
REMARK H PARENT
REMARK Flexibility Score: inf
ROOT
ATOM      1  C   UNL     1      89.137  13.010 105.763  1.00  0.00     0.000 C 
ENDROOT
BRANCH   1   2
ATOM      2  C   UNL     1      88.527  14.186 106.540  1.00  0.00     0.000 C 
BRANCH   2   3
ATOM      3  C   UNL     1      87.053  13.957 106.919  1.00  0.00     0.000 C 
BRANCH   3   4
ATOM      4  C   UNL     1      86.219  15.240 107.101  1.00  0.00    -0.000 C 
BRANCH   4   5
ATOM      5  C   UNL     1      85.073  15.139 108.125  1.00  0.00    -0.000 C 
BRANCH   5   6
ATOM      6  C   UNL     1      83.667  15.315 107.512  1.00  0.00    -0.000 C 
BRANCH   6   7
ATOM      7  C   UNL     1      83.137  14.022 106.868  1.00  0.00    -0.000 C 
BRANCH   7   8
ATOM      8  C   UNL     1      83.612  12.758 107.600  1.00  0.00    -0.000 C 
BRANCH   8   9
ATOM      9  C   UNL     1      83.103  12.685 109.051  1.00  0.00    -0.000 C 
BRANCH   9  10
ATOM     10  C   UNL     1      83.043  14.078 109.715  1.00  0.00    -0.000 C 
BRANCH  10  11
ATOM     11  C   UNL     1      82.090  14.142 110.921  1.00  0.00    -0.003 C 
ATOM     12  C   UNL     1      82.387  13.079 111.976  1.00  0.00     0.004 C 
ENDBRANCH  10  11
ENDBRANCH   9  10
ENDBRANCH   8   9
ENDBRANCH   7   8
ENDBRANCH   6   7
ENDBRANCH   5   6
ENDBRANCH   4   5
ENDBRANCH   3   4
ENDBRANCH   2   3
ENDBRANCH   1   2
BRANCH   1  13
ATOM     13  C   UNL     1      88.880  11.683 106.488  1.00  0.00     0.000 C 
BRANCH  13  14
ATOM     14  C   UNL     1      90.111  10.768 106.415  1.00  0.00     0.000 C 
BRANCH  14  15
ATOM     15  C   UNL     1      89.945   9.630 105.394  1.00  0.00     0.000 C 
BRANCH  15  16
ATOM     16  C   UNL     1      90.238   8.247 105.995  1.00  0.00     0.000 C 
BRANCH  16  17
ATOM     17  C   UNL     1      90.365   8.329 107.520  1.00  0.00     0.000 C 
BRANCH  17  18
ATOM     18  C   UNL     1      89.661   7.145 108.199  1.00  0.00     0.000 C 
BRANCH  18  19
ATOM     19  C   UNL     1      89.614   7.305 109.732  1.00  0.00     0.000 C 
BRANCH  19  20
ATOM     20  C   UNL     1      88.278   6.877 110.365  1.00  0.00     0.006 C 
BRANCH  20  21
ATOM     21  C   UNL     1      87.460   8.041 110.958  1.00  0.00     0.053 C 
BRANCH  21  22
ATOM     22  C   UNL     1      86.929   7.739 112.329  1.00  0.00     0.041 C 
ATOM     23  O   UNL     1      85.700   7.860 112.574  1.00  0.00    -0.550 OA
ATOM     24  O   UNL     1      87.781   7.265 113.319  1.00  0.00    -0.550 OA
ENDBRANCH  21  22
ENDBRANCH  20  21
ENDBRANCH  19  20
ENDBRANCH  18  19
ENDBRANCH  17  18
ENDBRANCH  16  17
ENDBRANCH  15  16
ENDBRANCH  14  15
ENDBRANCH  13  14
ENDBRANCH   1  13
TORSDOF 20
ENDMDL
MODEL 3
REMARK VINA RESULT:    10.285      6.037      9.359
REMARK INTER + INTRA:          22.039
REMARK INTER:                  23.398
REMARK INTRA:                  -1.359
REMARK UNBOUND:                -0.271
REMARK SMILES CCCCCCCCCCCCCCCCCCCCCC(=O)[O-]
REMARK SMILES IDX 12 1 11 2 10 3 9 4 8 5 7 6 6 7 5 8 4 9 3 10 2 11 1 12 13 13
REMARK SMILES IDX 14 14 15 15 16 16 17 17 18 18 19 19 20 20 21 21 22 22 23 23
REMARK SMILES IDX 24 24
REMARK H PARENT
REMARK Flexibility Score: inf
ROOT
ATOM      1  C   UNL     1      85.421  19.078 107.518  1.00  0.00     0.000 C 
ENDROOT
BRANCH   1   2
ATOM      2  C   UNL     1      84.222  18.219 107.947  1.00  0.00     0.000 C 
BRANCH   2   3
ATOM      3  C   UNL     1      84.607  16.762 108.258  1.00  0.00     0.000 C 
BRANCH   3   4
ATOM      4  C   UNL     1      84.776  15.856 107.023  1.00  0.00    -0.000 C 
BRANCH   4   5
ATOM      5  C   UNL     1      83.468  15.461 106.313  1.00  0.00    -0.000 C 
BRANCH   5   6
ATOM      6  C   UNL     1      82.684  14.335 107.022  1.00  0.00    -0.000 C 
BRANCH   6   7
ATOM      7  C   UNL     1      83.424  12.987 106.986  1.00  0.00    -0.000 C 
BRANCH   7   8
ATOM      8  C   UNL     1      83.719  12.435 108.389  1.00  0.00    -0.000 C 
BRANCH   8   9
ATOM      9  C   UNL     1      84.763  13.272 109.149  1.00  0.00    -0.000 C 
BRANCH   9  10
ATOM     10  C   UNL     1      84.163  13.958 110.395  1.00  0.00    -0.000 C 
BRANCH  10  11
ATOM     11  C   UNL     1      82.625  13.961 110.413  1.00  0.00    -0.003 C 
ATOM     12  C   UNL     1      82.038  13.262 111.636  1.00  0.00     0.004 C 
ENDBRANCH  10  11
ENDBRANCH   9  10
ENDBRANCH   8   9
ENDBRANCH   7   8
ENDBRANCH   6   7
ENDBRANCH   5   6
ENDBRANCH   4   5
ENDBRANCH   3   4
ENDBRANCH   2   3
ENDBRANCH   1   2
BRANCH   1  13
ATOM     13  C   UNL     1      86.216  19.559 108.738  1.00  0.00     0.000 C 
BRANCH  13  14
ATOM     14  C   UNL     1      86.181  21.090 108.849  1.00  0.00     0.000 C 
BRANCH  14  15
ATOM     15  C   UNL     1      87.487  21.674 109.412  1.00  0.00     0.000 C 
BRANCH  15  16
ATOM     16  C   UNL     1      88.089  20.811 110.531  1.00  0.00     0.000 C 
BRANCH  16  17
ATOM     17  C   UNL     1      88.234  21.618 111.827  1.00  0.00     0.000 C 
BRANCH  17  18
ATOM     18  C   UNL     1      89.010  22.920 111.584  1.00  0.00     0.000 C 
BRANCH  18  19
ATOM     19  C   UNL     1      90.484  22.801 112.022  1.00  0.00     0.000 C 
BRANCH  19  20
ATOM     20  C   UNL     1      90.668  22.467 113.513  1.00  0.00     0.006 C 
BRANCH  20  21
ATOM     21  C   UNL     1      91.605  21.272 113.780  1.00  0.00     0.053 C 
BRANCH  21  22
ATOM     22  C   UNL     1      91.478  20.192 112.747  1.00  0.00     0.041 C 
ATOM     23  O   UNL     1      90.427  19.502 112.675  1.00  0.00    -0.550 OA
ATOM     24  O   UNL     1      92.495  19.987 111.823  1.00  0.00    -0.550 OA
ENDBRANCH  21  22
ENDBRANCH  20  21
ENDBRANCH  19  20
ENDBRANCH  18  19
ENDBRANCH  17  18
ENDBRANCH  16  17
ENDBRANCH  15  16
ENDBRANCH  14  15
ENDBRANCH  13  14
ENDBRANCH   1  13
TORSDOF 20
ENDMDL
MODEL 4
REMARK VINA RESULT:    10.548      5.699      9.854
REMARK INTER + INTRA:          22.610
REMARK INTER:                  23.327
REMARK INTRA:                  -0.717
REMARK UNBOUND:                -0.271
REMARK SMILES CCCCCCCCCCCCCCCCCCCCCC(=O)[O-]
REMARK SMILES IDX 12 1 11 2 10 3 9 4 8 5 7 6 6 7 5 8 4 9 3 10 2 11 1 12 13 13
REMARK SMILES IDX 14 14 15 15 16 16 17 17 18 18 19 19 20 20 21 21 22 22 23 23
REMARK SMILES IDX 24 24
REMARK H PARENT
REMARK Flexibility Score: inf
ROOT
ATOM      1  C   UNL     1      85.089  19.386 107.451  1.00  0.00     0.000 C 
ENDROOT
BRANCH   1   2
ATOM      2  C   UNL     1      86.010  19.339 108.679  1.00  0.00     0.000 C 
BRANCH   2   3
ATOM      3  C   UNL     1      86.612  20.710 109.032  1.00  0.00     0.000 C 
BRANCH   3   4
ATOM      4  C   UNL     1      87.261  20.797 110.427  1.00  0.00    -0.000 C 
BRANCH   4   5
ATOM      5  C   UNL     1      88.330  21.895 110.587  1.00  0.00    -0.000 C 
BRANCH   5   6
ATOM      6  C   UNL     1      88.727  22.175 112.053  1.00  0.00    -0.000 C 
BRANCH   6   7
ATOM      7  C   UNL     1      90.013  23.012 112.168  1.00  0.00    -0.000 C 
BRANCH   7   8
ATOM      8  C   UNL     1      90.984  22.464 113.224  1.00  0.00    -0.000 C 
BRANCH   8   9
ATOM      9  C   UNL     1      90.519  21.121 113.818  1.00  0.00    -0.000 C 
BRANCH   9  10
ATOM     10  C   UNL     1      91.030  19.917 112.997  1.00  0.00    -0.000 C 
BRANCH  10  11
ATOM     11  C   UNL     1      92.027  20.304 111.893  1.00  0.00    -0.003 C 
ATOM     12  C   UNL     1      93.255  19.399 111.851  1.00  0.00     0.004 C 
ENDBRANCH  10  11
ENDBRANCH   9  10
ENDBRANCH   8   9
ENDBRANCH   7   8
ENDBRANCH   6   7
ENDBRANCH   5   6
ENDBRANCH   4   5
ENDBRANCH   3   4
ENDBRANCH   2   3
ENDBRANCH   1   2
BRANCH   1  13
ATOM     13  C   UNL     1      84.150  18.173 107.423  1.00  0.00     0.000 C 
BRANCH  13  14
ATOM     14  C   UNL     1      84.807  16.952 108.082  1.00  0.00     0.000 C 
BRANCH  14  15
ATOM     15  C   UNL     1      85.124  15.834 107.076  1.00  0.00     0.000 C 
BRANCH  15  16
ATOM     16  C   UNL     1      83.886  15.374 106.291  1.00  0.00     0.000 C 
BRANCH  16  17
ATOM     17  C   UNL     1      82.947  14.553 107.181  1.00  0.00     0.000 C 
BRANCH  17  18
ATOM     18  C   UNL     1      83.303  13.061 107.134  1.00  0.00     0.000 C 
BRANCH  18  19
ATOM     19  C   UNL     1      83.841  12.554 108.489  1.00  0.00     0.000 C 
BRANCH  19  20
ATOM     20  C   UNL     1      84.476  13.654 109.359  1.00  0.00     0.006 C 
BRANCH  20  21
ATOM     21  C   UNL     1      83.995  13.655 110.823  1.00  0.00     0.053 C 
BRANCH  21  22
ATOM     22  C   UNL     1      82.499  13.649 110.943  1.00  0.00     0.041 C 
ATOM     23  O   UNL     1      81.794  14.288 110.119  1.00  0.00    -0.550 OA
ATOM     24  O   UNL     1      81.881  12.888 111.927  1.00  0.00    -0.550 OA
ENDBRANCH  21  22
ENDBRANCH  20  21
ENDBRANCH  19  20
ENDBRANCH  18  19
ENDBRANCH  17  18
ENDBRANCH  16  17
ENDBRANCH  15  16
ENDBRANCH  14  15
ENDBRANCH  13  14
ENDBRANCH   1  13
TORSDOF 20
ENDMDL
MODEL 5
REMARK VINA RESULT:    10.798      6.317      9.643
REMARK INTER + INTRA:          23.151
REMARK INTER:                  22.151
REMARK INTRA:                   1.001
REMARK UNBOUND:                -0.271
REMARK SMILES CCCCCCCCCCCCCCCCCCCCCC(=O)[O-]
REMARK SMILES IDX 12 1 11 2 10 3 9 4 8 5 7 6 6 7 5 8 4 9 3 10 2 11 1 12 13 13
REMARK SMILES IDX 14 14 15 15 16 16 17 17 18 18 19 19 20 20 21 21 22 22 23 23
REMARK SMILES IDX 24 24
REMARK H PARENT
REMARK Flexibility Score: inf
ROOT
ATOM      1  C   UNL     1      86.224  19.011 108.527  1.00  0.00     0.000 C 
ENDROOT
BRANCH   1   2
ATOM      2  C   UNL     1      84.974  18.781 107.665  1.00  0.00     0.000 C 
BRANCH   2   3
ATOM      3  C   UNL     1      84.255  17.460 107.989  1.00  0.00     0.000 C 
BRANCH   3   4
ATOM      4  C   UNL     1      84.808  16.221 107.259  1.00  0.00    -0.000 C 
BRANCH   4   5
ATOM      5  C   UNL     1      83.778  15.435 106.425  1.00  0.00    -0.000 C 
BRANCH   5   6
ATOM      6  C   UNL     1      82.854  14.526 107.263  1.00  0.00    -0.000 C 
BRANCH   6   7
ATOM      7  C   UNL     1      83.206  13.035 107.122  1.00  0.00    -0.000 C 
BRANCH   7   8
ATOM      8  C   UNL     1      84.189  12.554 108.200  1.00  0.00    -0.000 C 
BRANCH   8   9
ATOM      9  C   UNL     1      84.790  13.714 109.015  1.00  0.00    -0.000 C 
BRANCH   9  10
ATOM     10  C   UNL     1      84.079  13.900 110.372  1.00  0.00    -0.000 C 
BRANCH  10  11
ATOM     11  C   UNL     1      82.625  13.396 110.378  1.00  0.00    -0.003 C 
ATOM     12  C   UNL     1      81.865  13.776 111.646  1.00  0.00     0.004 C 
ENDBRANCH  10  11
ENDBRANCH   9  10
ENDBRANCH   8   9
ENDBRANCH   7   8
ENDBRANCH   6   7
ENDBRANCH   5   6
ENDBRANCH   4   5
ENDBRANCH   3   4
ENDBRANCH   2   3
ENDBRANCH   1   2
BRANCH   1  13
ATOM     13  C   UNL     1      86.356  20.488 108.919  1.00  0.00     0.000 C 
BRANCH  13  14
ATOM     14  C   UNL     1      87.684  20.750 109.643  1.00  0.00     0.000 C 
BRANCH  14  15
ATOM     15  C   UNL     1      87.495  21.486 110.980  1.00  0.00     0.000 C 
BRANCH  15  16
ATOM     16  C   UNL     1      88.783  21.538 111.815  1.00  0.00     0.000 C 
BRANCH  16  17
ATOM     17  C   UNL     1      89.359  22.958 111.845  1.00  0.00     0.000 C 
BRANCH  17  18
ATOM     18  C   UNL     1      90.425  23.101 112.940  1.00  0.00     0.000 C 
BRANCH  18  19
ATOM     19  C   UNL     1      90.517  21.838 113.822  1.00  0.00     0.000 C 
BRANCH  19  20
ATOM     20  C   UNL     1      91.008  20.587 113.072  1.00  0.00     0.006 C 
BRANCH  20  21
ATOM     21  C   UNL     1      92.053  20.877 111.977  1.00  0.00     0.053 C 
BRANCH  21  22
ATOM     22  C   UNL     1      92.893  19.680 111.642  1.00  0.00     0.041 C 
ATOM     23  O   UNL     1      93.652  19.698 110.638  1.00  0.00    -0.550 OA
ATOM     24  O   UNL     1      92.884  18.567 112.472  1.00  0.00    -0.550 OA
ENDBRANCH  21  22
ENDBRANCH  20  21
ENDBRANCH  19  20
ENDBRANCH  18  19
ENDBRANCH  17  18
ENDBRANCH  16  17
ENDBRANCH  15  16
ENDBRANCH  14  15
ENDBRANCH  13  14
ENDBRANCH   1  13
TORSDOF 20
ENDMDL
MODEL 6
REMARK VINA RESULT:    10.843      6.044      9.983
REMARK INTER + INTRA:          23.249
REMARK INTER:                  22.751
REMARK INTRA:                   0.498
REMARK UNBOUND:                -0.271
REMARK SMILES CCCCCCCCCCCCCCCCCCCCCC(=O)[O-]
REMARK SMILES IDX 12 1 11 2 10 3 9 4 8 5 7 6 6 7 5 8 4 9 3 10 2 11 1 12 13 13
REMARK SMILES IDX 14 14 15 15 16 16 17 17 18 18 19 19 20 20 21 21 22 22 23 23
REMARK SMILES IDX 24 24
REMARK H PARENT
REMARK Flexibility Score: inf
ROOT
ATOM      1  C   UNL     1      86.379  19.950 109.512  1.00  0.00     0.000 C 
ENDROOT
BRANCH   1   2
ATOM      2  C   UNL     1      86.586  21.345 108.903  1.00  0.00     0.000 C 
BRANCH   2   3
ATOM      3  C   UNL     1      87.720  22.134 109.581  1.00  0.00     0.000 C 
BRANCH   3   4
ATOM      4  C   UNL     1      88.448  21.386 110.715  1.00  0.00    -0.000 C 
BRANCH   4   5
ATOM      5  C   UNL     1      88.665  22.199 112.005  1.00  0.00    -0.000 C 
BRANCH   5   6
ATOM      6  C   UNL     1      89.900  23.126 111.961  1.00  0.00    -0.000 C 
BRANCH   6   7
ATOM      7  C   UNL     1      91.042  22.631 112.865  1.00  0.00    -0.000 C 
BRANCH   7   8
ATOM      8  C   UNL     1      90.579  21.580 113.884  1.00  0.00    -0.000 C 
BRANCH   8   9
ATOM      9  C   UNL     1      90.029  20.307 113.215  1.00  0.00    -0.000 C 
BRANCH   9  10
ATOM     10  C   UNL     1      91.152  19.438 112.609  1.00  0.00    -0.000 C 
BRANCH  10  11
ATOM     11  C   UNL     1      92.262  20.256 111.929  1.00  0.00    -0.003 C 
ATOM     12  C   UNL     1      93.601  19.525 111.880  1.00  0.00     0.004 C 
ENDBRANCH  10  11
ENDBRANCH   9  10
ENDBRANCH   8   9
ENDBRANCH   7   8
ENDBRANCH   6   7
ENDBRANCH   5   6
ENDBRANCH   4   5
ENDBRANCH   3   4
ENDBRANCH   2   3
ENDBRANCH   1   2
BRANCH   1  13
ATOM     13  C   UNL     1      86.239  18.888 108.413  1.00  0.00     0.000 C 
BRANCH  13  14
ATOM     14  C   UNL     1      85.004  19.156 107.542  1.00  0.00     0.000 C 
BRANCH  14  15
ATOM     15  C   UNL     1      84.032  17.965 107.508  1.00  0.00     0.000 C 
BRANCH  15  16
ATOM     16  C   UNL     1      84.625  16.698 108.142  1.00  0.00     0.000 C 
BRANCH  16  17
ATOM     17  C   UNL     1      84.842  15.608 107.085  1.00  0.00     0.000 C 
BRANCH  17  18
ATOM     18  C   UNL     1      83.525  15.250 106.381  1.00  0.00     0.000 C 
BRANCH  18  19
ATOM     19  C   UNL     1      82.769  14.123 107.114  1.00  0.00     0.000 C 
BRANCH  19  20
ATOM     20  C   UNL     1      83.628  12.879 107.404  1.00  0.00     0.006 C 
BRANCH  20  21
ATOM     21  C   UNL     1      83.550  12.386 108.862  1.00  0.00     0.053 C 
BRANCH  21  22
ATOM     22  C   UNL     1      83.683  13.498 109.860  1.00  0.00     0.041 C 
ATOM     23  O   UNL     1      84.805  14.030 110.072  1.00  0.00    -0.550 OA
ATOM     24  O   UNL     1      82.560  13.990 110.512  1.00  0.00    -0.550 OA
ENDBRANCH  21  22
ENDBRANCH  20  21
ENDBRANCH  19  20
ENDBRANCH  18  19
ENDBRANCH  17  18
ENDBRANCH  16  17
ENDBRANCH  15  16
ENDBRANCH  14  15
ENDBRANCH  13  14
ENDBRANCH   1  13
TORSDOF 20
ENDMDL
MODEL 7
REMARK VINA RESULT:    11.304      1.239      2.197
REMARK INTER + INTRA:          24.250
REMARK INTER:                  25.129
REMARK INTRA:                  -0.879
REMARK UNBOUND:                -0.271
REMARK SMILES CCCCCCCCCCCCCCCCCCCCCC(=O)[O-]
REMARK SMILES IDX 12 1 11 2 10 3 9 4 8 5 7 6 6 7 5 8 4 9 3 10 2 11 1 12 13 13
REMARK SMILES IDX 14 14 15 15 16 16 17 17 18 18 19 19 20 20 21 21 22 22 23 23
REMARK SMILES IDX 24 24
REMARK H PARENT
REMARK Flexibility Score: inf
ROOT
ATOM      1  C   UNL     1      88.019  13.305 106.621  1.00  0.00     0.000 C 
ENDROOT
BRANCH   1   2
ATOM      2  C   UNL     1      89.292  13.105 105.786  1.00  0.00     0.000 C 
BRANCH   2   3
ATOM      3  C   UNL     1      89.483  11.651 105.319  1.00  0.00     0.000 C 
BRANCH   3   4
ATOM      4  C   UNL     1      89.461  10.598 106.443  1.00  0.00    -0.000 C 
BRANCH   4   5
ATOM      5  C   UNL     1      89.533   9.133 105.972  1.00  0.00    -0.000 C 
BRANCH   5   6
ATOM      6  C   UNL     1      90.805   8.388 106.431  1.00  0.00    -0.000 C 
BRANCH   6   7
ATOM      7  C   UNL     1      90.897   8.262 107.962  1.00  0.00    -0.000 C 
BRANCH   7   8
ATOM      8  C   UNL     1      90.442   6.887 108.471  1.00  0.00    -0.000 C 
BRANCH   8   9
ATOM      9  C   UNL     1      88.971   6.878 108.923  1.00  0.00    -0.000 C 
BRANCH   9  10
ATOM     10  C   UNL     1      88.836   6.878 110.461  1.00  0.00    -0.000 C 
BRANCH  10  11
ATOM     11  C   UNL     1      87.740   7.824 110.981  1.00  0.00    -0.003 C 
ATOM     12  C   UNL     1      86.680   7.110 111.816  1.00  0.00     0.004 C 
ENDBRANCH  10  11
ENDBRANCH   9  10
ENDBRANCH   8   9
ENDBRANCH   7   8
ENDBRANCH   6   7
ENDBRANCH   5   6
ENDBRANCH   4   5
ENDBRANCH   3   4
ENDBRANCH   2   3
ENDBRANCH   1   2
BRANCH   1  13
ATOM     13  C   UNL     1      87.491  14.739 106.483  1.00  0.00     0.000 C 
BRANCH  13  14
ATOM     14  C   UNL     1      86.541  15.090 107.636  1.00  0.00     0.000 C 
BRANCH  14  15
ATOM     15  C   UNL     1      85.389  16.008 107.197  1.00  0.00     0.000 C 
BRANCH  15  16
ATOM     16  C   UNL     1      84.012  15.474 107.619  1.00  0.00     0.000 C 
BRANCH  16  17
ATOM     17  C   UNL     1      83.479  14.465 106.595  1.00  0.00     0.000 C 
BRANCH  17  18
ATOM     18  C   UNL     1      83.425  13.050 107.188  1.00  0.00     0.000 C 
BRANCH  18  19
ATOM     19  C   UNL     1      82.980  13.061 108.665  1.00  0.00     0.000 C 
BRANCH  19  20
ATOM     20  C   UNL     1      84.143  13.172 109.668  1.00  0.00     0.006 C 
BRANCH  20  21
ATOM     21  C   UNL     1      83.738  13.743 111.041  1.00  0.00     0.053 C 
BRANCH  21  22
ATOM     22  C   UNL     1      82.275  13.576 111.331  1.00  0.00     0.041 C 
ATOM     23  O   UNL     1      81.532  14.586 111.450  1.00  0.00    -0.550 OA
ATOM     24  O   UNL     1      81.720  12.306 111.411  1.00  0.00    -0.550 OA
ENDBRANCH  21  22
ENDBRANCH  20  21
ENDBRANCH  19  20
ENDBRANCH  18  19
ENDBRANCH  17  18
ENDBRANCH  16  17
ENDBRANCH  15  16
ENDBRANCH  14  15
ENDBRANCH  13  14
ENDBRANCH   1  13
TORSDOF 20
ENDMDL
