MODEL 1
REMARK VINA RESULT:    -4.483      0.000      0.000
REMARK INTER + INTRA:         -12.203
REMARK INTER:                 -10.249
REMARK INTRA:                  -1.954
REMARK UNBOUND:                -1.954
REMARK SMILES CCCCCCCCCCCCCCCCCCCCCCCC(=O)[O-]
REMARK SMILES IDX 13 1 14 2 15 3 16 4 17 5 18 6 19 7 20 8 21 9 22 10 23 11
REMARK SMILES IDX 24 12 25 13 26 14 12 15 11 16 10 17 9 18 8 19 7 20 6 21 5 22
REMARK SMILES IDX 4 23 3 24 2 25 1 26
REMARK H PARENT
REMARK Flexibility Score: inf
ROOT
ATOM      1  C   UNL     1      -0.781   7.223 -54.246  1.00  0.00     0.000 C 
ENDROOT
BRANCH   1   2
ATOM      2  C   UNL     1      -0.137   6.339 -55.328  1.00  0.00     0.000 C 
BRANCH   2   3
ATOM      3  C   UNL     1      -1.180   5.728 -56.280  1.00  0.00     0.000 C 
BRANCH   3   4
ATOM      4  C   UNL     1      -0.891   6.040 -57.757  1.00  0.00     0.000 C 
BRANCH   4   5
ATOM      5  C   UNL     1      -1.799   5.256 -58.721  1.00  0.00     0.000 C 
BRANCH   5   6
ATOM      6  C   UNL     1      -2.442   6.166 -59.781  1.00  0.00     0.000 C 
BRANCH   6   7
ATOM      7  C   UNL     1      -3.925   5.831 -60.021  1.00  0.00     0.000 C 
BRANCH   7   8
ATOM      8  C   UNL     1      -4.656   5.397 -58.736  1.00  0.00     0.000 C 
BRANCH   8   9
ATOM      9  C   UNL     1      -5.415   6.523 -58.009  1.00  0.00     0.000 C 
BRANCH   9  10
ATOM     10  C   UNL     1      -5.429   7.845 -58.797  1.00  0.00     0.006 C 
BRANCH  10  11
ATOM     11  C   UNL     1      -5.022   9.041 -57.926  1.00  0.00     0.053 C 
BRANCH  11  12
ATOM     12  C   UNL     1      -3.536   9.102 -57.729  1.00  0.00     0.041 C 
ATOM     13  O   UNL     1      -3.024   8.706 -56.650  1.00  0.00    -0.550 OA
ATOM     14  O   UNL     1      -2.717   9.561 -58.753  1.00  0.00    -0.550 OA
ENDBRANCH  11  12
ENDBRANCH  10  11
ENDBRANCH   9  10
ENDBRANCH   8   9
ENDBRANCH   7   8
ENDBRANCH   6   7
ENDBRANCH   5   6
ENDBRANCH   4   5
ENDBRANCH   3   4
ENDBRANCH   2   3
ENDBRANCH   1   2
BRANCH   1  15
ATOM     15  C   UNL     1      -0.402   6.779 -52.822  1.00  0.00     0.000 C 
BRANCH  15  16
ATOM     16  C   UNL     1      -0.632   5.269 -52.600  1.00  0.00     0.000 C 
BRANCH  16  17
ATOM     17  C   UNL     1      -1.966   4.945 -51.906  1.00  0.00     0.000 C 
BRANCH  17  18
ATOM     18  C   UNL     1      -1.892   5.068 -50.376  1.00  0.00    -0.000 C 
BRANCH  18  19
ATOM     19  C   UNL     1      -3.275   5.321 -49.741  1.00  0.00    -0.000 C 
BRANCH  19  20
ATOM     20  C   UNL     1      -3.206   5.963 -48.342  1.00  0.00    -0.000 C 
BRANCH  20  21
ATOM     21  C   UNL     1      -4.550   6.032 -47.596  1.00  0.00    -0.000 C 
BRANCH  21  22
ATOM     22  C   UNL     1      -5.510   7.077 -48.192  1.00  0.00    -0.000 C 
BRANCH  22  23
ATOM     23  C   UNL     1      -5.730   8.267 -47.240  1.00  0.00    -0.000 C 
BRANCH  23  24
ATOM     24  C   UNL     1      -4.721   9.417 -47.463  1.00  0.00    -0.000 C 
BRANCH  24  25
ATOM     25  C   UNL     1      -3.776   9.640 -46.270  1.00  0.00    -0.003 C 
ATOM     26  C   UNL     1      -4.162   8.818 -45.043  1.00  0.00     0.004 C 
ENDBRANCH  24  25
ENDBRANCH  23  24
ENDBRANCH  22  23
ENDBRANCH  21  22
ENDBRANCH  20  21
ENDBRANCH  19  20
ENDBRANCH  18  19
ENDBRANCH  17  18
ENDBRANCH  16  17
ENDBRANCH  15  16
ENDBRANCH   1  15
TORSDOF 22
ENDMDL
MODEL 2
REMARK VINA RESULT:    -4.220     14.045     17.791
REMARK INTER + INTRA:         -11.601
REMARK INTER:                  -8.875
REMARK INTRA:                  -2.725
REMARK UNBOUND:                -1.954
REMARK SMILES CCCCCCCCCCCCCCCCCCCCCCCC(=O)[O-]
REMARK SMILES IDX 13 1 14 2 15 3 16 4 17 5 18 6 19 7 20 8 21 9 22 10 23 11
REMARK SMILES IDX 24 12 25 13 26 14 12 15 11 16 10 17 9 18 8 19 7 20 6 21 5 22
REMARK SMILES IDX 4 23 3 24 2 25 1 26
REMARK H PARENT
REMARK Flexibility Score: inf
ROOT
ATOM      1  C   UNL     1      -6.361  17.632 -60.361  1.00  0.00     0.000 C 
ENDROOT
BRANCH   1   2
ATOM      2  C   UNL     1      -4.867  17.966 -60.212  1.00  0.00     0.000 C 
BRANCH   2   3
ATOM      3  C   UNL     1      -4.625  19.466 -59.968  1.00  0.00     0.000 C 
BRANCH   3   4
ATOM      4  C   UNL     1      -5.790  20.343 -60.454  1.00  0.00     0.000 C 
BRANCH   4   5
ATOM      5  C   UNL     1      -5.375  21.805 -60.694  1.00  0.00     0.000 C 
BRANCH   5   6
ATOM      6  C   UNL     1      -6.384  22.556 -61.580  1.00  0.00     0.000 C 
BRANCH   6   7
ATOM      7  C   UNL     1      -5.907  23.975 -61.937  1.00  0.00     0.000 C 
BRANCH   7   8
ATOM      8  C   UNL     1      -4.786  24.481 -61.011  1.00  0.00     0.000 C 
BRANCH   8   9
ATOM      9  C   UNL     1      -5.264  25.029 -59.652  1.00  0.00     0.000 C 
BRANCH   9  10
ATOM     10  C   UNL     1      -4.144  25.078 -58.597  1.00  0.00     0.006 C 
BRANCH  10  11
ATOM     11  C   UNL     1      -4.363  24.055 -57.475  1.00  0.00     0.053 C 
BRANCH  11  12
ATOM     12  C   UNL     1      -3.901  24.581 -56.148  1.00  0.00     0.041 C 
ATOM     13  O   UNL     1      -2.673  24.750 -55.926  1.00  0.00    -0.550 OA
ATOM     14  O   UNL     1      -4.830  24.919 -55.172  1.00  0.00    -0.550 OA
ENDBRANCH  11  12
ENDBRANCH  10  11
ENDBRANCH   9  10
ENDBRANCH   8   9
ENDBRANCH   7   8
ENDBRANCH   6   7
ENDBRANCH   5   6
ENDBRANCH   4   5
ENDBRANCH   3   4
ENDBRANCH   2   3
ENDBRANCH   1   2
BRANCH   1  15
ATOM     15  C   UNL     1      -6.609  16.467 -61.337  1.00  0.00     0.000 C 
BRANCH  15  16
ATOM     16  C   UNL     1      -8.009  15.845 -61.160  1.00  0.00     0.000 C 
BRANCH  16  17
ATOM     17  C   UNL     1      -9.073  16.444 -62.096  1.00  0.00     0.000 C 
BRANCH  17  18
ATOM     18  C   UNL     1      -8.503  16.860 -63.462  1.00  0.00    -0.000 C 
BRANCH  18  19
ATOM     19  C   UNL     1      -8.804  18.336 -63.797  1.00  0.00    -0.000 C 
BRANCH  19  20
ATOM     20  C   UNL     1      -7.760  19.323 -63.238  1.00  0.00    -0.000 C 
BRANCH  20  21
ATOM     21  C   UNL     1      -6.621  19.677 -64.209  1.00  0.00    -0.000 C 
BRANCH  21  22
ATOM     22  C   UNL     1      -5.402  18.748 -64.062  1.00  0.00    -0.000 C 
BRANCH  22  23
ATOM     23  C   UNL     1      -4.097  19.539 -63.856  1.00  0.00    -0.000 C 
BRANCH  23  24
ATOM     24  C   UNL     1      -3.039  19.257 -64.946  1.00  0.00    -0.000 C 
BRANCH  24  25
ATOM     25  C   UNL     1      -1.651  19.831 -64.614  1.00  0.00    -0.003 C 
ATOM     26  C   UNL     1      -0.537  18.793 -64.721  1.00  0.00     0.004 C 
ENDBRANCH  24  25
ENDBRANCH  23  24
ENDBRANCH  22  23
ENDBRANCH  21  22
ENDBRANCH  20  21
ENDBRANCH  19  20
ENDBRANCH  18  19
ENDBRANCH  17  18
ENDBRANCH  16  17
ENDBRANCH  15  16
ENDBRANCH   1  15
TORSDOF 22
ENDMDL
MODEL 3
REMARK VINA RESULT:    -4.137      3.767     10.258
REMARK INTER + INTRA:         -11.411
REMARK INTER:                  -9.088
REMARK INTRA:                  -2.324
REMARK UNBOUND:                -1.954
REMARK SMILES CCCCCCCCCCCCCCCCCCCCCCCC(=O)[O-]
REMARK SMILES IDX 13 1 14 2 15 3 16 4 17 5 18 6 19 7 20 8 21 9 22 10 23 11
REMARK SMILES IDX 24 12 25 13 26 14 12 15 11 16 10 17 9 18 8 19 7 20 6 21 5 22
REMARK SMILES IDX 4 23 3 24 2 25 1 26
REMARK H PARENT
REMARK Flexibility Score: inf
ROOT
ATOM      1  C   UNL     1      -0.394   6.465 -54.183  1.00  0.00     0.000 C 
ENDROOT
BRANCH   1   2
ATOM      2  C   UNL     1      -0.116   5.305 -53.213  1.00  0.00     0.000 C 
BRANCH   2   3
ATOM      3  C   UNL     1      -1.137   5.247 -52.064  1.00  0.00     0.000 C 
BRANCH   3   4
ATOM      4  C   UNL     1      -0.474   5.255 -50.677  1.00  0.00     0.000 C 
BRANCH   4   5
ATOM      5  C   UNL     1      -1.496   5.278 -49.527  1.00  0.00     0.000 C 
BRANCH   5   6
ATOM      6  C   UNL     1      -0.953   6.002 -48.284  1.00  0.00     0.000 C 
BRANCH   6   7
ATOM      7  C   UNL     1       0.586   6.028 -48.246  1.00  0.00     0.000 C 
BRANCH   7   8
ATOM      8  C   UNL     1       1.143   6.837 -47.061  1.00  0.00     0.000 C 
BRANCH   8   9
ATOM      9  C   UNL     1       0.150   7.062 -45.904  1.00  0.00     0.000 C 
BRANCH   9  10
ATOM     10  C   UNL     1      -0.136   8.550 -45.637  1.00  0.00     0.006 C 
BRANCH  10  11
ATOM     11  C   UNL     1      -1.639   8.860 -45.643  1.00  0.00     0.053 C 
BRANCH  11  12
ATOM     12  C   UNL     1      -1.899  10.337 -45.641  1.00  0.00     0.041 C 
ATOM     13  O   UNL     1      -1.043  11.131 -45.169  1.00  0.00    -0.550 OA
ATOM     14  O   UNL     1      -3.070  10.838 -46.196  1.00  0.00    -0.550 OA
ENDBRANCH  11  12
ENDBRANCH  10  11
ENDBRANCH   9  10
ENDBRANCH   8   9
ENDBRANCH   7   8
ENDBRANCH   6   7
ENDBRANCH   5   6
ENDBRANCH   4   5
ENDBRANCH   3   4
ENDBRANCH   2   3
ENDBRANCH   1   2
BRANCH   1  15
ATOM     15  C   UNL     1      -0.150   6.075 -55.652  1.00  0.00     0.000 C 
BRANCH  15  16
ATOM     16  C   UNL     1      -1.222   5.099 -56.182  1.00  0.00     0.000 C 
BRANCH  16  17
ATOM     17  C   UNL     1      -1.360   5.109 -57.715  1.00  0.00     0.000 C 
BRANCH  17  18
ATOM     18  C   UNL     1      -0.746   6.359 -58.364  1.00  0.00    -0.000 C 
BRANCH  18  19
ATOM     19  C   UNL     1      -1.623   6.917 -59.505  1.00  0.00    -0.000 C 
BRANCH  19  20
ATOM     20  C   UNL     1      -2.692   5.926 -60.006  1.00  0.00    -0.000 C 
BRANCH  20  21
ATOM     21  C   UNL     1      -4.135   6.456 -59.962  1.00  0.00    -0.000 C 
BRANCH  21  22
ATOM     22  C   UNL     1      -4.905   5.987 -58.715  1.00  0.00    -0.000 C 
BRANCH  22  23
ATOM     23  C   UNL     1      -5.194   7.149 -57.746  1.00  0.00    -0.000 C 
BRANCH  23  24
ATOM     24  C   UNL     1      -4.876   8.535 -58.351  1.00  0.00    -0.000 C 
BRANCH  24  25
ATOM     25  C   UNL     1      -3.688   9.239 -57.672  1.00  0.00    -0.003 C 
ATOM     26  C   UNL     1      -3.184   8.498 -56.437  1.00  0.00     0.004 C 
ENDBRANCH  24  25
ENDBRANCH  23  24
ENDBRANCH  22  23
ENDBRANCH  21  22
ENDBRANCH  20  21
ENDBRANCH  19  20
ENDBRANCH  18  19
ENDBRANCH  17  18
ENDBRANCH  16  17
ENDBRANCH  15  16
ENDBRANCH   1  15
TORSDOF 22
ENDMDL
MODEL 4
REMARK VINA RESULT:    -4.114      2.938     10.152
REMARK INTER + INTRA:         -11.360
REMARK INTER:                  -9.621
REMARK INTRA:                  -1.739
REMARK UNBOUND:                -1.954
REMARK SMILES CCCCCCCCCCCCCCCCCCCCCCCC(=O)[O-]
REMARK SMILES IDX 13 1 14 2 15 3 16 4 17 5 18 6 19 7 20 8 21 9 22 10 23 11
REMARK SMILES IDX 24 12 25 13 26 14 12 15 11 16 10 17 9 18 8 19 7 20 6 21 5 22
REMARK SMILES IDX 4 23 3 24 2 25 1 26
REMARK H PARENT
REMARK Flexibility Score: inf
ROOT
ATOM      1  C   UNL     1      -0.742   5.215 -52.920  1.00  0.00     0.000 C 
ENDROOT
BRANCH   1   2
ATOM      2  C   UNL     1      -1.265   5.359 -51.481  1.00  0.00     0.000 C 
BRANCH   2   3
ATOM      3  C   UNL     1      -0.132   5.612 -50.471  1.00  0.00     0.000 C 
BRANCH   3   4
ATOM      4  C   UNL     1      -0.454   5.073 -49.069  1.00  0.00     0.000 C 
BRANCH   4   5
ATOM      5  C   UNL     1      -1.448   5.962 -48.301  1.00  0.00     0.000 C 
BRANCH   5   6
ATOM      6  C   UNL     1      -0.853   6.495 -46.987  1.00  0.00     0.000 C 
BRANCH   6   7
ATOM      7  C   UNL     1      -1.937   6.973 -46.004  1.00  0.00     0.000 C 
BRANCH   7   8
ATOM      8  C   UNL     1      -2.095   8.505 -45.984  1.00  0.00     0.000 C 
BRANCH   8   9
ATOM      9  C   UNL     1      -3.537   9.007 -45.781  1.00  0.00     0.000 C 
BRANCH   9  10
ATOM     10  C   UNL     1      -4.381   8.947 -47.067  1.00  0.00     0.006 C 
BRANCH  10  11
ATOM     11  C   UNL     1      -5.751   8.297 -46.830  1.00  0.00     0.053 C 
BRANCH  11  12
ATOM     12  C   UNL     1      -5.863   6.972 -47.523  1.00  0.00     0.041 C 
ATOM     13  O   UNL     1      -6.843   6.218 -47.293  1.00  0.00    -0.550 OA
ATOM     14  O   UNL     1      -4.903   6.590 -48.452  1.00  0.00    -0.550 OA
ENDBRANCH  11  12
ENDBRANCH  10  11
ENDBRANCH   9  10
ENDBRANCH   8   9
ENDBRANCH   7   8
ENDBRANCH   6   7
ENDBRANCH   5   6
ENDBRANCH   4   5
ENDBRANCH   3   4
ENDBRANCH   2   3
ENDBRANCH   1   2
BRANCH   1  15
ATOM     15  C   UNL     1      -0.355   6.568 -53.544  1.00  0.00     0.000 C 
BRANCH  15  16
ATOM     16  C   UNL     1      -0.041   6.449 -55.050  1.00  0.00     0.000 C 
BRANCH  16  17
ATOM     17  C   UNL     1      -0.380   5.071 -55.643  1.00  0.00     0.000 C 
BRANCH  17  18
ATOM     18  C   UNL     1      -0.829   5.144 -57.111  1.00  0.00    -0.000 C 
BRANCH  18  19
ATOM     19  C   UNL     1      -1.280   6.564 -57.516  1.00  0.00    -0.000 C 
BRANCH  19  20
ATOM     20  C   UNL     1      -1.590   6.710 -59.018  1.00  0.00    -0.000 C 
BRANCH  20  21
ATOM     21  C   UNL     1      -2.498   5.614 -59.601  1.00  0.00    -0.000 C 
BRANCH  21  22
ATOM     22  C   UNL     1      -3.894   6.138 -59.982  1.00  0.00    -0.000 C 
BRANCH  22  23
ATOM     23  C   UNL     1      -4.764   6.413 -58.742  1.00  0.00    -0.000 C 
BRANCH  23  24
ATOM     24  C   UNL     1      -5.386   7.829 -58.740  1.00  0.00    -0.000 C 
BRANCH  24  25
ATOM     25  C   UNL     1      -4.723   8.786 -57.736  1.00  0.00    -0.003 C 
ATOM     26  C   UNL     1      -3.649   9.665 -58.372  1.00  0.00     0.004 C 
ENDBRANCH  24  25
ENDBRANCH  23  24
ENDBRANCH  22  23
ENDBRANCH  21  22
ENDBRANCH  20  21
ENDBRANCH  19  20
ENDBRANCH  18  19
ENDBRANCH  17  18
ENDBRANCH  16  17
ENDBRANCH  15  16
ENDBRANCH   1  15
TORSDOF 22
ENDMDL
MODEL 5
REMARK VINA RESULT:    -4.063      3.094      9.640
REMARK INTER + INTRA:         -11.242
REMARK INTER:                  -9.092
REMARK INTRA:                  -2.150
REMARK UNBOUND:                -1.954
REMARK SMILES CCCCCCCCCCCCCCCCCCCCCCCC(=O)[O-]
REMARK SMILES IDX 13 1 14 2 15 3 16 4 17 5 18 6 19 7 20 8 21 9 22 10 23 11
REMARK SMILES IDX 24 12 25 13 26 14 12 15 11 16 10 17 9 18 8 19 7 20 6 21 5 22
REMARK SMILES IDX 4 23 3 24 2 25 1 26
REMARK H PARENT
REMARK Flexibility Score: inf
ROOT
ATOM      1  C   UNL     1      -1.636   5.794 -53.697  1.00  0.00     0.000 C 
ENDROOT
BRANCH   1   2
ATOM      2  C   UNL     1      -1.481   5.747 -52.168  1.00  0.00     0.000 C 
BRANCH   2   3
ATOM      3  C   UNL     1      -0.052   5.370 -51.737  1.00  0.00     0.000 C 
BRANCH   3   4
ATOM      4  C   UNL     1       0.021   4.877 -50.283  1.00  0.00     0.000 C 
BRANCH   4   5
ATOM      5  C   UNL     1       0.496   5.967 -49.307  1.00  0.00     0.000 C 
BRANCH   5   6
ATOM      6  C   UNL     1      -0.140   5.817 -47.915  1.00  0.00     0.000 C 
BRANCH   6   7
ATOM      7  C   UNL     1      -1.618   6.248 -47.897  1.00  0.00     0.000 C 
BRANCH   7   8
ATOM      8  C   UNL     1      -2.575   5.126 -48.338  1.00  0.00     0.000 C 
BRANCH   8   9
ATOM      9  C   UNL     1      -4.046   5.554 -48.505  1.00  0.00     0.000 C 
BRANCH   9  10
ATOM     10  C   UNL     1      -4.723   5.913 -47.170  1.00  0.00     0.006 C 
BRANCH  10  11
ATOM     11  C   UNL     1      -5.986   6.760 -47.373  1.00  0.00     0.053 C 
BRANCH  11  12
ATOM     12  C   UNL     1      -5.721   8.216 -47.129  1.00  0.00     0.041 C 
ATOM     13  O   UNL     1      -5.807   9.043 -48.075  1.00  0.00    -0.550 OA
ATOM     14  O   UNL     1      -5.417   8.663 -45.849  1.00  0.00    -0.550 OA
ENDBRANCH  11  12
ENDBRANCH  10  11
ENDBRANCH   9  10
ENDBRANCH   8   9
ENDBRANCH   7   8
ENDBRANCH   6   7
ENDBRANCH   5   6
ENDBRANCH   4   5
ENDBRANCH   3   4
ENDBRANCH   2   3
ENDBRANCH   1   2
BRANCH   1  15
ATOM     15  C   UNL     1      -0.569   6.676 -54.370  1.00  0.00     0.000 C 
BRANCH  15  16
ATOM     16  C   UNL     1      -0.015   6.040 -55.662  1.00  0.00     0.000 C 
BRANCH  16  17
ATOM     17  C   UNL     1      -0.938   4.968 -56.266  1.00  0.00     0.000 C 
BRANCH  17  18
ATOM     18  C   UNL     1      -1.132   5.129 -57.782  1.00  0.00    -0.000 C 
BRANCH  18  19
ATOM     19  C   UNL     1      -0.718   6.529 -58.280  1.00  0.00    -0.000 C 
BRANCH  19  20
ATOM     20  C   UNL     1      -1.588   7.058 -59.436  1.00  0.00    -0.000 C 
BRANCH  20  21
ATOM     21  C   UNL     1      -2.650   6.070 -59.950  1.00  0.00    -0.000 C 
BRANCH  21  22
ATOM     22  C   UNL     1      -4.045   6.708 -60.077  1.00  0.00    -0.000 C 
BRANCH  22  23
ATOM     23  C   UNL     1      -4.274   7.806 -59.021  1.00  0.00    -0.000 C 
BRANCH  23  24
ATOM     24  C   UNL     1      -5.201   7.355 -57.869  1.00  0.00    -0.000 C 
BRANCH  24  25
ATOM     25  C   UNL     1      -4.626   7.648 -56.473  1.00  0.00    -0.003 C 
ATOM     26  C   UNL     1      -3.257   8.323 -56.523  1.00  0.00     0.004 C 
ENDBRANCH  24  25
ENDBRANCH  23  24
ENDBRANCH  22  23
ENDBRANCH  21  22
ENDBRANCH  20  21
ENDBRANCH  19  20
ENDBRANCH  18  19
ENDBRANCH  17  18
ENDBRANCH  16  17
ENDBRANCH  15  16
ENDBRANCH   1  15
TORSDOF 22
ENDMDL
MODEL 6
REMARK VINA RESULT:    -3.908      1.628      2.617
REMARK INTER + INTRA:         -10.888
REMARK INTER:                  -8.724
REMARK INTRA:                  -2.164
REMARK UNBOUND:                -1.954
REMARK SMILES CCCCCCCCCCCCCCCCCCCCCCCC(=O)[O-]
REMARK SMILES IDX 13 1 14 2 15 3 16 4 17 5 18 6 19 7 20 8 21 9 22 10 23 11
REMARK SMILES IDX 24 12 25 13 26 14 12 15 11 16 10 17 9 18 8 19 7 20 6 21 5 22
REMARK SMILES IDX 4 23 3 24 2 25 1 26
REMARK H PARENT
REMARK Flexibility Score: inf
ROOT
ATOM      1  C   UNL     1      -1.317   7.051 -54.903  1.00  0.00     0.000 C 
ENDROOT
BRANCH   1   2
ATOM      2  C   UNL     1      -2.598   6.700 -55.677  1.00  0.00     0.000 C 
BRANCH   2   3
ATOM      3  C   UNL     1      -2.706   5.194 -55.974  1.00  0.00     0.000 C 
BRANCH   3   4
ATOM      4  C   UNL     1      -3.739   4.876 -57.067  1.00  0.00     0.000 C 
BRANCH   4   5
ATOM      5  C   UNL     1      -5.099   5.552 -56.818  1.00  0.00     0.000 C 
BRANCH   5   6
ATOM      6  C   UNL     1      -5.860   5.822 -58.126  1.00  0.00     0.000 C 
BRANCH   6   7
ATOM      7  C   UNL     1      -6.215   7.309 -58.302  1.00  0.00     0.000 C 
BRANCH   7   8
ATOM      8  C   UNL     1      -5.486   8.221 -57.298  1.00  0.00     0.000 C 
BRANCH   8   9
ATOM      9  C   UNL     1      -4.572   9.288 -57.933  1.00  0.00     0.000 C 
BRANCH   9  10
ATOM     10  C   UNL     1      -3.745   8.745 -59.113  1.00  0.00     0.006 C 
BRANCH  10  11
ATOM     11  C   UNL     1      -2.290   8.462 -58.715  1.00  0.00     0.053 C 
BRANCH  11  12
ATOM     12  C   UNL     1      -1.822   7.136 -59.235  1.00  0.00     0.041 C 
ATOM     13  O   UNL     1      -2.613   6.390 -59.871  1.00  0.00    -0.550 OA
ATOM     14  O   UNL     1      -0.503   6.741 -59.049  1.00  0.00    -0.550 OA
ENDBRANCH  11  12
ENDBRANCH  10  11
ENDBRANCH   9  10
ENDBRANCH   8   9
ENDBRANCH   7   8
ENDBRANCH   6   7
ENDBRANCH   5   6
ENDBRANCH   4   5
ENDBRANCH   3   4
ENDBRANCH   2   3
ENDBRANCH   1   2
BRANCH   1  15
ATOM     15  C   UNL     1      -0.559   5.802 -54.420  1.00  0.00     0.000 C 
BRANCH  15  16
ATOM     16  C   UNL     1      -1.066   5.305 -53.049  1.00  0.00     0.000 C 
BRANCH  16  17
ATOM     17  C   UNL     1      -0.488   6.088 -51.858  1.00  0.00     0.000 C 
BRANCH  17  18
ATOM     18  C   UNL     1      -0.199   5.198 -50.639  1.00  0.00    -0.000 C 
BRANCH  18  19
ATOM     19  C   UNL     1      -1.449   4.985 -49.759  1.00  0.00    -0.000 C 
BRANCH  19  20
ATOM     20  C   UNL     1      -1.296   5.529 -48.325  1.00  0.00    -0.000 C 
BRANCH  20  21
ATOM     21  C   UNL     1      -2.571   6.155 -47.732  1.00  0.00    -0.000 C 
BRANCH  21  22
ATOM     22  C   UNL     1      -3.779   6.056 -48.680  1.00  0.00    -0.000 C 
BRANCH  22  23
ATOM     23  C   UNL     1      -5.101   5.873 -47.911  1.00  0.00    -0.000 C 
BRANCH  23  24
ATOM     24  C   UNL     1      -5.442   7.073 -46.998  1.00  0.00    -0.000 C 
BRANCH  24  25
ATOM     25  C   UNL     1      -5.426   8.424 -47.733  1.00  0.00    -0.003 C 
ATOM     26  C   UNL     1      -4.541   9.462 -47.049  1.00  0.00     0.004 C 
ENDBRANCH  24  25
ENDBRANCH  23  24
ENDBRANCH  22  23
ENDBRANCH  21  22
ENDBRANCH  20  21
ENDBRANCH  19  20
ENDBRANCH  18  19
ENDBRANCH  17  18
ENDBRANCH  16  17
ENDBRANCH  15  16
ENDBRANCH   1  15
TORSDOF 22
ENDMDL
MODEL 7
REMARK VINA RESULT:    -3.768      3.508      9.696
REMARK INTER + INTRA:         -10.569
REMARK INTER:                  -8.863
REMARK INTRA:                  -1.706
REMARK UNBOUND:                -1.954
REMARK SMILES CCCCCCCCCCCCCCCCCCCCCCCC(=O)[O-]
REMARK SMILES IDX 13 1 14 2 15 3 16 4 17 5 18 6 19 7 20 8 21 9 22 10 23 11
REMARK SMILES IDX 24 12 25 13 26 14 12 15 11 16 10 17 9 18 8 19 7 20 6 21 5 22
REMARK SMILES IDX 4 23 3 24 2 25 1 26
REMARK H PARENT
REMARK Flexibility Score: inf
ROOT
ATOM      1  C   UNL     1      -1.527   6.333 -54.771  1.00  0.00     0.000 C 
ENDROOT
BRANCH   1   2
ATOM      2  C   UNL     1      -0.829   6.798 -53.482  1.00  0.00     0.000 C 
BRANCH   2   3
ATOM      3  C   UNL     1      -0.652   5.654 -52.469  1.00  0.00     0.000 C 
BRANCH   3   4
ATOM      4  C   UNL     1      -1.989   5.144 -51.909  1.00  0.00     0.000 C 
BRANCH   4   5
ATOM      5  C   UNL     1      -1.980   5.003 -50.376  1.00  0.00     0.000 C 
BRANCH   5   6
ATOM      6  C   UNL     1      -3.313   5.440 -49.746  1.00  0.00     0.000 C 
BRANCH   6   7
ATOM      7  C   UNL     1      -3.136   5.975 -48.314  1.00  0.00     0.000 C 
BRANCH   7   8
ATOM      8  C   UNL     1      -4.388   5.773 -47.440  1.00  0.00     0.000 C 
BRANCH   8   9
ATOM      9  C   UNL     1      -4.918   7.049 -46.759  1.00  0.00     0.000 C 
BRANCH   9  10
ATOM     10  C   UNL     1      -3.794   7.986 -46.281  1.00  0.00     0.006 C 
BRANCH  10  11
ATOM     11  C   UNL     1      -4.043   9.443 -46.693  1.00  0.00     0.053 C 
BRANCH  11  12
ATOM     12  C   UNL     1      -2.994  10.362 -46.141  1.00  0.00     0.041 C 
ATOM     13  O   UNL     1      -3.178  11.607 -46.143  1.00  0.00    -0.550 OA
ATOM     14  O   UNL     1      -1.831   9.838 -45.590  1.00  0.00    -0.550 OA
ENDBRANCH  11  12
ENDBRANCH  10  11
ENDBRANCH   9  10
ENDBRANCH   8   9
ENDBRANCH   7   8
ENDBRANCH   6   7
ENDBRANCH   5   6
ENDBRANCH   4   5
ENDBRANCH   3   4
ENDBRANCH   2   3
ENDBRANCH   1   2
BRANCH   1  15
ATOM     15  C   UNL     1      -0.761   5.201 -55.479  1.00  0.00     0.000 C 
BRANCH  15  16
ATOM     16  C   UNL     1      -0.148   5.660 -56.819  1.00  0.00     0.000 C 
BRANCH  16  17
ATOM     17  C   UNL     1      -0.846   5.063 -58.053  1.00  0.00     0.000 C 
BRANCH  17  18
ATOM     18  C   UNL     1      -1.240   6.126 -59.091  1.00  0.00    -0.000 C 
BRANCH  18  19
ATOM     19  C   UNL     1      -1.932   7.346 -58.446  1.00  0.00    -0.000 C 
BRANCH  19  20
ATOM     20  C   UNL     1      -3.351   7.049 -57.924  1.00  0.00    -0.000 C 
BRANCH  20  21
ATOM     21  C   UNL     1      -4.159   6.055 -58.778  1.00  0.00    -0.000 C 
BRANCH  21  22
ATOM     22  C   UNL     1      -4.829   4.954 -57.936  1.00  0.00    -0.000 C 
BRANCH  22  23
ATOM     23  C   UNL     1      -5.809   5.536 -56.901  1.00  0.00    -0.000 C 
BRANCH  23  24
ATOM     24  C   UNL     1      -7.208   4.880 -56.955  1.00  0.00    -0.000 C 
BRANCH  24  25
ATOM     25  C   UNL     1      -8.242   5.711 -57.732  1.00  0.00    -0.003 C 
ATOM     26  C   UNL     1      -7.903   7.199 -57.769  1.00  0.00     0.004 C 
ENDBRANCH  24  25
ENDBRANCH  23  24
ENDBRANCH  22  23
ENDBRANCH  21  22
ENDBRANCH  20  21
ENDBRANCH  19  20
ENDBRANCH  18  19
ENDBRANCH  17  18
ENDBRANCH  16  17
ENDBRANCH  15  16
ENDBRANCH   1  15
TORSDOF 22
ENDMDL
MODEL 8
REMARK VINA RESULT:    -2.507     13.542     17.787
REMARK INTER + INTRA:          -7.685
REMARK INTER:                  -4.976
REMARK INTRA:                  -2.709
REMARK UNBOUND:                -1.954
REMARK SMILES CCCCCCCCCCCCCCCCCCCCCCCC(=O)[O-]
REMARK SMILES IDX 13 1 14 2 15 3 16 4 17 5 18 6 19 7 20 8 21 9 22 10 23 11
REMARK SMILES IDX 24 12 25 13 26 14 12 15 11 16 10 17 9 18 8 19 7 20 6 21 5 22
REMARK SMILES IDX 4 23 3 24 2 25 1 26
REMARK H PARENT
REMARK Flexibility Score: inf
ROOT
ATOM      1  C   UNL     1      -4.161  18.973 -61.358  1.00  0.00     0.000 C 
ENDROOT
BRANCH   1   2
ATOM      2  C   UNL     1      -4.843  19.885 -60.325  1.00  0.00     0.000 C 
BRANCH   2   3
ATOM      3  C   UNL     1      -6.337  20.096 -60.627  1.00  0.00     0.000 C 
BRANCH   3   4
ATOM      4  C   UNL     1      -6.683  21.565 -60.917  1.00  0.00     0.000 C 
BRANCH   4   5
ATOM      5  C   UNL     1      -5.494  22.515 -60.690  1.00  0.00     0.000 C 
BRANCH   5   6
ATOM      6  C   UNL     1      -5.490  23.687 -61.685  1.00  0.00     0.000 C 
BRANCH   6   7
ATOM      7  C   UNL     1      -5.322  25.048 -60.986  1.00  0.00     0.000 C 
BRANCH   7   8
ATOM      8  C   UNL     1      -5.074  24.917 -59.471  1.00  0.00     0.000 C 
BRANCH   8   9
ATOM      9  C   UNL     1      -3.612  25.125 -59.032  1.00  0.00     0.000 C 
BRANCH   9  10
ATOM     10  C   UNL     1      -3.397  24.891 -57.526  1.00  0.00     0.006 C 
BRANCH  10  11
ATOM     11  C   UNL     1      -4.678  24.414 -56.828  1.00  0.00     0.053 C 
BRANCH  11  12
ATOM     12  C   UNL     1      -4.587  22.971 -56.431  1.00  0.00     0.041 C 
ATOM     13  O   UNL     1      -4.470  22.653 -55.218  1.00  0.00    -0.550 OA
ATOM     14  O   UNL     1      -4.670  21.977 -57.398  1.00  0.00    -0.550 OA
ENDBRANCH  11  12
ENDBRANCH  10  11
ENDBRANCH   9  10
ENDBRANCH   8   9
ENDBRANCH   7   8
ENDBRANCH   6   7
ENDBRANCH   5   6
ENDBRANCH   4   5
ENDBRANCH   3   4
ENDBRANCH   2   3
ENDBRANCH   1   2
BRANCH   1  15
ATOM     15  C   UNL     1      -5.023  18.763 -62.616  1.00  0.00     0.000 C 
BRANCH  15  16
ATOM     16  C   UNL     1      -4.392  19.402 -63.870  1.00  0.00     0.000 C 
BRANCH  16  17
ATOM     17  C   UNL     1      -4.806  20.867 -64.090  1.00  0.00     0.000 C 
BRANCH  17  18
ATOM     18  C   UNL     1      -6.297  21.024 -64.428  1.00  0.00    -0.000 C 
BRANCH  18  19
ATOM     19  C   UNL     1      -6.902  19.734 -65.020  1.00  0.00    -0.000 C 
BRANCH  19  20
ATOM     20  C   UNL     1      -8.439  19.763 -65.125  1.00  0.00    -0.000 C 
BRANCH  20  21
ATOM     21  C   UNL     1      -9.158  18.608 -64.406  1.00  0.00    -0.000 C 
BRANCH  21  22
ATOM     22  C   UNL     1      -8.202  17.744 -63.563  1.00  0.00    -0.000 C 
BRANCH  22  23
ATOM     23  C   UNL     1      -8.803  16.362 -63.247  1.00  0.00    -0.000 C 
BRANCH  23  24
ATOM     24  C   UNL     1      -9.107  16.162 -61.745  1.00  0.00    -0.000 C 
BRANCH  24  25
ATOM     25  C   UNL     1      -7.971  15.463 -60.979  1.00  0.00    -0.003 C 
ATOM     26  C   UNL     1      -6.819  16.404 -60.635  1.00  0.00     0.004 C 
ENDBRANCH  24  25
ENDBRANCH  23  24
ENDBRANCH  22  23
ENDBRANCH  21  22
ENDBRANCH  20  21
ENDBRANCH  19  20
ENDBRANCH  18  19
ENDBRANCH  17  18
ENDBRANCH  16  17
ENDBRANCH  15  16
ENDBRANCH   1  15
TORSDOF 22
ENDMDL
