MODEL 1
REMARK VINA RESULT:    -5.435      0.000      0.000
REMARK INTER + INTRA:          -6.368
REMARK INTER:                  -6.230
REMARK INTRA:                  -0.138
REMARK UNBOUND:                -0.138
REMARK SMILES O=C([O-])C=Cc1ccc(O)cc1
REMARK SMILES IDX 6 1 7 2 12 3 8 4 11 5 9 6 5 7 4 8 2 9 1 10 3 11 10 12
REMARK H PARENT 10 13
REMARK Flexibility Score: inf
ROOT
ATOM      1  C   UNL     1      20.104  23.760  39.705  1.00  0.00    -0.025 A 
ATOM      2  C   UNL     1      19.647  23.778  38.371  1.00  0.00     0.012 A 
ATOM      3  C   UNL     1      20.700  22.587  40.202  1.00  0.00     0.012 A 
ATOM      4  C   UNL     1      19.764  22.640  37.568  1.00  0.00     0.047 A 
ATOM      5  C   UNL     1      20.815  21.451  39.395  1.00  0.00     0.047 A 
ATOM      6  C   UNL     1      20.346  21.473  38.079  1.00  0.00     0.115 A 
ENDROOT
BRANCH   1   7
ATOM      7  C   UNL     1      20.015  24.943  40.597  1.00  0.00     0.010 C 
ATOM      8  C   UNL     1      20.948  25.903  40.658  1.00  0.00     0.025 C 
BRANCH   8   9
ATOM      9  C   UNL     1      20.812  27.065  41.549  1.00  0.00     0.064 C 
ATOM     10  O   UNL     1      19.944  27.051  42.460  1.00  0.00    -0.545 OA
ATOM     11  O   UNL     1      21.628  28.182  41.402  1.00  0.00    -0.545 OA
ENDBRANCH   8   9
ENDBRANCH   1   7
BRANCH   6  12
ATOM     12  O   UNL     1      20.466  20.332  37.288  1.00  0.00    -0.508 OA
ATOM     13  H   UNL     1      20.490  20.390  36.276  1.00  0.00     0.293 HD
ENDBRANCH   6  12
TORSDOF 3
ENDMDL
MODEL 2
REMARK VINA RESULT:    -5.306      0.329      1.708
REMARK INTER + INTRA:          -6.219
REMARK INTER:                  -6.084
REMARK INTRA:                  -0.136
REMARK UNBOUND:                -0.138
REMARK SMILES O=C([O-])C=Cc1ccc(O)cc1
REMARK SMILES IDX 6 1 7 2 12 3 8 4 11 5 9 6 5 7 4 8 2 9 1 10 3 11 10 12
REMARK H PARENT 10 13
REMARK Flexibility Score: inf
ROOT
ATOM      1  C   UNL     1      20.171  23.446  39.666  1.00  0.00    -0.025 A 
ATOM      2  C   UNL     1      20.768  22.254  40.125  1.00  0.00     0.012 A 
ATOM      3  C   UNL     1      19.659  23.487  38.357  1.00  0.00     0.012 A 
ATOM      4  C   UNL     1      20.870  21.143  39.282  1.00  0.00     0.047 A 
ATOM      5  C   UNL     1      19.763  22.374  37.517  1.00  0.00     0.047 A 
ATOM      6  C   UNL     1      20.370  21.202  37.975  1.00  0.00     0.115 A 
ENDROOT
BRANCH   1   7
ATOM      7  C   UNL     1      20.027  24.649  40.522  1.00  0.00     0.010 C 
ATOM      8  C   UNL     1      20.859  25.698  40.479  1.00  0.00     0.025 C 
BRANCH   8   9
ATOM      9  C   UNL     1      20.672  26.877  41.339  1.00  0.00     0.064 C 
ATOM     10  O   UNL     1      21.261  27.952  41.057  1.00  0.00    -0.545 OA
ATOM     11  O   UNL     1      19.854  26.822  42.462  1.00  0.00    -0.545 OA
ENDBRANCH   8   9
ENDBRANCH   1   7
BRANCH   6  12
ATOM     12  O   UNL     1      20.468  20.101  37.127  1.00  0.00    -0.508 OA
ATOM     13  H   UNL     1      21.290  19.945  36.554  1.00  0.00     0.293 HD
ENDBRANCH   6  12
TORSDOF 3
ENDMDL
MODEL 3
REMARK VINA RESULT:    -5.272      1.076      1.828
REMARK INTER + INTRA:          -6.180
REMARK INTER:                  -6.043
REMARK INTRA:                  -0.137
REMARK UNBOUND:                -0.138
REMARK SMILES O=C([O-])C=Cc1ccc(O)cc1
REMARK SMILES IDX 6 1 7 2 12 3 8 4 11 5 9 6 5 7 4 8 2 9 1 10 3 11 10 12
REMARK H PARENT 10 13
REMARK Flexibility Score: inf
ROOT
ATOM      1  C   UNL     1      19.755  23.429  40.207  1.00  0.00    -0.025 A 
ATOM      2  C   UNL     1      20.547  22.308  40.530  1.00  0.00     0.012 A 
ATOM      3  C   UNL     1      19.311  23.587  38.883  1.00  0.00     0.012 A 
ATOM      4  C   UNL     1      20.903  21.384  39.542  1.00  0.00     0.047 A 
ATOM      5  C   UNL     1      19.669  22.661  37.898  1.00  0.00     0.047 A 
ATOM      6  C   UNL     1      20.466  21.561  38.223  1.00  0.00     0.115 A 
ENDROOT
BRANCH   1   7
ATOM      7  C   UNL     1      19.341  24.433  41.219  1.00  0.00     0.010 C 
ATOM      8  C   UNL     1      19.758  25.706  41.220  1.00  0.00     0.025 C 
BRANCH   8   9
ATOM      9  C   UNL     1      19.312  26.671  42.237  1.00  0.00     0.064 C 
ATOM     10  O   UNL     1      18.106  27.027  42.269  1.00  0.00    -0.545 OA
ATOM     11  O   UNL     1      20.203  27.199  43.165  1.00  0.00    -0.545 OA
ENDBRANCH   8   9
ENDBRANCH   1   7
BRANCH   6  12
ATOM     12  O   UNL     1      20.815  20.647  37.230  1.00  0.00    -0.508 OA
ATOM     13  H   UNL     1      21.507  19.925  37.395  1.00  0.00     0.293 HD
ENDBRANCH   6  12
TORSDOF 3
ENDMDL
MODEL 4
REMARK VINA RESULT:    -4.996      1.325      5.867
REMARK INTER + INTRA:          -5.864
REMARK INTER:                  -5.728
REMARK INTRA:                  -0.136
REMARK UNBOUND:                -0.138
REMARK SMILES O=C([O-])C=Cc1ccc(O)cc1
REMARK SMILES IDX 6 1 7 2 12 3 8 4 11 5 9 6 5 7 4 8 2 9 1 10 3 11 10 12
REMARK H PARENT 10 13
REMARK Flexibility Score: inf
ROOT
ATOM      1  C   UNL     1      19.920  25.328  40.476  1.00  0.00    -0.025 A 
ATOM      2  C   UNL     1      18.983  25.401  41.528  1.00  0.00     0.012 A 
ATOM      3  C   UNL     1      21.060  26.149  40.526  1.00  0.00     0.012 A 
ATOM      4  C   UNL     1      19.176  26.293  42.587  1.00  0.00     0.047 A 
ATOM      5  C   UNL     1      21.249  27.040  41.587  1.00  0.00     0.047 A 
ATOM      6  C   UNL     1      20.309  27.117  42.617  1.00  0.00     0.115 A 
ENDROOT
BRANCH   1   7
ATOM      7  C   UNL     1      19.769  24.391  39.335  1.00  0.00     0.010 C 
ATOM      8  C   UNL     1      20.135  23.103  39.375  1.00  0.00     0.025 C 
BRANCH   8   9
ATOM      9  C   UNL     1      19.956  22.207  38.222  1.00  0.00     0.064 C 
ATOM     10  O   UNL     1      20.476  21.061  38.239  1.00  0.00    -0.545 OA
ATOM     11  O   UNL     1      19.223  22.607  37.110  1.00  0.00    -0.545 OA
ENDBRANCH   8   9
ENDBRANCH   1   7
BRANCH   6  12
ATOM     12  O   UNL     1      20.510  28.010  43.667  1.00  0.00    -0.508 OA
ATOM     13  H   UNL     1      19.742  28.327  44.248  1.00  0.00     0.293 HD
ENDBRANCH   6  12
TORSDOF 3
ENDMDL
MODEL 5
REMARK VINA RESULT:    -4.735      3.375      6.820
REMARK INTER + INTRA:          -5.565
REMARK INTER:                  -5.418
REMARK INTRA:                  -0.147
REMARK UNBOUND:                -0.138
REMARK SMILES O=C([O-])C=Cc1ccc(O)cc1
REMARK SMILES IDX 6 1 7 2 12 3 8 4 11 5 9 6 5 7 4 8 2 9 1 10 3 11 10 12
REMARK H PARENT 10 13
REMARK Flexibility Score: inf
ROOT
ATOM      1  C   UNL     1      18.816  26.395  42.993  1.00  0.00    -0.025 A 
ATOM      2  C   UNL     1      17.559  26.673  43.567  1.00  0.00     0.012 A 
ATOM      3  C   UNL     1      19.956  27.030  43.517  1.00  0.00     0.012 A 
ATOM      4  C   UNL     1      17.448  27.584  44.623  1.00  0.00     0.047 A 
ATOM      5  C   UNL     1      19.841  27.940  44.572  1.00  0.00     0.047 A 
ATOM      6  C   UNL     1      18.590  28.221  45.125  1.00  0.00     0.115 A 
ENDROOT
BRANCH   1   7
ATOM      7  C   UNL     1      18.990  25.429  41.880  1.00  0.00     0.010 C 
ATOM      8  C   UNL     1      19.994  25.487  40.993  1.00  0.00     0.025 C 
BRANCH   8   9
ATOM      9  C   UNL     1      20.134  24.501  39.911  1.00  0.00     0.064 C 
ATOM     10  O   UNL     1      19.784  24.808  38.742  1.00  0.00    -0.545 OA
ATOM     11  O   UNL     1      20.646  23.231  40.159  1.00  0.00    -0.545 OA
ENDBRANCH   8   9
ENDBRANCH   1   7
BRANCH   6  12
ATOM     12  O   UNL     1      18.491  29.131  46.176  1.00  0.00    -0.508 OA
ATOM     13  H   UNL     1      18.642  30.123  46.033  1.00  0.00     0.293 HD
ENDBRANCH   6  12
TORSDOF 3
ENDMDL
MODEL 6
REMARK VINA RESULT:    -4.601      4.734      7.819
REMARK INTER + INTRA:          -5.411
REMARK INTER:                  -5.261
REMARK INTRA:                  -0.151
REMARK UNBOUND:                -0.138
REMARK SMILES O=C([O-])C=Cc1ccc(O)cc1
REMARK SMILES IDX 6 1 7 2 12 3 8 4 11 5 9 6 5 7 4 8 2 9 1 10 3 11 10 12
REMARK H PARENT 10 13
REMARK Flexibility Score: inf
ROOT
ATOM      1  C   UNL     1      18.108  26.373  44.556  1.00  0.00    -0.025 A 
ATOM      2  C   UNL     1      17.379  27.299  45.330  1.00  0.00     0.012 A 
ATOM      3  C   UNL     1      19.427  26.689  44.185  1.00  0.00     0.012 A 
ATOM      4  C   UNL     1      17.953  28.519  45.701  1.00  0.00     0.047 A 
ATOM      5  C   UNL     1      19.997  27.910  44.558  1.00  0.00     0.047 A 
ATOM      6  C   UNL     1      19.263  28.828  45.313  1.00  0.00     0.115 A 
ENDROOT
BRANCH   1   7
ATOM      7  C   UNL     1      17.551  25.060  44.145  1.00  0.00     0.010 C 
ATOM      8  C   UNL     1      18.121  24.262  43.232  1.00  0.00     0.025 C 
BRANCH   8   9
ATOM      9  C   UNL     1      17.539  22.962  42.863  1.00  0.00     0.064 C 
ATOM     10  O   UNL     1      18.250  21.925  42.917  1.00  0.00    -0.545 OA
ATOM     11  O   UNL     1      16.214  22.860  42.453  1.00  0.00    -0.545 OA
ENDBRANCH   8   9
ENDBRANCH   1   7
BRANCH   6  12
ATOM     12  O   UNL     1      19.844  30.041  45.676  1.00  0.00    -0.508 OA
ATOM     13  H   UNL     1      20.054  30.755  44.987  1.00  0.00     0.293 HD
ENDBRANCH   6  12
TORSDOF 3
ENDMDL
MODEL 7
REMARK VINA RESULT:    -4.546      5.814      8.427
REMARK INTER + INTRA:          -5.349
REMARK INTER:                  -5.211
REMARK INTRA:                  -0.138
REMARK UNBOUND:                -0.138
REMARK SMILES O=C([O-])C=Cc1ccc(O)cc1
REMARK SMILES IDX 6 1 7 2 12 3 8 4 11 5 9 6 5 7 4 8 2 9 1 10 3 11 10 12
REMARK H PARENT 10 13
REMARK Flexibility Score: inf
ROOT
ATOM      1  C   UNL     1      17.303  25.330  45.405  1.00  0.00    -0.025 A 
ATOM      2  C   UNL     1      18.157  25.944  44.465  1.00  0.00     0.012 A 
ATOM      3  C   UNL     1      16.735  26.119  46.420  1.00  0.00     0.012 A 
ATOM      4  C   UNL     1      18.450  27.308  44.559  1.00  0.00     0.047 A 
ATOM      5  C   UNL     1      17.031  27.483  46.511  1.00  0.00     0.047 A 
ATOM      6  C   UNL     1      17.889  28.079  45.585  1.00  0.00     0.115 A 
ENDROOT
BRANCH   1   7
ATOM      7  C   UNL     1      16.951  23.890  45.344  1.00  0.00     0.010 C 
ATOM      8  C   UNL     1      17.591  22.998  44.576  1.00  0.00     0.025 C 
BRANCH   8   9
ATOM      9  C   UNL     1      17.214  21.576  44.556  1.00  0.00     0.064 C 
ATOM     10  O   UNL     1      17.102  20.979  43.454  1.00  0.00    -0.545 OA
ATOM     11  O   UNL     1      16.978  20.879  45.737  1.00  0.00    -0.545 OA
ENDBRANCH   8   9
ENDBRANCH   1   7
BRANCH   6  12
ATOM     12  O   UNL     1      18.176  29.439  45.689  1.00  0.00    -0.508 OA
ATOM     13  H   UNL     1      18.394  29.867  46.581  1.00  0.00     0.293 HD
ENDBRANCH   6  12
TORSDOF 3
ENDMDL
MODEL 8
REMARK VINA RESULT:    -4.406      4.921      6.979
REMARK INTER + INTRA:          -5.188
REMARK INTER:                  -5.051
REMARK INTRA:                  -0.137
REMARK UNBOUND:                -0.138
REMARK SMILES O=C([O-])C=Cc1ccc(O)cc1
REMARK SMILES IDX 6 1 7 2 12 3 8 4 11 5 9 6 5 7 4 8 2 9 1 10 3 11 10 12
REMARK H PARENT 10 13
REMARK Flexibility Score: inf
ROOT
ATOM      1  C   UNL     1      18.132  26.979  44.437  1.00  0.00    -0.025 A 
ATOM      2  C   UNL     1      17.347  26.798  43.279  1.00  0.00     0.012 A 
ATOM      3  C   UNL     1      19.525  27.108  44.297  1.00  0.00     0.012 A 
ATOM      4  C   UNL     1      17.949  26.725  42.020  1.00  0.00     0.047 A 
ATOM      5  C   UNL     1      20.123  27.034  43.036  1.00  0.00     0.047 A 
ATOM      6  C   UNL     1      19.340  26.841  41.896  1.00  0.00     0.115 A 
ENDROOT
BRANCH   1   7
ATOM      7  C   UNL     1      17.543  27.074  45.795  1.00  0.00     0.010 C 
ATOM      8  C   UNL     1      16.618  26.227  46.268  1.00  0.00     0.025 C 
BRANCH   8   9
ATOM      9  C   UNL     1      16.070  26.352  47.627  1.00  0.00     0.064 C 
ATOM     10  O   UNL     1      15.947  27.493  48.144  1.00  0.00    -0.545 OA
ATOM     11  O   UNL     1      15.685  25.230  48.352  1.00  0.00    -0.545 OA
ENDBRANCH   8   9
ENDBRANCH   1   7
BRANCH   6  12
ATOM     12  O   UNL     1      19.951  26.768  40.646  1.00  0.00    -0.508 OA
ATOM     13  H   UNL     1      19.984  25.901  40.122  1.00  0.00     0.293 HD
ENDBRANCH   6  12
TORSDOF 3
ENDMDL
MODEL 9
REMARK VINA RESULT:    -4.331      6.318      7.962
REMARK INTER + INTRA:          -5.102
REMARK INTER:                  -4.964
REMARK INTRA:                  -0.138
REMARK UNBOUND:                -0.138
REMARK SMILES O=C([O-])C=Cc1ccc(O)cc1
REMARK SMILES IDX 6 1 7 2 12 3 8 4 11 5 9 6 5 7 4 8 2 9 1 10 3 11 10 12
REMARK H PARENT 10 13
REMARK Flexibility Score: inf
ROOT
ATOM      1  C   UNL     1      16.950  21.365  43.469  1.00  0.00    -0.025 A 
ATOM      2  C   UNL     1      15.765  22.046  43.121  1.00  0.00     0.012 A 
ATOM      3  C   UNL     1      18.187  21.939  43.125  1.00  0.00     0.012 A 
ATOM      4  C   UNL     1      15.823  23.258  42.426  1.00  0.00     0.047 A 
ATOM      5  C   UNL     1      18.240  23.151  42.430  1.00  0.00     0.047 A 
ATOM      6  C   UNL     1      17.061  23.811  42.077  1.00  0.00     0.115 A 
ENDROOT
BRANCH   1   7
ATOM      7  C   UNL     1      16.945  20.083  44.216  1.00  0.00     0.010 C 
ATOM      8  C   UNL     1      15.895  19.251  44.262  1.00  0.00     0.025 C 
BRANCH   8   9
ATOM      9  C   UNL     1      15.939  17.983  45.007  1.00  0.00     0.064 C 
ATOM     10  O   UNL     1      16.725  17.073  44.637  1.00  0.00    -0.545 OA
ATOM     11  O   UNL     1      15.124  17.773  46.114  1.00  0.00    -0.545 OA
ENDBRANCH   8   9
ENDBRANCH   1   7
BRANCH   6  12
ATOM     12  O   UNL     1      17.130  25.018  41.382  1.00  0.00    -0.508 OA
ATOM     13  H   UNL     1      18.014  25.487  41.224  1.00  0.00     0.293 HD
ENDBRANCH   6  12
TORSDOF 3
ENDMDL
