MODEL 1
REMARK VINA RESULT:    -4.501      0.000      0.000
REMARK INTER + INTRA:          -9.198
REMARK INTER:                  -8.186
REMARK INTRA:                  -1.012
REMARK UNBOUND:                -1.012
REMARK SMILES CCCCCCCCCCCCCCCC(=O)[O-]
REMARK SMILES IDX 9 1 10 2 11 3 12 4 13 5 14 6 15 7 16 8 17 9 18 10 8 11 7 12
REMARK SMILES IDX 6 13 5 14 4 15 3 16 2 17 1 18
REMARK H PARENT
REMARK Flexibility Score: inf
ROOT
ATOM      1  C   UNL     1     -29.076  22.701  26.698  1.00  0.00     0.000 C 
ENDROOT
BRANCH   1   2
ATOM      2  C   UNL     1     -28.692  21.991  28.007  1.00  0.00     0.000 C 
BRANCH   2   3
ATOM      3  C   UNL     1     -29.669  22.287  29.160  1.00  0.00     0.000 C 
BRANCH   3   4
ATOM      4  C   UNL     1     -31.163  22.224  28.794  1.00  0.00     0.000 C 
BRANCH   4   5
ATOM      5  C   UNL     1     -32.075  22.808  29.887  1.00  0.00     0.000 C 
BRANCH   5   6
ATOM      6  C   UNL     1     -31.353  23.841  30.767  1.00  0.00     0.006 C 
BRANCH   6   7
ATOM      7  C   UNL     1     -31.961  25.245  30.652  1.00  0.00     0.053 C 
BRANCH   7   8
ATOM      8  C   UNL     1     -33.409  25.217  31.027  1.00  0.00     0.041 C 
ATOM      9  O   UNL     1     -33.755  24.904  32.197  1.00  0.00    -0.550 OA
ATOM     10  O   UNL     1     -34.375  25.585  30.099  1.00  0.00    -0.550 OA
ENDBRANCH   7   8
ENDBRANCH   6   7
ENDBRANCH   5   6
ENDBRANCH   4   5
ENDBRANCH   3   4
ENDBRANCH   2   3
ENDBRANCH   1   2
BRANCH   1  11
ATOM     11  C   UNL     1     -29.283  21.727  25.523  1.00  0.00     0.000 C 
BRANCH  11  12
ATOM     12  C   UNL     1     -28.169  21.719  24.460  1.00  0.00    -0.000 C 
BRANCH  12  13
ATOM     13  C   UNL     1     -28.708  21.598  23.025  1.00  0.00    -0.000 C 
BRANCH  13  14
ATOM     14  C   UNL     1     -30.110  20.964  22.960  1.00  0.00    -0.000 C 
BRANCH  14  15
ATOM     15  C   UNL     1     -30.132  19.429  22.842  1.00  0.00    -0.000 C 
BRANCH  15  16
ATOM     16  C   UNL     1     -31.355  18.791  23.518  1.00  0.00    -0.000 C 
BRANCH  16  17
ATOM     17  C   UNL     1     -32.174  19.842  24.276  1.00  0.00    -0.003 C 
ATOM     18  C   UNL     1     -33.512  19.271  24.736  1.00  0.00     0.004 C 
ENDBRANCH  16  17
ENDBRANCH  15  16
ENDBRANCH  14  15
ENDBRANCH  13  14
ENDBRANCH  12  13
ENDBRANCH  11  12
ENDBRANCH   1  11
TORSDOF 14
ENDMDL
MODEL 2
REMARK VINA RESULT:    -4.418      2.942      7.085
REMARK INTER + INTRA:          -9.046
REMARK INTER:                  -8.052
REMARK INTRA:                  -0.993
REMARK UNBOUND:                -1.012
REMARK SMILES CCCCCCCCCCCCCCCC(=O)[O-]
REMARK SMILES IDX 9 1 10 2 11 3 12 4 13 5 14 6 15 7 16 8 17 9 18 10 8 11 7 12
REMARK SMILES IDX 6 13 5 14 4 15 3 16 2 17 1 18
REMARK H PARENT
REMARK Flexibility Score: inf
ROOT
ATOM      1  C   UNL     1     -29.115  21.759  25.413  1.00  0.00     0.000 C 
ENDROOT
BRANCH   1   2
ATOM      2  C   UNL     1     -28.226  21.589  24.170  1.00  0.00     0.000 C 
BRANCH   2   3
ATOM      3  C   UNL     1     -29.027  21.572  22.854  1.00  0.00     0.000 C 
BRANCH   3   4
ATOM      4  C   UNL     1     -30.325  20.743  22.881  1.00  0.00     0.000 C 
BRANCH   4   5
ATOM      5  C   UNL     1     -30.070  19.232  23.021  1.00  0.00     0.000 C 
BRANCH   5   6
ATOM      6  C   UNL     1     -31.332  18.457  23.433  1.00  0.00     0.006 C 
BRANCH   6   7
ATOM      7  C   UNL     1     -31.749  18.733  24.884  1.00  0.00     0.053 C 
BRANCH   7   8
ATOM      8  C   UNL     1     -33.204  19.072  24.952  1.00  0.00     0.041 C 
ATOM      9  O   UNL     1     -33.991  18.357  25.626  1.00  0.00    -0.550 OA
ATOM     10  O   UNL     1     -33.683  20.207  24.311  1.00  0.00    -0.550 OA
ENDBRANCH   7   8
ENDBRANCH   6   7
ENDBRANCH   5   6
ENDBRANCH   4   5
ENDBRANCH   3   4
ENDBRANCH   2   3
ENDBRANCH   1   2
BRANCH   1  11
ATOM     11  C   UNL     1     -28.519  22.725  26.453  1.00  0.00     0.000 C 
BRANCH  11  12
ATOM     12  C   UNL     1     -28.993  22.517  27.903  1.00  0.00    -0.000 C 
BRANCH  12  13
ATOM     13  C   UNL     1     -30.189  21.556  28.013  1.00  0.00    -0.000 C 
BRANCH  13  14
ATOM     14  C   UNL     1     -31.349  22.132  28.847  1.00  0.00    -0.000 C 
BRANCH  14  15
ATOM     15  C   UNL     1     -30.943  23.178  29.901  1.00  0.00    -0.000 C 
BRANCH  15  16
ATOM     16  C   UNL     1     -31.576  24.556  29.657  1.00  0.00    -0.000 C 
BRANCH  16  17
ATOM     17  C   UNL     1     -32.249  25.084  30.929  1.00  0.00    -0.003 C 
ATOM     18  C   UNL     1     -33.697  25.481  30.662  1.00  0.00     0.004 C 
ENDBRANCH  16  17
ENDBRANCH  15  16
ENDBRANCH  14  15
ENDBRANCH  13  14
ENDBRANCH  12  13
ENDBRANCH  11  12
ENDBRANCH   1  11
TORSDOF 14
ENDMDL
MODEL 3
REMARK VINA RESULT:    -4.374      3.523      7.388
REMARK INTER + INTRA:          -8.967
REMARK INTER:                  -8.079
REMARK INTRA:                  -0.888
REMARK UNBOUND:                -1.012
REMARK SMILES CCCCCCCCCCCCCCCC(=O)[O-]
REMARK SMILES IDX 9 1 10 2 11 3 12 4 13 5 14 6 15 7 16 8 17 9 18 10 8 11 7 12
REMARK SMILES IDX 6 13 5 14 4 15 3 16 2 17 1 18
REMARK H PARENT
REMARK Flexibility Score: inf
ROOT
ATOM      1  C   UNL     1     -28.916  21.935  25.157  1.00  0.00     0.000 C 
ENDROOT
BRANCH   1   2
ATOM      2  C   UNL     1     -29.704  21.106  24.129  1.00  0.00     0.000 C 
BRANCH   2   3
ATOM      3  C   UNL     1     -30.682  20.111  24.782  1.00  0.00     0.000 C 
BRANCH   3   4
ATOM      4  C   UNL     1     -31.956  19.807  23.972  1.00  0.00     0.000 C 
BRANCH   4   5
ATOM      5  C   UNL     1     -33.120  19.308  24.846  1.00  0.00     0.000 C 
BRANCH   5   6
ATOM      6  C   UNL     1     -33.642  17.932  24.402  1.00  0.00     0.006 C 
BRANCH   6   7
ATOM      7  C   UNL     1     -32.989  16.775  25.169  1.00  0.00     0.053 C 
BRANCH   7   8
ATOM      8  C   UNL     1     -33.735  16.505  26.437  1.00  0.00     0.041 C 
ATOM      9  O   UNL     1     -34.992  16.435  26.431  1.00  0.00    -0.550 OA
ATOM     10  O   UNL     1     -33.040  16.281  27.618  1.00  0.00    -0.550 OA
ENDBRANCH   7   8
ENDBRANCH   6   7
ENDBRANCH   5   6
ENDBRANCH   4   5
ENDBRANCH   3   4
ENDBRANCH   2   3
ENDBRANCH   1   2
BRANCH   1  11
ATOM     11  C   UNL     1     -29.126  21.455  26.606  1.00  0.00     0.000 C 
BRANCH  11  12
ATOM     12  C   UNL     1     -29.846  22.449  27.537  1.00  0.00    -0.000 C 
BRANCH  12  13
ATOM     13  C   UNL     1     -30.939  21.786  28.393  1.00  0.00    -0.000 C 
BRANCH  13  14
ATOM     14  C   UNL     1     -31.748  22.800  29.225  1.00  0.00    -0.000 C 
BRANCH  14  15
ATOM     15  C   UNL     1     -31.075  24.171  29.424  1.00  0.00    -0.000 C 
BRANCH  15  16
ATOM     16  C   UNL     1     -31.786  25.044  30.469  1.00  0.00    -0.000 C 
BRANCH  16  17
ATOM     17  C   UNL     1     -33.226  24.569  30.693  1.00  0.00    -0.003 C 
ATOM     18  C   UNL     1     -34.217  25.717  30.529  1.00  0.00     0.004 C 
ENDBRANCH  16  17
ENDBRANCH  15  16
ENDBRANCH  14  15
ENDBRANCH  13  14
ENDBRANCH  12  13
ENDBRANCH  11  12
ENDBRANCH   1  11
TORSDOF 14
ENDMDL
MODEL 4
REMARK VINA RESULT:    -4.311      1.844      2.823
REMARK INTER + INTRA:          -8.851
REMARK INTER:                  -7.903
REMARK INTRA:                  -0.947
REMARK UNBOUND:                -1.012
REMARK SMILES CCCCCCCCCCCCCCCC(=O)[O-]
REMARK SMILES IDX 9 1 10 2 11 3 12 4 13 5 14 6 15 7 16 8 17 9 18 10 8 11 7 12
REMARK SMILES IDX 6 13 5 14 4 15 3 16 2 17 1 18
REMARK H PARENT
REMARK Flexibility Score: inf
ROOT
ATOM      1  C   UNL     1     -29.745  20.340  27.115  1.00  0.00     0.000 C 
ENDROOT
BRANCH   1   2
ATOM      2  C   UNL     1     -29.529  21.840  26.850  1.00  0.00     0.000 C 
BRANCH   2   3
ATOM      3  C   UNL     1     -30.057  22.734  27.987  1.00  0.00     0.000 C 
BRANCH   3   4
ATOM      4  C   UNL     1     -30.175  22.054  29.364  1.00  0.00     0.000 C 
BRANCH   4   5
ATOM      5  C   UNL     1     -31.043  22.850  30.355  1.00  0.00     0.000 C 
BRANCH   5   6
ATOM      6  C   UNL     1     -31.766  24.031  29.688  1.00  0.00     0.006 C 
BRANCH   6   7
ATOM      7  C   UNL     1     -31.956  25.221  30.638  1.00  0.00     0.053 C 
BRANCH   7   8
ATOM      8  C   UNL     1     -33.401  25.379  30.992  1.00  0.00     0.041 C 
ATOM      9  O   UNL     1     -33.756  25.418  32.200  1.00  0.00    -0.550 OA
ATOM     10  O   UNL     1     -34.350  25.532  29.990  1.00  0.00    -0.550 OA
ENDBRANCH   7   8
ENDBRANCH   6   7
ENDBRANCH   5   6
ENDBRANCH   4   5
ENDBRANCH   3   4
ENDBRANCH   2   3
ENDBRANCH   1   2
BRANCH   1  11
ATOM     11  C   UNL     1     -30.983  19.774  26.395  1.00  0.00     0.000 C 
BRANCH  11  12
ATOM     12  C   UNL     1     -31.171  20.230  24.936  1.00  0.00    -0.000 C 
BRANCH  12  13
ATOM     13  C   UNL     1     -32.593  19.980  24.406  1.00  0.00    -0.000 C 
BRANCH  13  14
ATOM     14  C   UNL     1     -33.308  18.822  25.126  1.00  0.00    -0.000 C 
BRANCH  14  15
ATOM     15  C   UNL     1     -33.284  17.473  24.385  1.00  0.00    -0.000 C 
BRANCH  15  16
ATOM     16  C   UNL     1     -33.940  16.336  25.183  1.00  0.00    -0.000 C 
BRANCH  16  17
ATOM     17  C   UNL     1     -34.549  16.861  26.488  1.00  0.00    -0.003 C 
ATOM     18  C   UNL     1     -34.217  15.943  27.660  1.00  0.00     0.004 C 
ENDBRANCH  16  17
ENDBRANCH  15  16
ENDBRANCH  14  15
ENDBRANCH  13  14
ENDBRANCH  12  13
ENDBRANCH  11  12
ENDBRANCH   1  11
TORSDOF 14
ENDMDL
MODEL 5
REMARK VINA RESULT:    -4.274      3.358      6.297
REMARK INTER + INTRA:          -8.783
REMARK INTER:                  -6.421
REMARK INTRA:                  -2.362
REMARK UNBOUND:                -1.012
REMARK SMILES CCCCCCCCCCCCCCCC(=O)[O-]
REMARK SMILES IDX 9 1 10 2 11 3 12 4 13 5 14 6 15 7 16 8 17 9 18 10 8 11 7 12
REMARK SMILES IDX 6 13 5 14 4 15 3 16 2 17 1 18
REMARK H PARENT
REMARK Flexibility Score: inf
ROOT
ATOM      1  C   UNL     1     -27.150  19.398  22.549  1.00  0.00     0.000 C 
ENDROOT
BRANCH   1   2
ATOM      2  C   UNL     1     -27.113  18.329  23.654  1.00  0.00     0.000 C 
BRANCH   2   3
ATOM      3  C   UNL     1     -28.507  17.772  23.999  1.00  0.00     0.000 C 
BRANCH   3   4
ATOM      4  C   UNL     1     -29.566  17.908  22.890  1.00  0.00     0.000 C 
BRANCH   4   5
ATOM      5  C   UNL     1     -30.850  18.609  23.368  1.00  0.00     0.000 C 
BRANCH   5   6
ATOM      6  C   UNL     1     -31.024  18.543  24.894  1.00  0.00     0.006 C 
BRANCH   6   7
ATOM      7  C   UNL     1     -31.967  19.629  25.430  1.00  0.00     0.053 C 
BRANCH   7   8
ATOM      8  C   UNL     1     -33.339  19.453  24.862  1.00  0.00     0.041 C 
ATOM      9  O   UNL     1     -33.918  20.415  24.292  1.00  0.00    -0.550 OA
ATOM     10  O   UNL     1     -33.961  18.212  24.918  1.00  0.00    -0.550 OA
ENDBRANCH   7   8
ENDBRANCH   6   7
ENDBRANCH   5   6
ENDBRANCH   4   5
ENDBRANCH   3   4
ENDBRANCH   2   3
ENDBRANCH   1   2
BRANCH   1  11
ATOM     11  C   UNL     1     -27.135  20.835  23.102  1.00  0.00     0.000 C 
BRANCH  11  12
ATOM     12  C   UNL     1     -28.419  21.652  22.866  1.00  0.00    -0.000 C 
BRANCH  12  13
ATOM     13  C   UNL     1     -29.309  21.749  24.117  1.00  0.00    -0.000 C 
BRANCH  13  14
ATOM     14  C   UNL     1     -28.504  21.971  25.411  1.00  0.00    -0.000 C 
BRANCH  14  15
ATOM     15  C   UNL     1     -28.469  20.772  26.376  1.00  0.00    -0.000 C 
BRANCH  15  16
ATOM     16  C   UNL     1     -28.929  21.129  27.797  1.00  0.00    -0.000 C 
BRANCH  16  17
ATOM     17  C   UNL     1     -29.812  22.382  27.790  1.00  0.00    -0.003 C 
ATOM     18  C   UNL     1     -31.130  22.131  28.516  1.00  0.00     0.004 C 
ENDBRANCH  16  17
ENDBRANCH  15  16
ENDBRANCH  14  15
ENDBRANCH  13  14
ENDBRANCH  12  13
ENDBRANCH  11  12
ENDBRANCH   1  11
TORSDOF 14
ENDMDL
MODEL 6
REMARK VINA RESULT:    -4.267      3.586      6.724
REMARK INTER + INTRA:          -8.771
REMARK INTER:                  -7.182
REMARK INTRA:                  -1.589
REMARK UNBOUND:                -1.012
REMARK SMILES CCCCCCCCCCCCCCCC(=O)[O-]
REMARK SMILES IDX 9 1 10 2 11 3 12 4 13 5 14 6 15 7 16 8 17 9 18 10 8 11 7 12
REMARK SMILES IDX 6 13 5 14 4 15 3 16 2 17 1 18
REMARK H PARENT
REMARK Flexibility Score: inf
ROOT
ATOM      1  C   UNL     1     -27.946  20.035  24.291  1.00  0.00     0.000 C 
ENDROOT
BRANCH   1   2
ATOM      2  C   UNL     1     -29.170  19.240  24.776  1.00  0.00     0.000 C 
BRANCH   2   3
ATOM      3  C   UNL     1     -30.219  19.018  23.671  1.00  0.00     0.000 C 
BRANCH   3   4
ATOM      4  C   UNL     1     -31.506  19.853  23.803  1.00  0.00     0.000 C 
BRANCH   4   5
ATOM      5  C   UNL     1     -32.289  19.551  25.093  1.00  0.00     0.000 C 
BRANCH   5   6
ATOM      6  C   UNL     1     -33.709  19.035  24.813  1.00  0.00     0.006 C 
BRANCH   6   7
ATOM      7  C   UNL     1     -33.741  17.536  24.488  1.00  0.00     0.053 C 
BRANCH   7   8
ATOM      8  C   UNL     1     -33.980  16.739  25.731  1.00  0.00     0.041 C 
ATOM      9  O   UNL     1     -34.603  17.247  26.700  1.00  0.00    -0.550 OA
ATOM     10  O   UNL     1     -33.558  15.417  25.801  1.00  0.00    -0.550 OA
ENDBRANCH   7   8
ENDBRANCH   6   7
ENDBRANCH   5   6
ENDBRANCH   4   5
ENDBRANCH   3   4
ENDBRANCH   2   3
ENDBRANCH   1   2
BRANCH   1  11
ATOM     11  C   UNL     1     -28.224  21.543  24.152  1.00  0.00     0.000 C 
BRANCH  11  12
ATOM     12  C   UNL     1     -29.087  22.166  25.264  1.00  0.00    -0.000 C 
BRANCH  12  13
ATOM     13  C   UNL     1     -28.272  22.566  26.506  1.00  0.00    -0.000 C 
BRANCH  13  14
ATOM     14  C   UNL     1     -28.813  21.942  27.807  1.00  0.00    -0.000 C 
BRANCH  14  15
ATOM     15  C   UNL     1     -30.214  21.312  27.700  1.00  0.00    -0.000 C 
BRANCH  15  16
ATOM     16  C   UNL     1     -31.292  22.111  28.447  1.00  0.00    -0.000 C 
BRANCH  16  17
ATOM     17  C   UNL     1     -30.658  23.161  29.367  1.00  0.00    -0.003 C 
ATOM     18  C   UNL     1     -31.649  24.272  29.699  1.00  0.00     0.004 C 
ENDBRANCH  16  17
ENDBRANCH  15  16
ENDBRANCH  14  15
ENDBRANCH  13  14
ENDBRANCH  12  13
ENDBRANCH  11  12
ENDBRANCH   1  11
TORSDOF 14
ENDMDL
MODEL 7
REMARK VINA RESULT:    -4.257      2.017      3.209
REMARK INTER + INTRA:          -8.753
REMARK INTER:                  -6.540
REMARK INTRA:                  -2.213
REMARK UNBOUND:                -1.012
REMARK SMILES CCCCCCCCCCCCCCCC(=O)[O-]
REMARK SMILES IDX 9 1 10 2 11 3 12 4 13 5 14 6 15 7 16 8 17 9 18 10 8 11 7 12
REMARK SMILES IDX 6 13 5 14 4 15 3 16 2 17 1 18
REMARK H PARENT
REMARK Flexibility Score: inf
ROOT
ATOM      1  C   UNL     1     -27.075  19.357  24.673  1.00  0.00     0.000 C 
ENDROOT
BRANCH   1   2
ATOM      2  C   UNL     1     -28.109  18.364  25.228  1.00  0.00     0.000 C 
BRANCH   2   3
ATOM      3  C   UNL     1     -28.829  18.886  26.486  1.00  0.00     0.000 C 
BRANCH   3   4
ATOM      4  C   UNL     1     -28.595  20.372  26.814  1.00  0.00     0.000 C 
BRANCH   4   5
ATOM      5  C   UNL     1     -29.883  21.211  26.755  1.00  0.00     0.000 C 
BRANCH   5   6
ATOM      6  C   UNL     1     -29.721  22.586  27.423  1.00  0.00     0.006 C 
BRANCH   6   7
ATOM      7  C   UNL     1     -29.802  22.513  28.953  1.00  0.00     0.053 C 
BRANCH   7   8
ATOM      8  C   UNL     1     -31.084  23.116  29.436  1.00  0.00     0.041 C 
ATOM      9  O   UNL     1     -31.263  24.361  29.374  1.00  0.00    -0.550 OA
ATOM     10  O   UNL     1     -32.101  22.298  29.910  1.00  0.00    -0.550 OA
ENDBRANCH   7   8
ENDBRANCH   6   7
ENDBRANCH   5   6
ENDBRANCH   4   5
ENDBRANCH   3   4
ENDBRANCH   2   3
ENDBRANCH   1   2
BRANCH   1  11
ATOM     11  C   UNL     1     -27.439  19.885  23.272  1.00  0.00     0.000 C 
BRANCH  11  12
ATOM     12  C   UNL     1     -27.781  21.385  23.195  1.00  0.00    -0.000 C 
BRANCH  12  13
ATOM     13  C   UNL     1     -29.295  21.656  23.180  1.00  0.00    -0.000 C 
BRANCH  13  14
ATOM     14  C   UNL     1     -30.121  20.436  22.730  1.00  0.00    -0.000 C 
BRANCH  14  15
ATOM     15  C   UNL     1     -31.245  20.012  23.693  1.00  0.00    -0.000 C 
BRANCH  15  16
ATOM     16  C   UNL     1     -31.422  18.489  23.778  1.00  0.00    -0.000 C 
BRANCH  16  17
ATOM     17  C   UNL     1     -32.180  18.095  25.051  1.00  0.00    -0.003 C 
ATOM     18  C   UNL     1     -33.619  18.601  25.015  1.00  0.00     0.004 C 
ENDBRANCH  16  17
ENDBRANCH  15  16
ENDBRANCH  14  15
ENDBRANCH  13  14
ENDBRANCH  12  13
ENDBRANCH  11  12
ENDBRANCH   1  11
TORSDOF 14
ENDMDL
MODEL 8
REMARK VINA RESULT:    -4.254      1.417      2.845
REMARK INTER + INTRA:          -8.747
REMARK INTER:                  -7.013
REMARK INTRA:                  -1.735
REMARK UNBOUND:                -1.012
REMARK SMILES CCCCCCCCCCCCCCCC(=O)[O-]
REMARK SMILES IDX 9 1 10 2 11 3 12 4 13 5 14 6 15 7 16 8 17 9 18 10 8 11 7 12
REMARK SMILES IDX 6 13 5 14 4 15 3 16 2 17 1 18
REMARK H PARENT
REMARK Flexibility Score: inf
ROOT
ATOM      1  C   UNL     1     -28.424  20.254  26.820  1.00  0.00     0.000 C 
ENDROOT
BRANCH   1   2
ATOM      2  C   UNL     1     -29.204  21.579  26.782  1.00  0.00     0.000 C 
BRANCH   2   3
ATOM      3  C   UNL     1     -29.065  22.396  28.080  1.00  0.00     0.000 C 
BRANCH   3   4
ATOM      4  C   UNL     1     -30.074  22.051  29.191  1.00  0.00     0.000 C 
BRANCH   4   5
ATOM      5  C   UNL     1     -31.425  22.769  29.020  1.00  0.00     0.000 C 
BRANCH   5   6
ATOM      6  C   UNL     1     -31.445  24.153  29.689  1.00  0.00     0.006 C 
BRANCH   6   7
ATOM      7  C   UNL     1     -32.865  24.622  30.034  1.00  0.00     0.053 C 
BRANCH   7   8
ATOM      8  C   UNL     1     -32.990  24.860  31.506  1.00  0.00     0.041 C 
ATOM      9  O   UNL     1     -34.089  25.232  31.996  1.00  0.00    -0.550 OA
ATOM     10  O   UNL     1     -31.908  24.624  32.343  1.00  0.00    -0.550 OA
ENDBRANCH   7   8
ENDBRANCH   6   7
ENDBRANCH   5   6
ENDBRANCH   4   5
ENDBRANCH   3   4
ENDBRANCH   2   3
ENDBRANCH   1   2
BRANCH   1  11
ATOM     11  C   UNL     1     -29.266  19.046  26.367  1.00  0.00     0.000 C 
BRANCH  11  12
ATOM     12  C   UNL     1     -30.772  19.315  26.188  1.00  0.00    -0.000 C 
BRANCH  12  13
ATOM     13  C   UNL     1     -31.288  18.937  24.789  1.00  0.00    -0.000 C 
BRANCH  13  14
ATOM     14  C   UNL     1     -31.332  20.135  23.821  1.00  0.00    -0.000 C 
BRANCH  14  15
ATOM     15  C   UNL     1     -30.107  20.280  22.900  1.00  0.00    -0.000 C 
BRANCH  15  16
ATOM     16  C   UNL     1     -29.392  21.630  23.058  1.00  0.00    -0.000 C 
BRANCH  16  17
ATOM     17  C   UNL     1     -27.897  21.431  23.331  1.00  0.00    -0.003 C 
ATOM     18  C   UNL     1     -27.475  19.990  23.062  1.00  0.00     0.004 C 
ENDBRANCH  16  17
ENDBRANCH  15  16
ENDBRANCH  14  15
ENDBRANCH  13  14
ENDBRANCH  12  13
ENDBRANCH  11  12
ENDBRANCH   1  11
TORSDOF 14
ENDMDL
MODEL 9
REMARK VINA RESULT:    -4.229      1.471      2.268
REMARK INTER + INTRA:          -8.702
REMARK INTER:                  -7.336
REMARK INTRA:                  -1.366
REMARK UNBOUND:                -1.012
REMARK SMILES CCCCCCCCCCCCCCCC(=O)[O-]
REMARK SMILES IDX 9 1 10 2 11 3 12 4 13 5 14 6 15 7 16 8 17 9 18 10 8 11 7 12
REMARK SMILES IDX 6 13 5 14 4 15 3 16 2 17 1 18
REMARK H PARENT
REMARK Flexibility Score: inf
ROOT
ATOM      1  C   UNL     1     -28.610  21.683  28.664  1.00  0.00     0.000 C 
ENDROOT
BRANCH   1   2
ATOM      2  C   UNL     1     -29.350  21.308  29.959  1.00  0.00     0.000 C 
BRANCH   2   3
ATOM      3  C   UNL     1     -29.205  22.373  31.063  1.00  0.00     0.000 C 
BRANCH   3   4
ATOM      4  C   UNL     1     -30.519  23.027  31.527  1.00  0.00     0.000 C 
BRANCH   4   5
ATOM      5  C   UNL     1     -31.705  22.721  30.595  1.00  0.00     0.000 C 
BRANCH   5   6
ATOM      6  C   UNL     1     -32.128  23.941  29.761  1.00  0.00     0.006 C 
BRANCH   6   7
ATOM      7  C   UNL     1     -32.272  25.215  30.605  1.00  0.00     0.053 C 
BRANCH   7   8
ATOM      8  C   UNL     1     -33.700  25.417  31.003  1.00  0.00     0.041 C 
ATOM      9  O   UNL     1     -34.350  26.398  30.554  1.00  0.00    -0.550 OA
ATOM     10  O   UNL     1     -34.328  24.497  31.831  1.00  0.00    -0.550 OA
ENDBRANCH   7   8
ENDBRANCH   6   7
ENDBRANCH   5   6
ENDBRANCH   4   5
ENDBRANCH   3   4
ENDBRANCH   2   3
ENDBRANCH   1   2
BRANCH   1  11
ATOM     11  C   UNL     1     -29.560  22.106  27.528  1.00  0.00     0.000 C 
BRANCH  11  12
ATOM     12  C   UNL     1     -30.865  21.295  27.416  1.00  0.00    -0.000 C 
BRANCH  12  13
ATOM     13  C   UNL     1     -30.693  19.984  26.629  1.00  0.00    -0.000 C 
BRANCH  13  14
ATOM     14  C   UNL     1     -30.165  20.207  25.199  1.00  0.00    -0.000 C 
BRANCH  14  15
ATOM     15  C   UNL     1     -31.230  20.145  24.089  1.00  0.00    -0.000 C 
BRANCH  15  16
ATOM     16  C   UNL     1     -32.626  19.777  24.613  1.00  0.00    -0.000 C 
BRANCH  16  17
ATOM     17  C   UNL     1     -32.939  18.300  24.350  1.00  0.00    -0.003 C 
ATOM     18  C   UNL     1     -33.929  17.756  25.375  1.00  0.00     0.004 C 
ENDBRANCH  16  17
ENDBRANCH  15  16
ENDBRANCH  14  15
ENDBRANCH  13  14
ENDBRANCH  12  13
ENDBRANCH  11  12
ENDBRANCH   1  11
TORSDOF 14
ENDMDL
