MODEL 1
REMARK VINA RESULT:    -2.861      0.000      0.000
REMARK INTER + INTRA:          -8.697
REMARK INTER:                  -5.537
REMARK INTRA:                  -3.159
REMARK UNBOUND:                -3.159
REMARK SMILES CCCCCCCCCCCCCCCCCC(=O)[O-]
REMARK SMILES IDX 10 1 11 2 12 3 13 4 14 5 15 6 16 7 17 8 18 9 19 10 20 11
REMARK SMILES IDX 9 12 8 13 7 14 6 15 5 16 4 17 3 18 2 19 1 20
REMARK H PARENT
REMARK Flexibility Score: inf
ROOT
ATOM      1  C   UNL     1      31.370  30.655  52.600  1.00  0.00     0.000 C 
ENDROOT
BRANCH   1   2
ATOM      2  C   UNL     1      30.418  31.792  52.177  1.00  0.00     0.000 C 
BRANCH   2   3
ATOM      3  C   UNL     1      30.853  33.206  52.604  1.00  0.00     0.000 C 
BRANCH   3   4
ATOM      4  C   UNL     1      29.665  34.109  52.979  1.00  0.00     0.000 C 
BRANCH   4   5
ATOM      5  C   UNL     1      28.326  33.608  52.408  1.00  0.00     0.000 C 
BRANCH   5   6
ATOM      6  C   UNL     1      27.071  34.102  53.150  1.00  0.00     0.000 C 
BRANCH   6   7
ATOM      7  C   UNL     1      25.800  33.327  52.763  1.00  0.00     0.006 C 
BRANCH   7   8
ATOM      8  C   UNL     1      25.676  33.140  51.245  1.00  0.00     0.053 C 
BRANCH   8   9
ATOM      9  C   UNL     1      25.537  31.694  50.876  1.00  0.00     0.041 C 
ATOM     10  O   UNL     1      26.271  31.195  49.983  1.00  0.00    -0.550 OA
ATOM     11  O   UNL     1      24.621  30.891  51.544  1.00  0.00    -0.550 OA
ENDBRANCH   8   9
ENDBRANCH   7   8
ENDBRANCH   6   7
ENDBRANCH   5   6
ENDBRANCH   4   5
ENDBRANCH   3   4
ENDBRANCH   2   3
ENDBRANCH   1   2
BRANCH   1  12
ATOM     12  C   UNL     1      32.565  31.091  53.471  1.00  0.00     0.000 C 
BRANCH  12  13
ATOM     13  C   UNL     1      32.842  30.188  54.689  1.00  0.00    -0.000 C 
BRANCH  13  14
ATOM     14  C   UNL     1      32.289  30.711  56.030  1.00  0.00    -0.000 C 
BRANCH  14  15
ATOM     15  C   UNL     1      32.130  32.239  56.122  1.00  0.00    -0.000 C 
BRANCH  15  16
ATOM     16  C   UNL     1      30.660  32.681  56.224  1.00  0.00    -0.000 C 
BRANCH  16  17
ATOM     17  C   UNL     1      29.705  31.499  56.458  1.00  0.00    -0.000 C 
BRANCH  17  18
ATOM     18  C   UNL     1      28.553  31.457  55.443  1.00  0.00    -0.000 C 
BRANCH  18  19
ATOM     19  C   UNL     1      28.414  30.058  54.831  1.00  0.00    -0.003 C 
ATOM     20  C   UNL     1      27.552  30.090  53.572  1.00  0.00     0.004 C 
ENDBRANCH  18  19
ENDBRANCH  17  18
ENDBRANCH  16  17
ENDBRANCH  15  16
ENDBRANCH  14  15
ENDBRANCH  13  14
ENDBRANCH  12  13
ENDBRANCH   1  12
TORSDOF 16
ENDMDL
MODEL 2
REMARK VINA RESULT:    -2.825      8.232     10.542
REMARK INTER + INTRA:          -8.627
REMARK INTER:                  -5.522
REMARK INTRA:                  -3.105
REMARK UNBOUND:                -3.159
REMARK SMILES CCCCCCCCCCCCCCCCCC(=O)[O-]
REMARK SMILES IDX 10 1 11 2 12 3 13 4 14 5 15 6 16 7 17 8 18 9 19 10 20 11
REMARK SMILES IDX 9 12 8 13 7 14 6 15 5 16 4 17 3 18 2 19 1 20
REMARK H PARENT
REMARK Flexibility Score: inf
ROOT
ATOM      1  C   UNL     1      21.220  26.585  55.304  1.00  0.00     0.000 C 
ENDROOT
BRANCH   1   2
ATOM      2  C   UNL     1      19.896  27.240  54.859  1.00  0.00     0.000 C 
BRANCH   2   3
ATOM      3  C   UNL     1      18.617  26.515  55.318  1.00  0.00     0.000 C 
BRANCH   3   4
ATOM      4  C   UNL     1      17.778  27.348  56.302  1.00  0.00     0.000 C 
BRANCH   4   5
ATOM      5  C   UNL     1      17.701  28.836  55.914  1.00  0.00     0.000 C 
BRANCH   5   6
ATOM      6  C   UNL     1      16.321  29.317  55.431  1.00  0.00     0.000 C 
BRANCH   6   7
ATOM      7  C   UNL     1      16.218  29.407  53.899  1.00  0.00     0.006 C 
BRANCH   7   8
ATOM      8  C   UNL     1      17.478  30.016  53.269  1.00  0.00     0.053 C 
BRANCH   8   9
ATOM      9  C   UNL     1      17.875  29.294  52.017  1.00  0.00     0.041 C 
ATOM     10  O   UNL     1      17.926  28.036  52.000  1.00  0.00    -0.550 OA
ATOM     11  O   UNL     1      18.153  30.011  50.860  1.00  0.00    -0.550 OA
ENDBRANCH   8   9
ENDBRANCH   7   8
ENDBRANCH   6   7
ENDBRANCH   5   6
ENDBRANCH   4   5
ENDBRANCH   3   4
ENDBRANCH   2   3
ENDBRANCH   1   2
BRANCH   1  12
ATOM     12  C   UNL     1      21.212  25.995  56.728  1.00  0.00     0.000 C 
BRANCH  12  13
ATOM     13  C   UNL     1      22.375  26.460  57.627  1.00  0.00    -0.000 C 
BRANCH  13  14
ATOM     14  C   UNL     1      21.996  27.498  58.701  1.00  0.00    -0.000 C 
BRANCH  14  15
ATOM     15  C   UNL     1      20.528  27.964  58.675  1.00  0.00    -0.000 C 
BRANCH  15  16
ATOM     16  C   UNL     1      20.389  29.487  58.515  1.00  0.00    -0.000 C 
BRANCH  16  17
ATOM     17  C   UNL     1      21.561  30.108  57.735  1.00  0.00    -0.000 C 
BRANCH  17  18
ATOM     18  C   UNL     1      21.250  30.287  56.241  1.00  0.00    -0.000 C 
BRANCH  18  19
ATOM     19  C   UNL     1      22.534  30.225  55.405  1.00  0.00    -0.003 C 
ATOM     20  C   UNL     1      23.699  29.679  56.224  1.00  0.00     0.004 C 
ENDBRANCH  18  19
ENDBRANCH  17  18
ENDBRANCH  16  17
ENDBRANCH  15  16
ENDBRANCH  14  15
ENDBRANCH  13  14
ENDBRANCH  12  13
ENDBRANCH   1  12
TORSDOF 16
ENDMDL
MODEL 3
REMARK VINA RESULT:    -2.769      1.449      3.762
REMARK INTER + INTRA:          -8.519
REMARK INTER:                  -5.668
REMARK INTRA:                  -2.850
REMARK UNBOUND:                -3.159
REMARK SMILES CCCCCCCCCCCCCCCCCC(=O)[O-]
REMARK SMILES IDX 10 1 11 2 12 3 13 4 14 5 15 6 16 7 17 8 18 9 19 10 20 11
REMARK SMILES IDX 9 12 8 13 7 14 6 15 5 16 4 17 3 18 2 19 1 20
REMARK H PARENT
REMARK Flexibility Score: inf
ROOT
ATOM      1  C   UNL     1      30.015  32.091  56.221  1.00  0.00     0.000 C 
ENDROOT
BRANCH   1   2
ATOM      2  C   UNL     1      29.444  31.067  55.217  1.00  0.00     0.000 C 
BRANCH   2   3
ATOM      3  C   UNL     1      27.915  31.101  55.042  1.00  0.00     0.000 C 
BRANCH   3   4
ATOM      4  C   UNL     1      27.469  30.743  53.613  1.00  0.00     0.000 C 
BRANCH   4   5
ATOM      5  C   UNL     1      26.088  31.321  53.254  1.00  0.00     0.000 C 
BRANCH   5   6
ATOM      6  C   UNL     1      26.029  32.854  53.137  1.00  0.00     0.000 C 
BRANCH   6   7
ATOM      7  C   UNL     1      25.634  33.335  51.730  1.00  0.00     0.006 C 
BRANCH   7   8
ATOM      8  C   UNL     1      26.186  32.420  50.630  1.00  0.00     0.053 C 
BRANCH   8   9
ATOM      9  C   UNL     1      25.792  32.896  49.265  1.00  0.00     0.041 C 
ATOM     10  O   UNL     1      24.646  32.642  48.811  1.00  0.00    -0.550 OA
ATOM     11  O   UNL     1      26.680  33.652  48.509  1.00  0.00    -0.550 OA
ENDBRANCH   8   9
ENDBRANCH   7   8
ENDBRANCH   6   7
ENDBRANCH   5   6
ENDBRANCH   4   5
ENDBRANCH   3   4
ENDBRANCH   2   3
ENDBRANCH   1   2
BRANCH   1  12
ATOM     12  C   UNL     1      31.207  32.919  55.704  1.00  0.00     0.000 C 
BRANCH  12  13
ATOM     13  C   UNL     1      30.927  34.427  55.548  1.00  0.00    -0.000 C 
BRANCH  13  14
ATOM     14  C   UNL     1      30.673  34.899  54.102  1.00  0.00    -0.000 C 
BRANCH  14  15
ATOM     15  C   UNL     1      29.347  34.425  53.480  1.00  0.00    -0.000 C 
BRANCH  15  16
ATOM     16  C   UNL     1      29.535  33.781  52.096  1.00  0.00    -0.000 C 
BRANCH  16  17
ATOM     17  C   UNL     1      30.605  32.677  52.099  1.00  0.00    -0.000 C 
BRANCH  17  18
ATOM     18  C   UNL     1      30.189  31.445  51.280  1.00  0.00    -0.000 C 
BRANCH  18  19
ATOM     19  C   UNL     1      30.849  30.175  51.830  1.00  0.00    -0.003 C 
ATOM     20  C   UNL     1      32.037  30.514  52.725  1.00  0.00     0.004 C 
ENDBRANCH  18  19
ENDBRANCH  17  18
ENDBRANCH  16  17
ENDBRANCH  15  16
ENDBRANCH  14  15
ENDBRANCH  13  14
ENDBRANCH  12  13
ENDBRANCH   1  12
TORSDOF 16
ENDMDL
MODEL 4
REMARK VINA RESULT:    -2.732      1.949      4.681
REMARK INTER + INTRA:          -8.446
REMARK INTER:                  -5.747
REMARK INTRA:                  -2.699
REMARK UNBOUND:                -3.159
REMARK SMILES CCCCCCCCCCCCCCCCCC(=O)[O-]
REMARK SMILES IDX 10 1 11 2 12 3 13 4 14 5 15 6 16 7 17 8 18 9 19 10 20 11
REMARK SMILES IDX 9 12 8 13 7 14 6 15 5 16 4 17 3 18 2 19 1 20
REMARK H PARENT
REMARK Flexibility Score: inf
ROOT
ATOM      1  C   UNL     1      30.778  31.312  52.223  1.00  0.00     0.000 C 
ENDROOT
BRANCH   1   2
ATOM      2  C   UNL     1      31.858  30.560  53.028  1.00  0.00     0.000 C 
BRANCH   2   3
ATOM      3  C   UNL     1      32.671  31.427  54.007  1.00  0.00     0.000 C 
BRANCH   3   4
ATOM      4  C   UNL     1      32.264  31.212  55.475  1.00  0.00     0.000 C 
BRANCH   4   5
ATOM      5  C   UNL     1      31.201  32.217  55.956  1.00  0.00     0.000 C 
BRANCH   5   6
ATOM      6  C   UNL     1      29.880  31.593  56.441  1.00  0.00     0.000 C 
BRANCH   6   7
ATOM      7  C   UNL     1      28.775  31.619  55.372  1.00  0.00     0.006 C 
BRANCH   7   8
ATOM      8  C   UNL     1      28.452  30.217  54.839  1.00  0.00     0.053 C 
BRANCH   8   9
ATOM      9  C   UNL     1      27.261  29.624  55.529  1.00  0.00     0.041 C 
ATOM     10  O   UNL     1      26.854  28.475  55.217  1.00  0.00    -0.550 OA
ATOM     11  O   UNL     1      26.622  30.329  56.541  1.00  0.00    -0.550 OA
ENDBRANCH   8   9
ENDBRANCH   7   8
ENDBRANCH   6   7
ENDBRANCH   5   6
ENDBRANCH   4   5
ENDBRANCH   3   4
ENDBRANCH   2   3
ENDBRANCH   1   2
BRANCH   1  12
ATOM     12  C   UNL     1      30.818  32.848  52.350  1.00  0.00     0.000 C 
BRANCH  12  13
ATOM     13  C   UNL     1      29.729  33.591  51.552  1.00  0.00    -0.000 C 
BRANCH  13  14
ATOM     14  C   UNL     1      28.281  33.297  51.994  1.00  0.00    -0.000 C 
BRANCH  14  15
ATOM     15  C   UNL     1      27.749  34.184  53.134  1.00  0.00    -0.000 C 
BRANCH  15  16
ATOM     16  C   UNL     1      26.216  34.312  53.125  1.00  0.00    -0.000 C 
BRANCH  16  17
ATOM     17  C   UNL     1      25.528  33.105  52.465  1.00  0.00    -0.000 C 
BRANCH  17  18
ATOM     18  C   UNL     1      25.235  31.972  53.461  1.00  0.00    -0.000 C 
BRANCH  18  19
ATOM     19  C   UNL     1      24.937  30.661  52.724  1.00  0.00    -0.003 C 
ATOM     20  C   UNL     1      26.147  30.192  51.922  1.00  0.00     0.004 C 
ENDBRANCH  18  19
ENDBRANCH  17  18
ENDBRANCH  16  17
ENDBRANCH  15  16
ENDBRANCH  14  15
ENDBRANCH  13  14
ENDBRANCH  12  13
ENDBRANCH   1  12
TORSDOF 16
ENDMDL
MODEL 5
REMARK VINA RESULT:    -2.718      2.923      4.404
REMARK INTER + INTRA:          -8.420
REMARK INTER:                  -6.133
REMARK INTRA:                  -2.287
REMARK UNBOUND:                -3.159
REMARK SMILES CCCCCCCCCCCCCCCCCC(=O)[O-]
REMARK SMILES IDX 10 1 11 2 12 3 13 4 14 5 15 6 16 7 17 8 18 9 19 10 20 11
REMARK SMILES IDX 9 12 8 13 7 14 6 15 5 16 4 17 3 18 2 19 1 20
REMARK H PARENT
REMARK Flexibility Score: inf
ROOT
ATOM      1  C   UNL     1      28.105  33.230  51.890  1.00  0.00     0.000 C 
ENDROOT
BRANCH   1   2
ATOM      2  C   UNL     1      27.296  33.950  52.988  1.00  0.00     0.000 C 
BRANCH   2   3
ATOM      3  C   UNL     1      25.767  33.804  52.881  1.00  0.00     0.000 C 
BRANCH   3   4
ATOM      4  C   UNL     1      25.320  32.349  52.657  1.00  0.00     0.000 C 
BRANCH   4   5
ATOM      5  C   UNL     1      25.521  31.462  53.900  1.00  0.00     0.000 C 
BRANCH   5   6
ATOM      6  C   UNL     1      24.259  30.733  54.397  1.00  0.00     0.000 C 
BRANCH   6   7
ATOM      7  C   UNL     1      24.376  30.257  55.854  1.00  0.00     0.006 C 
BRANCH   7   8
ATOM      8  C   UNL     1      23.069  30.454  56.634  1.00  0.00     0.053 C 
BRANCH   8   9
ATOM      9  C   UNL     1      21.907  29.813  55.938  1.00  0.00     0.041 C 
ATOM     10  O   UNL     1      20.939  30.513  55.544  1.00  0.00    -0.550 OA
ATOM     11  O   UNL     1      21.913  28.445  55.694  1.00  0.00    -0.550 OA
ENDBRANCH   8   9
ENDBRANCH   7   8
ENDBRANCH   6   7
ENDBRANCH   5   6
ENDBRANCH   4   5
ENDBRANCH   3   4
ENDBRANCH   2   3
ENDBRANCH   1   2
BRANCH   1  12
ATOM     12  C   UNL     1      29.597  33.612  51.819  1.00  0.00     0.000 C 
BRANCH  12  13
ATOM     13  C   UNL     1      30.151  34.295  53.086  1.00  0.00    -0.000 C 
BRANCH  13  14
ATOM     14  C   UNL     1      31.112  33.430  53.926  1.00  0.00    -0.000 C 
BRANCH  14  15
ATOM     15  C   UNL     1      30.883  33.484  55.448  1.00  0.00    -0.000 C 
BRANCH  15  16
ATOM     16  C   UNL     1      30.366  32.153  56.020  1.00  0.00    -0.000 C 
BRANCH  16  17
ATOM     17  C   UNL     1      28.976  31.779  55.478  1.00  0.00    -0.000 C 
BRANCH  17  18
ATOM     18  C   UNL     1      28.876  30.300  55.074  1.00  0.00    -0.000 C 
BRANCH  18  19
ATOM     19  C   UNL     1      28.846  30.151  53.548  1.00  0.00    -0.003 C 
ATOM     20  C   UNL     1      30.253  29.988  52.982  1.00  0.00     0.004 C 
ENDBRANCH  18  19
ENDBRANCH  17  18
ENDBRANCH  16  17
ENDBRANCH  15  16
ENDBRANCH  14  15
ENDBRANCH  13  14
ENDBRANCH  12  13
ENDBRANCH   1  12
TORSDOF 16
ENDMDL
MODEL 6
REMARK VINA RESULT:    -2.707      3.045      5.366
REMARK INTER + INTRA:          -8.398
REMARK INTER:                  -5.259
REMARK INTRA:                  -3.140
REMARK UNBOUND:                -3.159
REMARK SMILES CCCCCCCCCCCCCCCCCC(=O)[O-]
REMARK SMILES IDX 10 1 11 2 12 3 13 4 14 5 15 6 16 7 17 8 18 9 19 10 20 11
REMARK SMILES IDX 9 12 8 13 7 14 6 15 5 16 4 17 3 18 2 19 1 20
REMARK H PARENT
REMARK Flexibility Score: inf
ROOT
ATOM      1  C   UNL     1      27.251  33.400  53.481  1.00  0.00     0.000 C 
ENDROOT
BRANCH   1   2
ATOM      2  C   UNL     1      26.173  33.549  52.388  1.00  0.00     0.000 C 
BRANCH   2   3
ATOM      3  C   UNL     1      25.315  32.296  52.136  1.00  0.00     0.000 C 
BRANCH   3   4
ATOM      4  C   UNL     1      25.730  31.101  53.011  1.00  0.00     0.000 C 
BRANCH   4   5
ATOM      5  C   UNL     1      24.676  30.740  54.074  1.00  0.00     0.000 C 
BRANCH   5   6
ATOM      6  C   UNL     1      25.242  30.283  55.431  1.00  0.00     0.000 C 
BRANCH   6   7
ATOM      7  C   UNL     1      26.776  30.372  55.502  1.00  0.00     0.006 C 
BRANCH   7   8
ATOM      8  C   UNL     1      27.354  29.515  56.636  1.00  0.00     0.053 C 
BRANCH   8   9
ATOM      9  C   UNL     1      28.255  30.313  57.528  1.00  0.00     0.041 C 
ATOM     10  O   UNL     1      29.503  30.158  57.471  1.00  0.00    -0.550 OA
ATOM     11  O   UNL     1      27.716  31.252  58.398  1.00  0.00    -0.550 OA
ENDBRANCH   8   9
ENDBRANCH   7   8
ENDBRANCH   6   7
ENDBRANCH   5   6
ENDBRANCH   4   5
ENDBRANCH   3   4
ENDBRANCH   2   3
ENDBRANCH   1   2
BRANCH   1  12
ATOM     12  C   UNL     1      28.428  34.391  53.379  1.00  0.00     0.000 C 
BRANCH  12  13
ATOM     13  C   UNL     1      29.740  33.905  54.025  1.00  0.00    -0.000 C 
BRANCH  13  14
ATOM     14  C   UNL     1      29.650  32.543  54.744  1.00  0.00    -0.000 C 
BRANCH  14  15
ATOM     15  C   UNL     1      30.493  31.415  54.121  1.00  0.00    -0.000 C 
BRANCH  15  16
ATOM     16  C   UNL     1      29.681  30.524  53.164  1.00  0.00    -0.000 C 
BRANCH  16  17
ATOM     17  C   UNL     1      29.956  30.844  51.686  1.00  0.00    -0.000 C 
BRANCH  17  18
ATOM     18  C   UNL     1      28.674  31.152  50.897  1.00  0.00    -0.000 C 
BRANCH  18  19
ATOM     19  C   UNL     1      28.885  32.341  49.952  1.00  0.00    -0.003 C 
ATOM     20  C   UNL     1      30.100  33.165  50.368  1.00  0.00     0.004 C 
ENDBRANCH  18  19
ENDBRANCH  17  18
ENDBRANCH  16  17
ENDBRANCH  15  16
ENDBRANCH  14  15
ENDBRANCH  13  14
ENDBRANCH  12  13
ENDBRANCH   1  12
TORSDOF 16
ENDMDL
MODEL 7
REMARK VINA RESULT:    -2.695      2.827      5.733
REMARK INTER + INTRA:          -8.376
REMARK INTER:                  -5.240
REMARK INTRA:                  -3.135
REMARK UNBOUND:                -3.159
REMARK SMILES CCCCCCCCCCCCCCCCCC(=O)[O-]
REMARK SMILES IDX 10 1 11 2 12 3 13 4 14 5 15 6 16 7 17 8 18 9 19 10 20 11
REMARK SMILES IDX 9 12 8 13 7 14 6 15 5 16 4 17 3 18 2 19 1 20
REMARK H PARENT
REMARK Flexibility Score: inf
ROOT
ATOM      1  C   UNL     1      25.228  31.351  51.572  1.00  0.00     0.000 C 
ENDROOT
BRANCH   1   2
ATOM      2  C   UNL     1      25.872  32.750  51.492  1.00  0.00     0.000 C 
BRANCH   2   3
ATOM      3  C   UNL     1      25.462  33.728  52.608  1.00  0.00     0.000 C 
BRANCH   3   4
ATOM      4  C   UNL     1      26.647  34.545  53.152  1.00  0.00     0.000 C 
BRANCH   4   5
ATOM      5  C   UNL     1      28.006  33.859  52.920  1.00  0.00     0.000 C 
BRANCH   5   6
ATOM      6  C   UNL     1      29.164  34.389  53.785  1.00  0.00     0.000 C 
BRANCH   6   7
ATOM      7  C   UNL     1      30.353  33.416  53.858  1.00  0.00     0.006 C 
BRANCH   7   8
ATOM      8  C   UNL     1      31.017  33.417  55.241  1.00  0.00     0.053 C 
BRANCH   8   9
ATOM      9  C   UNL     1      30.636  32.207  56.038  1.00  0.00     0.041 C 
ATOM     10  O   UNL     1      29.442  32.037  56.401  1.00  0.00    -0.550 OA
ATOM     11  O   UNL     1      31.593  31.251  56.350  1.00  0.00    -0.550 OA
ENDBRANCH   8   9
ENDBRANCH   7   8
ENDBRANCH   6   7
ENDBRANCH   5   6
ENDBRANCH   4   5
ENDBRANCH   3   4
ENDBRANCH   2   3
ENDBRANCH   1   2
BRANCH   1  12
ATOM     12  C   UNL     1      24.820  30.899  52.988  1.00  0.00     0.000 C 
BRANCH  12  13
ATOM     13  C   UNL     1      25.809  29.932  53.669  1.00  0.00    -0.000 C 
BRANCH  13  14
ATOM     14  C   UNL     1      27.070  30.595  54.257  1.00  0.00    -0.000 C 
BRANCH  14  15
ATOM     15  C   UNL     1      28.391  30.231  53.555  1.00  0.00    -0.000 C 
BRANCH  15  16
ATOM     16  C   UNL     1      28.202  29.207  52.423  1.00  0.00    -0.000 C 
BRANCH  16  17
ATOM     17  C   UNL     1      28.528  29.793  51.039  1.00  0.00    -0.000 C 
BRANCH  17  18
ATOM     18  C   UNL     1      29.464  31.009  51.114  1.00  0.00    -0.000 C 
BRANCH  18  19
ATOM     19  C   UNL     1      29.223  31.958  49.935  1.00  0.00    -0.003 C 
ATOM     20  C   UNL     1      30.142  33.174  50.009  1.00  0.00     0.004 C 
ENDBRANCH  18  19
ENDBRANCH  17  18
ENDBRANCH  16  17
ENDBRANCH  15  16
ENDBRANCH  14  15
ENDBRANCH  13  14
ENDBRANCH  12  13
ENDBRANCH   1  12
TORSDOF 16
ENDMDL
MODEL 8
REMARK VINA RESULT:    -2.683      1.898      5.327
REMARK INTER + INTRA:          -8.352
REMARK INTER:                  -5.424
REMARK INTRA:                  -2.927
REMARK UNBOUND:                -3.159
REMARK SMILES CCCCCCCCCCCCCCCCCC(=O)[O-]
REMARK SMILES IDX 10 1 11 2 12 3 13 4 14 5 15 6 16 7 17 8 18 9 19 10 20 11
REMARK SMILES IDX 9 12 8 13 7 14 6 15 5 16 4 17 3 18 2 19 1 20
REMARK H PARENT
REMARK Flexibility Score: inf
ROOT
ATOM      1  C   UNL     1      28.998  32.547  54.318  1.00  0.00     0.000 C 
ENDROOT
BRANCH   1   2
ATOM      2  C   UNL     1      29.687  32.012  55.590  1.00  0.00     0.000 C 
BRANCH   2   3
ATOM      3  C   UNL     1      30.839  32.881  56.128  1.00  0.00     0.000 C 
BRANCH   3   4
ATOM      4  C   UNL     1      32.181  32.131  56.177  1.00  0.00     0.000 C 
BRANCH   4   5
ATOM      5  C   UNL     1      32.236  30.936  55.208  1.00  0.00     0.000 C 
BRANCH   5   6
ATOM      6  C   UNL     1      32.771  31.259  53.800  1.00  0.00     0.000 C 
BRANCH   6   7
ATOM      7  C   UNL     1      32.247  30.295  52.723  1.00  0.00     0.006 C 
BRANCH   7   8
ATOM      8  C   UNL     1      31.154  29.363  53.262  1.00  0.00     0.053 C 
BRANCH   8   9
ATOM      9  C   UNL     1      29.934  29.379  52.391  1.00  0.00     0.041 C 
ATOM     10  O   UNL     1      28.787  29.330  52.905  1.00  0.00    -0.550 OA
ATOM     11  O   UNL     1      30.067  29.483  51.012  1.00  0.00    -0.550 OA
ENDBRANCH   8   9
ENDBRANCH   7   8
ENDBRANCH   6   7
ENDBRANCH   5   6
ENDBRANCH   4   5
ENDBRANCH   3   4
ENDBRANCH   2   3
ENDBRANCH   1   2
BRANCH   1  12
ATOM     12  C   UNL     1      29.331  34.008  53.958  1.00  0.00     0.000 C 
BRANCH  12  13
ATOM     13  C   UNL     1      30.115  34.188  52.643  1.00  0.00    -0.000 C 
BRANCH  13  14
ATOM     14  C   UNL     1      30.111  32.963  51.707  1.00  0.00    -0.000 C 
BRANCH  14  15
ATOM     15  C   UNL     1      29.696  33.249  50.252  1.00  0.00    -0.000 C 
BRANCH  15  16
ATOM     16  C   UNL     1      28.417  32.501  49.839  1.00  0.00    -0.000 C 
BRANCH  16  17
ATOM     17  C   UNL     1      27.176  32.986  50.606  1.00  0.00    -0.000 C 
BRANCH  17  18
ATOM     18  C   UNL     1      26.639  31.935  51.591  1.00  0.00    -0.000 C 
BRANCH  18  19
ATOM     19  C   UNL     1      25.549  32.534  52.488  1.00  0.00    -0.003 C 
ATOM     20  C   UNL     1      25.854  33.989  52.829  1.00  0.00     0.004 C 
ENDBRANCH  18  19
ENDBRANCH  17  18
ENDBRANCH  16  17
ENDBRANCH  15  16
ENDBRANCH  14  15
ENDBRANCH  13  14
ENDBRANCH  12  13
ENDBRANCH   1  12
TORSDOF 16
ENDMDL
MODEL 9
REMARK VINA RESULT:    -2.650      1.020      2.449
REMARK INTER + INTRA:          -8.288
REMARK INTER:                  -5.478
REMARK INTRA:                  -2.809
REMARK UNBOUND:                -3.159
REMARK SMILES CCCCCCCCCCCCCCCCCC(=O)[O-]
REMARK SMILES IDX 10 1 11 2 12 3 13 4 14 5 15 6 16 7 17 8 18 9 19 10 20 11
REMARK SMILES IDX 9 12 8 13 7 14 6 15 5 16 4 17 3 18 2 19 1 20
REMARK H PARENT
REMARK Flexibility Score: inf
ROOT
ATOM      1  C   UNL     1      30.704  33.125  55.641  1.00  0.00     0.000 C 
ENDROOT
BRANCH   1   2
ATOM      2  C   UNL     1      30.936  34.538  55.068  1.00  0.00     0.000 C 
BRANCH   2   3
ATOM      3  C   UNL     1      30.006  34.938  53.908  1.00  0.00     0.000 C 
BRANCH   3   4
ATOM      4  C   UNL     1      29.980  33.897  52.776  1.00  0.00     0.000 C 
BRANCH   4   5
ATOM      5  C   UNL     1      28.562  33.625  52.242  1.00  0.00     0.000 C 
BRANCH   5   6
ATOM      6  C   UNL     1      27.417  34.019  53.193  1.00  0.00     0.000 C 
BRANCH   6   7
ATOM      7  C   UNL     1      26.031  33.613  52.666  1.00  0.00     0.006 C 
BRANCH   7   8
ATOM      8  C   UNL     1      26.098  33.033  51.247  1.00  0.00     0.053 C 
BRANCH   8   9
ATOM      9  C   UNL     1      25.226  31.823  51.102  1.00  0.00     0.041 C 
ATOM     10  O   UNL     1      24.915  31.141  52.113  1.00  0.00    -0.550 OA
ATOM     11  O   UNL     1      24.728  31.471  49.854  1.00  0.00    -0.550 OA
ENDBRANCH   8   9
ENDBRANCH   7   8
ENDBRANCH   6   7
ENDBRANCH   5   6
ENDBRANCH   4   5
ENDBRANCH   3   4
ENDBRANCH   2   3
ENDBRANCH   1   2
BRANCH   1  12
ATOM     12  C   UNL     1      31.975  32.397  56.121  1.00  0.00     0.000 C 
BRANCH  12  13
ATOM     13  C   UNL     1      32.328  31.122  55.329  1.00  0.00    -0.000 C 
BRANCH  13  14
ATOM     14  C   UNL     1      32.604  31.341  53.828  1.00  0.00    -0.000 C 
BRANCH  14  15
ATOM     15  C   UNL     1      31.586  30.692  52.872  1.00  0.00    -0.000 C 
BRANCH  15  16
ATOM     16  C   UNL     1      30.366  30.109  53.607  1.00  0.00    -0.000 C 
BRANCH  16  17
ATOM     17  C   UNL     1      29.129  29.998  52.700  1.00  0.00    -0.000 C 
BRANCH  17  18
ATOM     18  C   UNL     1      27.810  30.133  53.476  1.00  0.00    -0.000 C 
BRANCH  18  19
ATOM     19  C   UNL     1      28.040  30.814  54.830  1.00  0.00    -0.003 C 
ATOM     20  C   UNL     1      27.277  30.101  55.942  1.00  0.00     0.004 C 
ENDBRANCH  18  19
ENDBRANCH  17  18
ENDBRANCH  16  17
ENDBRANCH  15  16
ENDBRANCH  14  15
ENDBRANCH  13  14
ENDBRANCH  12  13
ENDBRANCH   1  12
TORSDOF 16
ENDMDL
