MODEL 1
REMARK VINA RESULT:    19.166      0.000      0.000
REMARK INTER + INTRA:          34.219
REMARK INTER:                  34.852
REMARK INTRA:                  -0.634
REMARK UNBOUND:                -0.634
REMARK SMILES CCCCCCCCCCCCCCCC(=O)[O-]
REMARK SMILES IDX 9 1 10 2 11 3 12 4 13 5 14 6 15 7 16 8 17 9 18 10 8 11 7 12
REMARK SMILES IDX 6 13 5 14 4 15 3 16 2 17 1 18
REMARK H PARENT
REMARK Flexibility Score: inf
ROOT
ATOM      1  C   UNL     1     -37.060  26.717 -21.050  1.00  0.00     0.000 C 
ENDROOT
BRANCH   1   2
ATOM      2  C   UNL     1     -37.892  27.490 -22.090  1.00  0.00     0.000 C 
BRANCH   2   3
ATOM      3  C   UNL     1     -37.739  29.015 -21.967  1.00  0.00     0.000 C 
BRANCH   3   4
ATOM      4  C   UNL     1     -38.869  29.655 -21.143  1.00  0.00     0.000 C 
BRANCH   4   5
ATOM      5  C   UNL     1     -40.265  29.164 -21.568  1.00  0.00     0.000 C 
BRANCH   5   6
ATOM      6  C   UNL     1     -41.383  30.150 -21.186  1.00  0.00     0.006 C 
BRANCH   6   7
ATOM      7  C   UNL     1     -42.159  30.719 -22.384  1.00  0.00     0.053 C 
BRANCH   7   8
ATOM      8  C   UNL     1     -43.365  31.496 -21.954  1.00  0.00     0.041 C 
ATOM      9  O   UNL     1     -44.089  32.069 -22.810  1.00  0.00    -0.550 OA
ATOM     10  O   UNL     1     -43.668  31.616 -20.604  1.00  0.00    -0.550 OA
ENDBRANCH   7   8
ENDBRANCH   6   7
ENDBRANCH   5   6
ENDBRANCH   4   5
ENDBRANCH   3   4
ENDBRANCH   2   3
ENDBRANCH   1   2
BRANCH   1  11
ATOM     11  C   UNL     1     -37.069  25.185 -21.209  1.00  0.00     0.000 C 
BRANCH  11  12
ATOM     12  C   UNL     1     -37.942  24.478 -20.156  1.00  0.00    -0.000 C 
BRANCH  12  13
ATOM     13  C   UNL     1     -37.622  22.978 -20.038  1.00  0.00    -0.000 C 
BRANCH  13  14
ATOM     14  C   UNL     1     -38.128  22.372 -18.718  1.00  0.00    -0.000 C 
BRANCH  14  15
ATOM     15  C   UNL     1     -39.026  21.140 -18.933  1.00  0.00    -0.000 C 
BRANCH  15  16
ATOM     16  C   UNL     1     -40.509  21.336 -18.558  1.00  0.00    -0.000 C 
BRANCH  16  17
ATOM     17  C   UNL     1     -40.910  22.783 -18.223  1.00  0.00    -0.003 C 
ATOM     18  C   UNL     1     -42.141  22.867 -17.322  1.00  0.00     0.004 C 
ENDBRANCH  16  17
ENDBRANCH  15  16
ENDBRANCH  14  15
ENDBRANCH  13  14
ENDBRANCH  12  13
ENDBRANCH  11  12
ENDBRANCH   1  11
TORSDOF 14
ENDMDL
MODEL 2
REMARK VINA RESULT:    19.740      0.697      1.250
REMARK INTER + INTRA:          35.261
REMARK INTER:                  35.403
REMARK INTRA:                  -0.142
REMARK UNBOUND:                -0.634
REMARK SMILES CCCCCCCCCCCCCCCC(=O)[O-]
REMARK SMILES IDX 9 1 10 2 11 3 12 4 13 5 14 6 15 7 16 8 17 9 18 10 8 11 7 12
REMARK SMILES IDX 6 13 5 14 4 15 3 16 2 17 1 18
REMARK H PARENT
REMARK Flexibility Score: inf
ROOT
ATOM      1  C   UNL     1     -38.471  27.070 -22.061  1.00  0.00     0.000 C 
ENDROOT
BRANCH   1   2
ATOM      2  C   UNL     1     -37.977  28.513 -22.267  1.00  0.00     0.000 C 
BRANCH   2   3
ATOM      3  C   UNL     1     -38.386  29.456 -21.123  1.00  0.00     0.000 C 
BRANCH   3   4
ATOM      4  C   UNL     1     -39.903  29.453 -20.871  1.00  0.00     0.000 C 
BRANCH   4   5
ATOM      5  C   UNL     1     -40.716  29.169 -22.147  1.00  0.00     0.000 C 
BRANCH   5   6
ATOM      6  C   UNL     1     -41.620  30.347 -22.550  1.00  0.00     0.006 C 
BRANCH   6   7
ATOM      7  C   UNL     1     -42.089  31.215 -21.370  1.00  0.00     0.053 C 
BRANCH   7   8
ATOM      8  C   UNL     1     -43.539  31.572 -21.479  1.00  0.00     0.041 C 
ATOM      9  O   UNL     1     -44.255  31.638 -20.445  1.00  0.00    -0.550 OA
ATOM     10  O   UNL     1     -44.107  31.798 -22.726  1.00  0.00    -0.550 OA
ENDBRANCH   7   8
ENDBRANCH   6   7
ENDBRANCH   5   6
ENDBRANCH   4   5
ENDBRANCH   3   4
ENDBRANCH   2   3
ENDBRANCH   1   2
BRANCH   1  11
ATOM     11  C   UNL     1     -37.513  26.153 -21.277  1.00  0.00     0.000 C 
BRANCH  11  12
ATOM     12  C   UNL     1     -37.980  24.688 -21.241  1.00  0.00    -0.000 C 
BRANCH  12  13
ATOM     13  C   UNL     1     -38.012  24.116 -19.813  1.00  0.00    -0.000 C 
BRANCH  13  14
ATOM     14  C   UNL     1     -37.838  22.587 -19.789  1.00  0.00    -0.000 C 
BRANCH  14  15
ATOM     15  C   UNL     1     -38.486  21.933 -18.556  1.00  0.00    -0.000 C 
BRANCH  15  16
ATOM     16  C   UNL     1     -40.024  21.823 -18.602  1.00  0.00    -0.000 C 
BRANCH  16  17
ATOM     17  C   UNL     1     -40.779  23.096 -18.180  1.00  0.00    -0.003 C 
ATOM     18  C   UNL     1     -42.044  22.799 -17.376  1.00  0.00     0.004 C 
ENDBRANCH  16  17
ENDBRANCH  15  16
ENDBRANCH  14  15
ENDBRANCH  13  14
ENDBRANCH  12  13
ENDBRANCH  11  12
ENDBRANCH   1  11
TORSDOF 14
ENDMDL
MODEL 3
REMARK VINA RESULT:    20.186      3.522      4.406
REMARK INTER + INTRA:          36.072
REMARK INTER:                  36.042
REMARK INTRA:                   0.031
REMARK UNBOUND:                -0.634
REMARK SMILES CCCCCCCCCCCCCCCC(=O)[O-]
REMARK SMILES IDX 9 1 10 2 11 3 12 4 13 5 14 6 15 7 16 8 17 9 18 10 8 11 7 12
REMARK SMILES IDX 6 13 5 14 4 15 3 16 2 17 1 18
REMARK H PARENT
REMARK Flexibility Score: inf
ROOT
ATOM      1  C   UNL     1     -38.123  27.463 -22.497  1.00  0.00     0.000 C 
ENDROOT
BRANCH   1   2
ATOM      2  C   UNL     1     -38.152  28.521 -21.378  1.00  0.00     0.000 C 
BRANCH   2   3
ATOM      3  C   UNL     1     -38.209  29.960 -21.915  1.00  0.00     0.000 C 
BRANCH   3   4
ATOM      4  C   UNL     1     -36.926  30.362 -22.662  1.00  0.00     0.000 C 
BRANCH   4   5
ATOM      5  C   UNL     1     -37.210  31.187 -23.930  1.00  0.00     0.000 C 
BRANCH   5   6
ATOM      6  C   UNL     1     -36.544  30.595 -25.185  1.00  0.00     0.006 C 
BRANCH   6   7
ATOM      7  C   UNL     1     -35.926  31.643 -26.125  1.00  0.00     0.053 C 
BRANCH   7   8
ATOM      8  C   UNL     1     -36.607  32.972 -26.009  1.00  0.00     0.041 C 
ATOM      9  O   UNL     1     -35.937  34.036 -26.074  1.00  0.00    -0.550 OA
ATOM     10  O   UNL     1     -37.978  33.033 -25.793  1.00  0.00    -0.550 OA
ENDBRANCH   7   8
ENDBRANCH   6   7
ENDBRANCH   5   6
ENDBRANCH   4   5
ENDBRANCH   3   4
ENDBRANCH   2   3
ENDBRANCH   1   2
BRANCH   1  11
ATOM     11  C   UNL     1     -38.743  26.102 -22.131  1.00  0.00     0.000 C 
BRANCH  11  12
ATOM     12  C   UNL     1     -37.760  25.173 -21.396  1.00  0.00    -0.000 C 
BRANCH  12  13
ATOM     13  C   UNL     1     -38.456  24.299 -20.338  1.00  0.00    -0.000 C 
BRANCH  13  14
ATOM     14  C   UNL     1     -37.698  22.987 -20.072  1.00  0.00    -0.000 C 
BRANCH  14  15
ATOM     15  C   UNL     1     -38.235  22.228 -18.845  1.00  0.00    -0.000 C 
BRANCH  15  16
ATOM     16  C   UNL     1     -39.425  22.898 -18.128  1.00  0.00    -0.000 C 
BRANCH  16  17
ATOM     17  C   UNL     1     -40.804  22.298 -18.455  1.00  0.00    -0.003 C 
ATOM     18  C   UNL     1     -41.915  22.832 -17.553  1.00  0.00     0.004 C 
ENDBRANCH  16  17
ENDBRANCH  15  16
ENDBRANCH  14  15
ENDBRANCH  13  14
ENDBRANCH  12  13
ENDBRANCH  11  12
ENDBRANCH   1  11
TORSDOF 14
ENDMDL
MODEL 4
REMARK VINA RESULT:    20.294      0.712      1.276
REMARK INTER + INTRA:          36.270
REMARK INTER:                  36.928
REMARK INTRA:                  -0.659
REMARK UNBOUND:                -0.634
REMARK SMILES CCCCCCCCCCCCCCCC(=O)[O-]
REMARK SMILES IDX 9 1 10 2 11 3 12 4 13 5 14 6 15 7 16 8 17 9 18 10 8 11 7 12
REMARK SMILES IDX 6 13 5 14 4 15 3 16 2 17 1 18
REMARK H PARENT
REMARK Flexibility Score: inf
ROOT
ATOM      1  C   UNL     1     -37.496  25.922 -21.080  1.00  0.00     0.000 C 
ENDROOT
BRANCH   1   2
ATOM      2  C   UNL     1     -38.107  26.991 -22.005  1.00  0.00     0.000 C 
BRANCH   2   3
ATOM      3  C   UNL     1     -37.776  28.426 -21.564  1.00  0.00     0.000 C 
BRANCH   3   4
ATOM      4  C   UNL     1     -38.871  29.431 -21.959  1.00  0.00     0.000 C 
BRANCH   4   5
ATOM      5  C   UNL     1     -40.219  29.141 -21.273  1.00  0.00     0.000 C 
BRANCH   5   6
ATOM      6  C   UNL     1     -41.413  29.748 -22.030  1.00  0.00     0.006 C 
BRANCH   6   7
ATOM      7  C   UNL     1     -41.803  31.161 -21.565  1.00  0.00     0.053 C 
BRANCH   7   8
ATOM      8  C   UNL     1     -43.286  31.365 -21.580  1.00  0.00     0.041 C 
ATOM      9  O   UNL     1     -43.955  31.236 -20.520  1.00  0.00    -0.550 OA
ATOM     10  O   UNL     1     -43.935  31.665 -22.771  1.00  0.00    -0.550 OA
ENDBRANCH   7   8
ENDBRANCH   6   7
ENDBRANCH   5   6
ENDBRANCH   4   5
ENDBRANCH   3   4
ENDBRANCH   2   3
ENDBRANCH   1   2
BRANCH   1  11
ATOM     11  C   UNL     1     -38.330  24.637 -20.920  1.00  0.00     0.000 C 
BRANCH  11  12
ATOM     12  C   UNL     1     -37.548  23.494 -20.249  1.00  0.00    -0.000 C 
BRANCH  12  13
ATOM     13  C   UNL     1     -38.159  23.077 -18.900  1.00  0.00    -0.000 C 
BRANCH  13  14
ATOM     14  C   UNL     1     -38.684  21.630 -18.916  1.00  0.00    -0.000 C 
BRANCH  14  15
ATOM     15  C   UNL     1     -40.185  21.538 -18.589  1.00  0.00    -0.000 C 
BRANCH  15  16
ATOM     16  C   UNL     1     -40.882  22.888 -18.319  1.00  0.00    -0.000 C 
BRANCH  16  17
ATOM     17  C   UNL     1     -42.084  22.818 -17.360  1.00  0.00    -0.003 C 
ATOM     18  C   UNL     1     -42.015  23.856 -16.241  1.00  0.00     0.004 C 
ENDBRANCH  16  17
ENDBRANCH  15  16
ENDBRANCH  14  15
ENDBRANCH  13  14
ENDBRANCH  12  13
ENDBRANCH  11  12
ENDBRANCH   1  11
TORSDOF 14
ENDMDL
MODEL 5
REMARK VINA RESULT:    20.339      3.728      8.095
REMARK INTER + INTRA:          36.351
REMARK INTER:                  37.219
REMARK INTRA:                  -0.868
REMARK UNBOUND:                -0.634
REMARK SMILES CCCCCCCCCCCCCCCC(=O)[O-]
REMARK SMILES IDX 9 1 10 2 11 3 12 4 13 5 14 6 15 7 16 8 17 9 18 10 8 11 7 12
REMARK SMILES IDX 6 13 5 14 4 15 3 16 2 17 1 18
REMARK H PARENT
REMARK Flexibility Score: inf
ROOT
ATOM      1  C   UNL     1     -37.099  28.643 -20.830  1.00  0.00     0.000 C 
ENDROOT
BRANCH   1   2
ATOM      2  C   UNL     1     -36.928  27.133 -21.079  1.00  0.00     0.000 C 
BRANCH   2   3
ATOM      3  C   UNL     1     -38.016  26.549 -21.994  1.00  0.00     0.000 C 
BRANCH   3   4
ATOM      4  C   UNL     1     -38.477  25.152 -21.546  1.00  0.00     0.000 C 
BRANCH   4   5
ATOM      5  C   UNL     1     -37.565  24.546 -20.464  1.00  0.00     0.000 C 
BRANCH   5   6
ATOM      6  C   UNL     1     -38.035  23.155 -20.002  1.00  0.00     0.006 C 
BRANCH   6   7
ATOM      7  C   UNL     1     -38.803  23.159 -18.670  1.00  0.00     0.053 C 
BRANCH   7   8
ATOM      8  C   UNL     1     -39.792  22.038 -18.590  1.00  0.00     0.041 C 
ATOM      9  O   UNL     1     -39.463  20.875 -18.945  1.00  0.00    -0.550 OA
ATOM     10  O   UNL     1     -41.089  22.284 -18.158  1.00  0.00    -0.550 OA
ENDBRANCH   7   8
ENDBRANCH   6   7
ENDBRANCH   5   6
ENDBRANCH   4   5
ENDBRANCH   3   4
ENDBRANCH   2   3
ENDBRANCH   1   2
BRANCH   1  11
ATOM     11  C   UNL     1     -38.344  29.278 -21.478  1.00  0.00     0.000 C 
BRANCH  11  12
ATOM     12  C   UNL     1     -39.181  30.103 -20.485  1.00  0.00    -0.000 C 
BRANCH  12  13
ATOM     13  C   UNL     1     -40.691  29.862 -20.646  1.00  0.00    -0.000 C 
BRANCH  13  14
ATOM     14  C   UNL     1     -41.068  29.432 -22.074  1.00  0.00    -0.000 C 
BRANCH  14  15
ATOM     15  C   UNL     1     -41.570  30.604 -22.937  1.00  0.00    -0.000 C 
BRANCH  15  16
ATOM     16  C   UNL     1     -43.099  30.672 -23.126  1.00  0.00    -0.000 C 
BRANCH  16  17
ATOM     17  C   UNL     1     -43.813  31.738 -22.276  1.00  0.00    -0.003 C 
ATOM     18  C   UNL     1     -43.765  31.436 -20.779  1.00  0.00     0.004 C 
ENDBRANCH  16  17
ENDBRANCH  15  16
ENDBRANCH  14  15
ENDBRANCH  13  14
ENDBRANCH  12  13
ENDBRANCH  11  12
ENDBRANCH   1  11
TORSDOF 14
ENDMDL
MODEL 6
REMARK VINA RESULT:    20.368      3.359      7.890
REMARK INTER + INTRA:          36.405
REMARK INTER:                  37.248
REMARK INTRA:                  -0.843
REMARK UNBOUND:                -0.634
REMARK SMILES CCCCCCCCCCCCCCCC(=O)[O-]
REMARK SMILES IDX 9 1 10 2 11 3 12 4 13 5 14 6 15 7 16 8 17 9 18 10 8 11 7 12
REMARK SMILES IDX 6 13 5 14 4 15 3 16 2 17 1 18
REMARK H PARENT
REMARK Flexibility Score: inf
ROOT
ATOM      1  C   UNL     1     -37.272  27.319 -21.552  1.00  0.00     0.000 C 
ENDROOT
BRANCH   1   2
ATOM      2  C   UNL     1     -37.947  25.940 -21.679  1.00  0.00     0.000 C 
BRANCH   2   3
ATOM      3  C   UNL     1     -37.403  24.912 -20.673  1.00  0.00     0.000 C 
BRANCH   3   4
ATOM      4  C   UNL     1     -38.480  23.917 -20.208  1.00  0.00     0.000 C 
BRANCH   4   5
ATOM      5  C   UNL     1     -37.898  22.756 -19.381  1.00  0.00     0.000 C 
BRANCH   5   6
ATOM      6  C   UNL     1     -38.836  22.308 -18.246  1.00  0.00     0.006 C 
BRANCH   6   7
ATOM      7  C   UNL     1     -40.311  22.177 -18.661  1.00  0.00     0.053 C 
BRANCH   7   8
ATOM      8  C   UNL     1     -41.225  22.891 -17.714  1.00  0.00     0.041 C 
ATOM      9  O   UNL     1     -42.436  22.557 -17.629  1.00  0.00    -0.550 OA
ATOM     10  O   UNL     1     -40.747  23.949 -16.951  1.00  0.00    -0.550 OA
ENDBRANCH   7   8
ENDBRANCH   6   7
ENDBRANCH   5   6
ENDBRANCH   4   5
ENDBRANCH   3   4
ENDBRANCH   2   3
ENDBRANCH   1   2
BRANCH   1  11
ATOM     11  C   UNL     1     -38.123  28.512 -22.027  1.00  0.00     0.000 C 
BRANCH  11  12
ATOM     12  C   UNL     1     -38.396  29.536 -20.911  1.00  0.00    -0.000 C 
BRANCH  12  13
ATOM     13  C   UNL     1     -39.841  30.061 -20.935  1.00  0.00    -0.000 C 
BRANCH  13  14
ATOM     14  C   UNL     1     -40.814  29.072 -21.601  1.00  0.00    -0.000 C 
BRANCH  14  15
ATOM     15  C   UNL     1     -41.441  29.630 -22.891  1.00  0.00    -0.000 C 
BRANCH  15  16
ATOM     16  C   UNL     1     -42.019  31.056 -22.777  1.00  0.00    -0.000 C 
BRANCH  16  17
ATOM     17  C   UNL     1     -43.514  31.125 -22.419  1.00  0.00    -0.003 C 
ATOM     18  C   UNL     1     -43.762  31.555 -20.975  1.00  0.00     0.004 C 
ENDBRANCH  16  17
ENDBRANCH  15  16
ENDBRANCH  14  15
ENDBRANCH  13  14
ENDBRANCH  12  13
ENDBRANCH  11  12
ENDBRANCH   1  11
TORSDOF 14
ENDMDL
MODEL 7
REMARK VINA RESULT:    20.861      3.332      7.785
REMARK INTER + INTRA:          37.300
REMARK INTER:                  38.165
REMARK INTRA:                  -0.865
REMARK UNBOUND:                -0.634
REMARK SMILES CCCCCCCCCCCCCCCC(=O)[O-]
REMARK SMILES IDX 9 1 10 2 11 3 12 4 13 5 14 6 15 7 16 8 17 9 18 10 8 11 7 12
REMARK SMILES IDX 6 13 5 14 4 15 3 16 2 17 1 18
REMARK H PARENT
REMARK Flexibility Score: inf
ROOT
ATOM      1  C   UNL     1     -37.511  25.938 -20.981  1.00  0.00     0.000 C 
ENDROOT
BRANCH   1   2
ATOM      2  C   UNL     1     -38.275  24.605 -20.884  1.00  0.00     0.000 C 
BRANCH   2   3
ATOM      3  C   UNL     1     -37.463  23.498 -20.193  1.00  0.00     0.000 C 
BRANCH   3   4
ATOM      4  C   UNL     1     -38.110  23.025 -18.880  1.00  0.00     0.000 C 
BRANCH   4   5
ATOM      5  C   UNL     1     -38.826  21.670 -19.025  1.00  0.00     0.000 C 
BRANCH   5   6
ATOM      6  C   UNL     1     -40.276  21.708 -18.509  1.00  0.00     0.006 C 
BRANCH   6   7
ATOM      7  C   UNL     1     -40.847  23.124 -18.334  1.00  0.00     0.053 C 
BRANCH   7   8
ATOM      8  C   UNL     1     -41.837  23.195 -17.213  1.00  0.00     0.041 C 
ATOM      9  O   UNL     1     -42.774  22.356 -17.141  1.00  0.00    -0.550 OA
ATOM     10  O   UNL     1     -41.746  24.208 -16.268  1.00  0.00    -0.550 OA
ENDBRANCH   7   8
ENDBRANCH   6   7
ENDBRANCH   5   6
ENDBRANCH   4   5
ENDBRANCH   3   4
ENDBRANCH   2   3
ENDBRANCH   1   2
BRANCH   1  11
ATOM     11  C   UNL     1     -37.973  26.880 -22.109  1.00  0.00     0.000 C 
BRANCH  11  12
ATOM     12  C   UNL     1     -39.372  26.530 -22.647  1.00  0.00    -0.000 C 
BRANCH  12  13
ATOM     13  C   UNL     1     -40.450  27.516 -22.167  1.00  0.00    -0.000 C 
BRANCH  13  14
ATOM     14  C   UNL     1     -39.860  28.876 -21.755  1.00  0.00    -0.000 C 
BRANCH  14  15
ATOM     15  C   UNL     1     -40.941  29.940 -21.493  1.00  0.00    -0.000 C 
BRANCH  15  16
ATOM     16  C   UNL     1     -41.879  30.229 -22.684  1.00  0.00    -0.000 C 
BRANCH  16  17
ATOM     17  C   UNL     1     -42.797  31.452 -22.507  1.00  0.00    -0.003 C 
ATOM     18  C   UNL     1     -43.670  31.365 -21.257  1.00  0.00     0.004 C 
ENDBRANCH  16  17
ENDBRANCH  15  16
ENDBRANCH  14  15
ENDBRANCH  13  14
ENDBRANCH  12  13
ENDBRANCH  11  12
ENDBRANCH   1  11
TORSDOF 14
ENDMDL
MODEL 8
REMARK VINA RESULT:    21.098     11.255     13.930
REMARK INTER + INTRA:          37.732
REMARK INTER:                  38.267
REMARK INTRA:                  -0.535
REMARK UNBOUND:                -0.634
REMARK SMILES CCCCCCCCCCCCCCCC(=O)[O-]
REMARK SMILES IDX 9 1 10 2 11 3 12 4 13 5 14 6 15 7 16 8 17 9 18 10 8 11 7 12
REMARK SMILES IDX 6 13 5 14 4 15 3 16 2 17 1 18
REMARK H PARENT
REMARK Flexibility Score: inf
ROOT
ATOM      1  C   UNL     1     -33.454  36.370 -24.703  1.00  0.00     0.000 C 
ENDROOT
BRANCH   1   2
ATOM      2  C   UNL     1     -32.987  37.162 -25.938  1.00  0.00     0.000 C 
BRANCH   2   3
ATOM      3  C   UNL     1     -32.802  38.662 -25.654  1.00  0.00     0.000 C 
BRANCH   3   4
ATOM      4  C   UNL     1     -31.411  39.172 -26.068  1.00  0.00     0.000 C 
BRANCH   4   5
ATOM      5  C   UNL     1     -31.278  40.701 -25.939  1.00  0.00     0.000 C 
BRANCH   5   6
ATOM      6  C   UNL     1     -29.999  41.124 -25.195  1.00  0.00     0.006 C 
BRANCH   6   7
ATOM      7  C   UNL     1     -28.727  40.396 -25.663  1.00  0.00     0.053 C 
BRANCH   7   8
ATOM      8  C   UNL     1     -27.790  40.122 -24.528  1.00  0.00     0.041 C 
ATOM      9  O   UNL     1     -27.095  39.072 -24.520  1.00  0.00    -0.550 OA
ATOM     10  O   UNL     1     -27.709  41.010 -23.463  1.00  0.00    -0.550 OA
ENDBRANCH   7   8
ENDBRANCH   6   7
ENDBRANCH   5   6
ENDBRANCH   4   5
ENDBRANCH   3   4
ENDBRANCH   2   3
ENDBRANCH   1   2
BRANCH   1  11
ATOM     11  C   UNL     1     -34.375  35.172 -25.000  1.00  0.00     0.000 C 
BRANCH  11  12
ATOM     12  C   UNL     1     -35.501  35.512 -25.992  1.00  0.00    -0.000 C 
BRANCH  12  13
ATOM     13  C   UNL     1     -36.532  34.379 -26.124  1.00  0.00    -0.000 C 
BRANCH  13  14
ATOM     14  C   UNL     1     -36.156  33.143 -25.286  1.00  0.00    -0.000 C 
BRANCH  14  15
ATOM     15  C   UNL     1     -36.737  31.838 -25.857  1.00  0.00    -0.000 C 
BRANCH  15  16
ATOM     16  C   UNL     1     -36.114  30.542 -25.298  1.00  0.00    -0.000 C 
BRANCH  16  17
ATOM     17  C   UNL     1     -36.628  30.119 -23.910  1.00  0.00    -0.003 C 
ATOM     18  C   UNL     1     -36.651  28.603 -23.720  1.00  0.00     0.004 C 
ENDBRANCH  16  17
ENDBRANCH  15  16
ENDBRANCH  14  15
ENDBRANCH  13  14
ENDBRANCH  12  13
ENDBRANCH  11  12
ENDBRANCH   1  11
TORSDOF 14
ENDMDL
MODEL 9
REMARK VINA RESULT:    21.122      5.327      8.917
REMARK INTER + INTRA:          37.775
REMARK INTER:                  38.445
REMARK INTRA:                  -0.669
REMARK UNBOUND:                -0.634
REMARK SMILES CCCCCCCCCCCCCCCC(=O)[O-]
REMARK SMILES IDX 9 1 10 2 11 3 12 4 13 5 14 6 15 7 16 8 17 9 18 10 8 11 7 12
REMARK SMILES IDX 6 13 5 14 4 15 3 16 2 17 1 18
REMARK H PARENT
REMARK Flexibility Score: inf
ROOT
ATOM      1  C   UNL     1     -40.487  30.343 -20.823  1.00  0.00     0.000 C 
ENDROOT
BRANCH   1   2
ATOM      2  C   UNL     1     -39.161  29.926 -20.159  1.00  0.00     0.000 C 
BRANCH   2   3
ATOM      3  C   UNL     1     -37.962  29.998 -21.118  1.00  0.00     0.000 C 
BRANCH   3   4
ATOM      4  C   UNL     1     -37.948  28.840 -22.132  1.00  0.00     0.000 C 
BRANCH   4   5
ATOM      5  C   UNL     1     -37.229  29.208 -23.442  1.00  0.00     0.000 C 
BRANCH   5   6
ATOM      6  C   UNL     1     -37.173  30.727 -23.683  1.00  0.00     0.006 C 
BRANCH   6   7
ATOM      7  C   UNL     1     -36.453  31.135 -24.978  1.00  0.00     0.053 C 
BRANCH   7   8
ATOM      8  C   UNL     1     -36.897  32.479 -25.467  1.00  0.00     0.041 C 
ATOM      9  O   UNL     1     -38.091  32.847 -25.313  1.00  0.00    -0.550 OA
ATOM     10  O   UNL     1     -35.999  33.311 -26.124  1.00  0.00    -0.550 OA
ENDBRANCH   7   8
ENDBRANCH   6   7
ENDBRANCH   5   6
ENDBRANCH   4   5
ENDBRANCH   3   4
ENDBRANCH   2   3
ENDBRANCH   1   2
BRANCH   1  11
ATOM     11  C   UNL     1     -40.919  29.481 -22.024  1.00  0.00     0.000 C 
BRANCH  11  12
ATOM     12  C   UNL     1     -42.104  30.084 -22.799  1.00  0.00    -0.000 C 
BRANCH  12  13
ATOM     13  C   UNL     1     -42.975  31.000 -21.922  1.00  0.00    -0.000 C 
BRANCH  13  14
ATOM     14  C   UNL     1     -43.307  32.333 -22.616  1.00  0.00    -0.000 C 
BRANCH  14  15
ATOM     15  C   UNL     1     -42.079  32.984 -23.275  1.00  0.00    -0.000 C 
BRANCH  15  16
ATOM     16  C   UNL     1     -42.379  34.225 -24.141  1.00  0.00    -0.000 C 
BRANCH  16  17
ATOM     17  C   UNL     1     -41.224  35.237 -24.249  1.00  0.00    -0.003 C 
ATOM     18  C   UNL     1     -40.966  35.695 -25.684  1.00  0.00     0.004 C 
ENDBRANCH  16  17
ENDBRANCH  15  16
ENDBRANCH  14  15
ENDBRANCH  13  14
ENDBRANCH  12  13
ENDBRANCH  11  12
ENDBRANCH   1  11
TORSDOF 14
ENDMDL
