MODEL 1
REMARK VINA RESULT:    -5.346      0.000      0.000
REMARK INTER + INTRA:          -9.751
REMARK INTER:                  -9.097
REMARK INTRA:                  -0.654
REMARK UNBOUND:                -0.654
REMARK SMILES CCCCCCCCCCCCCC(=O)[O-]
REMARK SMILES IDX 8 1 9 2 10 3 11 4 12 5 13 6 14 7 15 8 16 9 7 10 6 11 5 12
REMARK SMILES IDX 4 13 3 14 2 15 1 16
REMARK H PARENT
REMARK Flexibility Score: inf
ROOT
ATOM      1  C   UNL     1     -11.614  11.180   8.141  1.00  0.00     0.000 C 
ENDROOT
BRANCH   1   2
ATOM      2  C   UNL     1     -12.562  11.065   6.938  1.00  0.00     0.000 C 
BRANCH   2   3
ATOM      3  C   UNL     1     -11.827  10.759   5.620  1.00  0.00     0.000 C 
BRANCH   3   4
ATOM      4  C   UNL     1     -10.772  11.798   5.202  1.00  0.00     0.000 C 
BRANCH   4   5
ATOM      5  C   UNL     1     -10.699  12.003   3.679  1.00  0.00     0.006 C 
BRANCH   5   6
ATOM      6  C   UNL     1      -9.253  12.068   3.171  1.00  0.00     0.053 C 
BRANCH   6   7
ATOM      7  C   UNL     1      -8.853  13.464   2.805  1.00  0.00     0.041 C 
ATOM      8  O   UNL     1      -7.640  13.803   2.830  1.00  0.00    -0.550 OA
ATOM      9  O   UNL     1      -9.816  14.384   2.407  1.00  0.00    -0.550 OA
ENDBRANCH   6   7
ENDBRANCH   5   6
ENDBRANCH   4   5
ENDBRANCH   3   4
ENDBRANCH   2   3
ENDBRANCH   1   2
BRANCH   1  10
ATOM     10  C   UNL     1     -11.748  12.553   8.816  1.00  0.00     0.000 C 
BRANCH  10  11
ATOM     11  C   UNL     1     -10.457  13.006   9.521  1.00  0.00    -0.000 C 
BRANCH  11  12
ATOM     12  C   UNL     1      -9.635  14.068   8.766  1.00  0.00    -0.000 C 
BRANCH  12  13
ATOM     13  C   UNL     1      -8.802  14.960   9.702  1.00  0.00    -0.000 C 
BRANCH  13  14
ATOM     14  C   UNL     1      -7.709  14.176  10.445  1.00  0.00    -0.000 C 
BRANCH  14  15
ATOM     15  C   UNL     1      -7.304  14.836  11.772  1.00  0.00    -0.003 C 
ATOM     16  C   UNL     1      -7.976  16.196  11.935  1.00  0.00     0.004 C 
ENDBRANCH  14  15
ENDBRANCH  13  14
ENDBRANCH  12  13
ENDBRANCH  11  12
ENDBRANCH  10  11
ENDBRANCH   1  10
TORSDOF 12
ENDMDL
MODEL 2
REMARK VINA RESULT:    -5.315      1.319      2.707
REMARK INTER + INTRA:          -9.698
REMARK INTER:                  -8.878
REMARK INTRA:                  -0.821
REMARK UNBOUND:                -0.654
REMARK SMILES CCCCCCCCCCCCCC(=O)[O-]
REMARK SMILES IDX 8 1 9 2 10 3 11 4 12 5 13 6 14 7 15 8 16 9 7 10 6 11 5 12
REMARK SMILES IDX 4 13 3 14 2 15 1 16
REMARK H PARENT
REMARK Flexibility Score: inf
ROOT
ATOM      1  C   UNL     1     -11.589  10.758   5.181  1.00  0.00     0.000 C 
ENDROOT
BRANCH   1   2
ATOM      2  C   UNL     1     -10.807  11.769   4.327  1.00  0.00     0.000 C 
BRANCH   2   3
ATOM      3  C   UNL     1     -10.276  11.162   3.015  1.00  0.00     0.000 C 
BRANCH   3   4
ATOM      4  C   UNL     1      -8.824  11.533   2.663  1.00  0.00     0.000 C 
BRANCH   4   5
ATOM      5  C   UNL     1      -8.220  12.571   3.624  1.00  0.00     0.006 C 
BRANCH   5   6
ATOM      6  C   UNL     1      -7.623  13.772   2.879  1.00  0.00     0.053 C 
BRANCH   6   7
ATOM      7  C   UNL     1      -8.615  14.401   1.949  1.00  0.00     0.041 C 
ATOM      8  O   UNL     1      -9.682  14.894   2.401  1.00  0.00    -0.550 OA
ATOM      9  O   UNL     1      -8.348  14.470   0.587  1.00  0.00    -0.550 OA
ENDBRANCH   6   7
ENDBRANCH   5   6
ENDBRANCH   4   5
ENDBRANCH   3   4
ENDBRANCH   2   3
ENDBRANCH   1   2
BRANCH   1  10
ATOM     10  C   UNL     1     -12.124  11.419   6.460  1.00  0.00     0.000 C 
BRANCH  10  11
ATOM     11  C   UNL     1     -11.006  11.908   7.399  1.00  0.00    -0.000 C 
BRANCH  11  12
ATOM     12  C   UNL     1     -11.368  11.926   8.896  1.00  0.00    -0.000 C 
BRANCH  12  13
ATOM     13  C   UNL     1     -10.431  12.817   9.729  1.00  0.00    -0.000 C 
BRANCH  13  14
ATOM     14  C   UNL     1     -10.337  14.249   9.180  1.00  0.00    -0.000 C 
BRANCH  14  15
ATOM     15  C   UNL     1      -9.179  15.046   9.798  1.00  0.00    -0.003 C 
ATOM     16  C   UNL     1      -7.830  14.497   9.342  1.00  0.00     0.004 C 
ENDBRANCH  14  15
ENDBRANCH  13  14
ENDBRANCH  12  13
ENDBRANCH  11  12
ENDBRANCH  10  11
ENDBRANCH   1  10
TORSDOF 12
ENDMDL
MODEL 3
REMARK VINA RESULT:    -5.190      5.563      7.578
REMARK INTER + INTRA:          -9.484
REMARK INTER:                  -8.834
REMARK INTRA:                  -0.650
REMARK UNBOUND:                -0.654
REMARK SMILES CCCCCCCCCCCCCC(=O)[O-]
REMARK SMILES IDX 8 1 9 2 10 3 11 4 12 5 13 6 14 7 15 8 16 9 7 10 6 11 5 12
REMARK SMILES IDX 4 13 3 14 2 15 1 16
REMARK H PARENT
REMARK Flexibility Score: inf
ROOT
ATOM      1  C   UNL     1     -11.167  11.536   5.507  1.00  0.00     0.000 C 
ENDROOT
BRANCH   1   2
ATOM      2  C   UNL     1     -12.003  10.382   6.082  1.00  0.00     0.000 C 
BRANCH   2   3
ATOM      3  C   UNL     1     -12.062  10.390   7.620  1.00  0.00     0.000 C 
BRANCH   3   4
ATOM      4  C   UNL     1     -12.998   9.340   8.245  1.00  0.00     0.000 C 
BRANCH   4   5
ATOM      5  C   UNL     1     -13.559   8.346   7.214  1.00  0.00     0.006 C 
BRANCH   5   6
ATOM      6  C   UNL     1     -14.579   7.382   7.833  1.00  0.00     0.053 C 
BRANCH   6   7
ATOM      7  C   UNL     1     -14.069   5.974   7.866  1.00  0.00     0.041 C 
ATOM      8  O   UNL     1     -12.976   5.709   8.432  1.00  0.00    -0.550 OA
ATOM      9  O   UNL     1     -14.814   4.949   7.296  1.00  0.00    -0.550 OA
ENDBRANCH   6   7
ENDBRANCH   5   6
ENDBRANCH   4   5
ENDBRANCH   3   4
ENDBRANCH   2   3
ENDBRANCH   1   2
BRANCH   1  10
ATOM     10  C   UNL     1     -10.740  11.239   4.063  1.00  0.00     0.000 C 
BRANCH  10  11
ATOM     11  C   UNL     1     -10.138  12.463   3.348  1.00  0.00    -0.000 C 
BRANCH  11  12
ATOM     12  C   UNL     1      -9.190  13.322   4.205  1.00  0.00    -0.000 C 
BRANCH  12  13
ATOM     13  C   UNL     1      -7.704  13.027   3.936  1.00  0.00    -0.000 C 
BRANCH  13  14
ATOM     14  C   UNL     1      -7.467  12.424   2.542  1.00  0.00    -0.000 C 
BRANCH  14  15
ATOM     15  C   UNL     1      -6.544  13.289   1.672  1.00  0.00    -0.003 C 
ATOM     16  C   UNL     1      -7.142  14.674   1.445  1.00  0.00     0.004 C 
ENDBRANCH  14  15
ENDBRANCH  13  14
ENDBRANCH  12  13
ENDBRANCH  11  12
ENDBRANCH  10  11
ENDBRANCH   1  10
TORSDOF 12
ENDMDL
MODEL 4
REMARK VINA RESULT:    -5.177      2.684      6.294
REMARK INTER + INTRA:          -9.463
REMARK INTER:                  -8.794
REMARK INTRA:                  -0.670
REMARK UNBOUND:                -0.654
REMARK SMILES CCCCCCCCCCCCCC(=O)[O-]
REMARK SMILES IDX 8 1 9 2 10 3 11 4 12 5 13 6 14 7 15 8 16 9 7 10 6 11 5 12
REMARK SMILES IDX 4 13 3 14 2 15 1 16
REMARK H PARENT
REMARK Flexibility Score: inf
ROOT
ATOM      1  C   UNL     1     -12.423  10.908   6.041  1.00  0.00     0.000 C 
ENDROOT
BRANCH   1   2
ATOM      2  C   UNL     1     -12.778  11.203   7.506  1.00  0.00     0.000 C 
BRANCH   2   3
ATOM      3  C   UNL     1     -11.542  11.500   8.376  1.00  0.00     0.000 C 
BRANCH   3   4
ATOM      4  C   UNL     1     -11.481  12.921   8.963  1.00  0.00     0.000 C 
BRANCH   4   5
ATOM      5  C   UNL     1     -10.130  13.238   9.628  1.00  0.00     0.006 C 
BRANCH   5   6
ATOM      6  C   UNL     1      -9.848  14.746   9.678  1.00  0.00     0.053 C 
BRANCH   6   7
ATOM      7  C   UNL     1      -8.380  15.038   9.717  1.00  0.00     0.041 C 
ATOM      8  O   UNL     1      -7.906  15.786  10.612  1.00  0.00    -0.550 OA
ATOM      9  O   UNL     1      -7.529  14.460   8.783  1.00  0.00    -0.550 OA
ENDBRANCH   6   7
ENDBRANCH   5   6
ENDBRANCH   4   5
ENDBRANCH   3   4
ENDBRANCH   2   3
ENDBRANCH   1   2
BRANCH   1  10
ATOM     10  C   UNL     1     -11.062  11.515   5.673  1.00  0.00     0.000 C 
BRANCH  10  11
ATOM     11  C   UNL     1     -10.650  11.230   4.216  1.00  0.00    -0.000 C 
BRANCH  11  12
ATOM     12  C   UNL     1     -10.923  12.374   3.222  1.00  0.00    -0.000 C 
BRANCH  12  13
ATOM     13  C   UNL     1      -9.645  13.114   2.792  1.00  0.00    -0.000 C 
BRANCH  13  14
ATOM     14  C   UNL     1      -8.593  13.173   3.912  1.00  0.00    -0.000 C 
BRANCH  14  15
ATOM     15  C   UNL     1      -7.210  12.688   3.452  1.00  0.00    -0.003 C 
ATOM     16  C   UNL     1      -7.302  11.314   2.792  1.00  0.00     0.004 C 
ENDBRANCH  14  15
ENDBRANCH  13  14
ENDBRANCH  12  13
ENDBRANCH  11  12
ENDBRANCH  10  11
ENDBRANCH   1  10
TORSDOF 12
ENDMDL
MODEL 5
REMARK VINA RESULT:    -5.159      4.874      7.249
REMARK INTER + INTRA:          -9.432
REMARK INTER:                  -8.299
REMARK INTRA:                  -1.133
REMARK UNBOUND:                -0.654
REMARK SMILES CCCCCCCCCCCCCC(=O)[O-]
REMARK SMILES IDX 8 1 9 2 10 3 11 4 12 5 13 6 14 7 15 8 16 9 7 10 6 11 5 12
REMARK SMILES IDX 4 13 3 14 2 15 1 16
REMARK H PARENT
REMARK Flexibility Score: inf
ROOT
ATOM      1  C   UNL     1      -9.201  13.050   3.891  1.00  0.00     0.000 C 
ENDROOT
BRANCH   1   2
ATOM      2  C   UNL     1      -9.823  11.684   3.562  1.00  0.00     0.000 C 
BRANCH   2   3
ATOM      3  C   UNL     1     -11.012  11.330   4.473  1.00  0.00     0.000 C 
BRANCH   3   4
ATOM      4  C   UNL     1     -10.894  11.825   5.926  1.00  0.00     0.000 C 
BRANCH   4   5
ATOM      5  C   UNL     1     -11.733  10.995   6.913  1.00  0.00     0.006 C 
BRANCH   5   6
ATOM      6  C   UNL     1     -12.532   9.890   6.209  1.00  0.00     0.053 C 
BRANCH   6   7
ATOM      7  C   UNL     1     -13.077   8.890   7.182  1.00  0.00     0.041 C 
ATOM      8  O   UNL     1     -12.838   9.008   8.413  1.00  0.00    -0.550 OA
ATOM      9  O   UNL     1     -13.872   7.843   6.734  1.00  0.00    -0.550 OA
ENDBRANCH   6   7
ENDBRANCH   5   6
ENDBRANCH   4   5
ENDBRANCH   3   4
ENDBRANCH   2   3
ENDBRANCH   1   2
BRANCH   1  10
ATOM     10  C   UNL     1      -9.757  14.143   2.967  1.00  0.00     0.000 C 
BRANCH  10  11
ATOM     11  C   UNL     1      -8.892  14.370   1.713  1.00  0.00    -0.000 C 
BRANCH  11  12
ATOM     12  C   UNL     1      -7.434  14.783   1.989  1.00  0.00    -0.000 C 
BRANCH  12  13
ATOM     13  C   UNL     1      -6.431  14.118   1.031  1.00  0.00    -0.000 C 
BRANCH  13  14
ATOM     14  C   UNL     1      -6.389  12.589   1.189  1.00  0.00    -0.000 C 
BRANCH  14  15
ATOM     15  C   UNL     1      -5.762  12.148   2.519  1.00  0.00    -0.003 C 
ATOM     16  C   UNL     1      -6.291  10.782   2.949  1.00  0.00     0.004 C 
ENDBRANCH  14  15
ENDBRANCH  13  14
ENDBRANCH  12  13
ENDBRANCH  11  12
ENDBRANCH  10  11
ENDBRANCH   1  10
TORSDOF 12
ENDMDL
MODEL 6
REMARK VINA RESULT:    -5.135      4.643      5.822
REMARK INTER + INTRA:          -9.392
REMARK INTER:                  -8.855
REMARK INTRA:                  -0.537
REMARK UNBOUND:                -0.654
REMARK SMILES CCCCCCCCCCCCCC(=O)[O-]
REMARK SMILES IDX 8 1 9 2 10 3 11 4 12 5 13 6 14 7 15 8 16 9 7 10 6 11 5 12
REMARK SMILES IDX 4 13 3 14 2 15 1 16
REMARK H PARENT
REMARK Flexibility Score: inf
ROOT
ATOM      1  C   UNL     1     -11.264  11.489   8.228  1.00  0.00     0.000 C 
ENDROOT
BRANCH   1   2
ATOM      2  C   UNL     1     -11.867  11.478   6.815  1.00  0.00     0.000 C 
BRANCH   2   3
ATOM      3  C   UNL     1     -12.332  10.080   6.371  1.00  0.00     0.000 C 
BRANCH   3   4
ATOM      4  C   UNL     1     -13.110   9.281   7.432  1.00  0.00     0.000 C 
BRANCH   4   5
ATOM      5  C   UNL     1     -13.660   7.948   6.896  1.00  0.00     0.006 C 
BRANCH   5   6
ATOM      6  C   UNL     1     -13.624   6.838   7.955  1.00  0.00     0.053 C 
BRANCH   6   7
ATOM      7  C   UNL     1     -14.945   6.680   8.644  1.00  0.00     0.041 C 
ATOM      8  O   UNL     1     -15.389   7.600   9.379  1.00  0.00    -0.550 OA
ATOM      9  O   UNL     1     -15.700   5.530   8.450  1.00  0.00    -0.550 OA
ENDBRANCH   6   7
ENDBRANCH   5   6
ENDBRANCH   4   5
ENDBRANCH   3   4
ENDBRANCH   2   3
ENDBRANCH   1   2
BRANCH   1  10
ATOM     10  C   UNL     1     -11.407  12.874   8.876  1.00  0.00     0.000 C 
BRANCH  10  11
ATOM     11  C   UNL     1     -10.130  13.334   9.602  1.00  0.00    -0.000 C 
BRANCH  11  12
ATOM     12  C   UNL     1      -9.351  14.465   8.905  1.00  0.00    -0.000 C 
BRANCH  12  13
ATOM     13  C   UNL     1      -7.945  14.676   9.493  1.00  0.00    -0.000 C 
BRANCH  13  14
ATOM     14  C   UNL     1      -7.873  15.898  10.424  1.00  0.00    -0.000 C 
BRANCH  14  15
ATOM     15  C   UNL     1      -7.709  15.509  11.901  1.00  0.00    -0.003 C 
ATOM     16  C   UNL     1      -7.092  14.119  12.037  1.00  0.00     0.004 C 
ENDBRANCH  14  15
ENDBRANCH  13  14
ENDBRANCH  12  13
ENDBRANCH  11  12
ENDBRANCH  10  11
ENDBRANCH   1  10
TORSDOF 12
ENDMDL
MODEL 7
REMARK VINA RESULT:    -5.135      5.561      8.067
REMARK INTER + INTRA:          -9.391
REMARK INTER:                  -8.750
REMARK INTRA:                  -0.641
REMARK UNBOUND:                -0.654
REMARK SMILES CCCCCCCCCCCCCC(=O)[O-]
REMARK SMILES IDX 8 1 9 2 10 3 11 4 12 5 13 6 14 7 15 8 16 9 7 10 6 11 5 12
REMARK SMILES IDX 4 13 3 14 2 15 1 16
REMARK H PARENT
REMARK Flexibility Score: inf
ROOT
ATOM      1  C   UNL     1      -5.653  11.667   2.940  1.00  0.00     0.000 C 
ENDROOT
BRANCH   1   2
ATOM      2  C   UNL     1      -5.635  10.164   3.259  1.00  0.00     0.000 C 
BRANCH   2   3
ATOM      3  C   UNL     1      -4.664   9.804   4.399  1.00  0.00     0.000 C 
BRANCH   3   4
ATOM      4  C   UNL     1      -5.036   8.545   5.202  1.00  0.00     0.000 C 
BRANCH   4   5
ATOM      5  C   UNL     1      -4.326   8.470   6.564  1.00  0.00     0.006 C 
BRANCH   5   6
ATOM      6  C   UNL     1      -5.217   7.854   7.651  1.00  0.00     0.053 C 
BRANCH   6   7
ATOM      7  C   UNL     1      -5.074   6.364   7.712  1.00  0.00     0.041 C 
ATOM      8  O   UNL     1      -6.066   5.644   8.001  1.00  0.00    -0.550 OA
ATOM      9  O   UNL     1      -3.853   5.769   7.421  1.00  0.00    -0.550 OA
ENDBRANCH   6   7
ENDBRANCH   5   6
ENDBRANCH   4   5
ENDBRANCH   3   4
ENDBRANCH   2   3
ENDBRANCH   1   2
BRANCH   1  10
ATOM     10  C   UNL     1      -7.090  12.168   2.734  1.00  0.00     0.000 C 
BRANCH  10  11
ATOM     11  C   UNL     1      -7.628  12.965   3.937  1.00  0.00    -0.000 C 
BRANCH  11  12
ATOM     12  C   UNL     1      -9.159  13.122   3.988  1.00  0.00    -0.000 C 
BRANCH  12  13
ATOM     13  C   UNL     1      -9.895  12.133   3.068  1.00  0.00    -0.000 C 
BRANCH  13  14
ATOM     14  C   UNL     1     -10.873  11.230   3.836  1.00  0.00    -0.000 C 
BRANCH  14  15
ATOM     15  C   UNL     1     -10.975  11.597   5.324  1.00  0.00    -0.003 C 
ATOM     16  C   UNL     1     -11.932  10.660   6.056  1.00  0.00     0.004 C 
ENDBRANCH  14  15
ENDBRANCH  13  14
ENDBRANCH  12  13
ENDBRANCH  11  12
ENDBRANCH  10  11
ENDBRANCH   1  10
TORSDOF 12
ENDMDL
MODEL 8
REMARK VINA RESULT:    -5.128      3.081      6.547
REMARK INTER + INTRA:          -9.379
REMARK INTER:                  -8.526
REMARK INTRA:                  -0.853
REMARK UNBOUND:                -0.654
REMARK SMILES CCCCCCCCCCCCCC(=O)[O-]
REMARK SMILES IDX 8 1 9 2 10 3 11 4 12 5 13 6 14 7 15 8 16 9 7 10 6 11 5 12
REMARK SMILES IDX 4 13 3 14 2 15 1 16
REMARK H PARENT
REMARK Flexibility Score: inf
ROOT
ATOM      1  C   UNL     1     -10.822  11.609   5.199  1.00  0.00     0.000 C 
ENDROOT
BRANCH   1   2
ATOM      2  C   UNL     1     -11.973  10.750   5.745  1.00  0.00     0.000 C 
BRANCH   2   3
ATOM      3  C   UNL     1     -11.986  10.668   7.282  1.00  0.00     0.000 C 
BRANCH   3   4
ATOM      4  C   UNL     1     -13.016  11.577   7.977  1.00  0.00     0.000 C 
BRANCH   4   5
ATOM      5  C   UNL     1     -12.365  12.662   8.852  1.00  0.00     0.006 C 
BRANCH   5   6
ATOM      6  C   UNL     1     -10.834  12.651   8.747  1.00  0.00     0.053 C 
BRANCH   6   7
ATOM      7  C   UNL     1     -10.210  13.734   9.574  1.00  0.00     0.041 C 
ATOM      8  O   UNL     1     -10.470  14.942   9.335  1.00  0.00    -0.550 OA
ATOM      9  O   UNL     1      -9.365  13.407  10.627  1.00  0.00    -0.550 OA
ENDBRANCH   6   7
ENDBRANCH   5   6
ENDBRANCH   4   5
ENDBRANCH   3   4
ENDBRANCH   2   3
ENDBRANCH   1   2
BRANCH   1  10
ATOM     10  C   UNL     1     -10.932  11.772   3.676  1.00  0.00     0.000 C 
BRANCH  10  11
ATOM     11  C   UNL     1      -9.781  11.090   2.913  1.00  0.00    -0.000 C 
BRANCH  11  12
ATOM     12  C   UNL     1      -8.845  12.045   2.149  1.00  0.00    -0.000 C 
BRANCH  12  13
ATOM     13  C   UNL     1      -8.205  13.111   3.055  1.00  0.00    -0.000 C 
BRANCH  13  14
ATOM     14  C   UNL     1      -6.876  12.642   3.668  1.00  0.00    -0.000 C 
BRANCH  14  15
ATOM     15  C   UNL     1      -6.023  11.828   2.683  1.00  0.00    -0.003 C 
ATOM     16  C   UNL     1      -5.594  10.498   3.297  1.00  0.00     0.004 C 
ENDBRANCH  14  15
ENDBRANCH  13  14
ENDBRANCH  12  13
ENDBRANCH  11  12
ENDBRANCH  10  11
ENDBRANCH   1  10
TORSDOF 12
ENDMDL
MODEL 9
REMARK VINA RESULT:    -5.091      2.524      4.177
REMARK INTER + INTRA:          -9.316
REMARK INTER:                  -8.438
REMARK INTRA:                  -0.877
REMARK UNBOUND:                -0.654
REMARK SMILES CCCCCCCCCCCCCC(=O)[O-]
REMARK SMILES IDX 8 1 9 2 10 3 11 4 12 5 13 6 14 7 15 8 16 9 7 10 6 11 5 12
REMARK SMILES IDX 4 13 3 14 2 15 1 16
REMARK H PARENT
REMARK Flexibility Score: inf
ROOT
ATOM      1  C   UNL     1     -10.866  11.143   4.373  1.00  0.00     0.000 C 
ENDROOT
BRANCH   1   2
ATOM      2  C   UNL     1     -10.319  12.335   3.573  1.00  0.00     0.000 C 
BRANCH   2   3
ATOM      3  C   UNL     1      -9.291  13.167   4.363  1.00  0.00     0.000 C 
BRANCH   3   4
ATOM      4  C   UNL     1      -7.910  13.306   3.697  1.00  0.00     0.000 C 
BRANCH   4   5
ATOM      5  C   UNL     1      -7.472  12.032   2.953  1.00  0.00     0.006 C 
BRANCH   5   6
ATOM      6  C   UNL     1      -6.073  11.565   3.379  1.00  0.00     0.053 C 
BRANCH   6   7
ATOM      7  C   UNL     1      -5.811  10.147   2.972  1.00  0.00     0.041 C 
ATOM      8  O   UNL     1      -6.068   9.767   1.799  1.00  0.00    -0.550 OA
ATOM      9  O   UNL     1      -5.255   9.253   3.878  1.00  0.00    -0.550 OA
ENDBRANCH   6   7
ENDBRANCH   5   6
ENDBRANCH   4   5
ENDBRANCH   3   4
ENDBRANCH   2   3
ENDBRANCH   1   2
BRANCH   1  10
ATOM     10  C   UNL     1     -11.090  11.525   5.843  1.00  0.00     0.000 C 
BRANCH  10  11
ATOM     11  C   UNL     1     -11.963  10.509   6.603  1.00  0.00    -0.000 C 
BRANCH  11  12
ATOM     12  C   UNL     1     -12.210  10.836   8.087  1.00  0.00    -0.000 C 
BRANCH  12  13
ATOM     13  C   UNL     1     -11.840  12.284   8.452  1.00  0.00    -0.000 C 
BRANCH  13  14
ATOM     14  C   UNL     1     -10.702  12.360   9.483  1.00  0.00    -0.000 C 
BRANCH  14  15
ATOM     15  C   UNL     1     -10.084  13.763   9.582  1.00  0.00    -0.003 C 
ATOM     16  C   UNL     1      -9.373  14.141   8.286  1.00  0.00     0.004 C 
ENDBRANCH  14  15
ENDBRANCH  13  14
ENDBRANCH  12  13
ENDBRANCH  11  12
ENDBRANCH  10  11
ENDBRANCH   1  10
TORSDOF 12
ENDMDL
