MODEL 1
REMARK VINA RESULT:    -8.153      0.000      0.000
REMARK INTER + INTRA:          -9.840
REMARK INTER:                  -9.821
REMARK INTRA:                  -0.019
REMARK UNBOUND:                -0.019
REMARK SMILES O=c1c(O)c(-c2ccc(O)c(O)c2)oc2cc(O)cc(O)c12
REMARK SMILES IDX 5 1 3 2 2 3 1 4 22 5 20 6 19 7 17 8 16 9 15 10 14 11 6 12
REMARK SMILES IDX 7 13 8 14 9 15 13 16 11 17 10 18 12 20 4 22 21 24 18 26
REMARK H PARENT 10 19 12 21 4 23 21 25 18 27
REMARK Flexibility Score: inf
ROOT
ATOM      1  C   UNL     1     -13.747 -30.567 -13.841  1.00  0.00     0.180 A 
ATOM      2  C   UNL     1     -13.985 -29.644 -14.877  1.00  0.00     0.208 A 
ATOM      3  C   UNL     1     -14.186 -28.294 -14.550  1.00  0.00     0.238 A 
ATOM      4  O   UNL     1     -14.390 -27.456 -15.470  1.00  0.00    -0.285 OA
ATOM      5  C   UNL     1     -14.167 -27.894 -13.198  1.00  0.00     0.111 A 
ATOM      6  C   UNL     1     -14.366 -26.555 -12.784  1.00  0.00     0.134 A 
ATOM      7  C   UNL     1     -14.341 -26.238 -11.417  1.00  0.00     0.093 A 
ATOM      8  C   UNL     1     -14.124 -27.231 -10.460  1.00  0.00     0.123 A 
ATOM      9  C   UNL     1     -13.928 -28.556 -10.863  1.00  0.00     0.094 A 
ATOM     10  C   UNL     1     -13.946 -28.891 -12.220  1.00  0.00     0.146 A 
ATOM     11  O   UNL     1     -13.751 -30.156 -12.576  1.00  0.00    -0.452 OA
ENDROOT
BRANCH   1  12
ATOM     12  C   UNL     1     -13.507 -32.004 -14.107  1.00  0.00     0.025 A 
ATOM     13  C   UNL     1     -14.391 -32.759 -14.893  1.00  0.00     0.016 A 
ATOM     14  C   UNL     1     -14.131 -34.107 -15.149  1.00  0.00     0.051 A 
ATOM     15  C   UNL     1     -12.983 -34.723 -14.641  1.00  0.00     0.157 A 
ATOM     16  C   UNL     1     -12.343 -32.613 -13.614  1.00  0.00     0.062 A 
ATOM     17  C   UNL     1     -12.074 -33.964 -13.865  1.00  0.00     0.158 A 
BRANCH  15  18
ATOM     18  O   UNL     1     -12.784 -36.074 -14.929  1.00  0.00    -0.504 OA
ATOM     19  H   UNL     1     -12.722 -36.798 -14.228  1.00  0.00     0.293 HD
ENDBRANCH  15  18
BRANCH  17  20
ATOM     20  O   UNL     1     -10.902 -34.506 -13.332  1.00  0.00    -0.504 OA
ATOM     21  H   UNL     1     -10.322 -34.039 -12.651  1.00  0.00     0.293 HD
ENDBRANCH  17  20
ENDBRANCH   1  12
BRANCH   2  22
ATOM     22  O   UNL     1     -14.048 -30.074 -16.205  1.00  0.00    -0.502 OA
ATOM     23  H   UNL     1     -14.047 -31.055 -16.459  1.00  0.00     0.293 HD
ENDBRANCH   2  22
BRANCH   6  24
ATOM     24  O   UNL     1     -14.586 -25.539 -13.715  1.00  0.00    -0.507 OA
ATOM     25  H   UNL     1     -14.036 -24.689 -13.718  1.00  0.00     0.293 HD
ENDBRANCH   6  24
BRANCH   8  26
ATOM     26  O   UNL     1     -14.106 -26.890  -9.109  1.00  0.00    -0.508 OA
ATOM     27  H   UNL     1     -13.526 -27.390  -8.445  1.00  0.00     0.293 HD
ENDBRANCH   8  26
TORSDOF 6
ENDMDL
MODEL 2
REMARK VINA RESULT:    -8.126      2.391      7.633
REMARK INTER + INTRA:          -9.808
REMARK INTER:                 -10.259
REMARK INTRA:                   0.451
REMARK UNBOUND:                -0.019
REMARK SMILES O=c1c(O)c(-c2ccc(O)c(O)c2)oc2cc(O)cc(O)c12
REMARK SMILES IDX 5 1 3 2 2 3 1 4 22 5 20 6 19 7 17 8 16 9 15 10 14 11 6 12
REMARK SMILES IDX 7 13 8 14 9 15 13 16 11 17 10 18 12 20 4 22 21 24 18 26
REMARK H PARENT 10 19 12 21 4 23 21 25 18 27
REMARK Flexibility Score: inf
ROOT
ATOM      1  C   UNL     1     -12.571 -28.585 -10.669  1.00  0.00     0.180 A 
ATOM      2  C   UNL     1     -11.409 -29.366 -10.520  1.00  0.00     0.208 A 
ATOM      3  C   UNL     1     -11.212 -30.460 -11.378  1.00  0.00     0.238 A 
ATOM      4  O   UNL     1     -10.169 -31.160 -11.261  1.00  0.00    -0.285 OA
ATOM      5  C   UNL     1     -12.183 -30.765 -12.353  1.00  0.00     0.111 A 
ATOM      6  C   UNL     1     -12.062 -31.851 -13.254  1.00  0.00     0.134 A 
ATOM      7  C   UNL     1     -13.077 -32.094 -14.191  1.00  0.00     0.093 A 
ATOM      8  C   UNL     1     -14.208 -31.277 -14.244  1.00  0.00     0.123 A 
ATOM      9  C   UNL     1     -14.333 -30.203 -13.357  1.00  0.00     0.094 A 
ATOM     10  C   UNL     1     -13.332 -29.942 -12.418  1.00  0.00     0.146 A 
ATOM     11  O   UNL     1     -13.473 -28.912 -11.591  1.00  0.00    -0.452 OA
ENDROOT
BRANCH   1  12
ATOM     12  C   UNL     1     -12.842 -27.406  -9.816  1.00  0.00     0.025 A 
ATOM     13  C   UNL     1     -11.897 -26.944  -8.887  1.00  0.00     0.016 A 
ATOM     14  C   UNL     1     -12.166 -25.816  -8.110  1.00  0.00     0.051 A 
ATOM     15  C   UNL     1     -13.371 -25.120  -8.252  1.00  0.00     0.157 A 
ATOM     16  C   UNL     1     -14.043 -26.698  -9.977  1.00  0.00     0.062 A 
ATOM     17  C   UNL     1     -14.321 -25.565  -9.202  1.00  0.00     0.158 A 
BRANCH  15  18
ATOM     18  O   UNL     1     -13.580 -24.003  -7.442  1.00  0.00    -0.504 OA
ATOM     19  H   UNL     1     -13.518 -24.017  -6.434  1.00  0.00     0.293 HD
ENDBRANCH  15  18
BRANCH  17  20
ATOM     20  O   UNL     1     -15.541 -24.918  -9.407  1.00  0.00    -0.504 OA
ATOM     21  H   UNL     1     -16.177 -25.134 -10.161  1.00  0.00     0.293 HD
ENDBRANCH  17  20
ENDBRANCH   1  12
BRANCH   2  22
ATOM     22  O   UNL     1     -10.486 -29.073  -9.513  1.00  0.00    -0.502 OA
ATOM     23  H   UNL     1     -10.716 -28.486  -8.720  1.00  0.00     0.293 HD
ENDBRANCH   2  22
BRANCH   6  24
ATOM     24  O   UNL     1     -10.945 -32.687 -13.225  1.00  0.00    -0.507 OA
ATOM     25  H   UNL     1     -10.761 -33.356 -13.963  1.00  0.00     0.293 HD
ENDBRANCH   6  24
BRANCH   8  26
ATOM     26  O   UNL     1     -15.203 -31.542 -15.183  1.00  0.00    -0.508 OA
ATOM     27  H   UNL     1     -15.802 -32.356 -15.105  1.00  0.00     0.293 HD
ENDBRANCH   8  26
TORSDOF 6
ENDMDL
MODEL 3
REMARK VINA RESULT:    -7.905      1.991      6.785
REMARK INTER + INTRA:          -9.541
REMARK INTER:                  -9.650
REMARK INTRA:                   0.108
REMARK UNBOUND:                -0.019
REMARK SMILES O=c1c(O)c(-c2ccc(O)c(O)c2)oc2cc(O)cc(O)c12
REMARK SMILES IDX 5 1 3 2 2 3 1 4 22 5 20 6 19 7 17 8 16 9 15 10 14 11 6 12
REMARK SMILES IDX 7 13 8 14 9 15 13 16 11 17 10 18 12 20 4 22 21 24 18 26
REMARK H PARENT 10 19 12 21 4 23 21 25 18 27
REMARK Flexibility Score: inf
ROOT
ATOM      1  C   UNL     1     -12.915 -29.163 -12.028  1.00  0.00     0.180 A 
ATOM      2  C   UNL     1     -14.072 -28.839 -12.761  1.00  0.00     0.208 A 
ATOM      3  C   UNL     1     -14.592 -29.783 -13.661  1.00  0.00     0.238 A 
ATOM      4  O   UNL     1     -15.634 -29.507 -14.316  1.00  0.00    -0.285 OA
ATOM      5  C   UNL     1     -13.940 -31.021 -13.826  1.00  0.00     0.111 A 
ATOM      6  C   UNL     1     -14.396 -32.025 -14.714  1.00  0.00     0.134 A 
ATOM      7  C   UNL     1     -13.686 -33.229 -14.828  1.00  0.00     0.093 A 
ATOM      8  C   UNL     1     -12.530 -33.448 -14.076  1.00  0.00     0.123 A 
ATOM      9  C   UNL     1     -12.074 -32.461 -13.197  1.00  0.00     0.094 A 
ATOM     10  C   UNL     1     -12.769 -31.255 -13.067  1.00  0.00     0.146 A 
ATOM     11  O   UNL     1     -12.318 -30.336 -12.220  1.00  0.00    -0.452 OA
ENDROOT
BRANCH   1  12
ATOM     12  C   UNL     1     -12.317 -28.229 -11.047  1.00  0.00     0.025 A 
ATOM     13  C   UNL     1     -10.936 -27.978 -11.025  1.00  0.00     0.016 A 
ATOM     14  C   UNL     1     -10.398 -27.075 -10.106  1.00  0.00     0.051 A 
ATOM     15  C   UNL     1     -11.224 -26.396  -9.204  1.00  0.00     0.157 A 
ATOM     16  C   UNL     1     -13.150 -27.533 -10.158  1.00  0.00     0.062 A 
ATOM     17  C   UNL     1     -12.620 -26.625  -9.233  1.00  0.00     0.158 A 
BRANCH  15  18
ATOM     18  O   UNL     1     -10.623 -25.510  -8.308  1.00  0.00    -0.504 OA
ATOM     19  H   UNL     1     -11.135 -24.902  -7.685  1.00  0.00     0.293 HD
ENDBRANCH  15  18
BRANCH  17  20
ATOM     20  O   UNL     1     -13.508 -25.979  -8.371  1.00  0.00    -0.504 OA
ATOM     21  H   UNL     1     -13.263 -25.653  -7.447  1.00  0.00     0.293 HD
ENDBRANCH  17  20
ENDBRANCH   1  12
BRANCH   2  22
ATOM     22  O   UNL     1     -14.672 -27.585 -12.616  1.00  0.00    -0.502 OA
ATOM     23  H   UNL     1     -15.636 -27.475 -12.326  1.00  0.00     0.293 HD
ENDBRANCH   2  22
BRANCH   6  24
ATOM     24  O   UNL     1     -15.547 -31.837 -15.481  1.00  0.00    -0.507 OA
ATOM     25  H   UNL     1     -15.504 -31.476 -16.427  1.00  0.00     0.293 HD
ENDBRANCH   6  24
BRANCH   8  26
ATOM     26  O   UNL     1     -11.842 -34.652 -14.210  1.00  0.00    -0.508 OA
ATOM     27  H   UNL     1     -11.002 -34.844 -13.675  1.00  0.00     0.293 HD
ENDBRANCH   8  26
TORSDOF 6
ENDMDL
MODEL 4
REMARK VINA RESULT:    -7.640      2.694      4.479
REMARK INTER + INTRA:          -9.222
REMARK INTER:                  -9.754
REMARK INTRA:                   0.532
REMARK UNBOUND:                -0.019
REMARK SMILES O=c1c(O)c(-c2ccc(O)c(O)c2)oc2cc(O)cc(O)c12
REMARK SMILES IDX 5 1 3 2 2 3 1 4 22 5 20 6 19 7 17 8 16 9 15 10 14 11 6 12
REMARK SMILES IDX 7 13 8 14 9 15 13 16 11 17 10 18 12 20 4 22 21 24 18 26
REMARK H PARENT 10 19 12 21 4 23 21 25 18 27
REMARK Flexibility Score: inf
ROOT
ATOM      1  C   UNL     1     -12.742 -29.226 -11.323  1.00  0.00     0.180 A 
ATOM      2  C   UNL     1     -11.527 -29.683 -10.777  1.00  0.00     0.208 A 
ATOM      3  C   UNL     1     -10.958 -28.978  -9.704  1.00  0.00     0.238 A 
ATOM      4  O   UNL     1      -9.875 -29.384  -9.200  1.00  0.00    -0.285 OA
ATOM      5  C   UNL     1     -11.599 -27.825  -9.210  1.00  0.00     0.111 A 
ATOM      6  C   UNL     1     -11.090 -27.056  -8.135  1.00  0.00     0.134 A 
ATOM      7  C   UNL     1     -11.784 -25.914  -7.706  1.00  0.00     0.093 A 
ATOM      8  C   UNL     1     -12.971 -25.526  -8.330  1.00  0.00     0.123 A 
ATOM      9  C   UNL     1     -13.478 -26.281  -9.392  1.00  0.00     0.094 A 
ATOM     10  C   UNL     1     -12.804 -27.423  -9.833  1.00  0.00     0.146 A 
ATOM     11  O   UNL     1     -13.311 -28.125 -10.840  1.00  0.00    -0.452 OA
ENDROOT
BRANCH   1  12
ATOM     12  C   UNL     1     -13.413 -29.925 -12.443  1.00  0.00     0.025 A 
ATOM     13  C   UNL     1     -14.554 -29.388 -13.060  1.00  0.00     0.016 A 
ATOM     14  C   UNL     1     -15.156 -30.053 -14.129  1.00  0.00     0.051 A 
ATOM     15  C   UNL     1     -14.627 -31.255 -14.613  1.00  0.00     0.157 A 
ATOM     16  C   UNL     1     -12.867 -31.118 -12.939  1.00  0.00     0.062 A 
ATOM     17  C   UNL     1     -13.464 -31.793 -14.011  1.00  0.00     0.158 A 
BRANCH  15  18
ATOM     18  O   UNL     1     -15.280 -31.872 -15.681  1.00  0.00    -0.504 OA
ATOM     19  H   UNL     1     -16.282 -31.982 -15.744  1.00  0.00     0.293 HD
ENDBRANCH  15  18
BRANCH  17  20
ATOM     20  O   UNL     1     -12.874 -32.982 -14.444  1.00  0.00    -0.504 OA
ATOM     21  H   UNL     1     -12.582 -33.155 -15.395  1.00  0.00     0.293 HD
ENDBRANCH  17  20
ENDBRANCH   1  12
BRANCH   2  22
ATOM     22  O   UNL     1     -10.886 -30.801 -11.318  1.00  0.00    -0.502 OA
ATOM     23  H   UNL     1     -11.372 -31.482 -11.888  1.00  0.00     0.293 HD
ENDBRANCH   2  22
BRANCH   6  24
ATOM     24  O   UNL     1      -9.906 -27.417  -7.491  1.00  0.00    -0.507 OA
ATOM     25  H   UNL     1      -9.047 -26.896  -7.623  1.00  0.00     0.293 HD
ENDBRANCH   6  24
BRANCH   8  26
ATOM     26  O   UNL     1     -13.639 -24.387  -7.886  1.00  0.00    -0.508 OA
ATOM     27  H   UNL     1     -13.638 -24.120  -6.908  1.00  0.00     0.293 HD
ENDBRANCH   8  26
TORSDOF 6
ENDMDL
MODEL 5
REMARK VINA RESULT:    -7.627      2.349      7.335
REMARK INTER + INTRA:          -9.206
REMARK INTER:                  -9.327
REMARK INTRA:                   0.121
REMARK UNBOUND:                -0.019
REMARK SMILES O=c1c(O)c(-c2ccc(O)c(O)c2)oc2cc(O)cc(O)c12
REMARK SMILES IDX 5 1 3 2 2 3 1 4 22 5 20 6 19 7 17 8 16 9 15 10 14 11 6 12
REMARK SMILES IDX 7 13 8 14 9 15 13 16 11 17 10 18 12 20 4 22 21 24 18 26
REMARK H PARENT 10 19 12 21 4 23 21 25 18 27
REMARK Flexibility Score: inf
ROOT
ATOM      1  C   UNL     1     -11.792 -29.802 -11.392  1.00  0.00     0.180 A 
ATOM      2  C   UNL     1     -10.910 -30.895 -11.287  1.00  0.00     0.208 A 
ATOM      3  C   UNL     1     -11.108 -32.009 -12.118  1.00  0.00     0.238 A 
ATOM      4  O   UNL     1     -10.319 -32.990 -12.039  1.00  0.00    -0.285 OA
ATOM      5  C   UNL     1     -12.190 -32.021 -13.021  1.00  0.00     0.111 A 
ATOM      6  C   UNL     1     -12.462 -33.106 -13.890  1.00  0.00     0.134 A 
ATOM      7  C   UNL     1     -13.564 -33.045 -14.755  1.00  0.00     0.093 A 
ATOM      8  C   UNL     1     -14.399 -31.926 -14.767  1.00  0.00     0.123 A 
ATOM      9  C   UNL     1     -14.136 -30.852 -13.912  1.00  0.00     0.094 A 
ATOM     10  C   UNL     1     -13.041 -30.891 -13.044  1.00  0.00     0.146 A 
ATOM     11  O   UNL     1     -12.810 -29.855 -12.246  1.00  0.00    -0.452 OA
ENDROOT
BRANCH   1  12
ATOM     12  C   UNL     1     -11.638 -28.584 -10.564  1.00  0.00     0.025 A 
ATOM     13  C   UNL     1     -10.372 -28.049 -10.279  1.00  0.00     0.016 A 
ATOM     14  C   UNL     1     -10.254 -26.886  -9.516  1.00  0.00     0.051 A 
ATOM     15  C   UNL     1     -11.391 -26.227  -9.035  1.00  0.00     0.157 A 
ATOM     16  C   UNL     1     -12.781 -27.913 -10.103  1.00  0.00     0.062 A 
ATOM     17  C   UNL     1     -12.673 -26.747  -9.336  1.00  0.00     0.158 A 
BRANCH  15  18
ATOM     18  O   UNL     1     -11.203 -25.072  -8.275  1.00  0.00    -0.504 OA
ATOM     19  H   UNL     1     -11.650 -24.188  -8.472  1.00  0.00     0.293 HD
ENDBRANCH  15  18
BRANCH  17  20
ATOM     20  O   UNL     1     -13.852 -26.140  -8.900  1.00  0.00    -0.504 OA
ATOM     21  H   UNL     1     -13.887 -25.260  -8.407  1.00  0.00     0.293 HD
ENDBRANCH  17  20
ENDBRANCH   1  12
BRANCH   2  22
ATOM     22  O   UNL     1      -9.875 -30.879 -10.348  1.00  0.00    -0.502 OA
ATOM     23  H   UNL     1      -9.415 -30.023 -10.062  1.00  0.00     0.293 HD
ENDBRANCH   2  22
BRANCH   6  24
ATOM     24  O   UNL     1     -11.647 -34.239 -13.900  1.00  0.00    -0.507 OA
ATOM     25  H   UNL     1     -11.451 -34.762 -13.055  1.00  0.00     0.293 HD
ENDBRANCH   6  24
BRANCH   8  26
ATOM     26  O   UNL     1     -15.489 -31.892 -15.635  1.00  0.00    -0.508 OA
ATOM     27  H   UNL     1     -15.902 -32.743 -15.999  1.00  0.00     0.293 HD
ENDBRANCH   8  26
TORSDOF 6
ENDMDL
MODEL 6
REMARK VINA RESULT:    -7.624      2.325      4.126
REMARK INTER + INTRA:          -9.202
REMARK INTER:                  -9.626
REMARK INTRA:                   0.424
REMARK UNBOUND:                -0.019
REMARK SMILES O=c1c(O)c(-c2ccc(O)c(O)c2)oc2cc(O)cc(O)c12
REMARK SMILES IDX 5 1 3 2 2 3 1 4 22 5 20 6 19 7 17 8 16 9 15 10 14 11 6 12
REMARK SMILES IDX 7 13 8 14 9 15 13 16 11 17 10 18 12 20 4 22 21 24 18 26
REMARK H PARENT 10 19 12 21 4 23 21 25 18 27
REMARK Flexibility Score: inf
ROOT
ATOM      1  C   UNL     1     -12.434 -29.414 -11.468  1.00  0.00     0.180 A 
ATOM      2  C   UNL     1     -11.231 -29.278 -10.749  1.00  0.00     0.208 A 
ATOM      3  C   UNL     1     -11.115 -28.242  -9.809  1.00  0.00     0.238 A 
ATOM      4  O   UNL     1     -10.046 -28.117  -9.152  1.00  0.00    -0.285 OA
ATOM      5  C   UNL     1     -12.191 -27.351  -9.619  1.00  0.00     0.111 A 
ATOM      6  C   UNL     1     -12.154 -26.278  -8.696  1.00  0.00     0.134 A 
ATOM      7  C   UNL     1     -13.263 -25.429  -8.570  1.00  0.00     0.093 A 
ATOM      8  C   UNL     1     -14.404 -25.629  -9.349  1.00  0.00     0.123 A 
ATOM      9  C   UNL     1     -14.447 -26.686 -10.263  1.00  0.00     0.094 A 
ATOM     10  C   UNL     1     -13.353 -27.545 -10.401  1.00  0.00     0.146 A 
ATOM     11  O   UNL     1     -13.422 -28.546 -11.272  1.00  0.00    -0.452 OA
ENDROOT
BRANCH   1  12
ATOM     12  C   UNL     1     -12.639 -30.492 -12.462  1.00  0.00     0.025 A 
ATOM     13  C   UNL     1     -11.751 -31.574 -12.561  1.00  0.00     0.016 A 
ATOM     14  C   UNL     1     -11.978 -32.590 -13.491  1.00  0.00     0.051 A 
ATOM     15  C   UNL     1     -13.100 -32.557 -14.326  1.00  0.00     0.157 A 
ATOM     16  C   UNL     1     -13.777 -30.467 -13.283  1.00  0.00     0.062 A 
ATOM     17  C   UNL     1     -14.014 -31.482 -14.219  1.00  0.00     0.158 A 
BRANCH  15  18
ATOM     18  O   UNL     1     -13.267 -33.602 -15.237  1.00  0.00    -0.504 OA
ATOM     19  H   UNL     1     -12.536 -34.252 -15.491  1.00  0.00     0.293 HD
ENDBRANCH  15  18
BRANCH  17  20
ATOM     20  O   UNL     1     -15.159 -31.385 -15.011  1.00  0.00    -0.504 OA
ATOM     21  H   UNL     1     -15.173 -31.547 -16.008  1.00  0.00     0.293 HD
ENDBRANCH  17  20
ENDBRANCH   1  12
BRANCH   2  22
ATOM     22  O   UNL     1     -10.161 -30.145 -10.992  1.00  0.00    -0.502 OA
ATOM     23  H   UNL     1      -9.566 -30.056 -11.806  1.00  0.00     0.293 HD
ENDBRANCH   2  22
BRANCH   6  24
ATOM     24  O   UNL     1     -11.027 -26.050  -7.903  1.00  0.00    -0.507 OA
ATOM     25  H   UNL     1     -10.191 -25.617  -8.277  1.00  0.00     0.293 HD
ENDBRANCH   6  24
BRANCH   8  26
ATOM     26  O   UNL     1     -15.492 -24.769  -9.207  1.00  0.00    -0.508 OA
ATOM     27  H   UNL     1     -16.238 -24.741  -9.892  1.00  0.00     0.293 HD
ENDBRANCH   8  26
TORSDOF 6
ENDMDL
MODEL 7
REMARK VINA RESULT:    -7.573      1.996      6.798
REMARK INTER + INTRA:          -9.142
REMARK INTER:                  -9.208
REMARK INTRA:                   0.066
REMARK UNBOUND:                -0.019
REMARK SMILES O=c1c(O)c(-c2ccc(O)c(O)c2)oc2cc(O)cc(O)c12
REMARK SMILES IDX 5 1 3 2 2 3 1 4 22 5 20 6 19 7 17 8 16 9 15 10 14 11 6 12
REMARK SMILES IDX 7 13 8 14 9 15 13 16 11 17 10 18 12 20 4 22 21 24 18 26
REMARK H PARENT 10 19 12 21 4 23 21 25 18 27
REMARK Flexibility Score: inf
ROOT
ATOM      1  C   UNL     1     -13.294 -28.632 -11.635  1.00  0.00     0.180 A 
ATOM      2  C   UNL     1     -14.348 -28.412 -12.542  1.00  0.00     0.208 A 
ATOM      3  C   UNL     1     -14.629 -29.393 -13.507  1.00  0.00     0.238 A 
ATOM      4  O   UNL     1     -15.578 -29.212 -14.318  1.00  0.00    -0.285 OA
ATOM      5  C   UNL     1     -13.843 -30.562 -13.561  1.00  0.00     0.111 A 
ATOM      6  C   UNL     1     -14.057 -31.596 -14.505  1.00  0.00     0.134 A 
ATOM      7  C   UNL     1     -13.225 -32.726 -14.500  1.00  0.00     0.093 A 
ATOM      8  C   UNL     1     -12.186 -32.840 -13.575  1.00  0.00     0.123 A 
ATOM      9  C   UNL     1     -11.969 -31.822 -12.641  1.00  0.00     0.094 A 
ATOM     10  C   UNL     1     -12.789 -30.690 -12.628  1.00  0.00     0.146 A 
ATOM     11  O   UNL     1     -12.565 -29.740 -11.726  1.00  0.00    -0.452 OA
ENDROOT
BRANCH   1  12
ATOM     12  C   UNL     1     -12.949 -27.654 -10.579  1.00  0.00     0.025 A 
ATOM     13  C   UNL     1     -13.943 -27.020  -9.817  1.00  0.00     0.016 A 
ATOM     14  C   UNL     1     -13.591 -26.119  -8.809  1.00  0.00     0.051 A 
ATOM     15  C   UNL     1     -12.248 -25.844  -8.532  1.00  0.00     0.157 A 
ATOM     16  C   UNL     1     -11.600 -27.397 -10.289  1.00  0.00     0.062 A 
ATOM     17  C   UNL     1     -11.238 -26.495  -9.281  1.00  0.00     0.158 A 
BRANCH  15  18
ATOM     18  O   UNL     1     -11.964 -24.931  -7.516  1.00  0.00    -0.504 OA
ATOM     19  H   UNL     1     -12.651 -24.320  -7.098  1.00  0.00     0.293 HD
ENDBRANCH  15  18
BRANCH  17  20
ATOM     20  O   UNL     1      -9.877 -26.279  -9.056  1.00  0.00    -0.504 OA
ATOM     21  H   UNL     1      -9.389 -25.432  -9.309  1.00  0.00     0.293 HD
ENDBRANCH  17  20
ENDBRANCH   1  12
BRANCH   2  22
ATOM     22  O   UNL     1     -15.081 -27.223 -12.499  1.00  0.00    -0.502 OA
ATOM     23  H   UNL     1     -16.091 -27.205 -12.567  1.00  0.00     0.293 HD
ENDBRANCH   2  22
BRANCH   6  24
ATOM     24  O   UNL     1     -15.087 -31.511 -15.443  1.00  0.00    -0.507 OA
ATOM     25  H   UNL     1     -14.908 -31.578 -16.438  1.00  0.00     0.293 HD
ENDBRANCH   6  24
BRANCH   8  26
ATOM     26  O   UNL     1     -11.373 -33.972 -13.593  1.00  0.00    -0.508 OA
ATOM     27  H   UNL     1     -10.753 -34.191 -12.821  1.00  0.00     0.293 HD
ENDBRANCH   8  26
TORSDOF 6
ENDMDL
MODEL 8
REMARK VINA RESULT:    -7.492      2.190      3.512
REMARK INTER + INTRA:          -9.043
REMARK INTER:                  -9.566
REMARK INTRA:                   0.523
REMARK UNBOUND:                -0.019
REMARK SMILES O=c1c(O)c(-c2ccc(O)c(O)c2)oc2cc(O)cc(O)c12
REMARK SMILES IDX 5 1 3 2 2 3 1 4 22 5 20 6 19 7 17 8 16 9 15 10 14 11 6 12
REMARK SMILES IDX 7 13 8 14 9 15 13 16 11 17 10 18 12 20 4 22 21 24 18 26
REMARK H PARENT 10 19 12 21 4 23 21 25 18 27
REMARK Flexibility Score: inf
ROOT
ATOM      1  C   UNL     1     -13.162 -29.621 -11.960  1.00  0.00     0.180 A 
ATOM      2  C   UNL     1     -14.074 -28.549 -12.001  1.00  0.00     0.208 A 
ATOM      3  C   UNL     1     -13.953 -27.518 -11.055  1.00  0.00     0.238 A 
ATOM      4  O   UNL     1     -14.758 -26.548 -11.089  1.00  0.00    -0.285 OA
ATOM      5  C   UNL     1     -12.940 -27.585 -10.077  1.00  0.00     0.111 A 
ATOM      6  C   UNL     1     -12.753 -26.591  -9.087  1.00  0.00     0.134 A 
ATOM      7  C   UNL     1     -11.726 -26.734  -8.142  1.00  0.00     0.093 A 
ATOM      8  C   UNL     1     -10.886 -27.850  -8.167  1.00  0.00     0.123 A 
ATOM      9  C   UNL     1     -11.066 -28.835  -9.142  1.00  0.00     0.094 A 
ATOM     10  C   UNL     1     -12.082 -28.710 -10.094  1.00  0.00     0.146 A 
ATOM     11  O   UNL     1     -12.228 -29.657 -11.013  1.00  0.00    -0.452 OA
ENDROOT
BRANCH   1  12
ATOM     12  C   UNL     1     -13.212 -30.735 -12.933  1.00  0.00     0.025 A 
ATOM     13  C   UNL     1     -12.221 -31.729 -12.958  1.00  0.00     0.016 A 
ATOM     14  C   UNL     1     -12.303 -32.783 -13.870  1.00  0.00     0.051 A 
ATOM     15  C   UNL     1     -13.377 -32.876 -14.762  1.00  0.00     0.157 A 
ATOM     16  C   UNL     1     -14.303 -30.838 -13.811  1.00  0.00     0.062 A 
ATOM     17  C   UNL     1     -14.393 -31.891 -14.729  1.00  0.00     0.158 A 
BRANCH  15  18
ATOM     18  O   UNL     1     -13.397 -33.952 -15.651  1.00  0.00    -0.504 OA
ATOM     19  H   UNL     1     -12.824 -34.009 -16.480  1.00  0.00     0.293 HD
ENDBRANCH  15  18
BRANCH  17  20
ATOM     20  O   UNL     1     -15.500 -31.922 -15.580  1.00  0.00    -0.504 OA
ATOM     21  H   UNL     1     -15.456 -31.735 -16.571  1.00  0.00     0.293 HD
ENDBRANCH  17  20
ENDBRANCH   1  12
BRANCH   2  22
ATOM     22  O   UNL     1     -15.100 -28.531 -12.949  1.00  0.00    -0.502 OA
ATOM     23  H   UNL     1     -15.999 -28.968 -12.784  1.00  0.00     0.293 HD
ENDBRANCH   2  22
BRANCH   6  24
ATOM     24  O   UNL     1     -13.576 -25.465  -9.034  1.00  0.00    -0.507 OA
ATOM     25  H   UNL     1     -13.309 -24.589  -9.467  1.00  0.00     0.293 HD
ENDBRANCH   6  24
BRANCH   8  26
ATOM     26  O   UNL     1      -9.875 -27.969  -7.215  1.00  0.00    -0.508 OA
ATOM     27  H   UNL     1      -9.215 -28.737  -7.238  1.00  0.00     0.293 HD
ENDBRANCH   8  26
TORSDOF 6
ENDMDL
MODEL 9
REMARK VINA RESULT:    -7.342      0.874      1.557
REMARK INTER + INTRA:          -8.862
REMARK INTER:                  -8.973
REMARK INTRA:                   0.111
REMARK UNBOUND:                -0.019
REMARK SMILES O=c1c(O)c(-c2ccc(O)c(O)c2)oc2cc(O)cc(O)c12
REMARK SMILES IDX 5 1 3 2 2 3 1 4 22 5 20 6 19 7 17 8 16 9 15 10 14 11 6 12
REMARK SMILES IDX 7 13 8 14 9 15 13 16 11 17 10 18 12 20 4 22 21 24 18 26
REMARK H PARENT 10 19 12 21 4 23 21 25 18 27
REMARK Flexibility Score: inf
ROOT
ATOM      1  C   UNL     1     -13.217 -30.469 -13.290  1.00  0.00     0.180 A 
ATOM      2  C   UNL     1     -13.803 -29.668 -14.289  1.00  0.00     0.208 A 
ATOM      3  C   UNL     1     -14.218 -28.367 -13.961  1.00  0.00     0.238 A 
ATOM      4  O   UNL     1     -14.734 -27.638 -14.850  1.00  0.00    -0.285 OA
ATOM      5  C   UNL     1     -14.059 -27.898 -12.641  1.00  0.00     0.111 A 
ATOM      6  C   UNL     1     -14.454 -26.603 -12.227  1.00  0.00     0.134 A 
ATOM      7  C   UNL     1     -14.270 -26.213 -10.892  1.00  0.00     0.093 A 
ATOM      8  C   UNL     1     -13.703 -27.091  -9.965  1.00  0.00     0.123 A 
ATOM      9  C   UNL     1     -13.311 -28.371 -10.368  1.00  0.00     0.094 A 
ATOM     10  C   UNL     1     -13.483 -28.778 -11.695  1.00  0.00     0.146 A 
ATOM     11  O   UNL     1     -13.097 -29.997 -12.052  1.00  0.00    -0.452 OA
ENDROOT
BRANCH   1  12
ATOM     12  C   UNL     1     -12.738 -31.843 -13.563  1.00  0.00     0.025 A 
ATOM     13  C   UNL     1     -11.515 -32.304 -13.054  1.00  0.00     0.016 A 
ATOM     14  C   UNL     1     -11.095 -33.612 -13.305  1.00  0.00     0.051 A 
ATOM     15  C   UNL     1     -11.889 -34.487 -14.053  1.00  0.00     0.157 A 
ATOM     16  C   UNL     1     -13.548 -32.724 -14.295  1.00  0.00     0.062 A 
ATOM     17  C   UNL     1     -13.135 -34.037 -14.553  1.00  0.00     0.158 A 
BRANCH  15  18
ATOM     18  O   UNL     1     -11.409 -35.779 -14.272  1.00  0.00    -0.504 OA
ATOM     19  H   UNL     1     -11.984 -36.549 -14.586  1.00  0.00     0.293 HD
ENDBRANCH  15  18
BRANCH  17  20
ATOM     20  O   UNL     1     -13.986 -34.855 -15.300  1.00  0.00    -0.504 OA
ATOM     21  H   UNL     1     -13.826 -35.838 -15.464  1.00  0.00     0.293 HD
ENDBRANCH  17  20
ENDBRANCH   1  12
BRANCH   2  22
ATOM     22  O   UNL     1     -13.994 -30.174 -15.578  1.00  0.00    -0.502 OA
ATOM     23  H   UNL     1     -14.786 -29.910 -16.152  1.00  0.00     0.293 HD
ENDBRANCH   2  22
BRANCH   6  24
ATOM     24  O   UNL     1     -15.025 -25.703 -13.128  1.00  0.00    -0.507 OA
ATOM     25  H   UNL     1     -15.868 -25.188 -12.905  1.00  0.00     0.293 HD
ENDBRANCH   6  24
BRANCH   8  26
ATOM     26  O   UNL     1     -13.534 -26.679  -8.645  1.00  0.00    -0.508 OA
ATOM     27  H   UNL     1     -13.115 -27.287  -7.950  1.00  0.00     0.293 HD
ENDBRANCH   8  26
TORSDOF 6
ENDMDL
