MODEL 1
REMARK VINA RESULT:    -3.083      0.000      0.000
REMARK INTER + INTRA:          -6.925
REMARK INTER:                  -5.966
REMARK INTRA:                  -0.959
REMARK UNBOUND:                -0.959
REMARK SMILES CCCCCCCCCCCCCCCCCC(=O)[O-]
REMARK SMILES IDX 10 1 11 2 12 3 13 4 14 5 15 6 16 7 17 8 18 9 19 10 20 11
REMARK SMILES IDX 9 12 8 13 7 14 6 15 5 16 4 17 3 18 2 19 1 20
REMARK H PARENT
REMARK Flexibility Score: inf
ROOT
ATOM      1  C   UNL     1       2.300 -14.194 -18.405  1.00  0.00     0.000 C 
ENDROOT
BRANCH   1   2
ATOM      2  C   UNL     1       2.316 -12.691 -18.722  1.00  0.00     0.000 C 
BRANCH   2   3
ATOM      3  C   UNL     1       3.741 -12.138 -18.890  1.00  0.00     0.000 C 
BRANCH   3   4
ATOM      4  C   UNL     1       3.866 -10.667 -18.455  1.00  0.00     0.000 C 
BRANCH   4   5
ATOM      5  C   UNL     1       2.524 -10.037 -18.026  1.00  0.00     0.000 C 
BRANCH   5   6
ATOM      6  C   UNL     1       2.719  -8.737 -17.227  1.00  0.00     0.000 C 
BRANCH   6   7
ATOM      7  C   UNL     1       3.386  -8.964 -15.858  1.00  0.00     0.006 C 
BRANCH   7   8
ATOM      8  C   UNL     1       3.392  -7.718 -14.955  1.00  0.00     0.053 C 
BRANCH   8   9
ATOM      9  C   UNL     1       3.879  -8.016 -13.569  1.00  0.00     0.041 C 
ATOM     10  O   UNL     1       3.767  -9.177 -13.095  1.00  0.00    -0.550 OA
ATOM     11  O   UNL     1       4.489  -7.023 -12.813  1.00  0.00    -0.550 OA
ENDBRANCH   8   9
ENDBRANCH   7   8
ENDBRANCH   6   7
ENDBRANCH   5   6
ENDBRANCH   4   5
ENDBRANCH   3   4
ENDBRANCH   2   3
ENDBRANCH   1   2
BRANCH   1  12
ATOM     12  C   UNL     1       1.056 -14.615 -17.606  1.00  0.00     0.000 C 
BRANCH  12  13
ATOM     13  C   UNL     1       0.451 -15.905 -18.173  1.00  0.00    -0.000 C 
BRANCH  13  14
ATOM     14  C   UNL     1      -1.006 -15.686 -18.608  1.00  0.00    -0.000 C 
BRANCH  14  15
ATOM     15  C   UNL     1      -1.686 -16.979 -19.082  1.00  0.00    -0.000 C 
BRANCH  15  16
ATOM     16  C   UNL     1      -0.681 -18.108 -19.370  1.00  0.00    -0.000 C 
BRANCH  16  17
ATOM     17  C   UNL     1      -1.184 -19.479 -18.870  1.00  0.00    -0.000 C 
BRANCH  17  18
ATOM     18  C   UNL     1      -0.353 -20.056 -17.709  1.00  0.00    -0.000 C 
BRANCH  18  19
ATOM     19  C   UNL     1       1.054 -19.450 -17.565  1.00  0.00    -0.003 C 
ATOM     20  C   UNL     1       1.839 -20.047 -16.397  1.00  0.00     0.004 C 
ENDBRANCH  18  19
ENDBRANCH  17  18
ENDBRANCH  16  17
ENDBRANCH  15  16
ENDBRANCH  14  15
ENDBRANCH  13  14
ENDBRANCH  12  13
ENDBRANCH   1  12
TORSDOF 16
ENDMDL
MODEL 2
REMARK VINA RESULT:    -2.850      4.010      9.873
REMARK INTER + INTRA:          -6.475
REMARK INTER:                  -5.547
REMARK INTRA:                  -0.928
REMARK UNBOUND:                -0.959
REMARK SMILES CCCCCCCCCCCCCCCCCC(=O)[O-]
REMARK SMILES IDX 10 1 11 2 12 3 13 4 14 5 15 6 16 7 17 8 18 9 19 10 20 11
REMARK SMILES IDX 9 12 8 13 7 14 6 15 5 16 4 17 3 18 2 19 1 20
REMARK H PARENT
REMARK Flexibility Score: inf
ROOT
ATOM      1  C   UNL     1       2.025 -13.785 -18.745  1.00  0.00     0.000 C 
ENDROOT
BRANCH   1   2
ATOM      2  C   UNL     1       1.466 -14.801 -17.736  1.00  0.00     0.000 C 
BRANCH   2   3
ATOM      3  C   UNL     1       0.671 -15.931 -18.413  1.00  0.00     0.000 C 
BRANCH   3   4
ATOM      4  C   UNL     1      -0.837 -15.636 -18.488  1.00  0.00     0.000 C 
BRANCH   4   5
ATOM      5  C   UNL     1      -1.697 -16.893 -18.739  1.00  0.00     0.000 C 
BRANCH   5   6
ATOM      6  C   UNL     1      -1.174 -17.731 -19.919  1.00  0.00     0.000 C 
BRANCH   6   7
ATOM      7  C   UNL     1      -1.105 -19.236 -19.608  1.00  0.00     0.006 C 
BRANCH   7   8
ATOM      8  C   UNL     1       0.271 -19.706 -19.103  1.00  0.00     0.053 C 
BRANCH   8   9
ATOM      9  C   UNL     1       0.346 -19.761 -17.607  1.00  0.00     0.041 C 
ATOM     10  O   UNL     1       1.444 -19.569 -17.022  1.00  0.00    -0.550 OA
ATOM     11  O   UNL     1      -0.800 -19.988 -16.856  1.00  0.00    -0.550 OA
ENDBRANCH   8   9
ENDBRANCH   7   8
ENDBRANCH   6   7
ENDBRANCH   5   6
ENDBRANCH   4   5
ENDBRANCH   3   4
ENDBRANCH   2   3
ENDBRANCH   1   2
BRANCH   1  12
ATOM     12  C   UNL     1       2.765 -12.624 -18.064  1.00  0.00     0.000 C 
BRANCH  12  13
ATOM     13  C   UNL     1       3.635 -11.862 -19.071  1.00  0.00    -0.000 C 
BRANCH  13  14
ATOM     14  C   UNL     1       3.645 -10.357 -18.762  1.00  0.00    -0.000 C 
BRANCH  14  15
ATOM     15  C   UNL     1       2.478  -9.929 -17.860  1.00  0.00    -0.000 C 
BRANCH  15  16
ATOM     16  C   UNL     1       2.736  -8.588 -17.150  1.00  0.00    -0.000 C 
BRANCH  16  17
ATOM     17  C   UNL     1       3.311  -8.781 -15.731  1.00  0.00    -0.000 C 
BRANCH  17  18
ATOM     18  C   UNL     1       3.455  -7.468 -14.938  1.00  0.00    -0.000 C 
BRANCH  18  19
ATOM     19  C   UNL     1       3.767  -7.653 -13.444  1.00  0.00    -0.003 C 
ATOM     20  C   UNL     1       4.151  -9.090 -13.092  1.00  0.00     0.004 C 
ENDBRANCH  18  19
ENDBRANCH  17  18
ENDBRANCH  16  17
ENDBRANCH  15  16
ENDBRANCH  14  15
ENDBRANCH  13  14
ENDBRANCH  12  13
ENDBRANCH   1  12
TORSDOF 16
ENDMDL
MODEL 3
REMARK VINA RESULT:    -2.599      2.938      3.780
REMARK INTER + INTRA:          -5.989
REMARK INTER:                  -4.997
REMARK INTRA:                  -0.992
REMARK UNBOUND:                -0.959
REMARK SMILES CCCCCCCCCCCCCCCCCC(=O)[O-]
REMARK SMILES IDX 10 1 11 2 12 3 13 4 14 5 15 6 16 7 17 8 18 9 19 10 20 11
REMARK SMILES IDX 9 12 8 13 7 14 6 15 5 16 4 17 3 18 2 19 1 20
REMARK H PARENT
REMARK Flexibility Score: inf
ROOT
ATOM      1  C   UNL     1      -0.026 -15.921 -18.405  1.00  0.00     0.000 C 
ENDROOT
BRANCH   1   2
ATOM      2  C   UNL     1       0.890 -14.895 -17.720  1.00  0.00     0.000 C 
BRANCH   2   3
ATOM      3  C   UNL     1       2.034 -14.420 -18.631  1.00  0.00     0.000 C 
BRANCH   3   4
ATOM      4  C   UNL     1       2.727 -13.151 -18.107  1.00  0.00     0.000 C 
BRANCH   4   5
ATOM      5  C   UNL     1       2.293 -11.866 -18.844  1.00  0.00     0.000 C 
BRANCH   5   6
ATOM      6  C   UNL     1       2.838 -10.595 -18.168  1.00  0.00     0.000 C 
BRANCH   6   7
ATOM      7  C   UNL     1       3.789  -9.790 -19.072  1.00  0.00     0.006 C 
BRANCH   7   8
ATOM      8  C   UNL     1       4.570 -10.652 -20.080  1.00  0.00     0.053 C 
BRANCH   8   9
ATOM      9  C   UNL     1       5.924 -11.045 -19.571  1.00  0.00     0.041 C 
ATOM     10  O   UNL     1       6.029 -11.776 -18.551  1.00  0.00    -0.550 OA
ATOM     11  O   UNL     1       7.070 -10.637 -20.242  1.00  0.00    -0.550 OA
ENDBRANCH   8   9
ENDBRANCH   7   8
ENDBRANCH   6   7
ENDBRANCH   5   6
ENDBRANCH   4   5
ENDBRANCH   3   4
ENDBRANCH   2   3
ENDBRANCH   1   2
BRANCH   1  12
ATOM     12  C   UNL     1      -1.502 -15.496 -18.391  1.00  0.00     0.000 C 
BRANCH  12  13
ATOM     13  C   UNL     1      -2.103 -15.550 -19.801  1.00  0.00    -0.000 C 
BRANCH  13  14
ATOM     14  C   UNL     1      -1.887 -16.930 -20.439  1.00  0.00    -0.000 C 
BRANCH  14  15
ATOM     15  C   UNL     1      -2.124 -18.084 -19.453  1.00  0.00    -0.000 C 
BRANCH  15  16
ATOM     16  C   UNL     1      -1.455 -19.395 -19.899  1.00  0.00    -0.000 C 
BRANCH  16  17
ATOM     17  C   UNL     1       0.081 -19.347 -19.752  1.00  0.00    -0.000 C 
BRANCH  17  18
ATOM     18  C   UNL     1       0.610 -20.125 -18.533  1.00  0.00    -0.000 C 
BRANCH  18  19
ATOM     19  C   UNL     1       1.195 -19.244 -17.416  1.00  0.00    -0.003 C 
ATOM     20  C   UNL     1       1.025 -19.858 -16.027  1.00  0.00     0.004 C 
ENDBRANCH  18  19
ENDBRANCH  17  18
ENDBRANCH  16  17
ENDBRANCH  15  16
ENDBRANCH  14  15
ENDBRANCH  13  14
ENDBRANCH  12  13
ENDBRANCH   1  12
TORSDOF 16
ENDMDL
MODEL 4
REMARK VINA RESULT:    -2.460      3.994      9.515
REMARK INTER + INTRA:          -5.720
REMARK INTER:                  -4.715
REMARK INTRA:                  -1.005
REMARK UNBOUND:                -0.959
REMARK SMILES CCCCCCCCCCCCCCCCCC(=O)[O-]
REMARK SMILES IDX 10 1 11 2 12 3 13 4 14 5 15 6 16 7 17 8 18 9 19 10 20 11
REMARK SMILES IDX 9 12 8 13 7 14 6 15 5 16 4 17 3 18 2 19 1 20
REMARK H PARENT
REMARK Flexibility Score: inf
ROOT
ATOM      1  C   UNL     1       0.178 -15.692 -18.372  1.00  0.00     0.000 C 
ENDROOT
BRANCH   1   2
ATOM      2  C   UNL     1      -1.347 -15.614 -18.208  1.00  0.00     0.000 C 
BRANCH   2   3
ATOM      3  C   UNL     1      -2.086 -15.555 -19.556  1.00  0.00     0.000 C 
BRANCH   3   4
ATOM      4  C   UNL     1      -1.854 -16.808 -20.418  1.00  0.00     0.000 C 
BRANCH   4   5
ATOM      5  C   UNL     1      -2.009 -18.129 -19.636  1.00  0.00     0.000 C 
BRANCH   5   6
ATOM      6  C   UNL     1      -1.142 -19.258 -20.221  1.00  0.00     0.000 C 
BRANCH   6   7
ATOM      7  C   UNL     1       0.077 -19.599 -19.346  1.00  0.00     0.006 C 
BRANCH   7   8
ATOM      8  C   UNL     1      -0.288 -20.125 -17.947  1.00  0.00     0.053 C 
BRANCH   8   9
ATOM      9  C   UNL     1       0.766 -19.819 -16.926  1.00  0.00     0.041 C 
ATOM     10  O   UNL     1       1.898 -19.407 -17.289  1.00  0.00    -0.550 OA
ATOM     11  O   UNL     1       0.488 -19.953 -15.571  1.00  0.00    -0.550 OA
ENDBRANCH   8   9
ENDBRANCH   7   8
ENDBRANCH   6   7
ENDBRANCH   5   6
ENDBRANCH   4   5
ENDBRANCH   3   4
ENDBRANCH   2   3
ENDBRANCH   1   2
BRANCH   1  12
ATOM     12  C   UNL     1       0.906 -14.526 -17.687  1.00  0.00     0.000 C 
BRANCH  12  13
ATOM     13  C   UNL     1       2.236 -14.221 -18.387  1.00  0.00    -0.000 C 
BRANCH  13  14
ATOM     14  C   UNL     1       2.349 -12.727 -18.727  1.00  0.00    -0.000 C 
BRANCH  14  15
ATOM     15  C   UNL     1       3.804 -12.233 -18.753  1.00  0.00    -0.000 C 
BRANCH  15  16
ATOM     16  C   UNL     1       3.957 -10.804 -18.203  1.00  0.00    -0.000 C 
BRANCH  16  17
ATOM     17  C   UNL     1       2.660  -9.979 -18.352  1.00  0.00    -0.000 C 
BRANCH  17  18
ATOM     18  C   UNL     1       2.187  -9.329 -17.039  1.00  0.00    -0.000 C 
BRANCH  18  19
ATOM     19  C   UNL     1       3.154  -8.283 -16.458  1.00  0.00    -0.003 C 
ATOM     20  C   UNL     1       3.569  -8.595 -15.020  1.00  0.00     0.004 C 
ENDBRANCH  18  19
ENDBRANCH  17  18
ENDBRANCH  16  17
ENDBRANCH  15  16
ENDBRANCH  14  15
ENDBRANCH  13  14
ENDBRANCH  12  13
ENDBRANCH   1  12
TORSDOF 16
ENDMDL
MODEL 5
REMARK VINA RESULT:    -2.453      4.168      9.908
REMARK INTER + INTRA:          -5.708
REMARK INTER:                  -5.594
REMARK INTRA:                  -0.113
REMARK UNBOUND:                -0.959
REMARK SMILES CCCCCCCCCCCCCCCCCC(=O)[O-]
REMARK SMILES IDX 10 1 11 2 12 3 13 4 14 5 15 6 16 7 17 8 18 9 19 10 20 11
REMARK SMILES IDX 9 12 8 13 7 14 6 15 5 16 4 17 3 18 2 19 1 20
REMARK H PARENT
REMARK Flexibility Score: inf
ROOT
ATOM      1  C   UNL     1       2.730 -12.396 -18.459  1.00  0.00     0.000 C 
ENDROOT
BRANCH   1   2
ATOM      2  C   UNL     1       2.269 -13.805 -18.861  1.00  0.00     0.000 C 
BRANCH   2   3
ATOM      3  C   UNL     1       1.381 -14.465 -17.793  1.00  0.00     0.000 C 
BRANCH   3   4
ATOM      4  C   UNL     1       0.704 -15.753 -18.292  1.00  0.00     0.000 C 
BRANCH   4   5
ATOM      5  C   UNL     1      -0.810 -15.593 -18.545  1.00  0.00     0.000 C 
BRANCH   5   6
ATOM      6  C   UNL     1      -1.561 -16.933 -18.450  1.00  0.00     0.000 C 
BRANCH   6   7
ATOM      7  C   UNL     1      -1.716 -17.637 -19.809  1.00  0.00     0.006 C 
BRANCH   7   8
ATOM      8  C   UNL     1      -0.981 -18.986 -19.899  1.00  0.00     0.053 C 
BRANCH   8   9
ATOM      9  C   UNL     1      -0.402 -19.414 -18.585  1.00  0.00     0.041 C 
ATOM     10  O   UNL     1      -1.112 -20.040 -17.754  1.00  0.00    -0.550 OA
ATOM     11  O   UNL     1       0.931 -19.157 -18.289  1.00  0.00    -0.550 OA
ENDBRANCH   8   9
ENDBRANCH   7   8
ENDBRANCH   6   7
ENDBRANCH   5   6
ENDBRANCH   4   5
ENDBRANCH   3   4
ENDBRANCH   2   3
ENDBRANCH   1   2
BRANCH   1  12
ATOM     12  C   UNL     1       4.180 -12.108 -18.875  1.00  0.00     0.000 C 
BRANCH  12  13
ATOM     13  C   UNL     1       4.270 -10.814 -19.692  1.00  0.00    -0.000 C 
BRANCH  13  14
ATOM     14  C   UNL     1       3.459  -9.688 -19.032  1.00  0.00    -0.000 C 
BRANCH  14  15
ATOM     15  C   UNL     1       3.564  -9.701 -17.499  1.00  0.00    -0.000 C 
BRANCH  15  16
ATOM     16  C   UNL     1       2.583  -8.725 -16.828  1.00  0.00    -0.000 C 
BRANCH  16  17
ATOM     17  C   UNL     1       3.250  -7.914 -15.696  1.00  0.00    -0.000 C 
BRANCH  17  18
ATOM     18  C   UNL     1       3.890  -8.790 -14.602  1.00  0.00    -0.000 C 
BRANCH  18  19
ATOM     19  C   UNL     1       4.079  -8.087 -13.248  1.00  0.00    -0.003 C 
ATOM     20  C   UNL     1       3.215  -6.834 -13.104  1.00  0.00     0.004 C 
ENDBRANCH  18  19
ENDBRANCH  17  18
ENDBRANCH  16  17
ENDBRANCH  15  16
ENDBRANCH  14  15
ENDBRANCH  13  14
ENDBRANCH  12  13
ENDBRANCH   1  12
TORSDOF 16
ENDMDL
MODEL 6
REMARK VINA RESULT:    -2.443      4.416      9.401
REMARK INTER + INTRA:          -5.687
REMARK INTER:                  -4.971
REMARK INTRA:                  -0.717
REMARK UNBOUND:                -0.959
REMARK SMILES CCCCCCCCCCCCCCCCCC(=O)[O-]
REMARK SMILES IDX 10 1 11 2 12 3 13 4 14 5 15 6 16 7 17 8 18 9 19 10 20 11
REMARK SMILES IDX 9 12 8 13 7 14 6 15 5 16 4 17 3 18 2 19 1 20
REMARK H PARENT
REMARK Flexibility Score: inf
ROOT
ATOM      1  C   UNL     1       0.592 -15.799 -18.382  1.00  0.00     0.000 C 
ENDROOT
BRANCH   1   2
ATOM      2  C   UNL     1      -0.914 -15.555 -18.199  1.00  0.00     0.000 C 
BRANCH   2   3
ATOM      3  C   UNL     1      -1.673 -15.506 -19.536  1.00  0.00     0.000 C 
BRANCH   3   4
ATOM      4  C   UNL     1      -1.944 -16.904 -20.120  1.00  0.00     0.000 C 
BRANCH   4   5
ATOM      5  C   UNL     1      -1.774 -18.043 -19.093  1.00  0.00     0.000 C 
BRANCH   5   6
ATOM      6  C   UNL     1      -1.653 -19.421 -19.766  1.00  0.00     0.000 C 
BRANCH   6   7
ATOM      7  C   UNL     1      -0.289 -20.092 -19.528  1.00  0.00     0.006 C 
BRANCH   7   8
ATOM      8  C   UNL     1       0.650 -19.289 -18.610  1.00  0.00     0.053 C 
BRANCH   8   9
ATOM      9  C   UNL     1       0.617 -19.771 -17.192  1.00  0.00     0.041 C 
ATOM     10  O   UNL     1       1.679 -19.826 -16.518  1.00  0.00    -0.550 OA
ATOM     11  O   UNL     1      -0.589 -20.125 -16.600  1.00  0.00    -0.550 OA
ENDBRANCH   8   9
ENDBRANCH   7   8
ENDBRANCH   6   7
ENDBRANCH   5   6
ENDBRANCH   4   5
ENDBRANCH   3   4
ENDBRANCH   2   3
ENDBRANCH   1   2
BRANCH   1  12
ATOM     12  C   UNL     1       1.448 -14.660 -17.808  1.00  0.00     0.000 C 
BRANCH  12  13
ATOM     13  C   UNL     1       1.936 -13.725 -18.921  1.00  0.00    -0.000 C 
BRANCH  13  14
ATOM     14  C   UNL     1       2.874 -12.645 -18.361  1.00  0.00    -0.000 C 
BRANCH  14  15
ATOM     15  C   UNL     1       2.380 -11.220 -18.653  1.00  0.00    -0.000 C 
BRANCH  15  16
ATOM     16  C   UNL     1       3.510 -10.177 -18.604  1.00  0.00    -0.000 C 
BRANCH  16  17
ATOM     17  C   UNL     1       4.253 -10.057 -19.951  1.00  0.00    -0.000 C 
BRANCH  17  18
ATOM     18  C   UNL     1       5.347 -11.123 -20.150  1.00  0.00    -0.000 C 
BRANCH  18  19
ATOM     19  C   UNL     1       6.540 -11.004 -19.186  1.00  0.00    -0.003 C 
ATOM     20  C   UNL     1       6.387 -11.882 -17.944  1.00  0.00     0.004 C 
ENDBRANCH  18  19
ENDBRANCH  17  18
ENDBRANCH  16  17
ENDBRANCH  15  16
ENDBRANCH  14  15
ENDBRANCH  13  14
ENDBRANCH  12  13
ENDBRANCH   1  12
TORSDOF 16
ENDMDL
MODEL 7
REMARK VINA RESULT:    -2.399      0.837      1.705
REMARK INTER + INTRA:          -5.602
REMARK INTER:                  -5.009
REMARK INTRA:                  -0.593
REMARK UNBOUND:                -0.959
REMARK SMILES CCCCCCCCCCCCCCCCCC(=O)[O-]
REMARK SMILES IDX 10 1 11 2 12 3 13 4 14 5 15 6 16 7 17 8 18 9 19 10 20 11
REMARK SMILES IDX 9 12 8 13 7 14 6 15 5 16 4 17 3 18 2 19 1 20
REMARK H PARENT
REMARK Flexibility Score: inf
ROOT
ATOM      1  C   UNL     1       3.030 -12.640 -18.085  1.00  0.00     0.000 C 
ENDROOT
BRANCH   1   2
ATOM      2  C   UNL     1       3.700 -11.735 -19.130  1.00  0.00     0.000 C 
BRANCH   2   3
ATOM      3  C   UNL     1       3.476 -10.240 -18.848  1.00  0.00     0.000 C 
BRANCH   3   4
ATOM      4  C   UNL     1       2.491  -9.992 -17.693  1.00  0.00     0.000 C 
BRANCH   4   5
ATOM      5  C   UNL     1       2.650  -8.604 -17.036  1.00  0.00     0.000 C 
BRANCH   5   6
ATOM      6  C   UNL     1       3.472  -8.665 -15.737  1.00  0.00     0.000 C 
BRANCH   6   7
ATOM      7  C   UNL     1       3.465  -7.341 -14.954  1.00  0.00     0.006 C 
BRANCH   7   8
ATOM      8  C   UNL     1       3.487  -7.520 -13.426  1.00  0.00     0.053 C 
BRANCH   8   9
ATOM      9  C   UNL     1       3.902  -8.900 -13.015  1.00  0.00     0.041 C 
ATOM     10  O   UNL     1       5.105  -9.257 -13.121  1.00  0.00    -0.550 OA
ATOM     11  O   UNL     1       2.970  -9.781 -12.481  1.00  0.00    -0.550 OA
ENDBRANCH   8   9
ENDBRANCH   7   8
ENDBRANCH   6   7
ENDBRANCH   5   6
ENDBRANCH   4   5
ENDBRANCH   3   4
ENDBRANCH   2   3
ENDBRANCH   1   2
BRANCH   1  12
ATOM     12  C   UNL     1       2.048 -13.640 -18.715  1.00  0.00     0.000 C 
BRANCH  12  13
ATOM     13  C   UNL     1       1.632 -14.714 -17.702  1.00  0.00    -0.000 C 
BRANCH  13  14
ATOM     14  C   UNL     1       0.860 -15.850 -18.389  1.00  0.00    -0.000 C 
BRANCH  14  15
ATOM     15  C   UNL     1      -0.662 -15.641 -18.352  1.00  0.00    -0.000 C 
BRANCH  15  16
ATOM     16  C   UNL     1      -1.444 -16.876 -18.832  1.00  0.00    -0.000 C 
BRANCH  16  17
ATOM     17  C   UNL     1      -0.517 -17.960 -19.423  1.00  0.00    -0.000 C 
BRANCH  17  18
ATOM     18  C   UNL     1      -0.338 -19.186 -18.508  1.00  0.00    -0.000 C 
BRANCH  18  19
ATOM     19  C   UNL     1       0.999 -19.229 -17.749  1.00  0.00    -0.003 C 
ATOM     20  C   UNL     1       0.910 -20.007 -16.436  1.00  0.00     0.004 C 
ENDBRANCH  18  19
ENDBRANCH  17  18
ENDBRANCH  16  17
ENDBRANCH  15  16
ENDBRANCH  14  15
ENDBRANCH  13  14
ENDBRANCH  12  13
ENDBRANCH   1  12
TORSDOF 16
ENDMDL
MODEL 8
REMARK VINA RESULT:    -1.894      1.264      2.019
REMARK INTER + INTRA:          -4.625
REMARK INTER:                  -3.788
REMARK INTRA:                  -0.838
REMARK UNBOUND:                -0.959
REMARK SMILES CCCCCCCCCCCCCCCCCC(=O)[O-]
REMARK SMILES IDX 10 1 11 2 12 3 13 4 14 5 15 6 16 7 17 8 18 9 19 10 20 11
REMARK SMILES IDX 9 12 8 13 7 14 6 15 5 16 4 17 3 18 2 19 1 20
REMARK H PARENT
REMARK Flexibility Score: inf
ROOT
ATOM      1  C   UNL     1       3.136 -12.627 -18.040  1.00  0.00     0.000 C 
ENDROOT
BRANCH   1   2
ATOM      2  C   UNL     1       4.053 -11.832 -18.982  1.00  0.00     0.000 C 
BRANCH   2   3
ATOM      3  C   UNL     1       3.730 -10.328 -18.991  1.00  0.00     0.000 C 
BRANCH   3   4
ATOM      4  C   UNL     1       2.260 -10.031 -18.646  1.00  0.00     0.000 C 
BRANCH   4   5
ATOM      5  C   UNL     1       2.092  -9.071 -17.449  1.00  0.00     0.000 C 
BRANCH   5   6
ATOM      6  C   UNL     1       3.321  -9.072 -16.524  1.00  0.00     0.000 C 
BRANCH   6   7
ATOM      7  C   UNL     1       3.244  -8.007 -15.416  1.00  0.00     0.006 C 
BRANCH   7   8
ATOM      8  C   UNL     1       3.844  -8.460 -14.073  1.00  0.00     0.053 C 
BRANCH   8   9
ATOM      9  C   UNL     1       3.964  -7.336 -13.089  1.00  0.00     0.041 C 
ATOM     10  O   UNL     1       5.098  -6.976 -12.676  1.00  0.00    -0.550 OA
ATOM     11  O   UNL     1       2.831  -6.660 -12.656  1.00  0.00    -0.550 OA
ENDBRANCH   8   9
ENDBRANCH   7   8
ENDBRANCH   6   7
ENDBRANCH   5   6
ENDBRANCH   4   5
ENDBRANCH   3   4
ENDBRANCH   2   3
ENDBRANCH   1   2
BRANCH   1  12
ATOM     12  C   UNL     1       2.047 -13.405 -18.795  1.00  0.00     0.000 C 
BRANCH  12  13
ATOM     13  C   UNL     1       1.888 -14.820 -18.225  1.00  0.00    -0.000 C 
BRANCH  13  14
ATOM     14  C   UNL     1       0.438 -15.078 -17.789  1.00  0.00    -0.000 C 
BRANCH  14  15
ATOM     15  C   UNL     1      -0.482 -15.434 -18.966  1.00  0.00    -0.000 C 
BRANCH  15  16
ATOM     16  C   UNL     1      -1.854 -15.963 -18.511  1.00  0.00    -0.000 C 
BRANCH  16  17
ATOM     17  C   UNL     1      -2.112 -17.406 -18.995  1.00  0.00    -0.000 C 
BRANCH  17  18
ATOM     18  C   UNL     1      -1.758 -18.481 -17.951  1.00  0.00    -0.000 C 
BRANCH  18  19
ATOM     19  C   UNL     1      -0.730 -19.521 -18.426  1.00  0.00    -0.003 C 
ATOM     20  C   UNL     1      -0.472 -19.455 -19.932  1.00  0.00     0.004 C 
ENDBRANCH  18  19
ENDBRANCH  17  18
ENDBRANCH  16  17
ENDBRANCH  15  16
ENDBRANCH  14  15
ENDBRANCH  13  14
ENDBRANCH  12  13
ENDBRANCH   1  12
TORSDOF 16
ENDMDL
MODEL 9
REMARK VINA RESULT:    -1.756      4.437     10.173
REMARK INTER + INTRA:          -4.357
REMARK INTER:                  -3.541
REMARK INTRA:                  -0.816
REMARK UNBOUND:                -0.959
REMARK SMILES CCCCCCCCCCCCCCCCCC(=O)[O-]
REMARK SMILES IDX 10 1 11 2 12 3 13 4 14 5 15 6 16 7 17 8 18 9 19 10 20 11
REMARK SMILES IDX 9 12 8 13 7 14 6 15 5 16 4 17 3 18 2 19 1 20
REMARK H PARENT
REMARK Flexibility Score: inf
ROOT
ATOM      1  C   UNL     1       3.866 -12.276 -19.125  1.00  0.00     0.000 C 
ENDROOT
BRANCH   1   2
ATOM      2  C   UNL     1       2.878 -12.883 -18.117  1.00  0.00     0.000 C 
BRANCH   2   3
ATOM      3  C   UNL     1       1.876 -13.845 -18.778  1.00  0.00     0.000 C 
BRANCH   3   4
ATOM      4  C   UNL     1       1.220 -14.806 -17.771  1.00  0.00     0.000 C 
BRANCH   4   5
ATOM      5  C   UNL     1       0.769 -16.141 -18.400  1.00  0.00     0.000 C 
BRANCH   5   6
ATOM      6  C   UNL     1      -0.763 -16.282 -18.433  1.00  0.00     0.000 C 
BRANCH   6   7
ATOM      7  C   UNL     1      -1.261 -17.215 -19.550  1.00  0.00     0.006 C 
BRANCH   7   8
ATOM      8  C   UNL     1      -1.755 -18.583 -19.046  1.00  0.00     0.053 C 
BRANCH   8   9
ATOM      9  C   UNL     1      -0.633 -19.470 -18.598  1.00  0.00     0.041 C 
ATOM     10  O   UNL     1       0.330 -19.712 -19.373  1.00  0.00    -0.550 OA
ATOM     11  O   UNL     1      -0.629 -20.000 -17.314  1.00  0.00    -0.550 OA
ENDBRANCH   8   9
ENDBRANCH   7   8
ENDBRANCH   6   7
ENDBRANCH   5   6
ENDBRANCH   4   5
ENDBRANCH   3   4
ENDBRANCH   2   3
ENDBRANCH   1   2
BRANCH   1  12
ATOM     12  C   UNL     1       4.426 -10.923 -18.660  1.00  0.00     0.000 C 
BRANCH  12  13
ATOM     13  C   UNL     1       3.575  -9.764 -19.195  1.00  0.00    -0.000 C 
BRANCH  13  14
ATOM     14  C   UNL     1       2.661  -9.200 -18.097  1.00  0.00    -0.000 C 
BRANCH  14  15
ATOM     15  C   UNL     1       3.182  -9.492 -16.681  1.00  0.00    -0.000 C 
BRANCH  15  16
ATOM     16  C   UNL     1       3.241  -8.235 -15.798  1.00  0.00    -0.000 C 
BRANCH  16  17
ATOM     17  C   UNL     1       3.891  -8.515 -14.426  1.00  0.00    -0.000 C 
BRANCH  17  18
ATOM     18  C   UNL     1       3.946  -7.283 -13.504  1.00  0.00    -0.000 C 
BRANCH  18  19
ATOM     19  C   UNL     1       2.746  -7.140 -12.552  1.00  0.00    -0.003 C 
ATOM     20  C   UNL     1       2.003  -5.816 -12.729  1.00  0.00     0.004 C 
ENDBRANCH  18  19
ENDBRANCH  17  18
ENDBRANCH  16  17
ENDBRANCH  15  16
ENDBRANCH  14  15
ENDBRANCH  13  14
ENDBRANCH  12  13
ENDBRANCH   1  12
TORSDOF 16
ENDMDL
