MODEL 1
REMARK VINA RESULT:    -1.066      0.000      0.000
REMARK INTER + INTRA:          -4.188
REMARK INTER:                  -2.687
REMARK INTRA:                  -1.502
REMARK UNBOUND:                -1.502
REMARK SMILES CCCCCCCCCCCCCCCCCCCCCCCCCCCC(=O)[O-]
REMARK SMILES IDX 15 1 16 2 17 3 18 4 19 5 20 6 21 7 22 8 23 9 24 10 25 11
REMARK SMILES IDX 26 12 27 13 28 14 29 15 30 16 14 17 13 18 12 19 11 20 10 21
REMARK SMILES IDX 9 22 8 23 7 24 6 25 5 26 4 27 3 28 2 29 1 30
REMARK H PARENT
REMARK Flexibility Score: inf
ROOT
ATOM      1  C   UNL     1      -3.151   5.188  -5.787  1.00  0.00     0.000 C 
ENDROOT
BRANCH   1   2
ATOM      2  C   UNL     1      -3.869   6.512  -6.112  1.00  0.00     0.000 C 
BRANCH   2   3
ATOM      3  C   UNL     1      -3.105   7.457  -7.062  1.00  0.00     0.000 C 
BRANCH   3   4
ATOM      4  C   UNL     1      -3.878   8.722  -7.482  1.00  0.00     0.000 C 
BRANCH   4   5
ATOM      5  C   UNL     1      -3.623   9.189  -8.929  1.00  0.00     0.000 C 
BRANCH   5   6
ATOM      6  C   UNL     1      -4.226   8.281 -10.017  1.00  0.00     0.000 C 
BRANCH   6   7
ATOM      7  C   UNL     1      -5.728   8.021  -9.806  1.00  0.00     0.000 C 
BRANCH   7   8
ATOM      8  C   UNL     1      -6.006   6.680  -9.108  1.00  0.00     0.000 C 
BRANCH   8   9
ATOM      9  C   UNL     1      -7.387   6.106  -9.459  1.00  0.00     0.000 C 
BRANCH   9  10
ATOM     10  C   UNL     1      -8.401   6.392  -8.345  1.00  0.00     0.000 C 
BRANCH  10  11
ATOM     11  C   UNL     1      -9.544   5.367  -8.363  1.00  0.00     0.000 C 
BRANCH  11  12
ATOM     12  C   UNL     1      -9.390   4.278  -7.286  1.00  0.00     0.006 C 
BRANCH  12  13
ATOM     13  C   UNL     1     -10.112   4.585  -5.963  1.00  0.00     0.053 C 
BRANCH  13  14
ATOM     14  C   UNL     1      -9.823   3.561  -4.907  1.00  0.00     0.041 C 
ATOM     15  O   UNL     1      -9.579   2.368  -5.230  1.00  0.00    -0.550 OA
ATOM     16  O   UNL     1      -9.829   3.924  -3.567  1.00  0.00    -0.550 OA
ENDBRANCH  13  14
ENDBRANCH  12  13
ENDBRANCH  11  12
ENDBRANCH  10  11
ENDBRANCH   9  10
ENDBRANCH   8   9
ENDBRANCH   7   8
ENDBRANCH   6   7
ENDBRANCH   5   6
ENDBRANCH   4   5
ENDBRANCH   3   4
ENDBRANCH   2   3
ENDBRANCH   1   2
BRANCH   1  17
ATOM     17  C   UNL     1      -2.974   4.960  -4.276  1.00  0.00     0.000 C 
BRANCH  17  18
ATOM     18  C   UNL     1      -3.430   3.561  -3.824  1.00  0.00     0.000 C 
BRANCH  18  19
ATOM     19  C   UNL     1      -2.520   2.924  -2.753  1.00  0.00     0.000 C 
BRANCH  19  20
ATOM     20  C   UNL     1      -1.163   2.492  -3.330  1.00  0.00     0.000 C 
BRANCH  20  21
ATOM     21  C   UNL     1      -0.034   2.725  -2.319  1.00  0.00     0.000 C 
BRANCH  21  22
ATOM     22  C   UNL     1      -0.557   3.436  -1.064  1.00  0.00    -0.000 C 
BRANCH  22  23
ATOM     23  C   UNL     1       0.577   3.674  -0.055  1.00  0.00    -0.000 C 
BRANCH  23  24
ATOM     24  C   UNL     1       0.590   2.640   1.086  1.00  0.00    -0.000 C 
BRANCH  24  25
ATOM     25  C   UNL     1       1.873   2.632   1.940  1.00  0.00    -0.000 C 
BRANCH  25  26
ATOM     26  C   UNL     1       1.719   2.025   3.349  1.00  0.00    -0.000 C 
BRANCH  26  27
ATOM     27  C   UNL     1       0.268   1.759   3.789  1.00  0.00    -0.000 C 
BRANCH  27  28
ATOM     28  C   UNL     1      -0.057   2.371   5.162  1.00  0.00    -0.000 C 
BRANCH  28  29
ATOM     29  C   UNL     1       0.545   3.774   5.336  1.00  0.00    -0.003 C 
ATOM     30  C   UNL     1      -0.024   4.515   6.547  1.00  0.00     0.004 C 
ENDBRANCH  28  29
ENDBRANCH  27  28
ENDBRANCH  26  27
ENDBRANCH  25  26
ENDBRANCH  24  25
ENDBRANCH  23  24
ENDBRANCH  22  23
ENDBRANCH  21  22
ENDBRANCH  20  21
ENDBRANCH  19  20
ENDBRANCH  18  19
ENDBRANCH  17  18
ENDBRANCH   1  17
TORSDOF 26
ENDMDL
MODEL 2
REMARK VINA RESULT:    -0.893      3.592     11.923
REMARK INTER + INTRA:          -3.751
REMARK INTER:                  -1.902
REMARK INTRA:                  -1.849
REMARK UNBOUND:                -1.502
REMARK SMILES CCCCCCCCCCCCCCCCCCCCCCCCCCCC(=O)[O-]
REMARK SMILES IDX 15 1 16 2 17 3 18 4 19 5 20 6 21 7 22 8 23 9 24 10 25 11
REMARK SMILES IDX 26 12 27 13 28 14 29 15 30 16 14 17 13 18 12 19 11 20 10 21
REMARK SMILES IDX 9 22 8 23 7 24 6 25 5 26 4 27 3 28 2 29 1 30
REMARK H PARENT
REMARK Flexibility Score: inf
ROOT
ATOM      1  C   UNL     1      -3.815   6.930  -6.140  1.00  0.00     0.000 C 
ENDROOT
BRANCH   1   2
ATOM      2  C   UNL     1      -3.323   6.386  -4.785  1.00  0.00     0.000 C 
BRANCH   2   3
ATOM      3  C   UNL     1      -3.074   4.864  -4.739  1.00  0.00     0.000 C 
BRANCH   3   4
ATOM      4  C   UNL     1      -3.344   4.201  -3.375  1.00  0.00     0.000 C 
BRANCH   4   5
ATOM      5  C   UNL     1      -2.868   2.739  -3.258  1.00  0.00     0.000 C 
BRANCH   5   6
ATOM      6  C   UNL     1      -1.482   2.460  -3.867  1.00  0.00     0.000 C 
BRANCH   6   7
ATOM      7  C   UNL     1      -0.648   1.482  -3.021  1.00  0.00     0.000 C 
BRANCH   7   8
ATOM      8  C   UNL     1       0.206   2.193  -1.961  1.00  0.00     0.000 C 
BRANCH   8   9
ATOM      9  C   UNL     1      -0.507   3.403  -1.340  1.00  0.00     0.000 C 
BRANCH   9  10
ATOM     10  C   UNL     1       0.224   3.887  -0.081  1.00  0.00     0.000 C 
BRANCH  10  11
ATOM     11  C   UNL     1       0.860   2.712   0.674  1.00  0.00     0.000 C 
BRANCH  11  12
ATOM     12  C   UNL     1       1.542   3.140   1.986  1.00  0.00     0.006 C 
BRANCH  12  13
ATOM     13  C   UNL     1       1.775   1.994   2.986  1.00  0.00     0.053 C 
BRANCH  13  14
ATOM     14  C   UNL     1       0.547   1.683   3.788  1.00  0.00     0.041 C 
ATOM     15  O   UNL     1       0.005   2.576   4.491  1.00  0.00    -0.550 OA
ATOM     16  O   UNL     1       0.007   0.404   3.762  1.00  0.00    -0.550 OA
ENDBRANCH  13  14
ENDBRANCH  12  13
ENDBRANCH  11  12
ENDBRANCH  10  11
ENDBRANCH   9  10
ENDBRANCH   8   9
ENDBRANCH   7   8
ENDBRANCH   6   7
ENDBRANCH   5   6
ENDBRANCH   4   5
ENDBRANCH   3   4
ENDBRANCH   2   3
ENDBRANCH   1   2
BRANCH   1  17
ATOM     17  C   UNL     1      -4.472   5.850  -7.014  1.00  0.00     0.000 C 
BRANCH  17  18
ATOM     18  C   UNL     1      -5.095   6.418  -8.302  1.00  0.00     0.000 C 
BRANCH  18  19
ATOM     19  C   UNL     1      -4.629   7.849  -8.642  1.00  0.00     0.000 C 
BRANCH  19  20
ATOM     20  C   UNL     1      -5.716   8.652  -9.375  1.00  0.00     0.000 C 
BRANCH  20  21
ATOM     21  C   UNL     1      -6.714   9.261  -8.383  1.00  0.00     0.000 C 
BRANCH  21  22
ATOM     22  C   UNL     1      -7.937   8.353  -8.204  1.00  0.00    -0.000 C 
BRANCH  22  23
ATOM     23  C   UNL     1      -8.847   8.406  -9.440  1.00  0.00    -0.000 C 
BRANCH  23  24
ATOM     24  C   UNL     1      -9.273   7.011  -9.931  1.00  0.00    -0.000 C 
BRANCH  24  25
ATOM     25  C   UNL     1      -8.220   5.902  -9.732  1.00  0.00    -0.000 C 
BRANCH  25  26
ATOM     26  C   UNL     1      -8.785   4.470  -9.642  1.00  0.00    -0.000 C 
BRANCH  26  27
ATOM     27  C   UNL     1      -9.568   4.157  -8.354  1.00  0.00    -0.000 C 
BRANCH  27  28
ATOM     28  C   UNL     1      -8.934   4.792  -7.105  1.00  0.00    -0.000 C 
BRANCH  28  29
ATOM     29  C   UNL     1      -9.743   4.510  -5.829  1.00  0.00    -0.003 C 
ATOM     30  C   UNL     1     -10.099   3.030  -5.671  1.00  0.00     0.004 C 
ENDBRANCH  28  29
ENDBRANCH  27  28
ENDBRANCH  26  27
ENDBRANCH  25  26
ENDBRANCH  24  25
ENDBRANCH  23  24
ENDBRANCH  22  23
ENDBRANCH  21  22
ENDBRANCH  20  21
ENDBRANCH  19  20
ENDBRANCH  18  19
ENDBRANCH  17  18
ENDBRANCH   1  17
TORSDOF 26
ENDMDL
MODEL 3
REMARK VINA RESULT:    -0.798      1.371      1.818
REMARK INTER + INTRA:          -3.514
REMARK INTER:                  -2.578
REMARK INTRA:                  -0.936
REMARK UNBOUND:                -1.502
REMARK SMILES CCCCCCCCCCCCCCCCCCCCCCCCCCCC(=O)[O-]
REMARK SMILES IDX 15 1 16 2 17 3 18 4 19 5 20 6 21 7 22 8 23 9 24 10 25 11
REMARK SMILES IDX 26 12 27 13 28 14 29 15 30 16 14 17 13 18 12 19 11 20 10 21
REMARK SMILES IDX 9 22 8 23 7 24 6 25 5 26 4 27 3 28 2 29 1 30
REMARK H PARENT
REMARK Flexibility Score: inf
ROOT
ATOM      1  C   UNL     1      -3.008   4.608  -4.858  1.00  0.00     0.000 C 
ENDROOT
BRANCH   1   2
ATOM      2  C   UNL     1      -3.740   5.955  -5.012  1.00  0.00     0.000 C 
BRANCH   2   3
ATOM      3  C   UNL     1      -3.226   6.856  -6.154  1.00  0.00     0.000 C 
BRANCH   3   4
ATOM      4  C   UNL     1      -4.245   7.132  -7.275  1.00  0.00     0.000 C 
BRANCH   4   5
ATOM      5  C   UNL     1      -3.678   7.879  -8.499  1.00  0.00     0.000 C 
BRANCH   5   6
ATOM      6  C   UNL     1      -4.105   9.355  -8.609  1.00  0.00     0.000 C 
BRANCH   6   7
ATOM      7  C   UNL     1      -5.634   9.532  -8.606  1.00  0.00     0.000 C 
BRANCH   7   8
ATOM      8  C   UNL     1      -6.258   9.331  -9.995  1.00  0.00     0.000 C 
BRANCH   8   9
ATOM      9  C   UNL     1      -7.095   8.047 -10.087  1.00  0.00     0.000 C 
BRANCH   9  10
ATOM     10  C   UNL     1      -8.584   8.343  -9.865  1.00  0.00     0.000 C 
BRANCH  10  11
ATOM     11  C   UNL     1      -9.379   7.047  -9.655  1.00  0.00     0.000 C 
BRANCH  11  12
ATOM     12  C   UNL     1      -8.521   5.781  -9.831  1.00  0.00     0.006 C 
BRANCH  12  13
ATOM     13  C   UNL     1      -8.940   4.600  -8.939  1.00  0.00     0.053 C 
BRANCH  13  14
ATOM     14  C   UNL     1      -8.796   4.912  -7.480  1.00  0.00     0.041 C 
ATOM     15  O   UNL     1      -9.408   4.224  -6.619  1.00  0.00    -0.550 OA
ATOM     16  O   UNL     1      -7.991   5.967  -7.071  1.00  0.00    -0.550 OA
ENDBRANCH  13  14
ENDBRANCH  12  13
ENDBRANCH  11  12
ENDBRANCH  10  11
ENDBRANCH   9  10
ENDBRANCH   8   9
ENDBRANCH   7   8
ENDBRANCH   6   7
ENDBRANCH   5   6
ENDBRANCH   4   5
ENDBRANCH   3   4
ENDBRANCH   2   3
ENDBRANCH   1   2
BRANCH   1  17
ATOM     17  C   UNL     1      -2.898   4.152  -3.393  1.00  0.00     0.000 C 
BRANCH  17  18
ATOM     18  C   UNL     1      -3.260   2.669  -3.198  1.00  0.00     0.000 C 
BRANCH  18  19
ATOM     19  C   UNL     1      -2.066   1.785  -2.780  1.00  0.00     0.000 C 
BRANCH  19  20
ATOM     20  C   UNL     1      -0.768   2.190  -3.496  1.00  0.00     0.000 C 
BRANCH  20  21
ATOM     21  C   UNL     1       0.094   3.093  -2.605  1.00  0.00     0.000 C 
BRANCH  21  22
ATOM     22  C   UNL     1      -0.629   3.425  -1.293  1.00  0.00    -0.000 C 
BRANCH  22  23
ATOM     23  C   UNL     1       0.377   3.767  -0.184  1.00  0.00    -0.000 C 
BRANCH  23  24
ATOM     24  C   UNL     1       0.314   2.791   1.004  1.00  0.00    -0.000 C 
BRANCH  24  25
ATOM     25  C   UNL     1       1.684   2.316   1.529  1.00  0.00    -0.000 C 
BRANCH  25  26
ATOM     26  C   UNL     1       1.819   2.273   3.065  1.00  0.00    -0.000 C 
BRANCH  26  27
ATOM     27  C   UNL     1       0.801   1.369   3.783  1.00  0.00    -0.000 C 
BRANCH  27  28
ATOM     28  C   UNL     1      -0.051   2.134   4.810  1.00  0.00    -0.000 C 
BRANCH  28  29
ATOM     29  C   UNL     1       0.393   3.597   4.966  1.00  0.00    -0.003 C 
ATOM     30  C   UNL     1       0.288   4.096   6.408  1.00  0.00     0.004 C 
ENDBRANCH  28  29
ENDBRANCH  27  28
ENDBRANCH  26  27
ENDBRANCH  25  26
ENDBRANCH  24  25
ENDBRANCH  23  24
ENDBRANCH  22  23
ENDBRANCH  21  22
ENDBRANCH  20  21
ENDBRANCH  19  20
ENDBRANCH  18  19
ENDBRANCH  17  18
ENDBRANCH   1  17
TORSDOF 26
ENDMDL
MODEL 4
REMARK VINA RESULT:    -0.636      4.004      9.931
REMARK INTER + INTRA:          -3.105
REMARK INTER:                  -1.825
REMARK INTRA:                  -1.280
REMARK UNBOUND:                -1.502
REMARK SMILES CCCCCCCCCCCCCCCCCCCCCCCCCCCC(=O)[O-]
REMARK SMILES IDX 15 1 16 2 17 3 18 4 19 5 20 6 21 7 22 8 23 9 24 10 25 11
REMARK SMILES IDX 26 12 27 13 28 14 29 15 30 16 14 17 13 18 12 19 11 20 10 21
REMARK SMILES IDX 9 22 8 23 7 24 6 25 5 26 4 27 3 28 2 29 1 30
REMARK H PARENT
REMARK Flexibility Score: inf
ROOT
ATOM      1  C   UNL     1      -6.441   6.878  -6.796  1.00  0.00     0.000 C 
ENDROOT
BRANCH   1   2
ATOM      2  C   UNL     1      -5.669   8.148  -6.390  1.00  0.00     0.000 C 
BRANCH   2   3
ATOM      3  C   UNL     1      -4.649   8.657  -7.429  1.00  0.00     0.000 C 
BRANCH   3   4
ATOM      4  C   UNL     1      -3.245   8.032  -7.324  1.00  0.00     0.000 C 
BRANCH   4   5
ATOM      5  C   UNL     1      -3.227   6.526  -6.995  1.00  0.00     0.000 C 
BRANCH   5   6
ATOM      6  C   UNL     1      -3.182   6.193  -5.492  1.00  0.00     0.000 C 
BRANCH   6   7
ATOM      7  C   UNL     1      -3.250   4.680  -5.218  1.00  0.00     0.000 C 
BRANCH   7   8
ATOM      8  C   UNL     1      -3.144   4.342  -3.723  1.00  0.00     0.000 C 
BRANCH   8   9
ATOM      9  C   UNL     1      -1.699   4.072  -3.278  1.00  0.00     0.000 C 
BRANCH   9  10
ATOM     10  C   UNL     1      -1.666   3.290  -1.959  1.00  0.00     0.000 C 
BRANCH  10  11
ATOM     11  C   UNL     1      -1.019   1.911  -2.151  1.00  0.00     0.000 C 
BRANCH  11  12
ATOM     12  C   UNL     1      -1.095   1.409  -3.604  1.00  0.00     0.006 C 
BRANCH  12  13
ATOM     13  C   UNL     1      -0.653  -0.052  -3.796  1.00  0.00     0.053 C 
BRANCH  13  14
ATOM     14  C   UNL     1      -1.818  -0.980  -3.963  1.00  0.00     0.041 C 
ATOM     15  O   UNL     1      -1.810  -1.855  -4.868  1.00  0.00    -0.550 OA
ATOM     16  O   UNL     1      -2.917  -0.873  -3.119  1.00  0.00    -0.550 OA
ENDBRANCH  13  14
ENDBRANCH  12  13
ENDBRANCH  11  12
ENDBRANCH  10  11
ENDBRANCH   9  10
ENDBRANCH   8   9
ENDBRANCH   7   8
ENDBRANCH   6   7
ENDBRANCH   5   6
ENDBRANCH   4   5
ENDBRANCH   3   4
ENDBRANCH   2   3
ENDBRANCH   1   2
BRANCH   1  17
ATOM     17  C   UNL     1      -7.788   7.188  -7.471  1.00  0.00     0.000 C 
BRANCH  17  18
ATOM     18  C   UNL     1      -7.714   8.386  -8.435  1.00  0.00     0.000 C 
BRANCH  18  19
ATOM     19  C   UNL     1      -7.848   7.999  -9.922  1.00  0.00     0.000 C 
BRANCH  19  20
ATOM     20  C   UNL     1      -8.203   6.514 -10.104  1.00  0.00     0.000 C 
BRANCH  20  21
ATOM     21  C   UNL     1      -9.716   6.292  -9.988  1.00  0.00     0.000 C 
BRANCH  21  22
ATOM     22  C   UNL     1     -10.052   4.795  -9.957  1.00  0.00    -0.000 C 
BRANCH  22  23
ATOM     23  C   UNL     1      -9.270   4.080  -8.845  1.00  0.00    -0.000 C 
BRANCH  23  24
ATOM     24  C   UNL     1     -10.001   4.100  -7.491  1.00  0.00    -0.000 C 
BRANCH  24  25
ATOM     25  C   UNL     1      -9.896   2.795  -6.676  1.00  0.00    -0.000 C 
BRANCH  25  26
ATOM     26  C   UNL     1      -9.618   2.982  -5.171  1.00  0.00    -0.000 C 
BRANCH  26  27
ATOM     27  C   UNL     1      -9.954   4.378  -4.614  1.00  0.00    -0.000 C 
BRANCH  27  28
ATOM     28  C   UNL     1     -10.125   4.382  -3.086  1.00  0.00    -0.000 C 
BRANCH  28  29
ATOM     29  C   UNL     1      -9.281   5.472  -2.406  1.00  0.00    -0.003 C 
ATOM     30  C   UNL     1      -8.760   5.045  -1.033  1.00  0.00     0.004 C 
ENDBRANCH  28  29
ENDBRANCH  27  28
ENDBRANCH  26  27
ENDBRANCH  25  26
ENDBRANCH  24  25
ENDBRANCH  23  24
ENDBRANCH  22  23
ENDBRANCH  21  22
ENDBRANCH  20  21
ENDBRANCH  19  20
ENDBRANCH  18  19
ENDBRANCH  17  18
ENDBRANCH   1  17
TORSDOF 26
ENDMDL
MODEL 5
REMARK VINA RESULT:    -0.409      2.981      5.243
REMARK INTER + INTRA:          -2.532
REMARK INTER:                  -1.129
REMARK INTRA:                  -1.403
REMARK UNBOUND:                -1.502
REMARK SMILES CCCCCCCCCCCCCCCCCCCCCCCCCCCC(=O)[O-]
REMARK SMILES IDX 15 1 16 2 17 3 18 4 19 5 20 6 21 7 22 8 23 9 24 10 25 11
REMARK SMILES IDX 26 12 27 13 28 14 29 15 30 16 14 17 13 18 12 19 11 20 10 21
REMARK SMILES IDX 9 22 8 23 7 24 6 25 5 26 4 27 3 28 2 29 1 30
REMARK H PARENT
REMARK Flexibility Score: inf
ROOT
ATOM      1  C   UNL     1      -3.957   5.413  -6.073  1.00  0.00     0.000 C 
ENDROOT
BRANCH   1   2
ATOM      2  C   UNL     1      -4.501   6.820  -6.388  1.00  0.00     0.000 C 
BRANCH   2   3
ATOM      3  C   UNL     1      -3.433   7.928  -6.498  1.00  0.00     0.000 C 
BRANCH   3   4
ATOM      4  C   UNL     1      -3.107   8.377  -7.936  1.00  0.00     0.000 C 
BRANCH   4   5
ATOM      5  C   UNL     1      -4.171   8.008  -8.989  1.00  0.00     0.000 C 
BRANCH   5   6
ATOM      6  C   UNL     1      -4.721   9.199  -9.796  1.00  0.00     0.000 C 
BRANCH   6   7
ATOM      7  C   UNL     1      -5.834   9.957  -9.050  1.00  0.00     0.000 C 
BRANCH   7   8
ATOM      8  C   UNL     1      -6.794   9.018  -8.304  1.00  0.00     0.000 C 
BRANCH   8   9
ATOM      9  C   UNL     1      -8.270   9.327  -8.598  1.00  0.00     0.000 C 
BRANCH   9  10
ATOM     10  C   UNL     1      -8.896   8.237  -9.477  1.00  0.00     0.000 C 
BRANCH  10  11
ATOM     11  C   UNL     1      -7.824   7.278 -10.014  1.00  0.00     0.000 C 
BRANCH  11  12
ATOM     12  C   UNL     1      -8.320   5.825 -10.125  1.00  0.00     0.006 C 
BRANCH  12  13
ATOM     13  C   UNL     1      -7.889   4.916  -8.961  1.00  0.00     0.053 C 
BRANCH  13  14
ATOM     14  C   UNL     1      -8.901   4.891  -7.856  1.00  0.00     0.041 C 
ATOM     15  O   UNL     1     -10.070   5.316  -8.054  1.00  0.00    -0.550 OA
ATOM     16  O   UNL     1      -8.550   4.401  -6.604  1.00  0.00    -0.550 OA
ENDBRANCH  13  14
ENDBRANCH  12  13
ENDBRANCH  11  12
ENDBRANCH  10  11
ENDBRANCH   9  10
ENDBRANCH   8   9
ENDBRANCH   7   8
ENDBRANCH   6   7
ENDBRANCH   5   6
ENDBRANCH   4   5
ENDBRANCH   3   4
ENDBRANCH   2   3
ENDBRANCH   1   2
BRANCH   1  17
ATOM     17  C   UNL     1      -2.795   5.434  -5.066  1.00  0.00     0.000 C 
BRANCH  17  18
ATOM     18  C   UNL     1      -3.180   4.850  -3.695  1.00  0.00     0.000 C 
BRANCH  18  19
ATOM     19  C   UNL     1      -2.944   3.330  -3.575  1.00  0.00     0.000 C 
BRANCH  19  20
ATOM     20  C   UNL     1      -2.390   2.938  -2.195  1.00  0.00     0.000 C 
BRANCH  20  21
ATOM     21  C   UNL     1      -1.430   4.009  -1.663  1.00  0.00     0.000 C 
BRANCH  21  22
ATOM     22  C   UNL     1      -0.204   3.369  -0.999  1.00  0.00    -0.000 C 
BRANCH  22  23
ATOM     23  C   UNL     1      -0.021   1.918  -1.467  1.00  0.00    -0.000 C 
BRANCH  23  24
ATOM     24  C   UNL     1      -0.013   1.779  -3.000  1.00  0.00    -0.000 C 
BRANCH  24  25
ATOM     25  C   UNL     1      -0.047   0.329  -3.522  1.00  0.00    -0.000 C 
BRANCH  25  26
ATOM     26  C   UNL     1      -1.339  -0.073  -4.261  1.00  0.00    -0.000 C 
BRANCH  26  27
ATOM     27  C   UNL     1      -1.309  -1.465  -4.917  1.00  0.00    -0.000 C 
BRANCH  27  28
ATOM     28  C   UNL     1      -2.268  -2.460  -4.243  1.00  0.00    -0.000 C 
BRANCH  28  29
ATOM     29  C   UNL     1      -2.095  -3.892  -4.774  1.00  0.00    -0.003 C 
ATOM     30  C   UNL     1      -2.225  -4.949  -3.676  1.00  0.00     0.004 C 
ENDBRANCH  28  29
ENDBRANCH  27  28
ENDBRANCH  26  27
ENDBRANCH  25  26
ENDBRANCH  24  25
ENDBRANCH  23  24
ENDBRANCH  22  23
ENDBRANCH  21  22
ENDBRANCH  20  21
ENDBRANCH  19  20
ENDBRANCH  18  19
ENDBRANCH  17  18
ENDBRANCH   1  17
TORSDOF 26
ENDMDL
MODEL 6
REMARK VINA RESULT:    -0.294      3.874     12.593
REMARK INTER + INTRA:          -2.241
REMARK INTER:                  -0.068
REMARK INTRA:                  -2.174
REMARK UNBOUND:                -1.502
REMARK SMILES CCCCCCCCCCCCCCCCCCCCCCCCCCCC(=O)[O-]
REMARK SMILES IDX 15 1 16 2 17 3 18 4 19 5 20 6 21 7 22 8 23 9 24 10 25 11
REMARK SMILES IDX 26 12 27 13 28 14 29 15 30 16 14 17 13 18 12 19 11 20 10 21
REMARK SMILES IDX 9 22 8 23 7 24 6 25 5 26 4 27 3 28 2 29 1 30
REMARK H PARENT
REMARK Flexibility Score: inf
ROOT
ATOM      1  C   UNL     1      -3.623   5.584  -4.948  1.00  0.00     0.000 C 
ENDROOT
BRANCH   1   2
ATOM      2  C   UNL     1      -2.737   4.466  -4.366  1.00  0.00     0.000 C 
BRANCH   2   3
ATOM      3  C   UNL     1      -3.251   3.836  -3.055  1.00  0.00     0.000 C 
BRANCH   3   4
ATOM      4  C   UNL     1      -2.477   2.590  -2.584  1.00  0.00     0.000 C 
BRANCH   4   5
ATOM      5  C   UNL     1      -1.049   2.460  -3.150  1.00  0.00     0.000 C 
BRANCH   5   6
ATOM      6  C   UNL     1       0.067   2.934  -2.200  1.00  0.00     0.000 C 
BRANCH   6   7
ATOM      7  C   UNL     1      -0.477   3.440  -0.852  1.00  0.00     0.000 C 
BRANCH   7   8
ATOM      8  C   UNL     1      -0.082   2.534   0.324  1.00  0.00     0.000 C 
BRANCH   8   9
ATOM      9  C   UNL     1       1.039   3.137   1.185  1.00  0.00     0.000 C 
BRANCH   9  10
ATOM     10  C   UNL     1       1.360   2.233   2.382  1.00  0.00     0.000 C 
BRANCH  10  11
ATOM     11  C   UNL     1       0.077   1.798   3.105  1.00  0.00     0.000 C 
BRANCH  11  12
ATOM     12  C   UNL     1       0.126   2.057   4.622  1.00  0.00     0.006 C 
BRANCH  12  13
ATOM     13  C   UNL     1       0.977   3.271   5.033  1.00  0.00     0.053 C 
BRANCH  13  14
ATOM     14  C   UNL     1       0.358   4.041   6.161  1.00  0.00     0.041 C 
ATOM     15  O   UNL     1      -0.467   4.962   5.924  1.00  0.00    -0.550 OA
ATOM     16  O   UNL     1       0.699   3.743   7.474  1.00  0.00    -0.550 OA
ENDBRANCH  13  14
ENDBRANCH  12  13
ENDBRANCH  11  12
ENDBRANCH  10  11
ENDBRANCH   9  10
ENDBRANCH   8   9
ENDBRANCH   7   8
ENDBRANCH   6   7
ENDBRANCH   5   6
ENDBRANCH   4   5
ENDBRANCH   3   4
ENDBRANCH   2   3
ENDBRANCH   1   2
BRANCH   1  17
ATOM     17  C   UNL     1      -3.712   5.538  -6.482  1.00  0.00     0.000 C 
BRANCH  17  18
ATOM     18  C   UNL     1      -5.072   6.018  -7.018  1.00  0.00     0.000 C 
BRANCH  18  19
ATOM     19  C   UNL     1      -5.514   7.388  -6.461  1.00  0.00     0.000 C 
BRANCH  19  20
ATOM     20  C   UNL     1      -4.868   8.557  -7.221  1.00  0.00     0.000 C 
BRANCH  20  21
ATOM     21  C   UNL     1      -5.016   8.377  -8.737  1.00  0.00     0.000 C 
BRANCH  21  22
ATOM     22  C   UNL     1      -5.441   9.689  -9.409  1.00  0.00    -0.000 C 
BRANCH  22  23
ATOM     23  C   UNL     1      -6.966   9.745  -9.587  1.00  0.00    -0.000 C 
BRANCH  23  24
ATOM     24  C   UNL     1      -7.555   8.428 -10.124  1.00  0.00    -0.000 C 
BRANCH  24  25
ATOM     25  C   UNL     1      -9.018   8.158  -9.719  1.00  0.00    -0.000 C 
BRANCH  25  26
ATOM     26  C   UNL     1      -9.328   6.705  -9.306  1.00  0.00    -0.000 C 
BRANCH  26  27
ATOM     27  C   UNL     1      -8.105   5.773  -9.236  1.00  0.00    -0.000 C 
BRANCH  27  28
ATOM     28  C   UNL     1      -8.186   4.773  -8.071  1.00  0.00    -0.000 C 
BRANCH  28  29
ATOM     29  C   UNL     1      -9.543   4.824  -7.349  1.00  0.00    -0.003 C 
ATOM     30  C   UNL     1      -9.537   4.055  -6.027  1.00  0.00     0.004 C 
ENDBRANCH  28  29
ENDBRANCH  27  28
ENDBRANCH  26  27
ENDBRANCH  25  26
ENDBRANCH  24  25
ENDBRANCH  23  24
ENDBRANCH  22  23
ENDBRANCH  21  22
ENDBRANCH  20  21
ENDBRANCH  19  20
ENDBRANCH  18  19
ENDBRANCH  17  18
ENDBRANCH   1  17
TORSDOF 26
ENDMDL
MODEL 7
REMARK VINA RESULT:    -0.222      1.671      2.386
REMARK INTER + INTRA:          -2.060
REMARK INTER:                  -0.916
REMARK INTRA:                  -1.144
REMARK UNBOUND:                -1.502
REMARK SMILES CCCCCCCCCCCCCCCCCCCCCCCCCCCC(=O)[O-]
REMARK SMILES IDX 15 1 16 2 17 3 18 4 19 5 20 6 21 7 22 8 23 9 24 10 25 11
REMARK SMILES IDX 26 12 27 13 28 14 29 15 30 16 14 17 13 18 12 19 11 20 10 21
REMARK SMILES IDX 9 22 8 23 7 24 6 25 5 26 4 27 3 28 2 29 1 30
REMARK H PARENT
REMARK Flexibility Score: inf
ROOT
ATOM      1  C   UNL     1      -3.023   3.932  -4.308  1.00  0.00     0.000 C 
ENDROOT
BRANCH   1   2
ATOM      2  C   UNL     1      -3.288   5.438  -4.113  1.00  0.00     0.000 C 
BRANCH   2   3
ATOM      3  C   UNL     1      -3.370   6.264  -5.414  1.00  0.00     0.000 C 
BRANCH   3   4
ATOM      4  C   UNL     1      -4.584   5.950  -6.310  1.00  0.00     0.000 C 
BRANCH   4   5
ATOM      5  C   UNL     1      -4.577   6.652  -7.683  1.00  0.00     0.000 C 
BRANCH   5   6
ATOM      6  C   UNL     1      -4.664   8.188  -7.623  1.00  0.00     0.000 C 
BRANCH   6   7
ATOM      7  C   UNL     1      -6.115   8.700  -7.603  1.00  0.00     0.000 C 
BRANCH   7   8
ATOM      8  C   UNL     1      -6.375   9.789  -8.654  1.00  0.00     0.000 C 
BRANCH   8   9
ATOM      9  C   UNL     1      -7.269   9.300  -9.803  1.00  0.00     0.000 C 
BRANCH   9  10
ATOM     10  C   UNL     1      -8.701   9.045  -9.316  1.00  0.00     0.000 C 
BRANCH  10  11
ATOM     11  C   UNL     1      -9.171   7.634  -9.697  1.00  0.00     0.000 C 
BRANCH  11  12
ATOM     12  C   UNL     1      -8.012   6.628  -9.818  1.00  0.00     0.006 C 
BRANCH  12  13
ATOM     13  C   UNL     1      -8.413   5.163  -9.579  1.00  0.00     0.053 C 
BRANCH  13  14
ATOM     14  C   UNL     1      -8.754   4.895  -8.144  1.00  0.00     0.041 C 
ATOM     15  O   UNL     1      -7.854   4.913  -7.263  1.00  0.00    -0.550 OA
ATOM     16  O   UNL     1     -10.067   4.620  -7.781  1.00  0.00    -0.550 OA
ENDBRANCH  13  14
ENDBRANCH  12  13
ENDBRANCH  11  12
ENDBRANCH  10  11
ENDBRANCH   9  10
ENDBRANCH   8   9
ENDBRANCH   7   8
ENDBRANCH   6   7
ENDBRANCH   5   6
ENDBRANCH   4   5
ENDBRANCH   3   4
ENDBRANCH   2   3
ENDBRANCH   1   2
BRANCH   1  17
ATOM     17  C   UNL     1      -3.007   3.153  -2.982  1.00  0.00     0.000 C 
BRANCH  17  18
ATOM     18  C   UNL     1      -2.624   1.673  -3.162  1.00  0.00     0.000 C 
BRANCH  18  19
ATOM     19  C   UNL     1      -1.143   1.369  -2.855  1.00  0.00     0.000 C 
BRANCH  19  20
ATOM     20  C   UNL     1      -0.192   2.314  -3.606  1.00  0.00     0.000 C 
BRANCH  20  21
ATOM     21  C   UNL     1       0.363   3.395  -2.671  1.00  0.00     0.000 C 
BRANCH  21  22
ATOM     22  C   UNL     1      -0.485   3.512  -1.398  1.00  0.00    -0.000 C 
BRANCH  22  23
ATOM     23  C   UNL     1       0.390   3.861  -0.185  1.00  0.00    -0.000 C 
BRANCH  23  24
ATOM     24  C   UNL     1       0.520   2.698   0.815  1.00  0.00    -0.000 C 
BRANCH  24  25
ATOM     25  C   UNL     1       1.589   2.897   1.908  1.00  0.00    -0.000 C 
BRANCH  25  26
ATOM     26  C   UNL     1       1.478   1.944   3.116  1.00  0.00    -0.000 C 
BRANCH  26  27
ATOM     27  C   UNL     1       0.091   1.898   3.783  1.00  0.00    -0.000 C 
BRANCH  27  28
ATOM     28  C   UNL     1       0.140   2.255   5.278  1.00  0.00    -0.000 C 
BRANCH  28  29
ATOM     29  C   UNL     1       0.742   3.647   5.528  1.00  0.00    -0.003 C 
ATOM     30  C   UNL     1      -0.170   4.543   6.368  1.00  0.00     0.004 C 
ENDBRANCH  28  29
ENDBRANCH  27  28
ENDBRANCH  26  27
ENDBRANCH  25  26
ENDBRANCH  24  25
ENDBRANCH  23  24
ENDBRANCH  22  23
ENDBRANCH  21  22
ENDBRANCH  20  21
ENDBRANCH  19  20
ENDBRANCH  18  19
ENDBRANCH  17  18
ENDBRANCH   1  17
TORSDOF 26
ENDMDL
MODEL 8
REMARK VINA RESULT:    -0.182      3.801     12.390
REMARK INTER + INTRA:          -1.960
REMARK INTER:                  -1.890
REMARK INTRA:                  -0.070
REMARK UNBOUND:                -1.502
REMARK SMILES CCCCCCCCCCCCCCCCCCCCCCCCCCCC(=O)[O-]
REMARK SMILES IDX 15 1 16 2 17 3 18 4 19 5 20 6 21 7 22 8 23 9 24 10 25 11
REMARK SMILES IDX 26 12 27 13 28 14 29 15 30 16 14 17 13 18 12 19 11 20 10 21
REMARK SMILES IDX 9 22 8 23 7 24 6 25 5 26 4 27 3 28 2 29 1 30
REMARK H PARENT
REMARK Flexibility Score: inf
ROOT
ATOM      1  C   UNL     1      -3.696   6.003  -4.926  1.00  0.00     0.000 C 
ENDROOT
BRANCH   1   2
ATOM      2  C   UNL     1      -3.055   4.606  -4.821  1.00  0.00     0.000 C 
BRANCH   2   3
ATOM      3  C   UNL     1      -2.797   4.108  -3.383  1.00  0.00     0.000 C 
BRANCH   3   4
ATOM      4  C   UNL     1      -3.156   2.631  -3.131  1.00  0.00     0.000 C 
BRANCH   4   5
ATOM      5  C   UNL     1      -1.965   1.729  -2.750  1.00  0.00     0.000 C 
BRANCH   5   6
ATOM      6  C   UNL     1      -0.597   2.436  -2.740  1.00  0.00     0.000 C 
BRANCH   6   7
ATOM      7  C   UNL     1      -0.694   3.909  -2.308  1.00  0.00     0.000 C 
BRANCH   7   8
ATOM      8  C   UNL     1       0.034   4.189  -0.985  1.00  0.00     0.000 C 
BRANCH   8   9
ATOM      9  C   UNL     1      -0.195   3.089   0.061  1.00  0.00     0.000 C 
BRANCH   9  10
ATOM     10  C   UNL     1       1.136   2.582   0.629  1.00  0.00     0.000 C 
BRANCH  10  11
ATOM     11  C   UNL     1       1.353   3.087   2.062  1.00  0.00     0.000 C 
BRANCH  11  12
ATOM     12  C   UNL     1       1.822   1.981   3.025  1.00  0.00     0.006 C 
BRANCH  12  13
ATOM     13  C   UNL     1       0.689   1.107   3.588  1.00  0.00     0.053 C 
BRANCH  13  14
ATOM     14  C   UNL     1       0.272   1.535   4.963  1.00  0.00     0.041 C 
ATOM     15  O   UNL     1       0.152   0.685   5.885  1.00  0.00    -0.550 OA
ATOM     16  O   UNL     1       0.011   2.874   5.224  1.00  0.00    -0.550 OA
ENDBRANCH  13  14
ENDBRANCH  12  13
ENDBRANCH  11  12
ENDBRANCH  10  11
ENDBRANCH   9  10
ENDBRANCH   8   9
ENDBRANCH   7   8
ENDBRANCH   6   7
ENDBRANCH   5   6
ENDBRANCH   4   5
ENDBRANCH   3   4
ENDBRANCH   2   3
ENDBRANCH   1   2
BRANCH   1  17
ATOM     17  C   UNL     1      -3.618   6.590  -6.346  1.00  0.00     0.000 C 
BRANCH  17  18
ATOM     18  C   UNL     1      -4.904   7.327  -6.761  1.00  0.00     0.000 C 
BRANCH  18  19
ATOM     19  C   UNL     1      -5.096   7.437  -8.288  1.00  0.00     0.000 C 
BRANCH  19  20
ATOM     20  C   UNL     1      -4.108   8.428  -8.924  1.00  0.00     0.000 C 
BRANCH  20  21
ATOM     21  C   UNL     1      -4.632   9.866  -8.826  1.00  0.00     0.000 C 
BRANCH  21  22
ATOM     22  C   UNL     1      -6.049   9.978  -9.404  1.00  0.00    -0.000 C 
BRANCH  22  23
ATOM     23  C   UNL     1      -7.095  10.044  -8.282  1.00  0.00    -0.000 C 
BRANCH  23  24
ATOM     24  C   UNL     1      -8.524   9.755  -8.778  1.00  0.00    -0.000 C 
BRANCH  24  25
ATOM     25  C   UNL     1      -8.613   8.786  -9.974  1.00  0.00    -0.000 C 
BRANCH  25  26
ATOM     26  C   UNL     1      -9.477   7.530  -9.738  1.00  0.00    -0.000 C 
BRANCH  26  27
ATOM     27  C   UNL     1      -8.696   6.271  -9.320  1.00  0.00    -0.000 C 
BRANCH  27  28
ATOM     28  C   UNL     1      -9.508   5.348  -8.396  1.00  0.00    -0.000 C 
BRANCH  28  29
ATOM     29  C   UNL     1      -8.918   5.274  -6.978  1.00  0.00    -0.003 C 
ATOM     30  C   UNL     1      -9.345   4.012  -6.227  1.00  0.00     0.004 C 
ENDBRANCH  28  29
ENDBRANCH  27  28
ENDBRANCH  26  27
ENDBRANCH  25  26
ENDBRANCH  24  25
ENDBRANCH  23  24
ENDBRANCH  22  23
ENDBRANCH  21  22
ENDBRANCH  20  21
ENDBRANCH  19  20
ENDBRANCH  18  19
ENDBRANCH  17  18
ENDBRANCH   1  17
TORSDOF 26
ENDMDL
MODEL 9
REMARK VINA RESULT:    -0.150      1.761      2.625
REMARK INTER + INTRA:          -1.879
REMARK INTER:                  -0.457
REMARK INTRA:                  -1.422
REMARK UNBOUND:                -1.502
REMARK SMILES CCCCCCCCCCCCCCCCCCCCCCCCCCCC(=O)[O-]
REMARK SMILES IDX 15 1 16 2 17 3 18 4 19 5 20 6 21 7 22 8 23 9 24 10 25 11
REMARK SMILES IDX 26 12 27 13 28 14 29 15 30 16 14 17 13 18 12 19 11 20 10 21
REMARK SMILES IDX 9 22 8 23 7 24 6 25 5 26 4 27 3 28 2 29 1 30
REMARK H PARENT
REMARK Flexibility Score: inf
ROOT
ATOM      1  C   UNL     1      -3.368   4.950  -5.962  1.00  0.00     0.000 C 
ENDROOT
BRANCH   1   2
ATOM      2  C   UNL     1      -4.601   5.407  -6.766  1.00  0.00     0.000 C 
BRANCH   2   3
ATOM      3  C   UNL     1      -5.063   6.854  -6.494  1.00  0.00     0.000 C 
BRANCH   3   4
ATOM      4  C   UNL     1      -4.150   7.949  -7.076  1.00  0.00     0.000 C 
BRANCH   4   5
ATOM      5  C   UNL     1      -3.470   7.587  -8.412  1.00  0.00     0.000 C 
BRANCH   5   6
ATOM      6  C   UNL     1      -4.026   8.329  -9.642  1.00  0.00     0.000 C 
BRANCH   6   7
ATOM      7  C   UNL     1      -5.557   8.221  -9.756  1.00  0.00     0.000 C 
BRANCH   7   8
ATOM      8  C   UNL     1      -6.247   9.593  -9.794  1.00  0.00     0.000 C 
BRANCH   8   9
ATOM      9  C   UNL     1      -7.659   9.562  -9.190  1.00  0.00     0.000 C 
BRANCH   9  10
ATOM     10  C   UNL     1      -7.901   8.255  -8.424  1.00  0.00     0.000 C 
BRANCH  10  11
ATOM     11  C   UNL     1      -8.982   7.407  -9.109  1.00  0.00     0.000 C 
BRANCH  11  12
ATOM     12  C   UNL     1      -8.400   6.257  -9.950  1.00  0.00     0.006 C 
BRANCH  12  13
ATOM     13  C   UNL     1      -9.209   4.950  -9.888  1.00  0.00     0.053 C 
BRANCH  13  14
ATOM     14  C   UNL     1      -9.430   4.486  -8.480  1.00  0.00     0.041 C 
ATOM     15  O   UNL     1      -8.987   5.159  -7.512  1.00  0.00    -0.550 OA
ATOM     16  O   UNL     1     -10.123   3.307  -8.238  1.00  0.00    -0.550 OA
ENDBRANCH  13  14
ENDBRANCH  12  13
ENDBRANCH  11  12
ENDBRANCH  10  11
ENDBRANCH   9  10
ENDBRANCH   8   9
ENDBRANCH   7   8
ENDBRANCH   6   7
ENDBRANCH   5   6
ENDBRANCH   4   5
ENDBRANCH   3   4
ENDBRANCH   2   3
ENDBRANCH   1   2
BRANCH   1  17
ATOM     17  C   UNL     1      -3.256   5.644  -4.594  1.00  0.00     0.000 C 
BRANCH  17  18
ATOM     18  C   UNL     1      -3.060   4.652  -3.433  1.00  0.00     0.000 C 
BRANCH  18  19
ATOM     19  C   UNL     1      -3.326   3.182  -3.817  1.00  0.00     0.000 C 
BRANCH  19  20
ATOM     20  C   UNL     1      -3.048   2.220  -2.650  1.00  0.00     0.000 C 
BRANCH  20  21
ATOM     21  C   UNL     1      -1.705   1.503  -2.836  1.00  0.00     0.000 C 
BRANCH  21  22
ATOM     22  C   UNL     1      -0.649   2.452  -3.416  1.00  0.00    -0.000 C 
BRANCH  22  23
ATOM     23  C   UNL     1       0.421   2.790  -2.367  1.00  0.00    -0.000 C 
BRANCH  23  24
ATOM     24  C   UNL     1      -0.148   3.548  -1.154  1.00  0.00    -0.000 C 
BRANCH  24  25
ATOM     25  C   UNL     1       0.015   2.825   0.198  1.00  0.00    -0.000 C 
BRANCH  25  26
ATOM     26  C   UNL     1       1.166   3.343   1.084  1.00  0.00    -0.000 C 
BRANCH  26  27
ATOM     27  C   UNL     1       1.739   2.313   2.075  1.00  0.00    -0.000 C 
BRANCH  27  28
ATOM     28  C   UNL     1       1.042   2.357   3.445  1.00  0.00    -0.000 C 
BRANCH  28  29
ATOM     29  C   UNL     1       0.101   1.160   3.662  1.00  0.00    -0.003 C 
ATOM     30  C   UNL     1       0.686   0.114   4.612  1.00  0.00     0.004 C 
ENDBRANCH  28  29
ENDBRANCH  27  28
ENDBRANCH  26  27
ENDBRANCH  25  26
ENDBRANCH  24  25
ENDBRANCH  23  24
ENDBRANCH  22  23
ENDBRANCH  21  22
ENDBRANCH  20  21
ENDBRANCH  19  20
ENDBRANCH  18  19
ENDBRANCH  17  18
ENDBRANCH   1  17
TORSDOF 26
ENDMDL
