MODEL 1
REMARK VINA RESULT:    -3.495      0.000      0.000
REMARK INTER + INTRA:          -4.426
REMARK INTER:                  -4.210
REMARK INTRA:                  -0.216
REMARK UNBOUND:                -0.216
REMARK SMILES O=c1c(O)c(-c2ccc(O)c(O)c2)oc2cc(O)cc(O)c12
REMARK SMILES IDX 5 1 3 2 2 3 1 4 22 5 20 6 19 7 17 8 16 9 15 10 14 11 6 12
REMARK SMILES IDX 7 13 8 14 9 15 13 16 11 17 10 18 12 20 4 22 21 24 18 26
REMARK H PARENT 10 19 12 21 4 23 21 25 18 27
REMARK Flexibility Score: inf
ROOT
ATOM      1  C   UNL     1      10.076  78.965   0.769  1.00  0.00     0.180 A 
ATOM      2  C   UNL     1       8.893  79.353   0.119  1.00  0.00     0.208 A 
ATOM      3  C   UNL     1       7.687  79.348   0.840  1.00  0.00     0.238 A 
ATOM      4  O   UNL     1       6.640  79.748   0.268  1.00  0.00    -0.285 OA
ATOM      5  C   UNL     1       7.679  78.938   2.195  1.00  0.00     0.111 A 
ATOM      6  C   UNL     1       6.510  78.856   3.009  1.00  0.00     0.134 A 
ATOM      7  C   UNL     1       6.636  78.564   4.372  1.00  0.00     0.093 A 
ATOM      8  C   UNL     1       7.881  78.289   4.938  1.00  0.00     0.123 A 
ATOM      9  C   UNL     1       9.025  78.308   4.138  1.00  0.00     0.094 A 
ATOM     10  C   UNL     1       8.934  78.631   2.781  1.00  0.00     0.146 A 
ATOM     11  O   UNL     1      10.047  78.649   2.058  1.00  0.00    -0.452 OA
ENDROOT
BRANCH   1  12
ATOM     12  C   UNL     1      11.381  78.921   0.068  1.00  0.00     0.025 A 
ATOM     13  C   UNL     1      12.025  80.123  -0.269  1.00  0.00     0.016 A 
ATOM     14  C   UNL     1      13.265  80.106  -0.911  1.00  0.00     0.051 A 
ATOM     15  C   UNL     1      13.888  78.888  -1.210  1.00  0.00     0.157 A 
ATOM     16  C   UNL     1      12.020  77.701  -0.216  1.00  0.00     0.062 A 
ATOM     17  C   UNL     1      13.267  77.683  -0.858  1.00  0.00     0.158 A 
BRANCH  15  18
ATOM     18  O   UNL     1      15.125  78.866  -1.852  1.00  0.00    -0.504 OA
ATOM     19  H   UNL     1      15.197  78.825  -2.861  1.00  0.00     0.293 HD
ENDBRANCH  15  18
BRANCH  17  20
ATOM     20  O   UNL     1      13.895  76.473  -1.145  1.00  0.00    -0.504 OA
ATOM     21  H   UNL     1      14.400  76.331  -2.012  1.00  0.00     0.293 HD
ENDBRANCH  17  20
ENDBRANCH   1  12
BRANCH   2  22
ATOM     22  O   UNL     1       8.927  79.775  -1.213  1.00  0.00    -0.502 OA
ATOM     23  H   UNL     1       9.789  79.826  -1.745  1.00  0.00     0.293 HD
ENDBRANCH   2  22
BRANCH   6  24
ATOM     24  O   UNL     1       5.209  79.022   2.525  1.00  0.00    -0.507 OA
ATOM     25  H   UNL     1       4.389  79.126   3.103  1.00  0.00     0.293 HD
ENDBRANCH   6  24
BRANCH   8  26
ATOM     26  O   UNL     1       7.969  77.987   6.294  1.00  0.00    -0.508 OA
ATOM     27  H   UNL     1       8.827  78.130   6.815  1.00  0.00     0.293 HD
ENDBRANCH   8  26
TORSDOF 6
ENDMDL
MODEL 2
REMARK VINA RESULT:    -0.988      1.845      7.007
REMARK INTER + INTRA:          -1.406
REMARK INTER:                  -1.303
REMARK INTRA:                  -0.103
REMARK UNBOUND:                -0.216
REMARK SMILES O=c1c(O)c(-c2ccc(O)c(O)c2)oc2cc(O)cc(O)c12
REMARK SMILES IDX 5 1 3 2 2 3 1 4 22 5 20 6 19 7 17 8 16 9 15 10 14 11 6 12
REMARK SMILES IDX 7 13 8 14 9 15 13 16 11 17 10 18 12 20 4 22 21 24 18 26
REMARK H PARENT 10 19 12 21 4 23 21 25 18 27
REMARK Flexibility Score: inf
ROOT
ATOM      1  C   UNL     1      10.023  79.334   1.129  1.00  0.00     0.180 A 
ATOM      2  C   UNL     1      10.756  79.679   2.277  1.00  0.00     0.208 A 
ATOM      3  C   UNL     1      12.158  79.606   2.237  1.00  0.00     0.238 A 
ATOM      4  O   UNL     1      12.811  79.968   3.250  1.00  0.00    -0.285 OA
ATOM      5  C   UNL     1      12.807  79.174   1.056  1.00  0.00     0.111 A 
ATOM      6  C   UNL     1      14.220  79.024   0.916  1.00  0.00     0.134 A 
ATOM      7  C   UNL     1      14.761  78.714  -0.337  1.00  0.00     0.093 A 
ATOM      8  C   UNL     1      13.939  78.487  -1.441  1.00  0.00     0.123 A 
ATOM      9  C   UNL     1      12.553  78.573  -1.302  1.00  0.00     0.094 A 
ATOM     10  C   UNL     1      11.985  78.915  -0.071  1.00  0.00     0.146 A 
ATOM     11  O   UNL     1      10.663  78.996   0.016  1.00  0.00    -0.452 OA
ENDROOT
BRANCH   1  12
ATOM     12  C   UNL     1       8.542  79.363   1.103  1.00  0.00     0.025 A 
ATOM     13  C   UNL     1       7.883  80.101   0.106  1.00  0.00     0.016 A 
ATOM     14  C   UNL     1       6.487  80.125   0.049  1.00  0.00     0.051 A 
ATOM     15  C   UNL     1       5.731  79.399   0.978  1.00  0.00     0.157 A 
ATOM     16  C   UNL     1       7.779  78.619   2.020  1.00  0.00     0.062 A 
ATOM     17  C   UNL     1       6.377  78.640   1.963  1.00  0.00     0.158 A 
BRANCH  15  18
ATOM     18  O   UNL     1       4.339  79.421   0.926  1.00  0.00    -0.504 OA
ATOM     19  H   UNL     1       3.777  78.830   1.527  1.00  0.00     0.293 HD
ENDBRANCH  15  18
BRANCH  17  20
ATOM     20  O   UNL     1       5.622  77.909   2.876  1.00  0.00    -0.504 OA
ATOM     21  H   UNL     1       5.655  76.896   2.900  1.00  0.00     0.293 HD
ENDBRANCH  17  20
ENDBRANCH   1  12
BRANCH   2  22
ATOM     22  O   UNL     1      10.096  80.125   3.426  1.00  0.00    -0.502 OA
ATOM     23  H   UNL     1       9.230  79.710   3.751  1.00  0.00     0.293 HD
ENDBRANCH   2  22
BRANCH   6  24
ATOM     24  O   UNL     1      15.125  79.138   1.975  1.00  0.00    -0.507 OA
ATOM     25  H   UNL     1      16.083  79.440   1.883  1.00  0.00     0.293 HD
ENDBRANCH   6  24
BRANCH   8  26
ATOM     26  O   UNL     1      14.510  78.166  -2.670  1.00  0.00    -0.508 OA
ATOM     27  H   UNL     1      13.945  78.051  -3.503  1.00  0.00     0.293 HD
ENDBRANCH   8  26
TORSDOF 6
ENDMDL
