MODEL 1
REMARK VINA RESULT:    -4.381      0.000      0.000
REMARK INTER + INTRA:          -6.620
REMARK INTER:                  -5.917
REMARK INTRA:                  -0.703
REMARK UNBOUND:                -0.703
REMARK SMILES C=C[C@@](C)(CCC=C(C)C)OC(C)=O
REMARK SMILES IDX 3 1 4 2 5 3 6 4 7 5 9 6 8 7 10 8 2 9 1 10 11 11 12 12 14 13
REMARK SMILES IDX 13 14
REMARK H PARENT
REMARK Flexibility Score: inf
ROOT
ATOM      1  C   UNL     1      -0.164 -23.907 -10.074  1.00  0.00     0.127 C 
ATOM      2  C   UNL     1      -1.074 -24.706 -11.036  1.00  0.00     0.061 C 
ENDROOT
BRANCH   1   3
ATOM      3  C   UNL     1      -0.900 -23.613  -8.741  1.00  0.00     0.057 C 
BRANCH   3   4
ATOM      4  C   UNL     1      -2.124 -24.516  -8.503  1.00  0.00     0.032 C 
BRANCH   4   5
ATOM      5  C   UNL     1      -2.033 -25.193  -7.159  1.00  0.00    -0.028 C 
ATOM      6  C   UNL     1      -1.974 -27.068  -5.572  1.00  0.00     0.039 C 
ATOM      7  C   UNL     1      -2.028 -26.533  -6.979  1.00  0.00    -0.080 C 
ATOM      8  C   UNL     1      -2.057 -27.497  -8.143  1.00  0.00     0.039 C 
ENDBRANCH   4   5
ENDBRANCH   3   4
ENDBRANCH   1   3
BRANCH   1   9
ATOM      9  C   UNL     1       1.107 -24.687  -9.767  1.00  0.00     0.013 C 
ATOM     10  C   UNL     1       1.120 -26.009  -9.554  1.00  0.00     0.008 C 
ENDBRANCH   1   9
BRANCH   1  11
ATOM     11  O   UNL     1       0.183 -22.646 -10.669  1.00  0.00    -0.455 OA
BRANCH  11  12
ATOM     12  C   UNL     1       1.457 -22.058 -10.654  1.00  0.00     0.303 C 
ATOM     13  O   UNL     1       2.153 -21.982 -11.702  1.00  0.00    -0.253 OA
ATOM     14  C   UNL     1       2.016 -21.568  -9.363  1.00  0.00     0.139 C 
ENDBRANCH  11  12
ENDBRANCH   1  11
TORSDOF 6
ENDMDL
MODEL 2
REMARK VINA RESULT:    -4.340      1.752      3.278
REMARK INTER + INTRA:          -6.565
REMARK INTER:                  -5.969
REMARK INTRA:                  -0.596
REMARK UNBOUND:                -0.703
REMARK SMILES C=C[C@@](C)(CCC=C(C)C)OC(C)=O
REMARK SMILES IDX 3 1 4 2 5 3 6 4 7 5 9 6 8 7 10 8 2 9 1 10 11 11 12 12 14 13
REMARK SMILES IDX 13 14
REMARK H PARENT
REMARK Flexibility Score: inf
ROOT
ATOM      1  C   UNL     1       0.691 -22.589  -9.836  1.00  0.00     0.127 C 
ATOM      2  C   UNL     1       1.627 -21.607  -9.093  1.00  0.00     0.061 C 
ENDROOT
BRANCH   1   3
ATOM      3  C   UNL     1       1.235 -24.038  -9.745  1.00  0.00     0.057 C 
BRANCH   3   4
ATOM      4  C   UNL     1       0.137 -25.113  -9.845  1.00  0.00     0.032 C 
BRANCH   4   5
ATOM      5  C   UNL     1       0.693 -26.474  -9.510  1.00  0.00    -0.028 C 
ATOM      6  C   UNL     1       0.842 -28.629  -8.339  1.00  0.00     0.039 C 
ATOM      7  C   UNL     1       0.154 -27.315  -8.598  1.00  0.00    -0.080 C 
ATOM      8  C   UNL     1      -1.118 -26.979  -7.855  1.00  0.00     0.039 C 
ENDBRANCH   4   5
ENDBRANCH   3   4
ENDBRANCH   1   3
BRANCH   1   9
ATOM      9  C   UNL     1      -0.708 -22.554  -9.236  1.00  0.00     0.013 C 
ATOM     10  C   UNL     1      -1.031 -21.799  -8.178  1.00  0.00     0.008 C 
ENDBRANCH   1   9
BRANCH   1  11
ATOM     11  O   UNL     1       0.622 -22.235 -11.227  1.00  0.00    -0.455 OA
BRANCH  11  12
ATOM     12  C   UNL     1      -0.461 -21.604 -11.857  1.00  0.00     0.303 C 
ATOM     13  O   UNL     1      -0.684 -20.374 -11.695  1.00  0.00    -0.253 OA
ATOM     14  C   UNL     1      -1.394 -22.417 -12.686  1.00  0.00     0.139 C 
ENDBRANCH  11  12
ENDBRANCH   1  11
TORSDOF 6
ENDMDL
MODEL 3
REMARK VINA RESULT:    -4.304      2.875      5.627
REMARK INTER + INTRA:          -6.517
REMARK INTER:                  -5.849
REMARK INTRA:                  -0.668
REMARK UNBOUND:                -0.703
REMARK SMILES C=C[C@@](C)(CCC=C(C)C)OC(C)=O
REMARK SMILES IDX 3 1 4 2 5 3 6 4 7 5 9 6 8 7 10 8 2 9 1 10 11 11 12 12 14 13
REMARK SMILES IDX 13 14
REMARK H PARENT
REMARK Flexibility Score: inf
ROOT
ATOM      1  C   UNL     1      -0.541 -26.703  -8.928  1.00  0.00     0.127 C 
ATOM      2  C   UNL     1      -1.256 -27.541 -10.013  1.00  0.00     0.061 C 
ENDROOT
BRANCH   1   3
ATOM      3  C   UNL     1       0.585 -25.841  -9.554  1.00  0.00     0.057 C 
BRANCH   3   4
ATOM      4  C   UNL     1       0.079 -24.524 -10.172  1.00  0.00     0.032 C 
BRANCH   4   5
ATOM      5  C   UNL     1       1.048 -23.401  -9.899  1.00  0.00    -0.028 C 
ATOM      6  C   UNL     1       1.788 -21.200  -9.095  1.00  0.00     0.039 C 
ATOM      7  C   UNL     1       0.724 -22.254  -9.261  1.00  0.00    -0.080 C 
ATOM      8  C   UNL     1      -0.658 -22.012  -8.700  1.00  0.00     0.039 C 
ENDBRANCH   4   5
ENDBRANCH   3   4
ENDBRANCH   1   3
BRANCH   1   9
ATOM      9  C   UNL     1      -1.529 -25.781  -8.226  1.00  0.00     0.013 C 
ATOM     10  C   UNL     1      -1.824 -25.881  -6.924  1.00  0.00     0.008 C 
ENDBRANCH   1   9
BRANCH   1  11
ATOM     11  O   UNL     1       0.065 -27.576  -7.960  1.00  0.00    -0.455 OA
BRANCH  11  12
ATOM     12  C   UNL     1       0.008 -28.977  -7.975  1.00  0.00     0.303 C 
ATOM     13  O   UNL     1       0.838 -29.658  -8.636  1.00  0.00    -0.253 OA
ATOM     14  C   UNL     1      -1.090 -29.668  -7.242  1.00  0.00     0.139 C 
ENDBRANCH  11  12
ENDBRANCH   1  11
TORSDOF 6
ENDMDL
MODEL 4
REMARK VINA RESULT:    -4.276      1.749      3.303
REMARK INTER + INTRA:          -6.478
REMARK INTER:                  -5.915
REMARK INTRA:                  -0.563
REMARK UNBOUND:                -0.703
REMARK SMILES C=C[C@@](C)(CCC=C(C)C)OC(C)=O
REMARK SMILES IDX 3 1 4 2 5 3 6 4 7 5 9 6 8 7 10 8 2 9 1 10 11 11 12 12 14 13
REMARK SMILES IDX 13 14
REMARK H PARENT
REMARK Flexibility Score: inf
ROOT
ATOM      1  C   UNL     1       0.508 -22.952 -10.127  1.00  0.00     0.127 C 
ATOM      2  C   UNL     1      -0.740 -23.114 -11.026  1.00  0.00     0.061 C 
ENDROOT
BRANCH   1   3
ATOM      3  C   UNL     1       1.075 -24.338  -9.723  1.00  0.00     0.057 C 
BRANCH   3   4
ATOM      4  C   UNL     1       0.046 -25.477  -9.830  1.00  0.00     0.032 C 
BRANCH   4   5
ATOM      5  C   UNL     1       0.650 -26.785  -9.385  1.00  0.00    -0.028 C 
ATOM      6  C   UNL     1       0.880 -28.826  -8.036  1.00  0.00     0.039 C 
ATOM      7  C   UNL     1       0.145 -27.564  -8.402  1.00  0.00    -0.080 C 
ATOM      8  C   UNL     1      -1.136 -27.211  -7.681  1.00  0.00     0.039 C 
ENDBRANCH   4   5
ENDBRANCH   3   4
ENDBRANCH   1   3
BRANCH   1   9
ATOM      9  C   UNL     1       1.595 -22.173 -10.856  1.00  0.00     0.013 C 
ATOM     10  C   UNL     1       1.339 -21.332 -11.866  1.00  0.00     0.008 C 
ENDBRANCH   1   9
BRANCH   1  11
ATOM     11  O   UNL     1       0.151 -22.258  -8.921  1.00  0.00    -0.455 OA
BRANCH  11  12
ATOM     12  C   UNL     1      -1.156 -21.997  -8.484  1.00  0.00     0.303 C 
ATOM     13  O   UNL     1      -1.706 -20.884  -8.697  1.00  0.00    -0.253 OA
ATOM     14  C   UNL     1      -1.882 -23.038  -7.703  1.00  0.00     0.139 C 
ENDBRANCH  11  12
ENDBRANCH   1  11
TORSDOF 6
ENDMDL
MODEL 5
REMARK VINA RESULT:    -4.224      1.835      2.832
REMARK INTER + INTRA:          -6.408
REMARK INTER:                  -5.873
REMARK INTRA:                  -0.536
REMARK UNBOUND:                -0.703
REMARK SMILES C=C[C@@](C)(CCC=C(C)C)OC(C)=O
REMARK SMILES IDX 3 1 4 2 5 3 6 4 7 5 9 6 8 7 10 8 2 9 1 10 11 11 12 12 14 13
REMARK SMILES IDX 13 14
REMARK H PARENT
REMARK Flexibility Score: inf
ROOT
ATOM      1  C   UNL     1       0.161 -23.095  -9.686  1.00  0.00     0.127 C 
ATOM      2  C   UNL     1      -1.176 -23.255  -8.926  1.00  0.00     0.061 C 
ENDROOT
BRANCH   1   3
ATOM      3  C   UNL     1       0.882 -24.461  -9.820  1.00  0.00     0.057 C 
BRANCH   3   4
ATOM      4  C   UNL     1      -0.073 -25.668  -9.766  1.00  0.00     0.032 C 
BRANCH   4   5
ATOM      5  C   UNL     1       0.658 -26.906  -9.313  1.00  0.00    -0.028 C 
ATOM      6  C   UNL     1       1.088 -28.907  -7.953  1.00  0.00     0.039 C 
ATOM      7  C   UNL     1       0.230 -27.727  -8.327  1.00  0.00    -0.080 C 
ATOM      8  C   UNL     1      -1.081 -27.501  -7.611  1.00  0.00     0.039 C 
ENDBRANCH   4   5
ENDBRANCH   3   4
ENDBRANCH   1   3
BRANCH   1   9
ATOM      9  C   UNL     1      -0.080 -22.531 -11.080  1.00  0.00     0.013 C 
ATOM     10  C   UNL     1      -1.187 -22.784 -11.790  1.00  0.00     0.008 C 
ENDBRANCH   1   9
BRANCH   1  11
ATOM     11  O   UNL     1       1.030 -22.212  -8.958  1.00  0.00    -0.455 OA
BRANCH  11  12
ATOM     12  C   UNL     1       1.129 -20.826  -9.145  1.00  0.00     0.303 C 
ATOM     13  O   UNL     1       2.103 -20.318  -9.765  1.00  0.00    -0.253 OA
ATOM     14  C   UNL     1       0.093 -19.936  -8.549  1.00  0.00     0.139 C 
ENDBRANCH  11  12
ENDBRANCH   1  11
TORSDOF 6
ENDMDL
MODEL 6
REMARK VINA RESULT:    -4.191      1.730      3.078
REMARK INTER + INTRA:          -6.364
REMARK INTER:                  -5.698
REMARK INTRA:                  -0.665
REMARK UNBOUND:                -0.703
REMARK SMILES C=C[C@@](C)(CCC=C(C)C)OC(C)=O
REMARK SMILES IDX 3 1 4 2 5 3 6 4 7 5 9 6 8 7 10 8 2 9 1 10 11 11 12 12 14 13
REMARK SMILES IDX 13 14
REMARK H PARENT
REMARK Flexibility Score: inf
ROOT
ATOM      1  C   UNL     1      -0.219 -22.027  -9.216  1.00  0.00     0.127 C 
ATOM      2  C   UNL     1       0.584 -21.030  -8.349  1.00  0.00     0.061 C 
ENDROOT
BRANCH   1   3
ATOM      3  C   UNL     1       0.551 -23.364  -9.371  1.00  0.00     0.057 C 
BRANCH   3   4
ATOM      4  C   UNL     1      -0.250 -24.452 -10.109  1.00  0.00     0.032 C 
BRANCH   4   5
ATOM      5  C   UNL     1       0.212 -25.826  -9.695  1.00  0.00    -0.028 C 
ATOM      6  C   UNL     1       0.264 -27.886  -8.355  1.00  0.00     0.039 C 
ATOM      7  C   UNL     1      -0.329 -26.540  -8.682  1.00  0.00    -0.080 C 
ATOM      8  C   UNL     1      -1.513 -26.034  -7.891  1.00  0.00     0.039 C 
ENDBRANCH   4   5
ENDBRANCH   3   4
ENDBRANCH   1   3
BRANCH   1   9
ATOM      9  C   UNL     1      -1.575 -22.315  -8.586  1.00  0.00     0.013 C 
ATOM     10  C   UNL     1      -1.801 -22.230  -7.269  1.00  0.00     0.008 C 
ENDBRANCH   1   9
BRANCH   1  11
ATOM     11  O   UNL     1      -0.413 -21.480 -10.531  1.00  0.00    -0.455 OA
BRANCH  11  12
ATOM     12  C   UNL     1       0.541 -20.759 -11.265  1.00  0.00     0.303 C 
ATOM     13  O   UNL     1       0.436 -19.514 -11.427  1.00  0.00    -0.253 OA
ATOM     14  C   UNL     1       1.667 -21.492 -11.911  1.00  0.00     0.139 C 
ENDBRANCH  11  12
ENDBRANCH   1  11
TORSDOF 6
ENDMDL
MODEL 7
REMARK VINA RESULT:    -4.158      3.509      6.234
REMARK INTER + INTRA:          -6.319
REMARK INTER:                  -5.546
REMARK INTRA:                  -0.773
REMARK UNBOUND:                -0.703
REMARK SMILES C=C[C@@](C)(CCC=C(C)C)OC(C)=O
REMARK SMILES IDX 3 1 4 2 5 3 6 4 7 5 9 6 8 7 10 8 2 9 1 10 11 11 12 12 14 13
REMARK SMILES IDX 13 14
REMARK H PARENT
REMARK Flexibility Score: inf
ROOT
ATOM      1  C   UNL     1      -1.027 -28.381  -8.027  1.00  0.00     0.127 C 
ATOM      2  C   UNL     1      -1.992 -28.271  -9.230  1.00  0.00     0.061 C 
ENDROOT
BRANCH   1   3
ATOM      3  C   UNL     1       0.263 -27.560  -8.283  1.00  0.00     0.057 C 
BRANCH   3   4
ATOM      4  C   UNL     1       0.365 -27.007  -9.716  1.00  0.00     0.032 C 
BRANCH   4   5
ATOM      5  C   UNL     1       1.077 -25.678  -9.725  1.00  0.00    -0.028 C 
ATOM      6  C   UNL     1       1.295 -23.230  -9.757  1.00  0.00     0.039 C 
ATOM      7  C   UNL     1       0.453 -24.478  -9.703  1.00  0.00    -0.080 C 
ATOM      8  C   UNL     1      -1.050 -24.360  -9.608  1.00  0.00     0.039 C 
ENDBRANCH   4   5
ENDBRANCH   3   4
ENDBRANCH   1   3
BRANCH   1   9
ATOM      9  C   UNL     1      -1.692 -27.864  -6.758  1.00  0.00     0.013 C 
ATOM     10  C   UNL     1      -1.952 -26.568  -6.546  1.00  0.00     0.008 C 
ENDBRANCH   1   9
BRANCH   1  11
ATOM     11  O   UNL     1      -0.642 -29.752  -7.838  1.00  0.00    -0.455 OA
BRANCH  11  12
ATOM     12  C   UNL     1      -0.359 -30.671  -8.860  1.00  0.00     0.303 C 
ATOM     13  O   UNL     1       0.663 -30.545  -9.586  1.00  0.00    -0.253 OA
ATOM     14  C   UNL     1      -1.317 -31.781  -9.125  1.00  0.00     0.139 C 
ENDBRANCH  11  12
ENDBRANCH   1  11
TORSDOF 6
ENDMDL
MODEL 8
REMARK VINA RESULT:    -4.143      2.314      3.826
REMARK INTER + INTRA:          -6.299
REMARK INTER:                  -5.573
REMARK INTRA:                  -0.726
REMARK UNBOUND:                -0.703
REMARK SMILES C=C[C@@](C)(CCC=C(C)C)OC(C)=O
REMARK SMILES IDX 3 1 4 2 5 3 6 4 7 5 9 6 8 7 10 8 2 9 1 10 11 11 12 12 14 13
REMARK SMILES IDX 13 14
REMARK H PARENT
REMARK Flexibility Score: inf
ROOT
ATOM      1  C   UNL     1      -0.575 -20.854  -8.877  1.00  0.00     0.127 C 
ATOM      2  C   UNL     1       0.829 -20.624  -8.271  1.00  0.00     0.061 C 
ENDROOT
BRANCH   1   3
ATOM      3  C   UNL     1      -1.257 -22.086  -8.227  1.00  0.00     0.057 C 
BRANCH   3   4
ATOM      4  C   UNL     1      -1.845 -23.073  -9.251  1.00  0.00     0.032 C 
BRANCH   4   5
ATOM      5  C   UNL     1      -1.602 -24.497  -8.818  1.00  0.00    -0.028 C 
ATOM      6  C   UNL     1      -0.391 -26.627  -8.630  1.00  0.00     0.039 C 
ATOM      7  C   UNL     1      -0.477 -25.196  -9.092  1.00  0.00    -0.080 C 
ATOM      8  C   UNL     1       0.689 -24.579  -9.828  1.00  0.00     0.039 C 
ENDBRANCH   4   5
ENDBRANCH   3   4
ENDBRANCH   1   3
BRANCH   1   9
ATOM      9  C   UNL     1      -1.459 -19.634  -8.658  1.00  0.00     0.013 C 
ATOM     10  C   UNL     1      -0.980 -18.444  -8.275  1.00  0.00     0.008 C 
ENDBRANCH   1   9
BRANCH   1  11
ATOM     11  O   UNL     1      -0.460 -21.112 -10.286  1.00  0.00    -0.455 OA
BRANCH  11  12
ATOM     12  C   UNL     1       0.528 -20.591 -11.134  1.00  0.00     0.303 C 
ATOM     13  O   UNL     1       0.494 -19.390 -11.515  1.00  0.00    -0.253 OA
ATOM     14  C   UNL     1       1.604 -21.491 -11.637  1.00  0.00     0.139 C 
ENDBRANCH  11  12
ENDBRANCH   1  11
TORSDOF 6
ENDMDL
MODEL 9
REMARK VINA RESULT:    -4.101      2.200      4.139
REMARK INTER + INTRA:          -6.242
REMARK INTER:                  -5.418
REMARK INTRA:                  -0.824
REMARK UNBOUND:                -0.703
REMARK SMILES C=C[C@@](C)(CCC=C(C)C)OC(C)=O
REMARK SMILES IDX 3 1 4 2 5 3 6 4 7 5 9 6 8 7 10 8 2 9 1 10 11 11 12 12 14 13
REMARK SMILES IDX 13 14
REMARK H PARENT
REMARK Flexibility Score: inf
ROOT
ATOM      1  C   UNL     1      -0.152 -23.798  -9.934  1.00  0.00     0.127 C 
ATOM      2  C   UNL     1      -0.841 -23.352 -11.244  1.00  0.00     0.061 C 
ENDROOT
BRANCH   1   3
ATOM      3  C   UNL     1      -0.785 -23.085  -8.711  1.00  0.00     0.057 C 
BRANCH   3   4
ATOM      4  C   UNL     1      -1.907 -22.101  -9.088  1.00  0.00     0.032 C 
BRANCH   4   5
ATOM      5  C   UNL     1      -1.687 -20.763  -8.429  1.00  0.00    -0.028 C 
ATOM      6  C   UNL     1      -1.086 -18.384  -8.286  1.00  0.00     0.039 C 
ATOM      7  C   UNL     1      -1.308 -19.642  -9.084  1.00  0.00    -0.080 C 
ATOM      8  C   UNL     1      -1.123 -19.617 -10.584  1.00  0.00     0.039 C 
ENDBRANCH   4   5
ENDBRANCH   3   4
ENDBRANCH   1   3
BRANCH   1   9
ATOM      9  C   UNL     1      -0.286 -25.303  -9.744  1.00  0.00     0.013 C 
ATOM     10  C   UNL     1       0.767 -26.121  -9.622  1.00  0.00     0.008 C 
ENDBRANCH   1   9
BRANCH   1  11
ATOM     11  O   UNL     1       1.240 -23.446  -9.973  1.00  0.00    -0.455 OA
BRANCH  11  12
ATOM     12  C   UNL     1       1.756 -22.190 -10.326  1.00  0.00     0.303 C 
ATOM     13  O   UNL     1       2.058 -21.920 -11.519  1.00  0.00    -0.253 OA
ATOM     14  C   UNL     1       2.003 -21.179  -9.259  1.00  0.00     0.139 C 
ENDBRANCH  11  12
ENDBRANCH   1  11
TORSDOF 6
ENDMDL
