MODEL 1
REMARK VINA RESULT:    -3.671      0.000      0.000
REMARK INTER + INTRA:          -6.683
REMARK INTER:                  -5.817
REMARK INTRA:                  -0.866
REMARK UNBOUND:                -0.866
REMARK SMILES CCCCCCCCCCCC(=O)[O-]
REMARK SMILES IDX 7 1 8 2 9 3 10 4 11 5 12 6 13 7 14 8 6 9 5 10 4 11 3 12 2 13
REMARK SMILES IDX 1 14
REMARK H PARENT
REMARK Flexibility Score: inf
ROOT
ATOM      1  C   UNL     1       1.483  -1.050   8.910  1.00  0.00     0.000 C 
ENDROOT
BRANCH   1   2
ATOM      2  C   UNL     1       1.877   0.358   9.403  1.00  0.00     0.000 C 
BRANCH   2   3
ATOM      3  C   UNL     1       3.346   0.748   9.156  1.00  0.00     0.000 C 
BRANCH   3   4
ATOM      4  C   UNL     1       3.492   2.088   8.416  1.00  0.00     0.006 C 
BRANCH   4   5
ATOM      5  C   UNL     1       2.146   2.805   8.250  1.00  0.00     0.053 C 
BRANCH   5   6
ATOM      6  C   UNL     1       2.166   3.759   7.094  1.00  0.00     0.041 C 
ATOM      7  O   UNL     1       3.246   4.010   6.498  1.00  0.00    -0.550 OA
ATOM      8  O   UNL     1       0.985   4.341   6.653  1.00  0.00    -0.550 OA
ENDBRANCH   5   6
ENDBRANCH   4   5
ENDBRANCH   3   4
ENDBRANCH   2   3
ENDBRANCH   1   2
BRANCH   1   9
ATOM      9  C   UNL     1       0.167  -1.121   8.113  1.00  0.00     0.000 C 
BRANCH   9  10
ATOM     10  C   UNL     1      -0.335   0.260   7.667  1.00  0.00    -0.000 C 
BRANCH  10  11
ATOM     11  C   UNL     1      -1.794   0.477   8.095  1.00  0.00    -0.000 C 
BRANCH  11  12
ATOM     12  C   UNL     1      -2.083  -0.060   9.507  1.00  0.00    -0.000 C 
BRANCH  12  13
ATOM     13  C   UNL     1      -3.543  -0.505   9.683  1.00  0.00    -0.003 C 
ATOM     14  C   UNL     1      -4.322  -0.356   8.379  1.00  0.00     0.004 C 
ENDBRANCH  12  13
ENDBRANCH  11  12
ENDBRANCH  10  11
ENDBRANCH   9  10
ENDBRANCH   1   9
TORSDOF 10
ENDMDL
MODEL 2
REMARK VINA RESULT:    -3.596      2.380      3.228
REMARK INTER + INTRA:          -6.565
REMARK INTER:                  -5.692
REMARK INTRA:                  -0.873
REMARK UNBOUND:                -0.866
REMARK SMILES CCCCCCCCCCCC(=O)[O-]
REMARK SMILES IDX 7 1 8 2 9 3 10 4 11 5 12 6 13 7 14 8 6 9 5 10 4 11 3 12 2 13
REMARK SMILES IDX 1 14
REMARK H PARENT
REMARK Flexibility Score: inf
ROOT
ATOM      1  C   UNL     1       3.436  -0.543   9.605  1.00  0.00     0.000 C 
ENDROOT
BRANCH   1   2
ATOM      2  C   UNL     1       3.972   0.902   9.553  1.00  0.00     0.000 C 
BRANCH   2   3
ATOM      3  C   UNL     1       3.172   1.863   8.655  1.00  0.00     0.000 C 
BRANCH   3   4
ATOM      4  C   UNL     1       4.067   2.685   7.713  1.00  0.00     0.006 C 
BRANCH   4   5
ATOM      5  C   UNL     1       5.548   2.308   7.850  1.00  0.00     0.053 C 
BRANCH   5   6
ATOM      6  C   UNL     1       6.418   3.522   7.974  1.00  0.00     0.041 C 
ATOM      7  O   UNL     1       7.359   3.714   7.160  1.00  0.00    -0.550 OA
ATOM      8  O   UNL     1       6.166   4.459   8.968  1.00  0.00    -0.550 OA
ENDBRANCH   5   6
ENDBRANCH   4   5
ENDBRANCH   3   4
ENDBRANCH   2   3
ENDBRANCH   1   2
BRANCH   1   9
ATOM      9  C   UNL     1       1.901  -0.672   9.614  1.00  0.00     0.000 C 
BRANCH   9  10
ATOM     10  C   UNL     1       1.397  -1.861   8.783  1.00  0.00    -0.000 C 
BRANCH  10  11
ATOM     11  C   UNL     1       0.088  -1.510   8.062  1.00  0.00    -0.000 C 
BRANCH  11  12
ATOM     12  C   UNL     1       0.006  -0.024   7.673  1.00  0.00    -0.000 C 
BRANCH  12  13
ATOM     13  C   UNL     1      -1.315   0.628   8.106  1.00  0.00    -0.003 C 
ATOM     14  C   UNL     1      -1.086   1.646   9.220  1.00  0.00     0.004 C 
ENDBRANCH  12  13
ENDBRANCH  11  12
ENDBRANCH  10  11
ENDBRANCH   9  10
ENDBRANCH   1   9
TORSDOF 10
ENDMDL
MODEL 3
REMARK VINA RESULT:    -3.531     11.534     13.094
REMARK INTER + INTRA:          -6.461
REMARK INTER:                  -5.301
REMARK INTRA:                  -1.160
REMARK UNBOUND:                -0.866
REMARK SMILES CCCCCCCCCCCC(=O)[O-]
REMARK SMILES IDX 7 1 8 2 9 3 10 4 11 5 12 6 13 7 14 8 6 9 5 10 4 11 3 12 2 13
REMARK SMILES IDX 1 14
REMARK H PARENT
REMARK Flexibility Score: inf
ROOT
ATOM      1  C   UNL     1       1.627  -0.844  -4.200  1.00  0.00     0.000 C 
ENDROOT
BRANCH   1   2
ATOM      2  C   UNL     1       1.205  -1.384  -2.818  1.00  0.00     0.000 C 
BRANCH   2   3
ATOM      3  C   UNL     1       0.689  -2.834  -2.815  1.00  0.00     0.000 C 
BRANCH   3   4
ATOM      4  C   UNL     1       0.554  -3.417  -1.398  1.00  0.00     0.006 C 
BRANCH   4   5
ATOM      5  C   UNL     1       0.774  -4.935  -1.375  1.00  0.00     0.053 C 
BRANCH   5   6
ATOM      6  C   UNL     1      -0.008  -5.591  -0.279  1.00  0.00     0.041 C 
ATOM      7  O   UNL     1      -0.212  -4.985   0.806  1.00  0.00    -0.550 OA
ATOM      8  O   UNL     1      -0.544  -6.859  -0.469  1.00  0.00    -0.550 OA
ENDBRANCH   5   6
ENDBRANCH   4   5
ENDBRANCH   3   4
ENDBRANCH   2   3
ENDBRANCH   1   2
BRANCH   1   9
ATOM      9  C   UNL     1       3.140  -0.632  -4.386  1.00  0.00     0.000 C 
BRANCH   9  10
ATOM     10  C   UNL     1       3.921  -0.709  -3.066  1.00  0.00    -0.000 C 
BRANCH  10  11
ATOM     11  C   UNL     1       5.373  -1.145  -3.313  1.00  0.00    -0.000 C 
BRANCH  11  12
ATOM     12  C   UNL     1       5.500  -2.652  -3.589  1.00  0.00    -0.000 C 
BRANCH  12  13
ATOM     13  C   UNL     1       4.603  -3.499  -2.673  1.00  0.00    -0.003 C 
ATOM     14  C   UNL     1       3.851  -4.561  -3.471  1.00  0.00     0.004 C 
ENDBRANCH  12  13
ENDBRANCH  11  12
ENDBRANCH  10  11
ENDBRANCH   9  10
ENDBRANCH   1   9
TORSDOF 10
ENDMDL
MODEL 4
REMARK VINA RESULT:    -3.527      2.721      4.163
REMARK INTER + INTRA:          -6.454
REMARK INTER:                  -5.824
REMARK INTRA:                  -0.630
REMARK UNBOUND:                -0.866
REMARK SMILES CCCCCCCCCCCC(=O)[O-]
REMARK SMILES IDX 7 1 8 2 9 3 10 4 11 5 12 6 13 7 14 8 6 9 5 10 4 11 3 12 2 13
REMARK SMILES IDX 1 14
REMARK H PARENT
REMARK Flexibility Score: inf
ROOT
ATOM      1  C   UNL     1       1.566   2.575   8.327  1.00  0.00     0.000 C 
ENDROOT
BRANCH   1   2
ATOM      2  C   UNL     1       2.130   3.515   7.241  1.00  0.00     0.000 C 
BRANCH   2   3
ATOM      3  C   UNL     1       3.667   3.588   7.178  1.00  0.00     0.000 C 
BRANCH   3   4
ATOM      4  C   UNL     1       4.352   2.521   8.050  1.00  0.00     0.006 C 
BRANCH   4   5
ATOM      5  C   UNL     1       5.707   2.090   7.475  1.00  0.00     0.053 C 
BRANCH   5   6
ATOM      6  C   UNL     1       6.822   2.955   7.979  1.00  0.00     0.041 C 
ATOM      7  O   UNL     1       7.348   3.815   7.225  1.00  0.00    -0.550 OA
ATOM      8  O   UNL     1       7.255   2.835   9.293  1.00  0.00    -0.550 OA
ENDBRANCH   5   6
ENDBRANCH   4   5
ENDBRANCH   3   4
ENDBRANCH   2   3
ENDBRANCH   1   2
BRANCH   1   9
ATOM      9  C   UNL     1       0.035   2.607   8.489  1.00  0.00     0.000 C 
BRANCH   9  10
ATOM     10  C   UNL     1      -0.562   1.226   8.800  1.00  0.00    -0.000 C 
BRANCH  10  11
ATOM     11  C   UNL     1      -0.358   0.264   7.621  1.00  0.00    -0.000 C 
BRANCH  11  12
ATOM     12  C   UNL     1       0.217  -1.094   8.057  1.00  0.00    -0.000 C 
BRANCH  12  13
ATOM     13  C   UNL     1       1.492  -0.952   8.902  1.00  0.00    -0.003 C 
ATOM     14  C   UNL     1       2.046  -2.320   9.292  1.00  0.00     0.004 C 
ENDBRANCH  12  13
ENDBRANCH  11  12
ENDBRANCH  10  11
ENDBRANCH   9  10
ENDBRANCH   1   9
TORSDOF 10
ENDMDL
MODEL 5
REMARK VINA RESULT:    -3.520      2.430      5.631
REMARK INTER + INTRA:          -6.444
REMARK INTER:                  -5.654
REMARK INTRA:                  -0.791
REMARK UNBOUND:                -0.866
REMARK SMILES CCCCCCCCCCCC(=O)[O-]
REMARK SMILES IDX 7 1 8 2 9 3 10 4 11 5 12 6 13 7 14 8 6 9 5 10 4 11 3 12 2 13
REMARK SMILES IDX 1 14
REMARK H PARENT
REMARK Flexibility Score: inf
ROOT
ATOM      1  C   UNL     1       2.230  -0.206   9.100  1.00  0.00     0.000 C 
ENDROOT
BRANCH   1   2
ATOM      2  C   UNL     1       1.468  -1.528   8.875  1.00  0.00     0.000 C 
BRANCH   2   3
ATOM      3  C   UNL     1       0.105  -1.384   8.173  1.00  0.00     0.000 C 
BRANCH   3   4
ATOM      4  C   UNL     1      -0.139   0.034   7.630  1.00  0.00     0.006 C 
BRANCH   4   5
ATOM      5  C   UNL     1      -1.475   0.614   8.113  1.00  0.00     0.053 C 
BRANCH   5   6
ATOM      6  C   UNL     1      -1.551   0.655   9.609  1.00  0.00     0.041 C 
ATOM      7  O   UNL     1      -0.778   1.403  10.264  1.00  0.00    -0.550 OA
ATOM      8  O   UNL     1      -2.503  -0.105  10.278  1.00  0.00    -0.550 OA
ENDBRANCH   5   6
ENDBRANCH   4   5
ENDBRANCH   3   4
ENDBRANCH   2   3
ENDBRANCH   1   2
BRANCH   1   9
ATOM      9  C   UNL     1       3.676  -0.361   9.605  1.00  0.00     0.000 C 
BRANCH   9  10
ATOM     10  C   UNL     1       4.512   0.914   9.423  1.00  0.00    -0.000 C 
BRANCH  10  11
ATOM     11  C   UNL     1       3.706   1.998   8.692  1.00  0.00    -0.000 C 
BRANCH  11  12
ATOM     12  C   UNL     1       4.486   2.633   7.529  1.00  0.00    -0.000 C 
BRANCH  12  13
ATOM     13  C   UNL     1       3.854   3.945   7.040  1.00  0.00    -0.003 C 
ATOM     14  C   UNL     1       2.336   3.818   6.937  1.00  0.00     0.004 C 
ENDBRANCH  12  13
ENDBRANCH  11  12
ENDBRANCH  10  11
ENDBRANCH   9  10
ENDBRANCH   1   9
TORSDOF 10
ENDMDL
MODEL 6
REMARK VINA RESULT:    -3.501      2.373      2.802
REMARK INTER + INTRA:          -6.414
REMARK INTER:                  -5.866
REMARK INTRA:                  -0.548
REMARK UNBOUND:                -0.866
REMARK SMILES CCCCCCCCCCCC(=O)[O-]
REMARK SMILES IDX 7 1 8 2 9 3 10 4 11 5 12 6 13 7 14 8 6 9 5 10 4 11 3 12 2 13
REMARK SMILES IDX 1 14
REMARK H PARENT
REMARK Flexibility Score: inf
ROOT
ATOM      1  C   UNL     1       1.865  -0.333   9.131  1.00  0.00     0.000 C 
ENDROOT
BRANCH   1   2
ATOM      2  C   UNL     1       2.282   1.124   8.838  1.00  0.00     0.000 C 
BRANCH   2   3
ATOM      3  C   UNL     1       3.774   1.432   9.064  1.00  0.00     0.000 C 
BRANCH   3   4
ATOM      4  C   UNL     1       4.377   2.307   7.953  1.00  0.00     0.006 C 
BRANCH   4   5
ATOM      5  C   UNL     1       5.820   1.904   7.621  1.00  0.00     0.053 C 
BRANCH   5   6
ATOM      6  C   UNL     1       6.805   2.924   8.106  1.00  0.00     0.041 C 
ATOM      7  O   UNL     1       6.968   3.111   9.341  1.00  0.00    -0.550 OA
ATOM      8  O   UNL     1       7.569   3.640   7.195  1.00  0.00    -0.550 OA
ENDBRANCH   5   6
ENDBRANCH   4   5
ENDBRANCH   3   4
ENDBRANCH   2   3
ENDBRANCH   1   2
BRANCH   1   9
ATOM      9  C   UNL     1       0.555  -0.786   8.461  1.00  0.00     0.000 C 
BRANCH   9  10
ATOM     10  C   UNL     1      -0.114   0.328   7.644  1.00  0.00    -0.000 C 
BRANCH  10  11
ATOM     11  C   UNL     1      -1.547   0.582   8.135  1.00  0.00    -0.000 C 
BRANCH  11  12
ATOM     12  C   UNL     1      -1.908  -0.260   9.369  1.00  0.00    -0.000 C 
BRANCH  12  13
ATOM     13  C   UNL     1      -3.112  -1.182   9.124  1.00  0.00    -0.003 C 
ATOM     14  C   UNL     1      -4.317  -0.388   8.627  1.00  0.00     0.004 C 
ENDBRANCH  12  13
ENDBRANCH  11  12
ENDBRANCH  10  11
ENDBRANCH   9  10
ENDBRANCH   1   9
TORSDOF 10
ENDMDL
MODEL 7
REMARK VINA RESULT:    -3.468      3.317      5.902
REMARK INTER + INTRA:          -6.362
REMARK INTER:                  -5.171
REMARK INTRA:                  -1.191
REMARK UNBOUND:                -0.866
REMARK SMILES CCCCCCCCCCCC(=O)[O-]
REMARK SMILES IDX 7 1 8 2 9 3 10 4 11 5 12 6 13 7 14 8 6 9 5 10 4 11 3 12 2 13
REMARK SMILES IDX 1 14
REMARK H PARENT
REMARK Flexibility Score: inf
ROOT
ATOM      1  C   UNL     1       0.224  -1.351   8.074  1.00  0.00     0.000 C 
ENDROOT
BRANCH   1   2
ATOM      2  C   UNL     1      -0.118   0.090   7.642  1.00  0.00     0.000 C 
BRANCH   2   3
ATOM      3  C   UNL     1      -1.513   0.584   8.066  1.00  0.00     0.000 C 
BRANCH   3   4
ATOM      4  C   UNL     1      -1.717   0.559   9.590  1.00  0.00     0.006 C 
BRANCH   4   5
ATOM      5  C   UNL     1      -3.149   0.167   9.974  1.00  0.00     0.053 C 
BRANCH   5   6
ATOM      6  C   UNL     1      -3.611  -1.046   9.226  1.00  0.00     0.041 C 
ATOM      7  O   UNL     1      -4.585  -0.969   8.431  1.00  0.00    -0.550 OA
ATOM      8  O   UNL     1      -2.942  -2.253   9.378  1.00  0.00    -0.550 OA
ENDBRANCH   5   6
ENDBRANCH   4   5
ENDBRANCH   3   4
ENDBRANCH   2   3
ENDBRANCH   1   2
BRANCH   1   9
ATOM      9  C   UNL     1       1.533  -1.503   8.870  1.00  0.00     0.000 C 
BRANCH   9  10
ATOM     10  C   UNL     1       1.887  -0.249   9.682  1.00  0.00    -0.000 C 
BRANCH  10  11
ATOM     11  C   UNL     1       3.340   0.178   9.424  1.00  0.00    -0.000 C 
BRANCH  11  12
ATOM     12  C   UNL     1       3.440   1.542   8.721  1.00  0.00    -0.000 C 
BRANCH  12  13
ATOM     13  C   UNL     1       2.252   2.460   9.040  1.00  0.00    -0.003 C 
ATOM     14  C   UNL     1       1.808   3.234   7.800  1.00  0.00     0.004 C 
ENDBRANCH  12  13
ENDBRANCH  11  12
ENDBRANCH  10  11
ENDBRANCH   9  10
ENDBRANCH   1   9
TORSDOF 10
ENDMDL
MODEL 8
REMARK VINA RESULT:    -3.445      1.093      1.985
REMARK INTER + INTRA:          -6.325
REMARK INTER:                  -5.324
REMARK INTRA:                  -1.001
REMARK UNBOUND:                -0.866
REMARK SMILES CCCCCCCCCCCC(=O)[O-]
REMARK SMILES IDX 7 1 8 2 9 3 10 4 11 5 12 6 13 7 14 8 6 9 5 10 4 11 3 12 2 13
REMARK SMILES IDX 1 14
REMARK H PARENT
REMARK Flexibility Score: inf
ROOT
ATOM      1  C   UNL     1       2.068  -1.144   9.740  1.00  0.00     0.000 C 
ENDROOT
BRANCH   1   2
ATOM      2  C   UNL     1       2.323   0.225   9.074  1.00  0.00     0.000 C 
BRANCH   2   3
ATOM      3  C   UNL     1       3.737   0.797   9.282  1.00  0.00     0.000 C 
BRANCH   3   4
ATOM      4  C   UNL     1       4.028   2.010   8.382  1.00  0.00     0.006 C 
BRANCH   4   5
ATOM      5  C   UNL     1       2.932   3.078   8.481  1.00  0.00     0.053 C 
BRANCH   5   6
ATOM      6  C   UNL     1       2.646   3.703   7.149  1.00  0.00     0.041 C 
ATOM      7  O   UNL     1       1.467   3.749   6.710  1.00  0.00    -0.550 OA
ATOM      8  O   UNL     1       3.678   4.267   6.410  1.00  0.00    -0.550 OA
ENDBRANCH   5   6
ENDBRANCH   4   5
ENDBRANCH   3   4
ENDBRANCH   2   3
ENDBRANCH   1   2
BRANCH   1   9
ATOM      9  C   UNL     1       1.470  -2.221   8.816  1.00  0.00     0.000 C 
BRANCH   9  10
ATOM     10  C   UNL     1       0.208  -1.744   8.083  1.00  0.00    -0.000 C 
BRANCH  10  11
ATOM     11  C   UNL     1      -1.007  -1.753   9.021  1.00  0.00    -0.000 C 
BRANCH  11  12
ATOM     12  C   UNL     1      -1.730  -0.397   9.068  1.00  0.00    -0.000 C 
BRANCH  12  13
ATOM     13  C   UNL     1      -1.183   0.601   8.035  1.00  0.00    -0.003 C 
ATOM     14  C   UNL     1      -0.839   1.935   8.691  1.00  0.00     0.004 C 
ENDBRANCH  12  13
ENDBRANCH  11  12
ENDBRANCH  10  11
ENDBRANCH   9  10
ENDBRANCH   1   9
TORSDOF 10
ENDMDL
MODEL 9
REMARK VINA RESULT:    -3.418      1.542      2.623
REMARK INTER + INTRA:          -6.282
REMARK INTER:                  -5.087
REMARK INTRA:                  -1.195
REMARK UNBOUND:                -0.866
REMARK SMILES CCCCCCCCCCCC(=O)[O-]
REMARK SMILES IDX 7 1 8 2 9 3 10 4 11 5 12 6 13 7 14 8 6 9 5 10 4 11 3 12 2 13
REMARK SMILES IDX 1 14
REMARK H PARENT
REMARK Flexibility Score: inf
ROOT
ATOM      1  C   UNL     1       1.244   1.440   9.361  1.00  0.00     0.000 C 
ENDROOT
BRANCH   1   2
ATOM      2  C   UNL     1       2.558   0.690   9.058  1.00  0.00     0.000 C 
BRANCH   2   3
ATOM      3  C   UNL     1       3.843   1.500   9.307  1.00  0.00     0.000 C 
BRANCH   3   4
ATOM      4  C   UNL     1       4.404   2.139   8.025  1.00  0.00     0.006 C 
BRANCH   4   5
ATOM      5  C   UNL     1       4.357   3.672   8.076  1.00  0.00     0.053 C 
BRANCH   5   6
ATOM      6  C   UNL     1       3.007   4.197   7.692  1.00  0.00     0.041 C 
ATOM      7  O   UNL     1       2.514   3.919   6.568  1.00  0.00    -0.550 OA
ATOM      8  O   UNL     1       2.278   4.963   8.593  1.00  0.00    -0.550 OA
ENDBRANCH   5   6
ENDBRANCH   4   5
ENDBRANCH   3   4
ENDBRANCH   2   3
ENDBRANCH   1   2
BRANCH   1   9
ATOM      9  C   UNL     1       0.300   1.621   8.158  1.00  0.00     0.000 C 
BRANCH   9  10
ATOM     10  C   UNL     1      -0.266   0.292   7.639  1.00  0.00    -0.000 C 
BRANCH  10  11
ATOM     11  C   UNL     1      -1.221  -0.335   8.665  1.00  0.00    -0.000 C 
BRANCH  11  12
ATOM     12  C   UNL     1      -0.728  -1.699   9.176  1.00  0.00    -0.000 C 
BRANCH  12  13
ATOM     13  C   UNL     1       0.251  -2.376   8.205  1.00  0.00    -0.003 C 
ATOM     14  C   UNL     1       1.533  -2.793   8.921  1.00  0.00     0.004 C 
ENDBRANCH  12  13
ENDBRANCH  11  12
ENDBRANCH  10  11
ENDBRANCH   9  10
ENDBRANCH   1   9
TORSDOF 10
ENDMDL
