MODEL 1
REMARK VINA RESULT:    -0.993      0.000      0.000
REMARK INTER + INTRA:          -4.045
REMARK INTER:                  -2.502
REMARK INTRA:                  -1.543
REMARK UNBOUND:                -1.543
REMARK SMILES CCCCCCCCCCCCCCCCCCCCCCCCCCCC(=O)[O-]
REMARK SMILES IDX 15 1 16 2 17 3 18 4 19 5 20 6 21 7 22 8 23 9 24 10 25 11
REMARK SMILES IDX 26 12 27 13 28 14 29 15 30 16 14 17 13 18 12 19 11 20 10 21
REMARK SMILES IDX 9 22 8 23 7 24 6 25 5 26 4 27 3 28 2 29 1 30
REMARK H PARENT
REMARK Flexibility Score: inf
ROOT
ATOM      1  C   UNL     1      41.749  28.517  19.000  1.00  0.00     0.000 C 
ENDROOT
BRANCH   1   2
ATOM      2  C   UNL     1      40.635  27.931  19.884  1.00  0.00     0.000 C 
BRANCH   2   3
ATOM      3  C   UNL     1      40.930  26.488  20.334  1.00  0.00     0.000 C 
BRANCH   3   4
ATOM      4  C   UNL     1      42.231  25.878  19.772  1.00  0.00     0.000 C 
BRANCH   4   5
ATOM      5  C   UNL     1      42.047  24.917  18.584  1.00  0.00     0.000 C 
BRANCH   5   6
ATOM      6  C   UNL     1      43.227  24.958  17.599  1.00  0.00     0.000 C 
BRANCH   6   7
ATOM      7  C   UNL     1      43.472  23.608  16.902  1.00  0.00     0.000 C 
BRANCH   7   8
ATOM      8  C   UNL     1      44.786  22.906  17.289  1.00  0.00     0.000 C 
BRANCH   8   9
ATOM      9  C   UNL     1      44.667  21.371  17.300  1.00  0.00     0.000 C 
BRANCH   9  10
ATOM     10  C   UNL     1      43.266  20.877  16.907  1.00  0.00     0.000 C 
BRANCH  10  11
ATOM     11  C   UNL     1      42.614  19.913  17.917  1.00  0.00     0.000 C 
BRANCH  11  12
ATOM     12  C   UNL     1      41.223  19.401  17.487  1.00  0.00     0.006 C 
BRANCH  12  13
ATOM     13  C   UNL     1      41.078  19.307  15.963  1.00  0.00     0.053 C 
BRANCH  13  14
ATOM     14  C   UNL     1      41.075  17.875  15.521  1.00  0.00     0.041 C 
ATOM     15  O   UNL     1      40.751  16.963  16.329  1.00  0.00    -0.550 OA
ATOM     16  O   UNL     1      41.413  17.551  14.214  1.00  0.00    -0.550 OA
ENDBRANCH  13  14
ENDBRANCH  12  13
ENDBRANCH  11  12
ENDBRANCH  10  11
ENDBRANCH   9  10
ENDBRANCH   8   9
ENDBRANCH   7   8
ENDBRANCH   6   7
ENDBRANCH   5   6
ENDBRANCH   4   5
ENDBRANCH   3   4
ENDBRANCH   2   3
ENDBRANCH   1   2
BRANCH   1  17
ATOM     17  C   UNL     1      41.224  29.088  17.670  1.00  0.00     0.000 C 
BRANCH  17  18
ATOM     18  C   UNL     1      41.673  28.329  16.409  1.00  0.00     0.000 C 
BRANCH  18  19
ATOM     19  C   UNL     1      41.281  26.841  16.430  1.00  0.00     0.000 C 
BRANCH  19  20
ATOM     20  C   UNL     1      39.775  26.623  16.219  1.00  0.00     0.000 C 
BRANCH  20  21
ATOM     21  C   UNL     1      39.056  26.181  17.507  1.00  0.00     0.000 C 
BRANCH  21  22
ATOM     22  C   UNL     1      37.664  25.590  17.233  1.00  0.00    -0.000 C 
BRANCH  22  23
ATOM     23  C   UNL     1      37.069  26.069  15.897  1.00  0.00    -0.000 C 
BRANCH  23  24
ATOM     24  C   UNL     1      35.539  25.869  15.809  1.00  0.00    -0.000 C 
BRANCH  24  25
ATOM     25  C   UNL     1      34.784  27.074  15.215  1.00  0.00    -0.000 C 
BRANCH  25  26
ATOM     26  C   UNL     1      34.662  28.287  16.155  1.00  0.00    -0.000 C 
BRANCH  26  27
ATOM     27  C   UNL     1      34.981  29.636  15.473  1.00  0.00    -0.000 C 
BRANCH  27  28
ATOM     28  C   UNL     1      35.371  29.475  13.996  1.00  0.00    -0.000 C 
BRANCH  28  29
ATOM     29  C   UNL     1      34.253  29.973  13.072  1.00  0.00    -0.003 C 
ATOM     30  C   UNL     1      33.794  31.375  13.465  1.00  0.00     0.004 C 
ENDBRANCH  28  29
ENDBRANCH  27  28
ENDBRANCH  26  27
ENDBRANCH  25  26
ENDBRANCH  24  25
ENDBRANCH  23  24
ENDBRANCH  22  23
ENDBRANCH  21  22
ENDBRANCH  20  21
ENDBRANCH  19  20
ENDBRANCH  18  19
ENDBRANCH  17  18
ENDBRANCH   1  17
TORSDOF 26
ENDMDL
MODEL 2
REMARK VINA RESULT:    -0.826      4.985      9.798
REMARK INTER + INTRA:          -3.625
REMARK INTER:                  -2.252
REMARK INTRA:                  -1.374
REMARK UNBOUND:                -1.543
REMARK SMILES CCCCCCCCCCCCCCCCCCCCCCCCCCCC(=O)[O-]
REMARK SMILES IDX 15 1 16 2 17 3 18 4 19 5 20 6 21 7 22 8 23 9 24 10 25 11
REMARK SMILES IDX 26 12 27 13 28 14 29 15 30 16 14 17 13 18 12 19 11 20 10 21
REMARK SMILES IDX 9 22 8 23 7 24 6 25 5 26 4 27 3 28 2 29 1 30
REMARK H PARENT
REMARK Flexibility Score: inf
ROOT
ATOM      1  C   UNL     1      39.866  27.521  19.623  1.00  0.00     0.000 C 
ENDROOT
BRANCH   1   2
ATOM      2  C   UNL     1      39.523  26.313  18.734  1.00  0.00     0.000 C 
BRANCH   2   3
ATOM      3  C   UNL     1      39.191  26.717  17.286  1.00  0.00     0.000 C 
BRANCH   3   4
ATOM      4  C   UNL     1      40.378  26.668  16.301  1.00  0.00     0.000 C 
BRANCH   4   5
ATOM      5  C   UNL     1      41.623  27.464  16.732  1.00  0.00     0.000 C 
BRANCH   5   6
ATOM      6  C   UNL     1      41.382  28.983  16.744  1.00  0.00     0.000 C 
BRANCH   6   7
ATOM      7  C   UNL     1      42.628  29.791  16.344  1.00  0.00     0.000 C 
BRANCH   7   8
ATOM      8  C   UNL     1      42.350  31.238  15.902  1.00  0.00     0.000 C 
BRANCH   8   9
ATOM      9  C   UNL     1      43.620  32.107  15.854  1.00  0.00     0.000 C 
BRANCH   9  10
ATOM     10  C   UNL     1      44.906  31.279  15.709  1.00  0.00     0.000 C 
BRANCH  10  11
ATOM     11  C   UNL     1      45.874  31.373  16.903  1.00  0.00     0.000 C 
BRANCH  11  12
ATOM     12  C   UNL     1      47.253  30.729  16.646  1.00  0.00     0.006 C 
BRANCH  12  13
ATOM     13  C   UNL     1      47.318  30.001  15.297  1.00  0.00     0.053 C 
BRANCH  13  14
ATOM     14  C   UNL     1      48.581  30.347  14.571  1.00  0.00     0.041 C 
ATOM     15  O   UNL     1      48.555  30.595  13.335  1.00  0.00    -0.550 OA
ATOM     16  O   UNL     1      49.784  30.412  15.262  1.00  0.00    -0.550 OA
ENDBRANCH  13  14
ENDBRANCH  12  13
ENDBRANCH  11  12
ENDBRANCH  10  11
ENDBRANCH   9  10
ENDBRANCH   8   9
ENDBRANCH   7   8
ENDBRANCH   6   7
ENDBRANCH   5   6
ENDBRANCH   4   5
ENDBRANCH   3   4
ENDBRANCH   2   3
ENDBRANCH   1   2
BRANCH   1  17
ATOM     17  C   UNL     1      40.936  27.204  20.683  1.00  0.00     0.000 C 
BRANCH  17  18
ATOM     18  C   UNL     1      42.281  26.705  20.124  1.00  0.00     0.000 C 
BRANCH  18  19
ATOM     19  C   UNL     1      42.171  25.345  19.413  1.00  0.00     0.000 C 
BRANCH  19  20
ATOM     20  C   UNL     1      43.253  25.149  18.339  1.00  0.00     0.000 C 
BRANCH  20  21
ATOM     21  C   UNL     1      42.739  24.365  17.118  1.00  0.00     0.000 C 
BRANCH  21  22
ATOM     22  C   UNL     1      43.820  23.467  16.495  1.00  0.00    -0.000 C 
BRANCH  22  23
ATOM     23  C   UNL     1      44.794  22.898  17.542  1.00  0.00    -0.000 C 
BRANCH  23  24
ATOM     24  C   UNL     1      44.664  21.369  17.722  1.00  0.00    -0.000 C 
BRANCH  24  25
ATOM     25  C   UNL     1      43.475  20.748  16.964  1.00  0.00    -0.000 C 
BRANCH  25  26
ATOM     26  C   UNL     1      42.477  19.978  17.848  1.00  0.00    -0.000 C 
BRANCH  26  27
ATOM     27  C   UNL     1      41.256  19.431  17.074  1.00  0.00    -0.000 C 
BRANCH  27  28
ATOM     28  C   UNL     1      41.506  19.339  15.561  1.00  0.00    -0.000 C 
BRANCH  28  29
ATOM     29  C   UNL     1      41.327  17.901  15.059  1.00  0.00    -0.003 C 
ATOM     30  C   UNL     1      40.509  17.069  16.044  1.00  0.00     0.004 C 
ENDBRANCH  28  29
ENDBRANCH  27  28
ENDBRANCH  26  27
ENDBRANCH  25  26
ENDBRANCH  24  25
ENDBRANCH  23  24
ENDBRANCH  22  23
ENDBRANCH  21  22
ENDBRANCH  20  21
ENDBRANCH  19  20
ENDBRANCH  18  19
ENDBRANCH  17  18
ENDBRANCH   1  17
TORSDOF 26
ENDMDL
MODEL 3
REMARK VINA RESULT:    -0.806      2.915      6.374
REMARK INTER + INTRA:          -3.575
REMARK INTER:                  -1.872
REMARK INTRA:                  -1.703
REMARK UNBOUND:                -1.543
REMARK SMILES CCCCCCCCCCCCCCCCCCCCCCCCCCCC(=O)[O-]
REMARK SMILES IDX 15 1 16 2 17 3 18 4 19 5 20 6 21 7 22 8 23 9 24 10 25 11
REMARK SMILES IDX 26 12 27 13 28 14 29 15 30 16 14 17 13 18 12 19 11 20 10 21
REMARK SMILES IDX 9 22 8 23 7 24 6 25 5 26 4 27 3 28 2 29 1 30
REMARK H PARENT
REMARK Flexibility Score: inf
ROOT
ATOM      1  C   UNL     1      39.310  25.866  18.617  1.00  0.00     0.000 C 
ENDROOT
BRANCH   1   2
ATOM      2  C   UNL     1      38.950  26.673  17.358  1.00  0.00     0.000 C 
BRANCH   2   3
ATOM      3  C   UNL     1      39.698  26.184  16.104  1.00  0.00     0.000 C 
BRANCH   3   4
ATOM      4  C   UNL     1      41.236  26.306  16.166  1.00  0.00     0.000 C 
BRANCH   4   5
ATOM      5  C   UNL     1      41.978  25.041  16.630  1.00  0.00     0.000 C 
BRANCH   5   6
ATOM      6  C   UNL     1      42.915  25.304  17.821  1.00  0.00     0.000 C 
BRANCH   6   7
ATOM      7  C   UNL     1      43.970  24.200  18.008  1.00  0.00     0.000 C 
BRANCH   7   8
ATOM      8  C   UNL     1      44.072  23.194  16.847  1.00  0.00     0.000 C 
BRANCH   8   9
ATOM      9  C   UNL     1      44.616  21.822  17.286  1.00  0.00     0.000 C 
BRANCH   9  10
ATOM     10  C   UNL     1      43.704  20.657  16.874  1.00  0.00     0.000 C 
BRANCH  10  11
ATOM     11  C   UNL     1      42.773  20.141  17.988  1.00  0.00     0.000 C 
BRANCH  11  12
ATOM     12  C   UNL     1      41.499  19.441  17.467  1.00  0.00     0.006 C 
BRANCH  12  13
ATOM     13  C   UNL     1      41.455  19.367  15.935  1.00  0.00     0.053 C 
BRANCH  13  14
ATOM     14  C   UNL     1      41.167  17.968  15.484  1.00  0.00     0.041 C 
ATOM     15  O   UNL     1      40.700  17.123  16.295  1.00  0.00    -0.550 OA
ATOM     16  O   UNL     1      41.398  17.602  14.164  1.00  0.00    -0.550 OA
ENDBRANCH  13  14
ENDBRANCH  12  13
ENDBRANCH  11  12
ENDBRANCH  10  11
ENDBRANCH   9  10
ENDBRANCH   8   9
ENDBRANCH   7   8
ENDBRANCH   6   7
ENDBRANCH   5   6
ENDBRANCH   4   5
ENDBRANCH   3   4
ENDBRANCH   2   3
ENDBRANCH   1   2
BRANCH   1  17
ATOM     17  C   UNL     1      39.367  26.730  19.889  1.00  0.00     0.000 C 
BRANCH  17  18
ATOM     18  C   UNL     1      40.592  26.488  20.789  1.00  0.00     0.000 C 
BRANCH  18  19
ATOM     19  C   UNL     1      41.779  27.408  20.453  1.00  0.00     0.000 C 
BRANCH  19  20
ATOM     20  C   UNL     1      41.397  28.535  19.480  1.00  0.00     0.000 C 
BRANCH  20  21
ATOM     21  C   UNL     1      42.030  28.355  18.088  1.00  0.00     0.000 C 
BRANCH  21  22
ATOM     22  C   UNL     1      41.487  29.358  17.058  1.00  0.00    -0.000 C 
BRANCH  22  23
ATOM     23  C   UNL     1      42.569  29.844  16.077  1.00  0.00    -0.000 C 
BRANCH  23  24
ATOM     24  C   UNL     1      42.546  31.374  15.859  1.00  0.00    -0.000 C 
BRANCH  24  25
ATOM     25  C   UNL     1      43.866  32.078  16.229  1.00  0.00    -0.000 C 
BRANCH  25  26
ATOM     26  C   UNL     1      45.140  31.325  15.804  1.00  0.00    -0.000 C 
BRANCH  26  27
ATOM     27  C   UNL     1      46.189  31.194  16.932  1.00  0.00    -0.000 C 
BRANCH  27  28
ATOM     28  C   UNL     1      47.400  30.344  16.519  1.00  0.00    -0.000 C 
BRANCH  28  29
ATOM     29  C   UNL     1      47.430  30.126  15.001  1.00  0.00    -0.003 C 
ATOM     30  C   UNL     1      48.838  30.313  14.443  1.00  0.00     0.004 C 
ENDBRANCH  28  29
ENDBRANCH  27  28
ENDBRANCH  26  27
ENDBRANCH  25  26
ENDBRANCH  24  25
ENDBRANCH  23  24
ENDBRANCH  22  23
ENDBRANCH  21  22
ENDBRANCH  20  21
ENDBRANCH  19  20
ENDBRANCH  18  19
ENDBRANCH  17  18
ENDBRANCH   1  17
TORSDOF 26
ENDMDL
MODEL 4
REMARK VINA RESULT:    -0.750      4.101      9.596
REMARK INTER + INTRA:          -3.432
REMARK INTER:                  -2.182
REMARK INTRA:                  -1.250
REMARK UNBOUND:                -1.543
REMARK SMILES CCCCCCCCCCCCCCCCCCCCCCCCCCCC(=O)[O-]
REMARK SMILES IDX 15 1 16 2 17 3 18 4 19 5 20 6 21 7 22 8 23 9 24 10 25 11
REMARK SMILES IDX 26 12 27 13 28 14 29 15 30 16 14 17 13 18 12 19 11 20 10 21
REMARK SMILES IDX 9 22 8 23 7 24 6 25 5 26 4 27 3 28 2 29 1 30
REMARK H PARENT
REMARK Flexibility Score: inf
ROOT
ATOM      1  C   UNL     1      41.808  28.245  19.110  1.00  0.00     0.000 C 
ENDROOT
BRANCH   1   2
ATOM      2  C   UNL     1      40.591  28.145  20.046  1.00  0.00     0.000 C 
BRANCH   2   3
ATOM      3  C   UNL     1      40.356  26.714  20.564  1.00  0.00     0.000 C 
BRANCH   3   4
ATOM      4  C   UNL     1      39.433  25.840  19.688  1.00  0.00     0.000 C 
BRANCH   4   5
ATOM      5  C   UNL     1      38.832  26.546  18.460  1.00  0.00     0.000 C 
BRANCH   5   6
ATOM      6  C   UNL     1      38.410  25.561  17.357  1.00  0.00     0.000 C 
BRANCH   6   7
ATOM      7  C   UNL     1      37.540  26.216  16.270  1.00  0.00     0.000 C 
BRANCH   7   8
ATOM      8  C   UNL     1      36.326  25.384  15.821  1.00  0.00     0.000 C 
BRANCH   8   9
ATOM      9  C   UNL     1      35.097  26.248  15.481  1.00  0.00     0.000 C 
BRANCH   9  10
ATOM     10  C   UNL     1      34.691  27.186  16.627  1.00  0.00     0.000 C 
BRANCH  10  11
ATOM     11  C   UNL     1      34.708  28.685  16.271  1.00  0.00     0.000 C 
BRANCH  11  12
ATOM     12  C   UNL     1      35.058  28.976  14.796  1.00  0.00     0.006 C 
BRANCH  12  13
ATOM     13  C   UNL     1      35.074  30.478  14.482  1.00  0.00     0.053 C 
BRANCH  13  14
ATOM     14  C   UNL     1      34.065  30.806  13.424  1.00  0.00     0.041 C 
ATOM     15  O   UNL     1      33.985  30.098  12.384  1.00  0.00    -0.550 OA
ATOM     16  O   UNL     1      33.203  31.881  13.595  1.00  0.00    -0.550 OA
ENDBRANCH  13  14
ENDBRANCH  12  13
ENDBRANCH  11  12
ENDBRANCH  10  11
ENDBRANCH   9  10
ENDBRANCH   8   9
ENDBRANCH   7   8
ENDBRANCH   6   7
ENDBRANCH   5   6
ENDBRANCH   4   5
ENDBRANCH   3   4
ENDBRANCH   2   3
ENDBRANCH   1   2
BRANCH   1  17
ATOM     17  C   UNL     1      41.512  29.028  17.819  1.00  0.00     0.000 C 
BRANCH  17  18
ATOM     18  C   UNL     1      41.844  28.286  16.512  1.00  0.00     0.000 C 
BRANCH  18  19
ATOM     19  C   UNL     1      41.022  26.998  16.325  1.00  0.00     0.000 C 
BRANCH  19  20
ATOM     20  C   UNL     1      41.853  25.726  16.553  1.00  0.00     0.000 C 
BRANCH  20  21
ATOM     21  C   UNL     1      42.426  25.643  17.980  1.00  0.00     0.000 C 
BRANCH  21  22
ATOM     22  C   UNL     1      43.544  24.596  18.108  1.00  0.00    -0.000 C 
BRANCH  22  23
ATOM     23  C   UNL     1      43.605  23.644  16.900  1.00  0.00    -0.000 C 
BRANCH  23  24
ATOM     24  C   UNL     1      44.818  22.687  16.943  1.00  0.00    -0.000 C 
BRANCH  24  25
ATOM     25  C   UNL     1      44.499  21.301  17.536  1.00  0.00    -0.000 C 
BRANCH  25  26
ATOM     26  C   UNL     1      43.317  20.571  16.873  1.00  0.00    -0.000 C 
BRANCH  26  27
ATOM     27  C   UNL     1      42.433  19.788  17.870  1.00  0.00    -0.000 C 
BRANCH  27  28
ATOM     28  C   UNL     1      41.046  19.456  17.298  1.00  0.00    -0.000 C 
BRANCH  28  29
ATOM     29  C   UNL     1      41.145  19.009  15.835  1.00  0.00    -0.003 C 
ATOM     30  C   UNL     1      40.859  17.516  15.693  1.00  0.00     0.004 C 
ENDBRANCH  28  29
ENDBRANCH  27  28
ENDBRANCH  26  27
ENDBRANCH  25  26
ENDBRANCH  24  25
ENDBRANCH  23  24
ENDBRANCH  22  23
ENDBRANCH  21  22
ENDBRANCH  20  21
ENDBRANCH  19  20
ENDBRANCH  18  19
ENDBRANCH  17  18
ENDBRANCH   1  17
TORSDOF 26
ENDMDL
MODEL 5
REMARK VINA RESULT:    -0.733      5.137      9.627
REMARK INTER + INTRA:          -3.389
REMARK INTER:                  -3.992
REMARK INTRA:                   0.603
REMARK UNBOUND:                -1.543
REMARK SMILES CCCCCCCCCCCCCCCCCCCCCCCCCCCC(=O)[O-]
REMARK SMILES IDX 15 1 16 2 17 3 18 4 19 5 20 6 21 7 22 8 23 9 24 10 25 11
REMARK SMILES IDX 26 12 27 13 28 14 29 15 30 16 14 17 13 18 12 19 11 20 10 21
REMARK SMILES IDX 9 22 8 23 7 24 6 25 5 26 4 27 3 28 2 29 1 30
REMARK H PARENT
REMARK Flexibility Score: inf
ROOT
ATOM      1  C   UNL     1      41.751  25.512  18.960  1.00  0.00     0.000 C 
ENDROOT
BRANCH   1   2
ATOM      2  C   UNL     1      42.470  26.418  19.974  1.00  0.00     0.000 C 
BRANCH   2   3
ATOM      3  C   UNL     1      41.492  27.204  20.867  1.00  0.00     0.000 C 
BRANCH   3   4
ATOM      4  C   UNL     1      40.168  27.616  20.188  1.00  0.00     0.000 C 
BRANCH   4   5
ATOM      5  C   UNL     1      39.413  26.480  19.476  1.00  0.00     0.000 C 
BRANCH   5   6
ATOM      6  C   UNL     1      39.113  26.798  18.002  1.00  0.00     0.000 C 
BRANCH   6   7
ATOM      7  C   UNL     1      38.379  25.655  17.280  1.00  0.00     0.000 C 
BRANCH   7   8
ATOM      8  C   UNL     1      37.451  26.100  16.135  1.00  0.00     0.000 C 
BRANCH   8   9
ATOM      9  C   UNL     1      36.018  25.555  16.276  1.00  0.00     0.000 C 
BRANCH   9  10
ATOM     10  C   UNL     1      34.991  26.356  15.461  1.00  0.00     0.000 C 
BRANCH  10  11
ATOM     11  C   UNL     1      34.966  27.867  15.758  1.00  0.00     0.000 C 
BRANCH  11  12
ATOM     12  C   UNL     1      35.179  28.755  14.513  1.00  0.00     0.006 C 
BRANCH  12  13
ATOM     13  C   UNL     1      34.763  30.212  14.754  1.00  0.00     0.053 C 
BRANCH  13  14
ATOM     14  C   UNL     1      34.046  30.760  13.558  1.00  0.00     0.041 C 
ATOM     15  O   UNL     1      34.097  30.152  12.455  1.00  0.00    -0.550 OA
ATOM     16  O   UNL     1      33.308  31.931  13.667  1.00  0.00    -0.550 OA
ENDBRANCH  13  14
ENDBRANCH  12  13
ENDBRANCH  11  12
ENDBRANCH  10  11
ENDBRANCH   9  10
ENDBRANCH   8   9
ENDBRANCH   7   8
ENDBRANCH   6   7
ENDBRANCH   5   6
ENDBRANCH   4   5
ENDBRANCH   3   4
ENDBRANCH   2   3
ENDBRANCH   1   2
BRANCH   1  17
ATOM     17  C   UNL     1      42.635  25.132  17.759  1.00  0.00     0.000 C 
BRANCH  17  18
ATOM     18  C   UNL     1      42.099  25.575  16.387  1.00  0.00     0.000 C 
BRANCH  18  19
ATOM     19  C   UNL     1      41.397  26.944  16.427  1.00  0.00     0.000 C 
BRANCH  19  20
ATOM     20  C   UNL     1      42.180  27.987  17.238  1.00  0.00     0.000 C 
BRANCH  20  21
ATOM     21  C   UNL     1      41.695  29.425  16.978  1.00  0.00     0.000 C 
BRANCH  21  22
ATOM     22  C   UNL     1      42.450  30.104  15.824  1.00  0.00    -0.000 C 
BRANCH  22  23
ATOM     23  C   UNL     1      42.470  31.638  15.950  1.00  0.00    -0.000 C 
BRANCH  23  24
ATOM     24  C   UNL     1      43.881  32.242  15.772  1.00  0.00    -0.000 C 
BRANCH  24  25
ATOM     25  C   UNL     1      44.981  31.196  15.511  1.00  0.00    -0.000 C 
BRANCH  25  26
ATOM     26  C   UNL     1      46.075  31.124  16.593  1.00  0.00    -0.000 C 
BRANCH  26  27
ATOM     27  C   UNL     1      47.349  30.377  16.139  1.00  0.00    -0.000 C 
BRANCH  27  28
ATOM     28  C   UNL     1      47.323  30.012  14.648  1.00  0.00    -0.000 C 
BRANCH  28  29
ATOM     29  C   UNL     1      48.647  30.377  13.967  1.00  0.00    -0.003 C 
ATOM     30  C   UNL     1      49.794  30.419  14.974  1.00  0.00     0.004 C 
ENDBRANCH  28  29
ENDBRANCH  27  28
ENDBRANCH  26  27
ENDBRANCH  25  26
ENDBRANCH  24  25
ENDBRANCH  23  24
ENDBRANCH  22  23
ENDBRANCH  21  22
ENDBRANCH  20  21
ENDBRANCH  19  20
ENDBRANCH  18  19
ENDBRANCH  17  18
ENDBRANCH   1  17
TORSDOF 26
ENDMDL
MODEL 6
REMARK VINA RESULT:    -0.725      6.534      8.056
REMARK INTER + INTRA:          -3.371
REMARK INTER:                  -2.158
REMARK INTRA:                  -1.213
REMARK UNBOUND:                -1.543
REMARK SMILES CCCCCCCCCCCCCCCCCCCCCCCCCCCC(=O)[O-]
REMARK SMILES IDX 15 1 16 2 17 3 18 4 19 5 20 6 21 7 22 8 23 9 24 10 25 11
REMARK SMILES IDX 26 12 27 13 28 14 29 15 30 16 14 17 13 18 12 19 11 20 10 21
REMARK SMILES IDX 9 22 8 23 7 24 6 25 5 26 4 27 3 28 2 29 1 30
REMARK H PARENT
REMARK Flexibility Score: inf
ROOT
ATOM      1  C   UNL     1      44.579  21.565  17.358  1.00  0.00     0.000 C 
ENDROOT
BRANCH   1   2
ATOM      2  C   UNL     1      43.183  20.918  17.333  1.00  0.00     0.000 C 
BRANCH   2   3
ATOM      3  C   UNL     1      42.863  20.148  18.628  1.00  0.00     0.000 C 
BRANCH   3   4
ATOM      4  C   UNL     1      44.077  19.846  19.531  1.00  0.00     0.000 C 
BRANCH   4   5
ATOM      5  C   UNL     1      43.788  19.850  21.043  1.00  0.00     0.000 C 
BRANCH   5   6
ATOM      6  C   UNL     1      44.864  20.594  21.852  1.00  0.00     0.000 C 
BRANCH   6   7
ATOM      7  C   UNL     1      44.385  20.995  23.258  1.00  0.00     0.000 C 
BRANCH   7   8
ATOM      8  C   UNL     1      45.476  21.577  24.174  1.00  0.00     0.000 C 
BRANCH   8   9
ATOM      9  C   UNL     1      44.912  22.176  25.475  1.00  0.00     0.000 C 
BRANCH   9  10
ATOM     10  C   UNL     1      44.738  21.132  26.588  1.00  0.00     0.000 C 
BRANCH  10  11
ATOM     11  C   UNL     1      45.363  21.519  27.942  1.00  0.00     0.000 C 
BRANCH  11  12
ATOM     12  C   UNL     1      45.345  20.384  28.989  1.00  0.00     0.006 C 
BRANCH  12  13
ATOM     13  C   UNL     1      46.421  20.565  30.067  1.00  0.00     0.053 C 
BRANCH  13  14
ATOM     14  C   UNL     1      47.527  19.571  29.880  1.00  0.00     0.041 C 
ATOM     15  O   UNL     1      47.269  18.339  29.825  1.00  0.00    -0.550 OA
ATOM     16  O   UNL     1      48.838  20.007  29.750  1.00  0.00    -0.550 OA
ENDBRANCH  13  14
ENDBRANCH  12  13
ENDBRANCH  11  12
ENDBRANCH  10  11
ENDBRANCH   9  10
ENDBRANCH   8   9
ENDBRANCH   7   8
ENDBRANCH   6   7
ENDBRANCH   5   6
ENDBRANCH   4   5
ENDBRANCH   3   4
ENDBRANCH   2   3
ENDBRANCH   1   2
BRANCH   1  17
ATOM     17  C   UNL     1      44.545  23.078  17.075  1.00  0.00     0.000 C 
BRANCH  17  18
ATOM     18  C   UNL     1      43.139  23.700  17.008  1.00  0.00     0.000 C 
BRANCH  18  19
ATOM     19  C   UNL     1      43.059  25.083  17.678  1.00  0.00     0.000 C 
BRANCH  19  20
ATOM     20  C   UNL     1      41.813  25.875  17.253  1.00  0.00     0.000 C 
BRANCH  20  21
ATOM     21  C   UNL     1      41.174  26.646  18.422  1.00  0.00     0.000 C 
BRANCH  21  22
ATOM     22  C   UNL     1      39.643  26.724  18.312  1.00  0.00    -0.000 C 
BRANCH  22  23
ATOM     23  C   UNL     1      39.100  25.993  17.072  1.00  0.00    -0.000 C 
BRANCH  23  24
ATOM     24  C   UNL     1      37.752  26.561  16.575  1.00  0.00    -0.000 C 
BRANCH  24  25
ATOM     25  C   UNL     1      36.767  25.487  16.075  1.00  0.00    -0.000 C 
BRANCH  25  26
ATOM     26  C   UNL     1      35.399  26.027  15.619  1.00  0.00    -0.000 C 
BRANCH  26  27
ATOM     27  C   UNL     1      35.181  27.522  15.946  1.00  0.00    -0.000 C 
BRANCH  27  28
ATOM     28  C   UNL     1      34.674  28.325  14.738  1.00  0.00    -0.000 C 
BRANCH  28  29
ATOM     29  C   UNL     1      35.080  29.799  14.845  1.00  0.00    -0.003 C 
ATOM     30  C   UNL     1      34.546  30.607  13.665  1.00  0.00     0.004 C 
ENDBRANCH  28  29
ENDBRANCH  27  28
ENDBRANCH  26  27
ENDBRANCH  25  26
ENDBRANCH  24  25
ENDBRANCH  23  24
ENDBRANCH  22  23
ENDBRANCH  21  22
ENDBRANCH  20  21
ENDBRANCH  19  20
ENDBRANCH  18  19
ENDBRANCH  17  18
ENDBRANCH   1  17
TORSDOF 26
ENDMDL
MODEL 7
REMARK VINA RESULT:    -0.504      7.449     10.980
REMARK INTER + INTRA:          -2.813
REMARK INTER:                  -1.560
REMARK INTRA:                  -1.252
REMARK UNBOUND:                -1.543
REMARK SMILES CCCCCCCCCCCCCCCCCCCCCCCCCCCC(=O)[O-]
REMARK SMILES IDX 15 1 16 2 17 3 18 4 19 5 20 6 21 7 22 8 23 9 24 10 25 11
REMARK SMILES IDX 26 12 27 13 28 14 29 15 30 16 14 17 13 18 12 19 11 20 10 21
REMARK SMILES IDX 9 22 8 23 7 24 6 25 5 26 4 27 3 28 2 29 1 30
REMARK H PARENT
REMARK Flexibility Score: inf
ROOT
ATOM      1  C   UNL     1      33.209  26.141  20.344  1.00  0.00     0.000 C 
ENDROOT
BRANCH   1   2
ATOM      2  C   UNL     1      33.340  27.666  20.191  1.00  0.00     0.000 C 
BRANCH   2   3
ATOM      3  C   UNL     1      33.129  28.138  18.740  1.00  0.00     0.000 C 
BRANCH   3   4
ATOM      4  C   UNL     1      33.875  27.317  17.667  1.00  0.00     0.000 C 
BRANCH   4   5
ATOM      5  C   UNL     1      34.651  28.146  16.628  1.00  0.00     0.000 C 
BRANCH   5   6
ATOM      6  C   UNL     1      35.239  27.283  15.499  1.00  0.00     0.000 C 
BRANCH   6   7
ATOM      7  C   UNL     1      35.422  25.810  15.904  1.00  0.00     0.000 C 
BRANCH   7   8
ATOM      8  C   UNL     1      36.715  25.505  16.681  1.00  0.00     0.000 C 
BRANCH   8   9
ATOM      9  C   UNL     1      37.892  26.407  16.265  1.00  0.00     0.000 C 
BRANCH   9  10
ATOM     10  C   UNL     1      39.104  26.279  17.202  1.00  0.00     0.000 C 
BRANCH  10  11
ATOM     11  C   UNL     1      40.469  26.511  16.528  1.00  0.00     0.000 C 
BRANCH  11  12
ATOM     12  C   UNL     1      41.586  26.938  17.504  1.00  0.00     0.006 C 
BRANCH  12  13
ATOM     13  C   UNL     1      41.102  27.963  18.538  1.00  0.00     0.053 C 
BRANCH  13  14
ATOM     14  C   UNL     1      40.997  27.334  19.894  1.00  0.00     0.041 C 
ATOM     15  O   UNL     1      41.516  26.207  20.112  1.00  0.00    -0.550 OA
ATOM     16  O   UNL     1      40.342  28.001  20.920  1.00  0.00    -0.550 OA
ENDBRANCH  13  14
ENDBRANCH  12  13
ENDBRANCH  11  12
ENDBRANCH  10  11
ENDBRANCH   9  10
ENDBRANCH   8   9
ENDBRANCH   7   8
ENDBRANCH   6   7
ENDBRANCH   5   6
ENDBRANCH   4   5
ENDBRANCH   3   4
ENDBRANCH   2   3
ENDBRANCH   1   2
BRANCH   1  17
ATOM     17  C   UNL     1      33.541  25.648  21.764  1.00  0.00     0.000 C 
BRANCH  17  18
ATOM     18  C   UNL     1      33.603  26.747  22.840  1.00  0.00     0.000 C 
BRANCH  18  19
ATOM     19  C   UNL     1      33.073  26.282  24.208  1.00  0.00     0.000 C 
BRANCH  19  20
ATOM     20  C   UNL     1      32.853  27.448  25.184  1.00  0.00     0.000 C 
BRANCH  20  21
ATOM     21  C   UNL     1      32.190  27.001  26.499  1.00  0.00     0.000 C 
BRANCH  21  22
ATOM     22  C   UNL     1      33.153  27.053  27.695  1.00  0.00    -0.000 C 
BRANCH  22  23
ATOM     23  C   UNL     1      32.859  28.229  28.644  1.00  0.00    -0.000 C 
BRANCH  23  24
ATOM     24  C   UNL     1      34.055  28.588  29.554  1.00  0.00    -0.000 C 
BRANCH  24  25
ATOM     25  C   UNL     1      35.216  29.282  28.816  1.00  0.00    -0.000 C 
BRANCH  25  26
ATOM     26  C   UNL     1      36.443  29.595  29.692  1.00  0.00    -0.000 C 
BRANCH  26  27
ATOM     27  C   UNL     1      37.652  30.137  28.896  1.00  0.00    -0.000 C 
BRANCH  27  28
ATOM     28  C   UNL     1      37.303  31.376  28.059  1.00  0.00    -0.000 C 
BRANCH  28  29
ATOM     29  C   UNL     1      37.904  32.645  28.674  1.00  0.00    -0.003 C 
ATOM     30  C   UNL     1      39.351  32.844  28.228  1.00  0.00     0.004 C 
ENDBRANCH  28  29
ENDBRANCH  27  28
ENDBRANCH  26  27
ENDBRANCH  25  26
ENDBRANCH  24  25
ENDBRANCH  23  24
ENDBRANCH  22  23
ENDBRANCH  21  22
ENDBRANCH  20  21
ENDBRANCH  19  20
ENDBRANCH  18  19
ENDBRANCH  17  18
ENDBRANCH   1  17
TORSDOF 26
ENDMDL
MODEL 8
REMARK VINA RESULT:    -0.338      7.597     10.844
REMARK INTER + INTRA:          -2.394
REMARK INTER:                  -0.791
REMARK INTRA:                  -1.603
REMARK UNBOUND:                -1.543
REMARK SMILES CCCCCCCCCCCCCCCCCCCCCCCCCCCC(=O)[O-]
REMARK SMILES IDX 15 1 16 2 17 3 18 4 19 5 20 6 21 7 22 8 23 9 24 10 25 11
REMARK SMILES IDX 26 12 27 13 28 14 29 15 30 16 14 17 13 18 12 19 11 20 10 21
REMARK SMILES IDX 9 22 8 23 7 24 6 25 5 26 4 27 3 28 2 29 1 30
REMARK H PARENT
REMARK Flexibility Score: inf
ROOT
ATOM      1  C   UNL     1      33.138  26.734  20.287  1.00  0.00     0.000 C 
ENDROOT
BRANCH   1   2
ATOM      2  C   UNL     1      33.299  27.890  19.285  1.00  0.00     0.000 C 
BRANCH   2   3
ATOM      3  C   UNL     1      33.533  27.399  17.845  1.00  0.00     0.000 C 
BRANCH   3   4
ATOM      4  C   UNL     1      34.312  28.374  16.936  1.00  0.00     0.000 C 
BRANCH   4   5
ATOM      5  C   UNL     1      35.089  27.717  15.782  1.00  0.00     0.000 C 
BRANCH   5   6
ATOM      6  C   UNL     1      35.047  26.181  15.835  1.00  0.00     0.000 C 
BRANCH   6   7
ATOM      7  C   UNL     1      36.298  25.570  16.489  1.00  0.00     0.000 C 
BRANCH   7   8
ATOM      8  C   UNL     1      37.632  26.209  16.063  1.00  0.00     0.000 C 
BRANCH   8   9
ATOM      9  C   UNL     1      38.726  26.091  17.140  1.00  0.00     0.000 C 
BRANCH   9  10
ATOM     10  C   UNL     1      40.091  26.611  16.665  1.00  0.00     0.000 C 
BRANCH  10  11
ATOM     11  C   UNL     1      41.298  26.079  17.461  1.00  0.00     0.000 C 
BRANCH  11  12
ATOM     12  C   UNL     1      41.636  26.909  18.718  1.00  0.00     0.006 C 
BRANCH  12  13
ATOM     13  C   UNL     1      41.069  26.288  20.001  1.00  0.00     0.053 C 
BRANCH  13  14
ATOM     14  C   UNL     1      40.933  27.325  21.074  1.00  0.00     0.041 C 
ATOM     15  O   UNL     1      41.661  27.274  22.101  1.00  0.00    -0.550 OA
ATOM     16  O   UNL     1      40.015  28.357  20.929  1.00  0.00    -0.550 OA
ENDBRANCH  13  14
ENDBRANCH  12  13
ENDBRANCH  11  12
ENDBRANCH  10  11
ENDBRANCH   9  10
ENDBRANCH   8   9
ENDBRANCH   7   8
ENDBRANCH   6   7
ENDBRANCH   5   6
ENDBRANCH   4   5
ENDBRANCH   3   4
ENDBRANCH   2   3
ENDBRANCH   1   2
BRANCH   1  17
ATOM     17  C   UNL     1      33.519  27.127  21.726  1.00  0.00     0.000 C 
BRANCH  17  18
ATOM     18  C   UNL     1      33.819  25.947  22.668  1.00  0.00     0.000 C 
BRANCH  18  19
ATOM     19  C   UNL     1      33.203  26.121  24.067  1.00  0.00     0.000 C 
BRANCH  19  20
ATOM     20  C   UNL     1      33.173  27.588  24.523  1.00  0.00     0.000 C 
BRANCH  20  21
ATOM     21  C   UNL     1      32.897  27.733  26.031  1.00  0.00     0.000 C 
BRANCH  21  22
ATOM     22  C   UNL     1      32.224  26.489  26.631  1.00  0.00    -0.000 C 
BRANCH  22  23
ATOM     23  C   UNL     1      31.905  26.651  28.128  1.00  0.00    -0.000 C 
BRANCH  23  24
ATOM     24  C   UNL     1      32.407  27.991  28.713  1.00  0.00    -0.000 C 
BRANCH  24  25
ATOM     25  C   UNL     1      33.469  27.832  29.818  1.00  0.00    -0.000 C 
BRANCH  25  26
ATOM     26  C   UNL     1      34.846  27.350  29.325  1.00  0.00    -0.000 C 
BRANCH  26  27
ATOM     27  C   UNL     1      36.003  28.314  29.674  1.00  0.00    -0.000 C 
BRANCH  27  28
ATOM     28  C   UNL     1      36.024  29.561  28.778  1.00  0.00    -0.000 C 
BRANCH  28  29
ATOM     29  C   UNL     1      37.324  30.353  28.966  1.00  0.00    -0.003 C 
ATOM     30  C   UNL     1      37.378  31.558  28.030  1.00  0.00     0.004 C 
ENDBRANCH  28  29
ENDBRANCH  27  28
ENDBRANCH  26  27
ENDBRANCH  25  26
ENDBRANCH  24  25
ENDBRANCH  23  24
ENDBRANCH  22  23
ENDBRANCH  21  22
ENDBRANCH  20  21
ENDBRANCH  19  20
ENDBRANCH  18  19
ENDBRANCH  17  18
ENDBRANCH   1  17
TORSDOF 26
ENDMDL
MODEL 9
REMARK VINA RESULT:    -0.267      8.228     11.970
REMARK INTER + INTRA:          -2.215
REMARK INTER:                  -0.811
REMARK INTRA:                  -1.404
REMARK UNBOUND:                -1.543
REMARK SMILES CCCCCCCCCCCCCCCCCCCCCCCCCCCC(=O)[O-]
REMARK SMILES IDX 15 1 16 2 17 3 18 4 19 5 20 6 21 7 22 8 23 9 24 10 25 11
REMARK SMILES IDX 26 12 27 13 28 14 29 15 30 16 14 17 13 18 12 19 11 20 10 21
REMARK SMILES IDX 9 22 8 23 7 24 6 25 5 26 4 27 3 28 2 29 1 30
REMARK H PARENT
REMARK Flexibility Score: inf
ROOT
ATOM      1  C   UNL     1      42.905  34.640  23.612  1.00  0.00     0.000 C 
ENDROOT
BRANCH   1   2
ATOM      2  C   UNL     1      42.898  33.993  22.216  1.00  0.00     0.000 C 
BRANCH   2   3
ATOM      3  C   UNL     1      44.316  33.725  21.678  1.00  0.00     0.000 C 
BRANCH   3   4
ATOM      4  C   UNL     1      44.493  33.931  20.159  1.00  0.00     0.000 C 
BRANCH   4   5
ATOM      5  C   UNL     1      45.600  33.086  19.505  1.00  0.00     0.000 C 
BRANCH   5   6
ATOM      6  C   UNL     1      45.494  33.050  17.972  1.00  0.00     0.000 C 
BRANCH   6   7
ATOM      7  C   UNL     1      45.828  31.670  17.380  1.00  0.00     0.000 C 
BRANCH   7   8
ATOM      8  C   UNL     1      44.924  31.226  16.217  1.00  0.00     0.000 C 
BRANCH   8   9
ATOM      9  C   UNL     1      43.637  32.063  16.102  1.00  0.00     0.000 C 
BRANCH   9  10
ATOM     10  C   UNL     1      42.387  31.206  15.849  1.00  0.00     0.000 C 
BRANCH  10  11
ATOM     11  C   UNL     1      42.591  29.692  16.043  1.00  0.00     0.000 C 
BRANCH  11  12
ATOM     12  C   UNL     1      41.791  29.096  17.221  1.00  0.00     0.006 C 
BRANCH  12  13
ATOM     13  C   UNL     1      41.644  27.572  17.119  1.00  0.00     0.053 C 
BRANCH  13  14
ATOM     14  C   UNL     1      40.567  27.084  18.038  1.00  0.00     0.041 C 
ATOM     15  O   UNL     1      40.757  27.064  19.284  1.00  0.00    -0.550 OA
ATOM     16  O   UNL     1      39.348  26.668  17.520  1.00  0.00    -0.550 OA
ENDBRANCH  13  14
ENDBRANCH  12  13
ENDBRANCH  11  12
ENDBRANCH  10  11
ENDBRANCH   9  10
ENDBRANCH   8   9
ENDBRANCH   7   8
ENDBRANCH   6   7
ENDBRANCH   5   6
ENDBRANCH   4   5
ENDBRANCH   3   4
ENDBRANCH   2   3
ENDBRANCH   1   2
BRANCH   1  17
ATOM     17  C   UNL     1      44.047  34.127  24.507  1.00  0.00     0.000 C 
BRANCH  17  18
ATOM     18  C   UNL     1      44.253  34.909  25.817  1.00  0.00     0.000 C 
BRANCH  18  19
ATOM     19  C   UNL     1      43.637  34.208  27.041  1.00  0.00     0.000 C 
BRANCH  19  20
ATOM     20  C   UNL     1      43.979  34.914  28.362  1.00  0.00     0.000 C 
BRANCH  20  21
ATOM     21  C   UNL     1      43.338  34.229  29.582  1.00  0.00     0.000 C 
BRANCH  21  22
ATOM     22  C   UNL     1      43.374  32.696  29.485  1.00  0.00    -0.000 C 
BRANCH  22  23
ATOM     23  C   UNL     1      42.001  32.053  29.752  1.00  0.00    -0.000 C 
BRANCH  23  24
ATOM     24  C   UNL     1      40.874  32.642  28.875  1.00  0.00    -0.000 C 
BRANCH  24  25
ATOM     25  C   UNL     1      39.462  32.175  29.274  1.00  0.00    -0.000 C 
BRANCH  25  26
ATOM     26  C   UNL     1      38.384  32.381  28.194  1.00  0.00    -0.000 C 
BRANCH  26  27
ATOM     27  C   UNL     1      37.260  31.320  28.227  1.00  0.00    -0.000 C 
BRANCH  27  28
ATOM     28  C   UNL     1      37.439  30.303  29.365  1.00  0.00    -0.000 C 
BRANCH  28  29
ATOM     29  C   UNL     1      36.341  29.234  29.327  1.00  0.00    -0.003 C 
ATOM     30  C   UNL     1      36.876  27.876  29.774  1.00  0.00     0.004 C 
ENDBRANCH  28  29
ENDBRANCH  27  28
ENDBRANCH  26  27
ENDBRANCH  25  26
ENDBRANCH  24  25
ENDBRANCH  23  24
ENDBRANCH  22  23
ENDBRANCH  21  22
ENDBRANCH  20  21
ENDBRANCH  19  20
ENDBRANCH  18  19
ENDBRANCH  17  18
ENDBRANCH   1  17
TORSDOF 26
ENDMDL
