MODEL 1
REMARK VINA RESULT:    -4.388      0.000      0.000
REMARK INTER + INTRA:         -10.849
REMARK INTER:                  -8.492
REMARK INTRA:                  -2.357
REMARK UNBOUND:                -2.357
REMARK SMILES CCCCCCCCCCCCCCCCCC(=O)[O-]
REMARK SMILES IDX 10 1 11 2 12 3 13 4 14 5 15 6 16 7 17 8 18 9 19 10 20 11
REMARK SMILES IDX 9 12 8 13 7 14 6 15 5 16 4 17 3 18 2 19 1 20
REMARK H PARENT
REMARK Flexibility Score: inf
ROOT
ATOM      1  C   UNL     1      99.851   0.463  25.298  1.00  0.00     0.000 C 
ENDROOT
BRANCH   1   2
ATOM      2  C   UNL     1      99.445   0.239  23.825  1.00  0.00     0.000 C 
BRANCH   2   3
ATOM      3  C   UNL     1     100.627  -0.123  22.911  1.00  0.00     0.000 C 
BRANCH   3   4
ATOM      4  C   UNL     1     101.880  -0.545  23.696  1.00  0.00     0.000 C 
BRANCH   4   5
ATOM      5  C   UNL     1     103.124   0.268  23.307  1.00  0.00     0.000 C 
BRANCH   5   6
ATOM      6  C   UNL     1     103.391   1.436  24.270  1.00  0.00     0.000 C 
BRANCH   6   7
ATOM      7  C   UNL     1     104.846   1.421  24.762  1.00  0.00     0.006 C 
BRANCH   7   8
ATOM      8  C   UNL     1     105.750   0.554  23.876  1.00  0.00     0.053 C 
BRANCH   8   9
ATOM      9  C   UNL     1     106.483   1.371  22.857  1.00  0.00     0.041 C 
ATOM     10  O   UNL     1     106.676   0.914  21.700  1.00  0.00    -0.550 OA
ATOM     11  O   UNL     1     106.983   2.622  23.195  1.00  0.00    -0.550 OA
ENDBRANCH   8   9
ENDBRANCH   7   8
ENDBRANCH   6   7
ENDBRANCH   5   6
ENDBRANCH   4   5
ENDBRANCH   3   4
ENDBRANCH   2   3
ENDBRANCH   1   2
BRANCH   1  12
ATOM     12  C   UNL     1      99.435   1.854  25.810  1.00  0.00     0.000 C 
BRANCH  12  13
ATOM     13  C   UNL     1     100.619   2.828  25.907  1.00  0.00    -0.000 C 
BRANCH  13  14
ATOM     14  C   UNL     1     100.410   4.101  25.075  1.00  0.00    -0.000 C 
BRANCH  14  15
ATOM     15  C   UNL     1     100.256   3.766  23.587  1.00  0.00    -0.000 C 
BRANCH  15  16
ATOM     16  C   UNL     1      99.191   4.654  22.929  1.00  0.00    -0.000 C 
BRANCH  16  17
ATOM     17  C   UNL     1      98.091   5.097  23.911  1.00  0.00    -0.000 C 
BRANCH  17  18
ATOM     18  C   UNL     1      96.689   4.564  23.549  1.00  0.00    -0.000 C 
BRANCH  18  19
ATOM     19  C   UNL     1      96.203   3.494  24.539  1.00  0.00    -0.003 C 
ATOM     20  C   UNL     1      96.232   2.105  23.908  1.00  0.00     0.004 C 
ENDBRANCH  18  19
ENDBRANCH  17  18
ENDBRANCH  16  17
ENDBRANCH  15  16
ENDBRANCH  14  15
ENDBRANCH  13  14
ENDBRANCH  12  13
ENDBRANCH   1  12
TORSDOF 16
ENDMDL
MODEL 2
REMARK VINA RESULT:    -4.379      4.543      7.562
REMARK INTER + INTRA:         -10.832
REMARK INTER:                  -8.223
REMARK INTRA:                  -2.609
REMARK UNBOUND:                -2.357
REMARK SMILES CCCCCCCCCCCCCCCCCC(=O)[O-]
REMARK SMILES IDX 10 1 11 2 12 3 13 4 14 5 15 6 16 7 17 8 18 9 19 10 20 11
REMARK SMILES IDX 9 12 8 13 7 14 6 15 5 16 4 17 3 18 2 19 1 20
REMARK H PARENT
REMARK Flexibility Score: inf
ROOT
ATOM      1  C   UNL     1     101.304   4.708  26.428  1.00  0.00     0.000 C 
ENDROOT
BRANCH   1   2
ATOM      2  C   UNL     1      99.809   4.945  26.730  1.00  0.00     0.000 C 
BRANCH   2   3
ATOM      3  C   UNL     1      99.035   3.654  27.043  1.00  0.00     0.000 C 
BRANCH   3   4
ATOM      4  C   UNL     1      97.691   3.570  26.301  1.00  0.00     0.000 C 
BRANCH   4   5
ATOM      5  C   UNL     1      96.983   4.930  26.203  1.00  0.00     0.000 C 
BRANCH   5   6
ATOM      6  C   UNL     1      95.716   4.876  25.336  1.00  0.00     0.000 C 
BRANCH   6   7
ATOM      7  C   UNL     1      96.066   4.974  23.844  1.00  0.00     0.006 C 
BRANCH   7   8
ATOM      8  C   UNL     1      96.563   6.372  23.454  1.00  0.00     0.053 C 
BRANCH   8   9
ATOM      9  C   UNL     1      95.429   7.303  23.154  1.00  0.00     0.041 C 
ATOM     10  O   UNL     1      94.367   6.862  22.639  1.00  0.00    -0.550 OA
ATOM     11  O   UNL     1      95.556   8.663  23.409  1.00  0.00    -0.550 OA
ENDBRANCH   8   9
ENDBRANCH   7   8
ENDBRANCH   6   7
ENDBRANCH   5   6
ENDBRANCH   4   5
ENDBRANCH   3   4
ENDBRANCH   2   3
ENDBRANCH   1   2
BRANCH   1  12
ATOM     12  C   UNL     1     101.805   3.366  26.991  1.00  0.00     0.000 C 
BRANCH  12  13
ATOM     13  C   UNL     1     103.287   3.109  26.682  1.00  0.00    -0.000 C 
BRANCH  13  14
ATOM     14  C   UNL     1     103.578   3.055  25.175  1.00  0.00    -0.000 C 
BRANCH  14  15
ATOM     15  C   UNL     1     103.716   1.606  24.694  1.00  0.00    -0.000 C 
BRANCH  15  16
ATOM     16  C   UNL     1     102.629   1.261  23.665  1.00  0.00    -0.000 C 
BRANCH  16  17
ATOM     17  C   UNL     1     101.283   0.899  24.316  1.00  0.00    -0.000 C 
BRANCH  17  18
ATOM     18  C   UNL     1     100.137   1.864  23.944  1.00  0.00    -0.000 C 
BRANCH  18  19
ATOM     19  C   UNL     1     100.631   3.059  23.115  1.00  0.00    -0.003 C 
ATOM     20  C   UNL     1      99.600   4.183  23.097  1.00  0.00     0.004 C 
ENDBRANCH  18  19
ENDBRANCH  17  18
ENDBRANCH  16  17
ENDBRANCH  15  16
ENDBRANCH  14  15
ENDBRANCH  13  14
ENDBRANCH  12  13
ENDBRANCH   1  12
TORSDOF 16
ENDMDL
MODEL 3
REMARK VINA RESULT:    -4.343      4.606      7.428
REMARK INTER + INTRA:         -10.762
REMARK INTER:                  -8.017
REMARK INTRA:                  -2.746
REMARK UNBOUND:                -2.357
REMARK SMILES CCCCCCCCCCCCCCCCCC(=O)[O-]
REMARK SMILES IDX 10 1 11 2 12 3 13 4 14 5 15 6 16 7 17 8 18 9 19 10 20 11
REMARK SMILES IDX 9 12 8 13 7 14 6 15 5 16 4 17 3 18 2 19 1 20
REMARK H PARENT
REMARK Flexibility Score: inf
ROOT
ATOM      1  C   UNL     1      97.460   5.479  27.173  1.00  0.00     0.000 C 
ENDROOT
BRANCH   1   2
ATOM      2  C   UNL     1      98.019   6.719  26.443  1.00  0.00     0.000 C 
BRANCH   2   3
ATOM      3  C   UNL     1      97.112   7.223  25.307  1.00  0.00     0.000 C 
BRANCH   3   4
ATOM      4  C   UNL     1      95.674   6.692  25.413  1.00  0.00     0.000 C 
BRANCH   4   5
ATOM      5  C   UNL     1      95.187   6.036  24.113  1.00  0.00     0.000 C 
BRANCH   5   6
ATOM      6  C   UNL     1      95.216   7.000  22.917  1.00  0.00     0.000 C 
BRANCH   6   7
ATOM      7  C   UNL     1      96.082   6.441  21.780  1.00  0.00     0.006 C 
BRANCH   7   8
ATOM      8  C   UNL     1      97.380   7.238  21.591  1.00  0.00     0.053 C 
BRANCH   8   9
ATOM      9  C   UNL     1      97.633   7.558  20.149  1.00  0.00     0.041 C 
ATOM     10  O   UNL     1      98.368   8.532  19.837  1.00  0.00    -0.550 OA
ATOM     11  O   UNL     1      97.030   6.804  19.151  1.00  0.00    -0.550 OA
ENDBRANCH   8   9
ENDBRANCH   7   8
ENDBRANCH   6   7
ENDBRANCH   5   6
ENDBRANCH   4   5
ENDBRANCH   3   4
ENDBRANCH   2   3
ENDBRANCH   1   2
BRANCH   1  12
ATOM     12  C   UNL     1      98.559   4.453  27.500  1.00  0.00     0.000 C 
BRANCH  12  13
ATOM     13  C   UNL     1      99.944   4.888  26.998  1.00  0.00    -0.000 C 
BRANCH  13  14
ATOM     14  C   UNL     1     100.829   3.700  26.594  1.00  0.00    -0.000 C 
BRANCH  14  15
ATOM     15  C   UNL     1     101.353   3.868  25.163  1.00  0.00    -0.000 C 
BRANCH  15  16
ATOM     16  C   UNL     1     100.490   3.081  24.165  1.00  0.00    -0.000 C 
BRANCH  16  17
ATOM     17  C   UNL     1      99.687   3.992  23.220  1.00  0.00    -0.000 C 
BRANCH  17  18
ATOM     18  C   UNL     1      98.215   4.179  23.646  1.00  0.00    -0.000 C 
BRANCH  18  19
ATOM     19  C   UNL     1      97.660   2.944  24.369  1.00  0.00    -0.003 C 
ATOM     20  C   UNL     1      96.259   2.596  23.873  1.00  0.00     0.004 C 
ENDBRANCH  18  19
ENDBRANCH  17  18
ENDBRANCH  16  17
ENDBRANCH  15  16
ENDBRANCH  14  15
ENDBRANCH  13  14
ENDBRANCH  12  13
ENDBRANCH   1  12
TORSDOF 16
ENDMDL
MODEL 4
REMARK VINA RESULT:    -4.343      3.778      7.400
REMARK INTER + INTRA:         -10.762
REMARK INTER:                  -8.467
REMARK INTRA:                  -2.295
REMARK UNBOUND:                -2.357
REMARK SMILES CCCCCCCCCCCCCCCCCC(=O)[O-]
REMARK SMILES IDX 10 1 11 2 12 3 13 4 14 5 15 6 16 7 17 8 18 9 19 10 20 11
REMARK SMILES IDX 9 12 8 13 7 14 6 15 5 16 4 17 3 18 2 19 1 20
REMARK H PARENT
REMARK Flexibility Score: inf
ROOT
ATOM      1  C   UNL     1      99.236   1.654  25.824  1.00  0.00     0.000 C 
ENDROOT
BRANCH   1   2
ATOM      2  C   UNL     1     100.370   2.604  26.264  1.00  0.00     0.000 C 
BRANCH   2   3
ATOM      3  C   UNL     1     100.356   3.956  25.532  1.00  0.00     0.000 C 
BRANCH   3   4
ATOM      4  C   UNL     1     100.627   3.821  24.025  1.00  0.00     0.000 C 
BRANCH   4   5
ATOM      5  C   UNL     1      99.357   3.987  23.177  1.00  0.00     0.000 C 
BRANCH   5   6
ATOM      6  C   UNL     1      98.275   4.812  23.889  1.00  0.00     0.000 C 
BRANCH   6   7
ATOM      7  C   UNL     1      96.887   4.183  23.695  1.00  0.00     0.006 C 
BRANCH   7   8
ATOM      8  C   UNL     1      96.113   4.062  25.015  1.00  0.00     0.053 C 
BRANCH   8   9
ATOM      9  C   UNL     1      96.241   5.298  25.851  1.00  0.00     0.041 C 
ATOM     10  O   UNL     1      96.932   5.280  26.904  1.00  0.00    -0.550 OA
ATOM     11  O   UNL     1      95.569   6.458  25.489  1.00  0.00    -0.550 OA
ENDBRANCH   8   9
ENDBRANCH   7   8
ENDBRANCH   6   7
ENDBRANCH   5   6
ENDBRANCH   4   5
ENDBRANCH   3   4
ENDBRANCH   2   3
ENDBRANCH   1   2
BRANCH   1  12
ATOM     12  C   UNL     1      99.777   0.361  25.186  1.00  0.00     0.000 C 
BRANCH  12  13
ATOM     13  C   UNL     1      99.451   0.259  23.688  1.00  0.00    -0.000 C 
BRANCH  13  14
ATOM     14  C   UNL     1     100.607  -0.333  22.869  1.00  0.00    -0.000 C 
BRANCH  14  15
ATOM     15  C   UNL     1     101.844  -0.558  23.747  1.00  0.00    -0.000 C 
BRANCH  15  16
ATOM     16  C   UNL     1     103.135  -0.313  22.953  1.00  0.00    -0.000 C 
BRANCH  16  17
ATOM     17  C   UNL     1     104.074   0.699  23.634  1.00  0.00    -0.000 C 
BRANCH  17  18
ATOM     18  C   UNL     1     103.388   1.533  24.737  1.00  0.00    -0.000 C 
BRANCH  18  19
ATOM     19  C   UNL     1     104.322   2.604  25.318  1.00  0.00    -0.003 C 
ATOM     20  C   UNL     1     105.610   1.983  25.852  1.00  0.00     0.004 C 
ENDBRANCH  18  19
ENDBRANCH  17  18
ENDBRANCH  16  17
ENDBRANCH  15  16
ENDBRANCH  14  15
ENDBRANCH  13  14
ENDBRANCH  12  13
ENDBRANCH   1  12
TORSDOF 16
ENDMDL
MODEL 5
REMARK VINA RESULT:    -4.305      4.303      7.927
REMARK INTER + INTRA:         -10.689
REMARK INTER:                  -8.163
REMARK INTRA:                  -2.527
REMARK UNBOUND:                -2.357
REMARK SMILES CCCCCCCCCCCCCCCCCC(=O)[O-]
REMARK SMILES IDX 10 1 11 2 12 3 13 4 14 5 15 6 16 7 17 8 18 9 19 10 20 11
REMARK SMILES IDX 9 12 8 13 7 14 6 15 5 16 4 17 3 18 2 19 1 20
REMARK H PARENT
REMARK Flexibility Score: inf
ROOT
ATOM      1  C   UNL     1      99.796   4.492  24.255  1.00  0.00     0.000 C 
ENDROOT
BRANCH   1   2
ATOM      2  C   UNL     1      99.340   4.454  25.730  1.00  0.00     0.000 C 
BRANCH   2   3
ATOM      3  C   UNL     1      98.415   5.620  26.116  1.00  0.00     0.000 C 
BRANCH   3   4
ATOM      4  C   UNL     1      97.098   5.150  26.753  1.00  0.00     0.000 C 
BRANCH   4   5
ATOM      5  C   UNL     1      96.147   4.501  25.737  1.00  0.00     0.000 C 
BRANCH   5   6
ATOM      6  C   UNL     1      95.700   5.478  24.639  1.00  0.00     0.000 C 
BRANCH   6   7
ATOM      7  C   UNL     1      96.175   5.006  23.256  1.00  0.00     0.006 C 
BRANCH   7   8
ATOM      8  C   UNL     1      96.872   6.124  22.468  1.00  0.00     0.053 C 
BRANCH   8   9
ATOM      9  C   UNL     1      95.893   7.125  21.936  1.00  0.00     0.041 C 
ATOM     10  O   UNL     1      94.834   6.738  21.375  1.00  0.00    -0.550 OA
ATOM     11  O   UNL     1      96.166   8.483  22.028  1.00  0.00    -0.550 OA
ENDBRANCH   8   9
ENDBRANCH   7   8
ENDBRANCH   6   7
ENDBRANCH   5   6
ENDBRANCH   4   5
ENDBRANCH   3   4
ENDBRANCH   2   3
ENDBRANCH   1   2
BRANCH   1  12
ATOM     12  C   UNL     1      99.355   3.239  23.478  1.00  0.00     0.000 C 
BRANCH  12  13
ATOM     13  C   UNL     1      98.739   2.165  24.387  1.00  0.00    -0.000 C 
BRANCH  13  14
ATOM     14  C   UNL     1      99.179   0.743  24.007  1.00  0.00    -0.000 C 
BRANCH  14  15
ATOM     15  C   UNL     1     100.468   0.353  24.740  1.00  0.00    -0.000 C 
BRANCH  15  16
ATOM     16  C   UNL     1     101.671   0.368  23.786  1.00  0.00    -0.000 C 
BRANCH  16  17
ATOM     17  C   UNL     1     102.614   1.560  24.030  1.00  0.00    -0.000 C 
BRANCH  17  18
ATOM     18  C   UNL     1     102.481   2.174  25.440  1.00  0.00    -0.000 C 
BRANCH  18  19
ATOM     19  C   UNL     1     103.838   2.615  26.010  1.00  0.00    -0.003 C 
ATOM     20  C   UNL     1     104.977   1.781  25.430  1.00  0.00     0.004 C 
ENDBRANCH  18  19
ENDBRANCH  17  18
ENDBRANCH  16  17
ENDBRANCH  15  16
ENDBRANCH  14  15
ENDBRANCH  13  14
ENDBRANCH  12  13
ENDBRANCH   1  12
TORSDOF 16
ENDMDL
MODEL 6
REMARK VINA RESULT:    -4.296      3.244      5.025
REMARK INTER + INTRA:         -10.671
REMARK INTER:                  -7.926
REMARK INTRA:                  -2.744
REMARK UNBOUND:                -2.357
REMARK SMILES CCCCCCCCCCCCCCCCCC(=O)[O-]
REMARK SMILES IDX 10 1 11 2 12 3 13 4 14 5 15 6 16 7 17 8 18 9 19 10 20 11
REMARK SMILES IDX 9 12 8 13 7 14 6 15 5 16 4 17 3 18 2 19 1 20
REMARK H PARENT
REMARK Flexibility Score: inf
ROOT
ATOM      1  C   UNL     1      97.226   3.708  25.200  1.00  0.00     0.000 C 
ENDROOT
BRANCH   1   2
ATOM      2  C   UNL     1      98.148   3.698  23.963  1.00  0.00     0.000 C 
BRANCH   2   3
ATOM      3  C   UNL     1      99.492   4.407  24.194  1.00  0.00     0.000 C 
BRANCH   3   4
ATOM      4  C   UNL     1      99.858   4.522  25.683  1.00  0.00     0.000 C 
BRANCH   4   5
ATOM      5  C   UNL     1     101.350   4.271  25.947  1.00  0.00     0.000 C 
BRANCH   5   6
ATOM      6  C   UNL     1     102.015   3.443  24.838  1.00  0.00     0.000 C 
BRANCH   6   7
ATOM      7  C   UNL     1     102.044   1.952  25.207  1.00  0.00     0.006 C 
BRANCH   7   8
ATOM      8  C   UNL     1     101.533   1.061  24.067  1.00  0.00     0.053 C 
BRANCH   8   9
ATOM      9  C   UNL     1     100.139   0.574  24.322  1.00  0.00     0.041 C 
ATOM     10  O   UNL     1      99.576   0.815  25.423  1.00  0.00    -0.550 OA
ATOM     11  O   UNL     1      99.476  -0.175  23.359  1.00  0.00    -0.550 OA
ENDBRANCH   8   9
ENDBRANCH   7   8
ENDBRANCH   6   7
ENDBRANCH   5   6
ENDBRANCH   4   5
ENDBRANCH   3   4
ENDBRANCH   2   3
ENDBRANCH   1   2
BRANCH   1  12
ATOM     12  C   UNL     1      95.819   4.240  24.872  1.00  0.00     0.000 C 
BRANCH  12  13
ATOM     13  C   UNL     1      95.552   5.625  25.480  1.00  0.00    -0.000 C 
BRANCH  13  14
ATOM     14  C   UNL     1      96.788   6.217  26.171  1.00  0.00    -0.000 C 
BRANCH  14  15
ATOM     15  C   UNL     1      97.302   7.450  25.417  1.00  0.00    -0.000 C 
BRANCH  15  16
ATOM     16  C   UNL     1      96.539   7.647  24.099  1.00  0.00    -0.000 C 
BRANCH  16  17
ATOM     17  C   UNL     1      97.361   7.238  22.865  1.00  0.00    -0.000 C 
BRANCH  17  18
ATOM     18  C   UNL     1      96.574   6.373  21.857  1.00  0.00    -0.000 C 
BRANCH  18  19
ATOM     19  C   UNL     1      95.061   6.623  21.936  1.00  0.00    -0.003 C 
ATOM     20  C   UNL     1      94.567   7.407  20.724  1.00  0.00     0.004 C 
ENDBRANCH  18  19
ENDBRANCH  17  18
ENDBRANCH  16  17
ENDBRANCH  15  16
ENDBRANCH  14  15
ENDBRANCH  13  14
ENDBRANCH  12  13
ENDBRANCH   1  12
TORSDOF 16
ENDMDL
MODEL 7
REMARK VINA RESULT:    -4.282      2.744      5.994
REMARK INTER + INTRA:         -10.644
REMARK INTER:                  -7.885
REMARK INTRA:                  -2.759
REMARK UNBOUND:                -2.357
REMARK SMILES CCCCCCCCCCCCCCCCCC(=O)[O-]
REMARK SMILES IDX 10 1 11 2 12 3 13 4 14 5 15 6 16 7 17 8 18 9 19 10 20 11
REMARK SMILES IDX 9 12 8 13 7 14 6 15 5 16 4 17 3 18 2 19 1 20
REMARK H PARENT
REMARK Flexibility Score: inf
ROOT
ATOM      1  C   UNL     1      97.476   5.419  26.084  1.00  0.00     0.000 C 
ENDROOT
BRANCH   1   2
ATOM      2  C   UNL     1      96.424   5.053  25.015  1.00  0.00     0.000 C 
BRANCH   2   3
ATOM      3  C   UNL     1      97.031   4.754  23.634  1.00  0.00     0.000 C 
BRANCH   3   4
ATOM      4  C   UNL     1      98.465   5.290  23.484  1.00  0.00     0.000 C 
BRANCH   4   5
ATOM      5  C   UNL     1      99.423   4.255  22.877  1.00  0.00     0.000 C 
BRANCH   5   6
ATOM      6  C   UNL     1     100.081   3.363  23.940  1.00  0.00     0.000 C 
BRANCH   6   7
ATOM      7  C   UNL     1      99.361   2.011  24.047  1.00  0.00     0.006 C 
BRANCH   7   8
ATOM      8  C   UNL     1      99.868   1.173  25.228  1.00  0.00     0.053 C 
BRANCH   8   9
ATOM      9  C   UNL     1     100.467  -0.123  24.775  1.00  0.00     0.041 C 
ATOM     10  O   UNL     1     100.022  -1.215  25.219  1.00  0.00    -0.550 OA
ATOM     11  O   UNL     1     101.539  -0.125  23.893  1.00  0.00    -0.550 OA
ENDBRANCH   8   9
ENDBRANCH   7   8
ENDBRANCH   6   7
ENDBRANCH   5   6
ENDBRANCH   4   5
ENDBRANCH   3   4
ENDBRANCH   2   3
ENDBRANCH   1   2
BRANCH   1  12
ATOM     12  C   UNL     1      97.754   4.252  27.048  1.00  0.00     0.000 C 
BRANCH  12  13
ATOM     13  C   UNL     1      99.244   4.109  27.393  1.00  0.00    -0.000 C 
BRANCH  13  14
ATOM     14  C   UNL     1     100.064   5.349  27.006  1.00  0.00    -0.000 C 
BRANCH  14  15
ATOM     15  C   UNL     1     101.558   5.013  26.917  1.00  0.00    -0.000 C 
BRANCH  15  16
ATOM     16  C   UNL     1     101.828   3.574  27.379  1.00  0.00    -0.000 C 
BRANCH  16  17
ATOM     17  C   UNL     1     103.205   3.051  26.933  1.00  0.00    -0.000 C 
BRANCH  17  18
ATOM     18  C   UNL     1     103.265   2.662  25.441  1.00  0.00    -0.000 C 
BRANCH  18  19
ATOM     19  C   UNL     1     104.433   1.713  25.136  1.00  0.00    -0.003 C 
ATOM     20  C   UNL     1     105.666   2.073  25.959  1.00  0.00     0.004 C 
ENDBRANCH  18  19
ENDBRANCH  17  18
ENDBRANCH  16  17
ENDBRANCH  15  16
ENDBRANCH  14  15
ENDBRANCH  13  14
ENDBRANCH  12  13
ENDBRANCH   1  12
TORSDOF 16
ENDMDL
MODEL 8
REMARK VINA RESULT:    -4.267      2.991      4.615
REMARK INTER + INTRA:         -10.616
REMARK INTER:                  -8.181
REMARK INTRA:                  -2.435
REMARK UNBOUND:                -2.357
REMARK SMILES CCCCCCCCCCCCCCCCCC(=O)[O-]
REMARK SMILES IDX 10 1 11 2 12 3 13 4 14 5 15 6 16 7 17 8 18 9 19 10 20 11
REMARK SMILES IDX 9 12 8 13 7 14 6 15 5 16 4 17 3 18 2 19 1 20
REMARK H PARENT
REMARK Flexibility Score: inf
ROOT
ATOM      1  C   UNL     1     101.695   4.877  26.677  1.00  0.00     0.000 C 
ENDROOT
BRANCH   1   2
ATOM      2  C   UNL     1     102.236   3.925  27.765  1.00  0.00     0.000 C 
BRANCH   2   3
ATOM      3  C   UNL     1     103.464   3.116  27.316  1.00  0.00     0.000 C 
BRANCH   3   4
ATOM      4  C   UNL     1     103.678   3.153  25.794  1.00  0.00     0.000 C 
BRANCH   4   5
ATOM      5  C   UNL     1     104.331   1.870  25.257  1.00  0.00     0.000 C 
BRANCH   5   6
ATOM      6  C   UNL     1     103.452   1.148  24.224  1.00  0.00     0.000 C 
BRANCH   6   7
ATOM      7  C   UNL     1     101.973   1.521  24.403  1.00  0.00     0.006 C 
BRANCH   7   8
ATOM      8  C   UNL     1     101.047   0.660  23.534  1.00  0.00     0.053 C 
BRANCH   8   9
ATOM      9  C   UNL     1      99.815   0.242  24.277  1.00  0.00     0.041 C 
ATOM     10  O   UNL     1      98.730   0.857  24.099  1.00  0.00    -0.550 OA
ATOM     11  O   UNL     1      99.873  -0.801  25.192  1.00  0.00    -0.550 OA
ENDBRANCH   8   9
ENDBRANCH   7   8
ENDBRANCH   6   7
ENDBRANCH   5   6
ENDBRANCH   4   5
ENDBRANCH   3   4
ENDBRANCH   2   3
ENDBRANCH   1   2
BRANCH   1  12
ATOM     12  C   UNL     1     100.163   4.801  26.549  1.00  0.00     0.000 C 
BRANCH  12  13
ATOM     13  C   UNL     1      99.635   3.359  26.589  1.00  0.00    -0.000 C 
BRANCH  13  14
ATOM     14  C   UNL     1      98.101   3.289  26.614  1.00  0.00    -0.000 C 
BRANCH  14  15
ATOM     15  C   UNL     1      97.483   4.563  26.025  1.00  0.00    -0.000 C 
BRANCH  15  16
ATOM     16  C   UNL     1      96.374   4.223  25.020  1.00  0.00    -0.000 C 
BRANCH  16  17
ATOM     17  C   UNL     1      96.669   4.747  23.603  1.00  0.00    -0.000 C 
BRANCH  17  18
ATOM     18  C   UNL     1      97.843   5.747  23.546  1.00  0.00    -0.000 C 
BRANCH  18  19
ATOM     19  C   UNL     1      98.896   5.346  22.503  1.00  0.00    -0.003 C 
ATOM     20  C   UNL     1      99.705   4.140  22.970  1.00  0.00     0.004 C 
ENDBRANCH  18  19
ENDBRANCH  17  18
ENDBRANCH  16  17
ENDBRANCH  15  16
ENDBRANCH  14  15
ENDBRANCH  13  14
ENDBRANCH  12  13
ENDBRANCH   1  12
TORSDOF 16
ENDMDL
MODEL 9
REMARK VINA RESULT:    -4.262      4.292      7.443
REMARK INTER + INTRA:         -10.607
REMARK INTER:                  -8.429
REMARK INTRA:                  -2.177
REMARK UNBOUND:                -2.357
REMARK SMILES CCCCCCCCCCCCCCCCCC(=O)[O-]
REMARK SMILES IDX 10 1 11 2 12 3 13 4 14 5 15 6 16 7 17 8 18 9 19 10 20 11
REMARK SMILES IDX 9 12 8 13 7 14 6 15 5 16 4 17 3 18 2 19 1 20
REMARK H PARENT
REMARK Flexibility Score: inf
ROOT
ATOM      1  C   UNL     1      96.044   3.728  24.635  1.00  0.00     0.000 C 
ENDROOT
BRANCH   1   2
ATOM      2  C   UNL     1      95.666   4.838  25.638  1.00  0.00     0.000 C 
BRANCH   2   3
ATOM      3  C   UNL     1      95.726   6.253  25.039  1.00  0.00     0.000 C 
BRANCH   3   4
ATOM      4  C   UNL     1      95.157   6.321  23.613  1.00  0.00     0.000 C 
BRANCH   4   5
ATOM      5  C   UNL     1      96.160   6.896  22.602  1.00  0.00     0.000 C 
BRANCH   5   6
ATOM      6  C   UNL     1      97.379   5.985  22.396  1.00  0.00     0.000 C 
BRANCH   6   7
ATOM      7  C   UNL     1      98.303   6.542  21.302  1.00  0.00     0.006 C 
BRANCH   7   8
ATOM      8  C   UNL     1      97.641   7.671  20.501  1.00  0.00     0.053 C 
BRANCH   8   9
ATOM      9  C   UNL     1      97.269   7.231  19.119  1.00  0.00     0.041 C 
ATOM     10  O   UNL     1      96.060   7.222  18.762  1.00  0.00    -0.550 OA
ATOM     11  O   UNL     1      98.249   6.796  18.237  1.00  0.00    -0.550 OA
ENDBRANCH   8   9
ENDBRANCH   7   8
ENDBRANCH   6   7
ENDBRANCH   5   6
ENDBRANCH   4   5
ENDBRANCH   3   4
ENDBRANCH   2   3
ENDBRANCH   1   2
BRANCH   1  12
ATOM     12  C   UNL     1      97.339   2.998  25.036  1.00  0.00     0.000 C 
BRANCH  12  13
ATOM     13  C   UNL     1      97.807   3.360  26.454  1.00  0.00    -0.000 C 
BRANCH  13  14
ATOM     14  C   UNL     1      99.203   3.999  26.472  1.00  0.00    -0.000 C 
BRANCH  14  15
ATOM     15  C   UNL     1      99.586   4.522  25.083  1.00  0.00    -0.000 C 
BRANCH  15  16
ATOM     16  C   UNL     1     100.855   3.830  24.564  1.00  0.00    -0.000 C 
BRANCH  16  17
ATOM     17  C   UNL     1     100.603   2.985  23.303  1.00  0.00    -0.000 C 
BRANCH  17  18
ATOM     18  C   UNL     1     101.052   1.514  23.445  1.00  0.00    -0.000 C 
BRANCH  18  19
ATOM     19  C   UNL     1      99.862   0.561  23.627  1.00  0.00    -0.003 C 
ATOM     20  C   UNL     1      99.734   0.109  25.079  1.00  0.00     0.004 C 
ENDBRANCH  18  19
ENDBRANCH  17  18
ENDBRANCH  16  17
ENDBRANCH  15  16
ENDBRANCH  14  15
ENDBRANCH  13  14
ENDBRANCH  12  13
ENDBRANCH   1  12
TORSDOF 16
ENDMDL
