MODEL 1
REMARK VINA RESULT:    -0.322      0.000      0.000
REMARK INTER + INTRA:          -0.695
REMARK INTER:                  -0.378
REMARK INTRA:                  -0.316
REMARK UNBOUND:                -0.316
REMARK SMILES O=c1cc(-c2ccc(O)c(O)c2)oc2cc(O)cc(O)c12
REMARK SMILES IDX 4 1 3 2 2 3 1 4 21 5 19 6 18 7 16 8 15 9 14 10 13 11 5 12
REMARK SMILES IDX 6 13 7 14 8 15 12 16 10 17 9 18 11 20 20 22 17 24
REMARK H PARENT 9 19 11 21 20 23 17 25
REMARK Flexibility Score: inf
ROOT
ATOM      1  C   UNL     1      10.072  32.253 -16.866  1.00  0.00     0.138 A 
ATOM      2  C   UNL     1       9.371  32.489 -18.057  1.00  0.00     0.100 A 
ATOM      3  C   UNL     1       7.979  32.581 -18.031  1.00  0.00     0.197 A 
ATOM      4  O   UNL     1       7.375  32.738 -19.123  1.00  0.00    -0.289 OA
ATOM      5  C   UNL     1       7.288  32.470 -16.799  1.00  0.00     0.107 A 
ATOM      6  C   UNL     1       5.873  32.581 -16.646  1.00  0.00     0.134 A 
ATOM      7  C   UNL     1       5.296  32.355 -15.391  1.00  0.00     0.093 A 
ATOM      8  C   UNL     1       6.082  32.080 -14.273  1.00  0.00     0.123 A 
ATOM      9  C   UNL     1       7.471  32.019 -14.402  1.00  0.00     0.094 A 
ATOM     10  C   UNL     1       8.075  32.205 -15.647  1.00  0.00     0.146 A 
ATOM     11  O   UNL     1       9.398  32.120 -15.729  1.00  0.00    -0.456 OA
ENDROOT
BRANCH   1  12
ATOM     12  C   UNL     1      11.553  32.149 -16.836  1.00  0.00     0.021 A 
ATOM     13  C   UNL     1      12.267  32.098 -18.045  1.00  0.00     0.016 A 
ATOM     14  C   UNL     1      13.661  32.008 -18.045  1.00  0.00     0.051 A 
ATOM     15  C   UNL     1      14.367  31.978 -16.841  1.00  0.00     0.157 A 
ATOM     16  C   UNL     1      12.270  32.132 -15.624  1.00  0.00     0.062 A 
ATOM     17  C   UNL     1      13.670  32.044 -15.623  1.00  0.00     0.158 A 
BRANCH  15  18
ATOM     18  O   UNL     1      15.758  31.885 -16.872  1.00  0.00    -0.504 OA
ATOM     19  H   UNL     1      16.337  32.607 -17.283  1.00  0.00     0.293 HD
ENDBRANCH  15  18
BRANCH  17  20
ATOM     20  O   UNL     1      14.371  32.025 -14.417  1.00  0.00    -0.504 OA
ATOM     21  H   UNL     1      15.371  31.866 -14.387  1.00  0.00     0.293 HD
ENDBRANCH  17  20
ENDBRANCH   1  12
BRANCH   6  22
ATOM     22  O   UNL     1       4.998  32.930 -17.680  1.00  0.00    -0.507 OA
ATOM     23  H   UNL     1       5.257  33.036 -18.648  1.00  0.00     0.293 HD
ENDBRANCH   6  22
BRANCH   8  24
ATOM     24  O   UNL     1       5.474  31.875 -13.037  1.00  0.00    -0.508 OA
ATOM     25  H   UNL     1       5.325  30.943 -12.667  1.00  0.00     0.293 HD
ENDBRANCH   8  24
TORSDOF 5
ENDMDL
MODEL 2
REMARK VINA RESULT:     0.666     23.898     26.008
REMARK INTER + INTRA:           0.466
REMARK INTER:                   0.780
REMARK INTRA:                  -0.313
REMARK UNBOUND:                -0.316
REMARK SMILES O=c1cc(-c2ccc(O)c(O)c2)oc2cc(O)cc(O)c12
REMARK SMILES IDX 4 1 3 2 2 3 1 4 21 5 19 6 18 7 16 8 15 9 14 10 13 11 5 12
REMARK SMILES IDX 6 13 7 14 8 15 12 16 10 17 9 18 11 20 20 22 17 24
REMARK H PARENT 9 19 11 21 20 23 17 25
REMARK Flexibility Score: inf
ROOT
ATOM      1  C   UNL     1      23.639  50.900  -5.177  1.00  0.00     0.138 A 
ATOM      2  C   UNL     1      24.501  51.586  -4.311  1.00  0.00     0.100 A 
ATOM      3  C   UNL     1      24.341  51.454  -2.930  1.00  0.00     0.197 A 
ATOM      4  O   UNL     1      25.095  52.125  -2.179  1.00  0.00    -0.289 OA
ATOM      5  C   UNL     1      23.332  50.603  -2.416  1.00  0.00     0.107 A 
ATOM      6  C   UNL     1      23.097  50.364  -1.028  1.00  0.00     0.134 A 
ATOM      7  C   UNL     1      22.006  49.578  -0.639  1.00  0.00     0.093 A 
ATOM      8  C   UNL     1      21.176  48.975  -1.584  1.00  0.00     0.123 A 
ATOM      9  C   UNL     1      21.428  49.161  -2.945  1.00  0.00     0.094 A 
ATOM     10  C   UNL     1      22.487  49.968  -3.365  1.00  0.00     0.146 A 
ATOM     11  O   UNL     1      22.680  50.133  -4.669  1.00  0.00    -0.456 OA
ENDROOT
BRANCH   1  12
ATOM     12  C   UNL     1      23.766  51.002  -6.653  1.00  0.00     0.021 A 
ATOM     13  C   UNL     1      24.976  51.449  -7.212  1.00  0.00     0.016 A 
ATOM     14  C   UNL     1      25.125  51.547  -8.598  1.00  0.00     0.051 A 
ATOM     15  C   UNL     1      24.076  51.191  -9.449  1.00  0.00     0.157 A 
ATOM     16  C   UNL     1      22.716  50.631  -7.515  1.00  0.00     0.062 A 
ATOM     17  C   UNL     1      22.866  50.727  -8.907  1.00  0.00     0.158 A 
BRANCH  15  18
ATOM     18  O   UNL     1      24.254  51.301 -10.827  1.00  0.00    -0.504 OA
ATOM     19  H   UNL     1      23.554  50.986 -11.487  1.00  0.00     0.293 HD
ENDBRANCH  15  18
BRANCH  17  20
ATOM     20  O   UNL     1      21.820  50.361  -9.751  1.00  0.00    -0.504 OA
ATOM     21  H   UNL     1      21.175  51.047 -10.128  1.00  0.00     0.293 HD
ENDBRANCH  17  20
ENDBRANCH   1  12
BRANCH   6  22
ATOM     22  O   UNL     1      23.910  50.852  -0.001  1.00  0.00    -0.507 OA
ATOM     23  H   UNL     1      23.895  50.530   0.954  1.00  0.00     0.293 HD
ENDBRANCH   6  22
BRANCH   8  24
ATOM     24  O   UNL     1      20.109  48.187  -1.160  1.00  0.00    -0.508 OA
ATOM     25  H   UNL     1      19.295  48.593  -0.714  1.00  0.00     0.293 HD
ENDBRANCH   8  24
TORSDOF 5
ENDMDL
MODEL 3
REMARK VINA RESULT:     0.787     23.609     26.011
REMARK INTER + INTRA:           0.608
REMARK INTER:                   0.894
REMARK INTRA:                  -0.285
REMARK UNBOUND:                -0.316
REMARK SMILES O=c1cc(-c2ccc(O)c(O)c2)oc2cc(O)cc(O)c12
REMARK SMILES IDX 4 1 3 2 2 3 1 4 21 5 19 6 18 7 16 8 15 9 14 10 13 11 5 12
REMARK SMILES IDX 6 13 7 14 8 15 12 16 10 17 9 18 11 20 20 22 17 24
REMARK H PARENT 9 19 11 21 20 23 17 25
REMARK Flexibility Score: inf
ROOT
ATOM      1  C   UNL     1      22.788  47.226  -0.483  1.00  0.00     0.138 A 
ATOM      2  C   UNL     1      23.860  47.943   0.065  1.00  0.00     0.100 A 
ATOM      3  C   UNL     1      24.115  49.244  -0.371  1.00  0.00     0.197 A 
ATOM      4  O   UNL     1      25.117  49.842   0.099  1.00  0.00    -0.289 OA
ATOM      5  C   UNL     1      23.268  49.842  -1.337  1.00  0.00     0.107 A 
ATOM      6  C   UNL     1      23.409  51.173  -1.832  1.00  0.00     0.134 A 
ATOM      7  C   UNL     1      22.570  51.620  -2.859  1.00  0.00     0.093 A 
ATOM      8  C   UNL     1      21.558  50.808  -3.370  1.00  0.00     0.123 A 
ATOM      9  C   UNL     1      21.379  49.521  -2.858  1.00  0.00     0.094 A 
ATOM     10  C   UNL     1      22.222  49.034  -1.857  1.00  0.00     0.146 A 
ATOM     11  O   UNL     1      22.028  47.797  -1.411  1.00  0.00    -0.456 OA
ENDROOT
BRANCH   1  12
ATOM     12  C   UNL     1      22.471  45.840  -0.054  1.00  0.00     0.021 A 
ATOM     13  C   UNL     1      21.132  45.413  -0.035  1.00  0.00     0.016 A 
ATOM     14  C   UNL     1      20.806  44.113   0.358  1.00  0.00     0.051 A 
ATOM     15  C   UNL     1      21.808  43.213   0.728  1.00  0.00     0.157 A 
ATOM     16  C   UNL     1      23.479  44.926   0.307  1.00  0.00     0.062 A 
ATOM     17  C   UNL     1      23.153  43.619   0.700  1.00  0.00     0.158 A 
BRANCH  15  18
ATOM     18  O   UNL     1      21.452  41.923   1.117  1.00  0.00    -0.504 OA
ATOM     19  H   UNL     1      22.143  41.206   1.301  1.00  0.00     0.293 HD
ENDBRANCH  15  18
BRANCH  17  20
ATOM     20  O   UNL     1      24.159  42.723   1.058  1.00  0.00    -0.504 OA
ATOM     21  H   UNL     1      25.120  42.857   0.764  1.00  0.00     0.293 HD
ENDBRANCH  17  20
ENDBRANCH   1  12
BRANCH   6  22
ATOM     22  O   UNL     1      24.335  52.098  -1.339  1.00  0.00    -0.507 OA
ATOM     23  H   UNL     1      25.229  51.866  -0.935  1.00  0.00     0.293 HD
ENDBRANCH   6  22
BRANCH   8  24
ATOM     24  O   UNL     1      20.732  51.291  -4.381  1.00  0.00    -0.508 OA
ATOM     25  H   UNL     1      20.726  50.875  -5.305  1.00  0.00     0.293 HD
ENDBRANCH   8  24
TORSDOF 5
ENDMDL
MODEL 4
REMARK VINA RESULT:     1.481     23.790     25.510
REMARK INTER + INTRA:           1.425
REMARK INTER:                   1.721
REMARK INTRA:                  -0.296
REMARK UNBOUND:                -0.316
REMARK SMILES O=c1cc(-c2ccc(O)c(O)c2)oc2cc(O)cc(O)c12
REMARK SMILES IDX 4 1 3 2 2 3 1 4 21 5 19 6 18 7 16 8 15 9 14 10 13 11 5 12
REMARK SMILES IDX 6 13 7 14 8 15 12 16 10 17 9 18 11 20 20 22 17 24
REMARK H PARENT 9 19 11 21 20 23 17 25
REMARK Flexibility Score: inf
ROOT
ATOM      1  C   UNL     1      22.746  50.982  -6.777  1.00  0.00     0.138 A 
ATOM      2  C   UNL     1      21.423  50.604  -6.513  1.00  0.00     0.100 A 
ATOM      3  C   UNL     1      20.996  50.465  -5.191  1.00  0.00     0.197 A 
ATOM      4  O   UNL     1      19.819  50.071  -4.987  1.00  0.00    -0.289 OA
ATOM      5  C   UNL     1      21.891  50.739  -4.129  1.00  0.00     0.107 A 
ATOM      6  C   UNL     1      21.558  50.665  -2.742  1.00  0.00     0.134 A 
ATOM      7  C   UNL     1      22.556  50.864  -1.782  1.00  0.00     0.093 A 
ATOM      8  C   UNL     1      23.860  51.193  -2.152  1.00  0.00     0.123 A 
ATOM      9  C   UNL     1      24.185  51.318  -3.504  1.00  0.00     0.094 A 
ATOM     10  C   UNL     1      23.220  51.091  -4.488  1.00  0.00     0.146 A 
ATOM     11  O   UNL     1      23.576  51.203  -5.763  1.00  0.00    -0.456 OA
ENDROOT
BRANCH   1  12
ATOM     12  C   UNL     1      23.253  51.148  -8.163  1.00  0.00     0.021 A 
ATOM     13  C   UNL     1      24.621  51.392  -8.374  1.00  0.00     0.016 A 
ATOM     14  C   UNL     1      25.125  51.545  -9.667  1.00  0.00     0.051 A 
ATOM     15  C   UNL     1      24.277  51.447 -10.773  1.00  0.00     0.157 A 
ATOM     16  C   UNL     1      22.404  51.036  -9.281  1.00  0.00     0.062 A 
ATOM     17  C   UNL     1      22.910  51.188 -10.581  1.00  0.00     0.158 A 
BRANCH  15  18
ATOM     18  O   UNL     1      24.808  51.607 -12.052  1.00  0.00    -0.504 OA
ATOM     19  H   UNL     1      24.227  51.598 -12.882  1.00  0.00     0.293 HD
ENDBRANCH  15  18
BRANCH  17  20
ATOM     20  O   UNL     1      22.060  51.078 -11.681  1.00  0.00    -0.504 OA
ATOM     21  H   UNL     1      21.107  51.422 -11.652  1.00  0.00     0.293 HD
ENDBRANCH  17  20
ENDBRANCH   1  12
BRANCH   6  22
ATOM     22  O   UNL     1      20.269  50.422  -2.259  1.00  0.00    -0.507 OA
ATOM     23  H   UNL     1      19.494  50.091  -2.812  1.00  0.00     0.293 HD
ENDBRANCH   6  22
BRANCH   8  24
ATOM     24  O   UNL     1      24.824  51.399  -1.168  1.00  0.00    -0.508 OA
ATOM     25  H   UNL     1      25.058  50.678  -0.495  1.00  0.00     0.293 HD
ENDBRANCH   8  24
TORSDOF 5
ENDMDL
MODEL 5
REMARK VINA RESULT:     1.639      1.470      7.076
REMARK INTER + INTRA:           1.610
REMARK INTER:                   1.906
REMARK INTRA:                  -0.296
REMARK UNBOUND:                -0.316
REMARK SMILES O=c1cc(-c2ccc(O)c(O)c2)oc2cc(O)cc(O)c12
REMARK SMILES IDX 4 1 3 2 2 3 1 4 21 5 19 6 18 7 16 8 15 9 14 10 13 11 5 12
REMARK SMILES IDX 6 13 7 14 8 15 12 16 10 17 9 18 11 20 20 22 17 24
REMARK H PARENT 9 19 11 21 20 23 17 25
REMARK Flexibility Score: inf
ROOT
ATOM      1  C   UNL     1      10.547  32.075 -16.441  1.00  0.00     0.138 A 
ATOM      2  C   UNL     1      11.059  31.910 -17.735  1.00  0.00     0.100 A 
ATOM      3  C   UNL     1      12.437  31.972 -17.945  1.00  0.00     0.197 A 
ATOM      4  O   UNL     1      12.862  31.875 -19.125  1.00  0.00    -0.289 OA
ATOM      5  C   UNL     1      13.309  32.167 -16.846  1.00  0.00     0.107 A 
ATOM      6  C   UNL     1      14.734  32.213 -16.934  1.00  0.00     0.134 A 
ATOM      7  C   UNL     1      15.486  32.509 -15.791  1.00  0.00     0.093 A 
ATOM      8  C   UNL     1      14.873  32.703 -14.553  1.00  0.00     0.123 A 
ATOM      9  C   UNL     1      13.484  32.610 -14.446  1.00  0.00     0.094 A 
ATOM     10  C   UNL     1      12.703  32.351 -15.575  1.00  0.00     0.146 A 
ATOM     11  O   UNL     1      11.384  32.288 -15.431  1.00  0.00    -0.456 OA
ENDROOT
BRANCH   1  12
ATOM     12  C   UNL     1       9.090  32.015 -16.161  1.00  0.00     0.021 A 
ATOM     13  C   UNL     1       8.644  31.998 -14.828  1.00  0.00     0.016 A 
ATOM     14  C   UNL     1       7.279  31.949 -14.536  1.00  0.00     0.051 A 
ATOM     15  C   UNL     1       6.336  31.927 -15.566  1.00  0.00     0.157 A 
ATOM     16  C   UNL     1       8.135  32.006 -17.196  1.00  0.00     0.062 A 
ATOM     17  C   UNL     1       6.764  31.959 -16.903  1.00  0.00     0.158 A 
BRANCH  15  18
ATOM     18  O   UNL     1       4.980  31.876 -15.243  1.00  0.00    -0.504 OA
ATOM     19  H   UNL     1       4.319  32.565 -15.582  1.00  0.00     0.293 HD
ENDBRANCH  15  18
BRANCH  17  20
ATOM     20  O   UNL     1       5.827  31.948 -17.935  1.00  0.00    -0.504 OA
ATOM     21  H   UNL     1       4.858  32.199 -17.776  1.00  0.00     0.293 HD
ENDBRANCH  17  20
ENDBRANCH   1  12
BRANCH   6  22
ATOM     22  O   UNL     1      15.455  31.956 -18.104  1.00  0.00    -0.507 OA
ATOM     23  H   UNL     1      16.193  31.275 -18.194  1.00  0.00     0.293 HD
ENDBRANCH   6  22
BRANCH   8  24
ATOM     24  O   UNL     1      15.655  32.982 -13.435  1.00  0.00    -0.508 OA
ATOM     25  H   UNL     1      16.459  32.413 -13.196  1.00  0.00     0.293 HD
ENDBRANCH   8  24
TORSDOF 5
ENDMDL
MODEL 6
REMARK VINA RESULT:     1.898     24.259     26.455
REMARK INTER + INTRA:           1.914
REMARK INTER:                   2.209
REMARK INTRA:                  -0.295
REMARK UNBOUND:                -0.316
REMARK SMILES O=c1cc(-c2ccc(O)c(O)c2)oc2cc(O)cc(O)c12
REMARK SMILES IDX 4 1 3 2 2 3 1 4 21 5 19 6 18 7 16 8 15 9 14 10 13 11 5 12
REMARK SMILES IDX 6 13 7 14 8 15 12 16 10 17 9 18 11 20 20 22 17 24
REMARK H PARENT 9 19 11 21 20 23 17 25
REMARK Flexibility Score: inf
ROOT
ATOM      1  C   UNL     1      23.062  50.605  -4.499  1.00  0.00     0.138 A 
ATOM      2  C   UNL     1      21.929  49.845  -4.180  1.00  0.00     0.100 A 
ATOM      3  C   UNL     1      21.604  49.620  -2.842  1.00  0.00     0.197 A 
ATOM      4  O   UNL     1      20.612  48.888  -2.588  1.00  0.00    -0.289 OA
ATOM      5  C   UNL     1      22.400  50.189  -1.818  1.00  0.00     0.107 A 
ATOM      6  C   UNL     1      22.146  50.056  -0.419  1.00  0.00     0.134 A 
ATOM      7  C   UNL     1      23.059  50.582   0.501  1.00  0.00     0.093 A 
ATOM      8  C   UNL     1      24.187  51.286   0.077  1.00  0.00     0.123 A 
ATOM      9  C   UNL     1      24.418  51.466  -1.288  1.00  0.00     0.094 A 
ATOM     10  C   UNL     1      23.543  50.923  -2.231  1.00  0.00     0.146 A 
ATOM     11  O   UNL     1      23.811  51.102  -3.520  1.00  0.00    -0.456 OA
ENDROOT
BRANCH   1  12
ATOM     12  C   UNL     1      23.453  50.878  -5.906  1.00  0.00     0.021 A 
ATOM     13  C   UNL     1      24.729  51.399  -6.179  1.00  0.00     0.016 A 
ATOM     14  C   UNL     1      25.125  51.659  -7.493  1.00  0.00     0.051 A 
ATOM     15  C   UNL     1      24.260  51.394  -8.557  1.00  0.00     0.157 A 
ATOM     16  C   UNL     1      22.589  50.601  -6.983  1.00  0.00     0.062 A 
ATOM     17  C   UNL     1      22.986  50.859  -8.303  1.00  0.00     0.158 A 
BRANCH  15  18
ATOM     18  O   UNL     1      24.682  51.665  -9.858  1.00  0.00    -0.504 OA
ATOM     19  H   UNL     1      25.551  52.147 -10.053  1.00  0.00     0.293 HD
ENDBRANCH  15  18
BRANCH  17  20
ATOM     20  O   UNL     1      22.122  50.583  -9.362  1.00  0.00    -0.504 OA
ATOM     21  H   UNL     1      22.097  49.670  -9.803  1.00  0.00     0.293 HD
ENDBRANCH  17  20
ENDBRANCH   1  12
BRANCH   6  22
ATOM     22  O   UNL     1      21.009  49.441   0.115  1.00  0.00    -0.507 OA
ATOM     23  H   UNL     1      20.060  49.628  -0.169  1.00  0.00     0.293 HD
ENDBRANCH   6  22
BRANCH   8  24
ATOM     24  O   UNL     1      25.066  51.809   1.022  1.00  0.00    -0.508 OA
ATOM     25  H   UNL     1      25.681  52.584   0.802  1.00  0.00     0.293 HD
ENDBRANCH   8  24
TORSDOF 5
ENDMDL
MODEL 7
REMARK VINA RESULT:     2.220      1.989      7.707
REMARK INTER + INTRA:           2.293
REMARK INTER:                   2.574
REMARK INTRA:                  -0.281
REMARK UNBOUND:                -0.316
REMARK SMILES O=c1cc(-c2ccc(O)c(O)c2)oc2cc(O)cc(O)c12
REMARK SMILES IDX 4 1 3 2 2 3 1 4 21 5 19 6 18 7 16 8 15 9 14 10 13 11 5 12
REMARK SMILES IDX 6 13 7 14 8 15 12 16 10 17 9 18 11 20 20 22 17 24
REMARK H PARENT 9 19 11 21 20 23 17 25
REMARK Flexibility Score: inf
ROOT
ATOM      1  C   UNL     1      12.543  32.465 -16.675  1.00  0.00     0.138 A 
ATOM      2  C   UNL     1      13.169  32.088 -17.871  1.00  0.00     0.100 A 
ATOM      3  C   UNL     1      14.558  32.168 -17.978  1.00  0.00     0.197 A 
ATOM      4  O   UNL     1      15.086  31.875 -19.082  1.00  0.00    -0.289 OA
ATOM      5  C   UNL     1      15.326  32.597 -16.869  1.00  0.00     0.107 A 
ATOM      6  C   UNL     1      16.751  32.687 -16.849  1.00  0.00     0.134 A 
ATOM      7  C   UNL     1      17.394  33.218 -15.726  1.00  0.00     0.093 A 
ATOM      8  C   UNL     1      16.672  33.609 -14.598  1.00  0.00     0.123 A 
ATOM      9  C   UNL     1      15.282  33.479 -14.587  1.00  0.00     0.094 A 
ATOM     10  C   UNL     1      14.608  32.985 -15.706  1.00  0.00     0.146 A 
ATOM     11  O   UNL     1      13.284  32.894 -15.659  1.00  0.00    -0.456 OA
ENDROOT
BRANCH   1  12
ATOM     12  C   UNL     1      11.069  32.396 -16.506  1.00  0.00     0.021 A 
ATOM     13  C   UNL     1      10.535  31.943 -15.287  1.00  0.00     0.016 A 
ATOM     14  C   UNL     1       9.153  31.875 -15.098  1.00  0.00     0.051 A 
ATOM     15  C   UNL     1       8.280  32.267 -16.116  1.00  0.00     0.157 A 
ATOM     16  C   UNL     1      10.186  32.803 -17.524  1.00  0.00     0.062 A 
ATOM     17  C   UNL     1       8.797  32.737 -17.334  1.00  0.00     0.158 A 
BRANCH  15  18
ATOM     18  O   UNL     1       6.905  32.186 -15.899  1.00  0.00    -0.504 OA
ATOM     19  H   UNL     1       6.245  32.766 -16.403  1.00  0.00     0.293 HD
ENDBRANCH  15  18
BRANCH  17  20
ATOM     20  O   UNL     1       7.931  33.140 -18.350  1.00  0.00    -0.504 OA
ATOM     21  H   UNL     1       7.027  33.550 -18.145  1.00  0.00     0.293 HD
ENDBRANCH  17  20
ENDBRANCH   1  12
BRANCH   6  22
ATOM     22  O   UNL     1      17.577  32.250 -17.890  1.00  0.00    -0.507 OA
ATOM     23  H   UNL     1      18.544  31.983 -17.791  1.00  0.00     0.293 HD
ENDBRANCH   6  22
BRANCH   8  24
ATOM     24  O   UNL     1      17.347  34.120 -13.492  1.00  0.00    -0.508 OA
ATOM     25  H   UNL     1      17.656  35.084 -13.459  1.00  0.00     0.293 HD
ENDBRANCH   8  24
TORSDOF 5
ENDMDL
