MODEL 1
REMARK VINA RESULT:    -4.269      0.000      0.000
REMARK INTER + INTRA:         -16.462
REMARK INTER:                 -10.759
REMARK INTRA:                  -5.703
REMARK UNBOUND:                -5.703
REMARK SMILES CCCCCCCCCCCCCCCCCCCCCCCCCCCC(=O)[O-]
REMARK SMILES IDX 15 1 16 2 17 3 18 4 19 5 20 6 21 7 22 8 23 9 24 10 25 11
REMARK SMILES IDX 26 12 27 13 28 14 29 15 30 16 14 17 13 18 12 19 11 20 10 21
REMARK SMILES IDX 9 22 8 23 7 24 6 25 5 26 4 27 3 28 2 29 1 30
REMARK H PARENT
REMARK Flexibility Score: inf
ROOT
ATOM      1  C   UNL     1     -11.263  -0.443  20.172  1.00  0.00     0.000 C 
ENDROOT
BRANCH   1   2
ATOM      2  C   UNL     1     -11.143   0.384  18.877  1.00  0.00     0.000 C 
BRANCH   2   3
ATOM      3  C   UNL     1      -9.689   0.681  18.476  1.00  0.00     0.000 C 
BRANCH   3   4
ATOM      4  C   UNL     1      -9.163   1.917  19.218  1.00  0.00     0.000 C 
BRANCH   4   5
ATOM      5  C   UNL     1      -8.408   2.892  18.301  1.00  0.00     0.000 C 
BRANCH   5   6
ATOM      6  C   UNL     1      -8.438   4.356  18.789  1.00  0.00     0.000 C 
BRANCH   6   7
ATOM      7  C   UNL     1      -9.626   5.139  18.206  1.00  0.00     0.000 C 
BRANCH   7   8
ATOM      8  C   UNL     1     -10.660   5.529  19.277  1.00  0.00     0.000 C 
BRANCH   8   9
ATOM      9  C   UNL     1     -12.104   5.241  18.834  1.00  0.00     0.000 C 
BRANCH   9  10
ATOM     10  C   UNL     1     -12.255   3.792  18.345  1.00  0.00     0.000 C 
BRANCH  10  11
ATOM     11  C   UNL     1     -12.659   3.697  16.863  1.00  0.00     0.000 C 
BRANCH  11  12
ATOM     12  C   UNL     1     -12.337   2.354  16.177  1.00  0.00     0.006 C 
BRANCH  12  13
ATOM     13  C   UNL     1     -10.957   2.308  15.497  1.00  0.00     0.053 C 
BRANCH  13  14
ATOM     14  C   UNL     1     -10.708   1.012  14.787  1.00  0.00     0.041 C 
ATOM     15  O   UNL     1     -11.610   0.500  14.073  1.00  0.00    -0.550 OA
ATOM     16  O   UNL     1      -9.472   0.386  14.884  1.00  0.00    -0.550 OA
ENDBRANCH  13  14
ENDBRANCH  12  13
ENDBRANCH  11  12
ENDBRANCH  10  11
ENDBRANCH   9  10
ENDBRANCH   8   9
ENDBRANCH   7   8
ENDBRANCH   6   7
ENDBRANCH   5   6
ENDBRANCH   4   5
ENDBRANCH   3   4
ENDBRANCH   2   3
ENDBRANCH   1   2
BRANCH   1  17
ATOM     17  C   UNL     1     -10.179  -1.524  20.361  1.00  0.00     0.000 C 
BRANCH  17  18
ATOM     18  C   UNL     1      -9.119  -1.172  21.430  1.00  0.00     0.000 C 
BRANCH  18  19
ATOM     19  C   UNL     1      -9.580  -0.091  22.421  1.00  0.00     0.000 C 
BRANCH  19  20
ATOM     20  C   UNL     1      -8.940  -0.256  23.810  1.00  0.00     0.000 C 
BRANCH  20  21
ATOM     21  C   UNL     1      -9.986  -0.455  24.932  1.00  0.00     0.000 C 
BRANCH  21  22
ATOM     22  C   UNL     1     -10.591   0.861  25.453  1.00  0.00    -0.000 C 
BRANCH  22  23
ATOM     23  C   UNL     1     -12.127   0.932  25.371  1.00  0.00    -0.000 C 
BRANCH  23  24
ATOM     24  C   UNL     1     -12.738  -0.061  24.360  1.00  0.00    -0.000 C 
BRANCH  24  25
ATOM     25  C   UNL     1     -13.402   0.640  23.164  1.00  0.00    -0.000 C 
BRANCH  25  26
ATOM     26  C   UNL     1     -13.424   2.176  23.333  1.00  0.00    -0.000 C 
BRANCH  26  27
ATOM     27  C   UNL     1     -13.050   2.943  22.055  1.00  0.00    -0.000 C 
BRANCH  27  28
ATOM     28  C   UNL     1     -11.553   2.846  21.720  1.00  0.00    -0.000 C 
BRANCH  28  29
ATOM     29  C   UNL     1     -10.662   3.358  22.861  1.00  0.00    -0.003 C 
ATOM     30  C   UNL     1      -9.321   3.904  22.367  1.00  0.00     0.004 C 
ENDBRANCH  28  29
ENDBRANCH  27  28
ENDBRANCH  26  27
ENDBRANCH  25  26
ENDBRANCH  24  25
ENDBRANCH  23  24
ENDBRANCH  22  23
ENDBRANCH  21  22
ENDBRANCH  20  21
ENDBRANCH  19  20
ENDBRANCH  18  19
ENDBRANCH  17  18
ENDBRANCH   1  17
TORSDOF 26
ENDMDL
MODEL 2
REMARK VINA RESULT:    -4.184      1.306      3.423
REMARK INTER + INTRA:         -16.247
REMARK INTER:                 -11.010
REMARK INTRA:                  -5.237
REMARK UNBOUND:                -5.703
REMARK SMILES CCCCCCCCCCCCCCCCCCCCCCCCCCCC(=O)[O-]
REMARK SMILES IDX 15 1 16 2 17 3 18 4 19 5 20 6 21 7 22 8 23 9 24 10 25 11
REMARK SMILES IDX 26 12 27 13 28 14 29 15 30 16 14 17 13 18 12 19 11 20 10 21
REMARK SMILES IDX 9 22 8 23 7 24 6 25 5 26 4 27 3 28 2 29 1 30
REMARK H PARENT
REMARK Flexibility Score: inf
ROOT
ATOM      1  C   UNL     1      -8.799   2.201  19.069  1.00  0.00     0.000 C 
ENDROOT
BRANCH   1   2
ATOM      2  C   UNL     1      -7.676   3.226  18.812  1.00  0.00     0.000 C 
BRANCH   2   3
ATOM      3  C   UNL     1      -7.497   4.235  19.956  1.00  0.00     0.000 C 
BRANCH   3   4
ATOM      4  C   UNL     1      -7.808   5.660  19.478  1.00  0.00     0.000 C 
BRANCH   4   5
ATOM      5  C   UNL     1      -7.881   5.776  17.947  1.00  0.00     0.000 C 
BRANCH   5   6
ATOM      6  C   UNL     1      -9.280   6.157  17.418  1.00  0.00     0.000 C 
BRANCH   6   7
ATOM      7  C   UNL     1     -10.362   6.048  18.505  1.00  0.00     0.000 C 
BRANCH   7   8
ATOM      8  C   UNL     1     -11.619   5.308  18.016  1.00  0.00     0.000 C 
BRANCH   8   9
ATOM      9  C   UNL     1     -11.517   4.884  16.541  1.00  0.00     0.000 C 
BRANCH   9  10
ATOM     10  C   UNL     1     -11.452   3.355  16.407  1.00  0.00     0.000 C 
BRANCH  10  11
ATOM     11  C   UNL     1     -10.151   2.865  15.747  1.00  0.00     0.000 C 
BRANCH  11  12
ATOM     12  C   UNL     1      -9.990   1.334  15.662  1.00  0.00     0.006 C 
BRANCH  12  13
ATOM     13  C   UNL     1     -10.443   0.726  14.322  1.00  0.00     0.053 C 
BRANCH  13  14
ATOM     14  C   UNL     1     -11.903   0.387  14.308  1.00  0.00     0.041 C 
ATOM     15  O   UNL     1     -12.461   0.042  13.233  1.00  0.00    -0.550 OA
ATOM     16  O   UNL     1     -12.640   0.417  15.485  1.00  0.00    -0.550 OA
ENDBRANCH  13  14
ENDBRANCH  12  13
ENDBRANCH  11  12
ENDBRANCH  10  11
ENDBRANCH   9  10
ENDBRANCH   8   9
ENDBRANCH   7   8
ENDBRANCH   6   7
ENDBRANCH   5   6
ENDBRANCH   4   5
ENDBRANCH   3   4
ENDBRANCH   2   3
ENDBRANCH   1   2
BRANCH   1  17
ATOM     17  C   UNL     1      -9.889   2.660  20.059  1.00  0.00     0.000 C 
BRANCH  17  18
ATOM     18  C   UNL     1     -11.264   1.989  19.836  1.00  0.00     0.000 C 
BRANCH  18  19
ATOM     19  C   UNL     1     -11.182   0.655  19.078  1.00  0.00     0.000 C 
BRANCH  19  20
ATOM     20  C   UNL     1     -11.070  -0.553  20.025  1.00  0.00     0.000 C 
BRANCH  20  21
ATOM     21  C   UNL     1      -9.633  -1.119  20.106  1.00  0.00     0.000 C 
BRANCH  21  22
ATOM     22  C   UNL     1      -8.991  -0.977  21.498  1.00  0.00    -0.000 C 
BRANCH  22  23
ATOM     23  C   UNL     1      -9.845  -0.202  22.517  1.00  0.00    -0.000 C 
BRANCH  23  24
ATOM     24  C   UNL     1      -9.025   0.399  23.679  1.00  0.00    -0.000 C 
BRANCH  24  25
ATOM     25  C   UNL     1      -9.804   1.465  24.468  1.00  0.00    -0.000 C 
BRANCH  25  26
ATOM     26  C   UNL     1      -9.785   2.837  23.760  1.00  0.00    -0.000 C 
BRANCH  26  27
ATOM     27  C   UNL     1     -11.175   3.320  23.312  1.00  0.00    -0.000 C 
BRANCH  27  28
ATOM     28  C   UNL     1     -12.316   2.669  24.111  1.00  0.00    -0.000 C 
BRANCH  28  29
ATOM     29  C   UNL     1     -13.371   2.020  23.203  1.00  0.00    -0.003 C 
ATOM     30  C   UNL     1     -13.178   0.510  23.055  1.00  0.00     0.004 C 
ENDBRANCH  28  29
ENDBRANCH  27  28
ENDBRANCH  26  27
ENDBRANCH  25  26
ENDBRANCH  24  25
ENDBRANCH  23  24
ENDBRANCH  22  23
ENDBRANCH  21  22
ENDBRANCH  20  21
ENDBRANCH  19  20
ENDBRANCH  18  19
ENDBRANCH  17  18
ENDBRANCH   1  17
TORSDOF 26
ENDMDL
MODEL 3
REMARK VINA RESULT:    -4.133      1.571      3.828
REMARK INTER + INTRA:         -16.118
REMARK INTER:                 -11.250
REMARK INTRA:                  -4.868
REMARK UNBOUND:                -5.703
REMARK SMILES CCCCCCCCCCCCCCCCCCCCCCCCCCCC(=O)[O-]
REMARK SMILES IDX 15 1 16 2 17 3 18 4 19 5 20 6 21 7 22 8 23 9 24 10 25 11
REMARK SMILES IDX 26 12 27 13 28 14 29 15 30 16 14 17 13 18 12 19 11 20 10 21
REMARK SMILES IDX 9 22 8 23 7 24 6 25 5 26 4 27 3 28 2 29 1 30
REMARK H PARENT
REMARK Flexibility Score: inf
ROOT
ATOM      1  C   UNL     1     -10.666   1.120  19.437  1.00  0.00     0.000 C 
ENDROOT
BRANCH   1   2
ATOM      2  C   UNL     1     -11.385   2.314  20.097  1.00  0.00     0.000 C 
BRANCH   2   3
ATOM      3  C   UNL     1     -12.316   1.904  21.249  1.00  0.00     0.000 C 
BRANCH   3   4
ATOM      4  C   UNL     1     -13.200   3.083  21.678  1.00  0.00     0.000 C 
BRANCH   4   5
ATOM      5  C   UNL     1     -13.617   3.980  20.501  1.00  0.00     0.000 C 
BRANCH   5   6
ATOM      6  C   UNL     1     -13.389   5.485  20.754  1.00  0.00     0.000 C 
BRANCH   6   7
ATOM      7  C   UNL     1     -12.377   6.094  19.770  1.00  0.00     0.000 C 
BRANCH   7   8
ATOM      8  C   UNL     1     -12.249   5.278  18.472  1.00  0.00     0.000 C 
BRANCH   8   9
ATOM      9  C   UNL     1     -10.793   5.154  17.995  1.00  0.00     0.000 C 
BRANCH   9  10
ATOM     10  C   UNL     1     -10.678   4.178  16.814  1.00  0.00     0.000 C 
BRANCH  10  11
ATOM     11  C   UNL     1     -11.979   3.399  16.550  1.00  0.00     0.000 C 
BRANCH  11  12
ATOM     12  C   UNL     1     -11.791   1.954  16.046  1.00  0.00     0.006 C 
BRANCH  12  13
ATOM     13  C   UNL     1     -10.427   1.690  15.382  1.00  0.00     0.053 C 
BRANCH  13  14
ATOM     14  C   UNL     1     -10.500   0.638  14.317  1.00  0.00     0.041 C 
ATOM     15  O   UNL     1      -9.445   0.099  13.888  1.00  0.00    -0.550 OA
ATOM     16  O   UNL     1     -11.731   0.226  13.822  1.00  0.00    -0.550 OA
ENDBRANCH  13  14
ENDBRANCH  12  13
ENDBRANCH  11  12
ENDBRANCH  10  11
ENDBRANCH   9  10
ENDBRANCH   8   9
ENDBRANCH   7   8
ENDBRANCH   6   7
ENDBRANCH   5   6
ENDBRANCH   4   5
ENDBRANCH   3   4
ENDBRANCH   2   3
ENDBRANCH   1   2
BRANCH   1  17
ATOM     17  C   UNL     1     -10.710  -0.196  20.242  1.00  0.00     0.000 C 
BRANCH  17  18
ATOM     18  C   UNL     1      -9.316  -0.797  20.539  1.00  0.00     0.000 C 
BRANCH  18  19
ATOM     19  C   UNL     1      -8.991  -0.884  22.039  1.00  0.00     0.000 C 
BRANCH  19  20
ATOM     20  C   UNL     1     -10.031  -0.157  22.909  1.00  0.00     0.000 C 
BRANCH  20  21
ATOM     21  C   UNL     1      -9.385   0.747  23.984  1.00  0.00     0.000 C 
BRANCH  21  22
ATOM     22  C   UNL     1      -9.953   2.178  24.010  1.00  0.00    -0.000 C 
BRANCH  22  23
ATOM     23  C   UNL     1      -9.077   3.224  23.296  1.00  0.00    -0.000 C 
BRANCH  23  24
ATOM     24  C   UNL     1      -9.873   4.436  22.766  1.00  0.00    -0.000 C 
BRANCH  24  25
ATOM     25  C   UNL     1      -9.278   5.019  21.473  1.00  0.00    -0.000 C 
BRANCH  25  26
ATOM     26  C   UNL     1      -8.348   4.012  20.760  1.00  0.00    -0.000 C 
BRANCH  26  27
ATOM     27  C   UNL     1      -7.212   4.678  19.966  1.00  0.00    -0.000 C 
BRANCH  27  28
ATOM     28  C   UNL     1      -6.616   3.752  18.893  1.00  0.00    -0.000 C 
BRANCH  28  29
ATOM     29  C   UNL     1      -5.116   3.998  18.674  1.00  0.00    -0.003 C 
ATOM     30  C   UNL     1      -4.584   5.181  19.485  1.00  0.00     0.004 C 
ENDBRANCH  28  29
ENDBRANCH  27  28
ENDBRANCH  26  27
ENDBRANCH  25  26
ENDBRANCH  24  25
ENDBRANCH  23  24
ENDBRANCH  22  23
ENDBRANCH  21  22
ENDBRANCH  20  21
ENDBRANCH  19  20
ENDBRANCH  18  19
ENDBRANCH  17  18
ENDBRANCH   1  17
TORSDOF 26
ENDMDL
MODEL 4
REMARK VINA RESULT:    -4.040      2.892      6.533
REMARK INTER + INTRA:         -15.884
REMARK INTER:                 -11.705
REMARK INTRA:                  -4.179
REMARK UNBOUND:                -5.703
REMARK SMILES CCCCCCCCCCCCCCCCCCCCCCCCCCCC(=O)[O-]
REMARK SMILES IDX 15 1 16 2 17 3 18 4 19 5 20 6 21 7 22 8 23 9 24 10 25 11
REMARK SMILES IDX 26 12 27 13 28 14 29 15 30 16 14 17 13 18 12 19 11 20 10 21
REMARK SMILES IDX 9 22 8 23 7 24 6 25 5 26 4 27 3 28 2 29 1 30
REMARK H PARENT
REMARK Flexibility Score: inf
ROOT
ATOM      1  C   UNL     1      -8.734  -0.495  20.082  1.00  0.00     0.000 C 
ENDROOT
BRANCH   1   2
ATOM      2  C   UNL     1      -9.507  -1.149  21.245  1.00  0.00     0.000 C 
BRANCH   2   3
ATOM      3  C   UNL     1      -9.200  -0.519  22.613  1.00  0.00     0.000 C 
BRANCH   3   4
ATOM      4  C   UNL     1      -9.528   0.980  22.606  1.00  0.00     0.000 C 
BRANCH   4   5
ATOM      5  C   UNL     1      -9.112   1.691  23.905  1.00  0.00     0.000 C 
BRANCH   5   6
ATOM      6  C   UNL     1      -9.074   3.229  23.787  1.00  0.00     0.000 C 
BRANCH   6   7
ATOM      7  C   UNL     1      -9.268   3.707  22.339  1.00  0.00     0.000 C 
BRANCH   7   8
ATOM      8  C   UNL     1      -8.588   5.061  22.066  1.00  0.00     0.000 C 
BRANCH   8   9
ATOM      9  C   UNL     1      -7.997   5.149  20.649  1.00  0.00     0.000 C 
BRANCH   9  10
ATOM     10  C   UNL     1      -8.059   3.789  19.938  1.00  0.00     0.000 C 
BRANCH  10  11
ATOM     11  C   UNL     1      -6.875   3.556  18.982  1.00  0.00     0.000 C 
BRANCH  11  12
ATOM     12  C   UNL     1      -5.576   4.302  19.349  1.00  0.00     0.006 C 
BRANCH  12  13
ATOM     13  C   UNL     1      -4.489   4.246  18.261  1.00  0.00     0.053 C 
BRANCH  13  14
ATOM     14  C   UNL     1      -4.161   5.599  17.704  1.00  0.00     0.041 C 
ATOM     15  O   UNL     1      -3.918   5.734  16.476  1.00  0.00    -0.550 OA
ATOM     16  O   UNL     1      -4.159   6.715  18.531  1.00  0.00    -0.550 OA
ENDBRANCH  13  14
ENDBRANCH  12  13
ENDBRANCH  11  12
ENDBRANCH  10  11
ENDBRANCH   9  10
ENDBRANCH   8   9
ENDBRANCH   7   8
ENDBRANCH   6   7
ENDBRANCH   5   6
ENDBRANCH   4   5
ENDBRANCH   3   4
ENDBRANCH   2   3
ENDBRANCH   1   2
BRANCH   1  17
ATOM     17  C   UNL     1      -9.604  -0.041  18.892  1.00  0.00     0.000 C 
BRANCH  17  18
ATOM     18  C   UNL     1     -11.045   0.363  19.285  1.00  0.00     0.000 C 
BRANCH  18  19
ATOM     19  C   UNL     1     -11.326   1.866  19.126  1.00  0.00     0.000 C 
BRANCH  19  20
ATOM     20  C   UNL     1     -11.866   2.502  20.418  1.00  0.00     0.000 C 
BRANCH  20  21
ATOM     21  C   UNL     1     -12.793   3.710  20.149  1.00  0.00     0.000 C 
BRANCH  21  22
ATOM     22  C   UNL     1     -12.794   4.173  18.681  1.00  0.00    -0.000 C 
BRANCH  22  23
ATOM     23  C   UNL     1     -11.800   5.307  18.369  1.00  0.00    -0.000 C 
BRANCH  23  24
ATOM     24  C   UNL     1     -11.154   5.196  16.972  1.00  0.00    -0.000 C 
BRANCH  24  25
ATOM     25  C   UNL     1      -9.716   4.656  17.022  1.00  0.00    -0.000 C 
BRANCH  25  26
ATOM     26  C   UNL     1      -9.610   3.238  16.418  1.00  0.00    -0.000 C 
BRANCH  26  27
ATOM     27  C   UNL     1     -10.710   2.920  15.392  1.00  0.00    -0.000 C 
BRANCH  27  28
ATOM     28  C   UNL     1     -11.348   1.540  15.615  1.00  0.00    -0.000 C 
BRANCH  28  29
ATOM     29  C   UNL     1     -11.095   0.580  14.442  1.00  0.00    -0.003 C 
ATOM     30  C   UNL     1      -9.619   0.507  14.045  1.00  0.00     0.004 C 
ENDBRANCH  28  29
ENDBRANCH  27  28
ENDBRANCH  26  27
ENDBRANCH  25  26
ENDBRANCH  24  25
ENDBRANCH  23  24
ENDBRANCH  22  23
ENDBRANCH  21  22
ENDBRANCH  20  21
ENDBRANCH  19  20
ENDBRANCH  18  19
ENDBRANCH  17  18
ENDBRANCH   1  17
TORSDOF 26
ENDMDL
MODEL 5
REMARK VINA RESULT:    -4.039      0.999      2.151
REMARK INTER + INTRA:         -15.882
REMARK INTER:                 -10.170
REMARK INTRA:                  -5.712
REMARK UNBOUND:                -5.703
REMARK SMILES CCCCCCCCCCCCCCCCCCCCCCCCCCCC(=O)[O-]
REMARK SMILES IDX 15 1 16 2 17 3 18 4 19 5 20 6 21 7 22 8 23 9 24 10 25 11
REMARK SMILES IDX 26 12 27 13 28 14 29 15 30 16 14 17 13 18 12 19 11 20 10 21
REMARK SMILES IDX 9 22 8 23 7 24 6 25 5 26 4 27 3 28 2 29 1 30
REMARK H PARENT
REMARK Flexibility Score: inf
ROOT
ATOM      1  C   UNL     1     -11.179  -0.710  20.046  1.00  0.00     0.000 C 
ENDROOT
BRANCH   1   2
ATOM      2  C   UNL     1     -11.149   0.322  18.901  1.00  0.00     0.000 C 
BRANCH   2   3
ATOM      3  C   UNL     1      -9.736   0.832  18.576  1.00  0.00     0.000 C 
BRANCH   3   4
ATOM      4  C   UNL     1      -9.398   2.071  19.415  1.00  0.00     0.000 C 
BRANCH   4   5
ATOM      5  C   UNL     1      -8.149   2.814  18.914  1.00  0.00     0.000 C 
BRANCH   5   6
ATOM      6  C   UNL     1      -8.466   4.056  18.055  1.00  0.00     0.000 C 
BRANCH   6   7
ATOM      7  C   UNL     1      -8.606   5.330  18.904  1.00  0.00     0.000 C 
BRANCH   7   8
ATOM      8  C   UNL     1      -9.998   5.974  18.779  1.00  0.00     0.000 C 
BRANCH   8   9
ATOM      9  C   UNL     1     -10.734   5.543  17.500  1.00  0.00     0.000 C 
BRANCH   9  10
ATOM     10  C   UNL     1     -12.137   5.006  17.822  1.00  0.00     0.000 C 
BRANCH  10  11
ATOM     11  C   UNL     1     -12.290   3.505  17.518  1.00  0.00     0.000 C 
BRANCH  11  12
ATOM     12  C   UNL     1     -11.621   3.025  16.214  1.00  0.00     0.006 C 
BRANCH  12  13
ATOM     13  C   UNL     1     -12.126   1.659  15.713  1.00  0.00     0.053 C 
BRANCH  13  14
ATOM     14  C   UNL     1     -11.115   0.948  14.865  1.00  0.00     0.041 C 
ATOM     15  O   UNL     1     -11.493   0.192  13.932  1.00  0.00    -0.550 OA
ATOM     16  O   UNL     1      -9.757   1.147  15.080  1.00  0.00    -0.550 OA
ENDBRANCH  13  14
ENDBRANCH  12  13
ENDBRANCH  11  12
ENDBRANCH  10  11
ENDBRANCH   9  10
ENDBRANCH   8   9
ENDBRANCH   7   8
ENDBRANCH   6   7
ENDBRANCH   5   6
ENDBRANCH   4   5
ENDBRANCH   3   4
ENDBRANCH   2   3
ENDBRANCH   1   2
BRANCH   1  17
ATOM     17  C   UNL     1      -9.892  -1.545  20.208  1.00  0.00     0.000 C 
BRANCH  17  18
ATOM     18  C   UNL     1      -9.071  -1.197  21.472  1.00  0.00     0.000 C 
BRANCH  18  19
ATOM     19  C   UNL     1      -9.697  -0.081  22.324  1.00  0.00     0.000 C 
BRANCH  19  20
ATOM     20  C   UNL     1      -9.108  -0.025  23.744  1.00  0.00     0.000 C 
BRANCH  20  21
ATOM     21  C   UNL     1      -9.740   1.088  24.611  1.00  0.00     0.000 C 
BRANCH  21  22
ATOM     22  C   UNL     1      -9.159   2.487  24.340  1.00  0.00    -0.000 C 
BRANCH  22  23
ATOM     23  C   UNL     1     -10.130   3.647  24.626  1.00  0.00    -0.000 C 
BRANCH  23  24
ATOM     24  C   UNL     1     -10.124   4.740  23.535  1.00  0.00    -0.000 C 
BRANCH  24  25
ATOM     25  C   UNL     1     -10.479   4.194  22.143  1.00  0.00    -0.000 C 
BRANCH  25  26
ATOM     26  C   UNL     1     -11.858   4.694  21.659  1.00  0.00    -0.000 C 
BRANCH  26  27
ATOM     27  C   UNL     1     -12.810   3.564  21.233  1.00  0.00    -0.000 C 
BRANCH  27  28
ATOM     28  C   UNL     1     -12.392   2.194  21.791  1.00  0.00    -0.000 C 
BRANCH  28  29
ATOM     29  C   UNL     1     -13.204   1.794  23.032  1.00  0.00    -0.003 C 
ATOM     30  C   UNL     1     -13.188   0.286  23.290  1.00  0.00     0.004 C 
ENDBRANCH  28  29
ENDBRANCH  27  28
ENDBRANCH  26  27
ENDBRANCH  25  26
ENDBRANCH  24  25
ENDBRANCH  23  24
ENDBRANCH  22  23
ENDBRANCH  21  22
ENDBRANCH  20  21
ENDBRANCH  19  20
ENDBRANCH  18  19
ENDBRANCH  17  18
ENDBRANCH   1  17
TORSDOF 26
ENDMDL
MODEL 6
REMARK VINA RESULT:    -4.013      2.591      6.236
REMARK INTER + INTRA:         -15.815
REMARK INTER:                 -10.714
REMARK INTRA:                  -5.101
REMARK UNBOUND:                -5.703
REMARK SMILES CCCCCCCCCCCCCCCCCCCCCCCCCCCC(=O)[O-]
REMARK SMILES IDX 15 1 16 2 17 3 18 4 19 5 20 6 21 7 22 8 23 9 24 10 25 11
REMARK SMILES IDX 26 12 27 13 28 14 29 15 30 16 14 17 13 18 12 19 11 20 10 21
REMARK SMILES IDX 9 22 8 23 7 24 6 25 5 26 4 27 3 28 2 29 1 30
REMARK H PARENT
REMARK Flexibility Score: inf
ROOT
ATOM      1  C   UNL     1     -10.086   0.205  22.921  1.00  0.00     0.000 C 
ENDROOT
BRANCH   1   2
ATOM      2  C   UNL     1      -9.978   1.736  22.767  1.00  0.00     0.000 C 
BRANCH   2   3
ATOM      3  C   UNL     1     -10.941   2.510  23.682  1.00  0.00     0.000 C 
BRANCH   3   4
ATOM      4  C   UNL     1     -12.206   2.920  22.917  1.00  0.00     0.000 C 
BRANCH   4   5
ATOM      5  C   UNL     1     -12.046   2.814  21.391  1.00  0.00     0.000 C 
BRANCH   5   6
ATOM      6  C   UNL     1     -12.989   3.745  20.601  1.00  0.00     0.000 C 
BRANCH   6   7
ATOM      7  C   UNL     1     -12.456   5.186  20.527  1.00  0.00     0.000 C 
BRANCH   7   8
ATOM      8  C   UNL     1     -10.963   5.247  20.159  1.00  0.00     0.000 C 
BRANCH   8   9
ATOM      9  C   UNL     1     -10.163   6.168  21.096  1.00  0.00     0.000 C 
BRANCH   9  10
ATOM     10  C   UNL     1      -9.187   5.360  21.965  1.00  0.00     0.000 C 
BRANCH  10  11
ATOM     11  C   UNL     1      -8.267   4.442  21.140  1.00  0.00     0.000 C 
BRANCH  11  12
ATOM     12  C   UNL     1      -7.040   5.133  20.510  1.00  0.00     0.006 C 
BRANCH  12  13
ATOM     13  C   UNL     1      -6.429   4.369  19.321  1.00  0.00     0.053 C 
BRANCH  13  14
ATOM     14  C   UNL     1      -4.957   4.611  19.178  1.00  0.00     0.041 C 
ATOM     15  O   UNL     1      -4.292   3.971  18.322  1.00  0.00    -0.550 OA
ATOM     16  O   UNL     1      -4.324   5.567  19.963  1.00  0.00    -0.550 OA
ENDBRANCH  13  14
ENDBRANCH  12  13
ENDBRANCH  11  12
ENDBRANCH  10  11
ENDBRANCH   9  10
ENDBRANCH   8   9
ENDBRANCH   7   8
ENDBRANCH   6   7
ENDBRANCH   5   6
ENDBRANCH   4   5
ENDBRANCH   3   4
ENDBRANCH   2   3
ENDBRANCH   1   2
BRANCH   1  17
ATOM     17  C   UNL     1      -9.007  -0.604  22.172  1.00  0.00     0.000 C 
BRANCH  17  18
ATOM     18  C   UNL     1      -9.490  -1.207  20.832  1.00  0.00     0.000 C 
BRANCH  18  19
ATOM     19  C   UNL     1     -10.960  -0.893  20.510  1.00  0.00     0.000 C 
BRANCH  19  20
ATOM     20  C   UNL     1     -11.109   0.021  19.281  1.00  0.00     0.000 C 
BRANCH  20  21
ATOM     21  C   UNL     1      -9.750   0.511  18.730  1.00  0.00     0.000 C 
BRANCH  21  22
ATOM     22  C   UNL     1      -9.525   2.024  18.896  1.00  0.00    -0.000 C 
BRANCH  22  23
ATOM     23  C   UNL     1      -9.006   2.734  17.633  1.00  0.00    -0.000 C 
BRANCH  23  24
ATOM     24  C   UNL     1     -10.067   3.615  16.940  1.00  0.00    -0.000 C 
BRANCH  24  25
ATOM     25  C   UNL     1     -11.506   3.182  17.265  1.00  0.00    -0.000 C 
BRANCH  25  26
ATOM     26  C   UNL     1     -12.221   2.581  16.035  1.00  0.00    -0.000 C 
BRANCH  26  27
ATOM     27  C   UNL     1     -12.192   1.044  15.994  1.00  0.00    -0.000 C 
BRANCH  27  28
ATOM     28  C   UNL     1     -12.237   0.487  14.562  1.00  0.00    -0.000 C 
BRANCH  28  29
ATOM     29  C   UNL     1     -10.878   0.579  13.853  1.00  0.00    -0.003 C 
ATOM     30  C   UNL     1      -9.697   0.518  14.825  1.00  0.00     0.004 C 
ENDBRANCH  28  29
ENDBRANCH  27  28
ENDBRANCH  26  27
ENDBRANCH  25  26
ENDBRANCH  24  25
ENDBRANCH  23  24
ENDBRANCH  22  23
ENDBRANCH  21  22
ENDBRANCH  20  21
ENDBRANCH  19  20
ENDBRANCH  18  19
ENDBRANCH  17  18
ENDBRANCH   1  17
TORSDOF 26
ENDMDL
MODEL 7
REMARK VINA RESULT:    -4.011      3.496      6.992
REMARK INTER + INTRA:         -15.811
REMARK INTER:                 -11.107
REMARK INTRA:                  -4.704
REMARK UNBOUND:                -5.703
REMARK SMILES CCCCCCCCCCCCCCCCCCCCCCCCCCCC(=O)[O-]
REMARK SMILES IDX 15 1 16 2 17 3 18 4 19 5 20 6 21 7 22 8 23 9 24 10 25 11
REMARK SMILES IDX 26 12 27 13 28 14 29 15 30 16 14 17 13 18 12 19 11 20 10 21
REMARK SMILES IDX 9 22 8 23 7 24 6 25 5 26 4 27 3 28 2 29 1 30
REMARK H PARENT
REMARK Flexibility Score: inf
ROOT
ATOM      1  C   UNL     1     -11.089  -0.684  20.143  1.00  0.00     0.000 C 
ENDROOT
BRANCH   1   2
ATOM      2  C   UNL     1      -9.653  -1.220  20.302  1.00  0.00     0.000 C 
BRANCH   2   3
ATOM      3  C   UNL     1      -9.040  -0.925  21.681  1.00  0.00     0.000 C 
BRANCH   3   4
ATOM      4  C   UNL     1     -10.013  -0.111  22.545  1.00  0.00     0.000 C 
BRANCH   4   5
ATOM      5  C   UNL     1      -9.306   0.704  23.640  1.00  0.00     0.000 C 
BRANCH   5   6
ATOM      6  C   UNL     1      -9.423   2.231  23.453  1.00  0.00     0.000 C 
BRANCH   6   7
ATOM      7  C   UNL     1     -10.149   2.604  22.149  1.00  0.00     0.000 C 
BRANCH   7   8
ATOM      8  C   UNL     1     -11.502   3.292  22.402  1.00  0.00     0.000 C 
BRANCH   8   9
ATOM      9  C   UNL     1     -12.689   2.473  21.866  1.00  0.00     0.000 C 
BRANCH   9  10
ATOM     10  C   UNL     1     -13.552   1.930  23.016  1.00  0.00     0.000 C 
BRANCH  10  11
ATOM     11  C   UNL     1     -13.447   0.403  23.175  1.00  0.00     0.000 C 
BRANCH  11  12
ATOM     12  C   UNL     1     -14.741  -0.301  23.634  1.00  0.00     0.006 C 
BRANCH  12  13
ATOM     13  C   UNL     1     -16.024   0.512  23.385  1.00  0.00     0.053 C 
BRANCH  13  14
ATOM     14  C   UNL     1     -16.912   0.567  24.591  1.00  0.00     0.041 C 
ATOM     15  O   UNL     1     -17.573  -0.448  24.936  1.00  0.00    -0.550 OA
ATOM     16  O   UNL     1     -16.986   1.726  25.354  1.00  0.00    -0.550 OA
ENDBRANCH  13  14
ENDBRANCH  12  13
ENDBRANCH  11  12
ENDBRANCH  10  11
ENDBRANCH   9  10
ENDBRANCH   8   9
ENDBRANCH   7   8
ENDBRANCH   6   7
ENDBRANCH   5   6
ENDBRANCH   4   5
ENDBRANCH   3   4
ENDBRANCH   2   3
ENDBRANCH   1   2
BRANCH   1  17
ATOM     17  C   UNL     1     -11.229   0.550  19.228  1.00  0.00     0.000 C 
BRANCH  17  18
ATOM     18  C   UNL     1      -9.912   0.972  18.536  1.00  0.00     0.000 C 
BRANCH  18  19
ATOM     19  C   UNL     1      -9.988   0.946  17.001  1.00  0.00     0.000 C 
BRANCH  19  20
ATOM     20  C   UNL     1      -9.586   2.291  16.370  1.00  0.00     0.000 C 
BRANCH  20  21
ATOM     21  C   UNL     1     -10.773   3.012  15.691  1.00  0.00     0.000 C 
BRANCH  21  22
ATOM     22  C   UNL     1     -12.140   2.664  16.305  1.00  0.00    -0.000 C 
BRANCH  22  23
ATOM     23  C   UNL     1     -12.768   3.792  17.144  1.00  0.00    -0.000 C 
BRANCH  23  24
ATOM     24  C   UNL     1     -12.053   4.031  18.491  1.00  0.00    -0.000 C 
BRANCH  24  25
ATOM     25  C   UNL     1     -11.154   5.278  18.475  1.00  0.00    -0.000 C 
BRANCH  25  26
ATOM     26  C   UNL     1      -9.929   5.120  19.403  1.00  0.00    -0.000 C 
BRANCH  26  27
ATOM     27  C   UNL     1      -8.585   5.118  18.657  1.00  0.00    -0.000 C 
BRANCH  27  28
ATOM     28  C   UNL     1      -7.728   3.883  18.981  1.00  0.00    -0.000 C 
BRANCH  28  29
ATOM     29  C   UNL     1      -6.303   4.257  19.417  1.00  0.00    -0.003 C 
ATOM     30  C   UNL     1      -6.276   5.365  20.471  1.00  0.00     0.004 C 
ENDBRANCH  28  29
ENDBRANCH  27  28
ENDBRANCH  26  27
ENDBRANCH  25  26
ENDBRANCH  24  25
ENDBRANCH  23  24
ENDBRANCH  22  23
ENDBRANCH  21  22
ENDBRANCH  20  21
ENDBRANCH  19  20
ENDBRANCH  18  19
ENDBRANCH  17  18
ENDBRANCH   1  17
TORSDOF 26
ENDMDL
MODEL 8
REMARK VINA RESULT:    -3.935      2.095      5.628
REMARK INTER + INTRA:         -15.619
REMARK INTER:                 -11.636
REMARK INTRA:                  -3.982
REMARK UNBOUND:                -5.703
REMARK SMILES CCCCCCCCCCCCCCCCCCCCCCCCCCCC(=O)[O-]
REMARK SMILES IDX 15 1 16 2 17 3 18 4 19 5 20 6 21 7 22 8 23 9 24 10 25 11
REMARK SMILES IDX 26 12 27 13 28 14 29 15 30 16 14 17 13 18 12 19 11 20 10 21
REMARK SMILES IDX 9 22 8 23 7 24 6 25 5 26 4 27 3 28 2 29 1 30
REMARK H PARENT
REMARK Flexibility Score: inf
ROOT
ATOM      1  C   UNL     1      -9.522   0.315  22.842  1.00  0.00     0.000 C 
ENDROOT
BRANCH   1   2
ATOM      2  C   UNL     1     -10.146  -0.048  24.204  1.00  0.00     0.000 C 
BRANCH   2   3
ATOM      3  C   UNL     1     -11.598   0.433  24.357  1.00  0.00     0.000 C 
BRANCH   3   4
ATOM      4  C   UNL     1     -12.249   0.643  22.984  1.00  0.00     0.000 C 
BRANCH   4   5
ATOM      5  C   UNL     1     -12.831   2.055  22.805  1.00  0.00     0.000 C 
BRANCH   5   6
ATOM      6  C   UNL     1     -12.475   2.709  21.454  1.00  0.00     0.000 C 
BRANCH   6   7
ATOM      7  C   UNL     1     -13.625   3.568  20.902  1.00  0.00     0.000 C 
BRANCH   7   8
ATOM      8  C   UNL     1     -13.160   4.549  19.811  1.00  0.00     0.000 C 
BRANCH   8   9
ATOM      9  C   UNL     1     -12.361   3.855  18.696  1.00  0.00     0.000 C 
BRANCH   9  10
ATOM     10  C   UNL     1     -11.599   4.878  17.841  1.00  0.00     0.000 C 
BRANCH  10  11
ATOM     11  C   UNL     1     -11.438   4.436  16.376  1.00  0.00     0.000 C 
BRANCH  11  12
ATOM     12  C   UNL     1     -11.447   2.912  16.142  1.00  0.00     0.006 C 
BRANCH  12  13
ATOM     13  C   UNL     1     -10.239   2.389  15.343  1.00  0.00     0.053 C 
BRANCH  13  14
ATOM     14  C   UNL     1     -10.473   1.022  14.775  1.00  0.00     0.041 C 
ATOM     15  O   UNL     1      -9.501   0.247  14.575  1.00  0.00    -0.550 OA
ATOM     16  O   UNL     1     -11.764   0.590  14.499  1.00  0.00    -0.550 OA
ENDBRANCH  13  14
ENDBRANCH  12  13
ENDBRANCH  11  12
ENDBRANCH  10  11
ENDBRANCH   9  10
ENDBRANCH   8   9
ENDBRANCH   7   8
ENDBRANCH   6   7
ENDBRANCH   5   6
ENDBRANCH   4   5
ENDBRANCH   3   4
ENDBRANCH   2   3
ENDBRANCH   1   2
BRANCH   1  17
ATOM     17  C   UNL     1      -8.905  -0.869  22.069  1.00  0.00     0.000 C 
BRANCH  17  18
ATOM     18  C   UNL     1      -9.460  -1.042  20.636  1.00  0.00     0.000 C 
BRANCH  18  19
ATOM     19  C   UNL     1     -10.185   0.204  20.103  1.00  0.00     0.000 C 
BRANCH  19  20
ATOM     20  C   UNL     1      -9.651   0.652  18.731  1.00  0.00     0.000 C 
BRANCH  20  21
ATOM     21  C   UNL     1      -8.929   2.018  18.788  1.00  0.00     0.000 C 
BRANCH  21  22
ATOM     22  C   UNL     1      -9.081   2.742  20.137  1.00  0.00    -0.000 C 
BRANCH  22  23
ATOM     23  C   UNL     1      -8.952   4.274  20.057  1.00  0.00    -0.000 C 
BRANCH  23  24
ATOM     24  C   UNL     1      -7.869   4.752  19.066  1.00  0.00    -0.000 C 
BRANCH  24  25
ATOM     25  C   UNL     1      -6.441   4.514  19.585  1.00  0.00    -0.000 C 
BRANCH  25  26
ATOM     26  C   UNL     1      -5.618   3.626  18.625  1.00  0.00    -0.000 C 
BRANCH  26  27
ATOM     27  C   UNL     1      -4.335   4.299  18.110  1.00  0.00    -0.000 C 
BRANCH  27  28
ATOM     28  C   UNL     1      -4.251   5.786  18.488  1.00  0.00    -0.000 C 
BRANCH  28  29
ATOM     29  C   UNL     1      -4.509   6.712  17.290  1.00  0.00    -0.003 C 
ATOM     30  C   UNL     1      -3.539   6.468  16.132  1.00  0.00     0.004 C 
ENDBRANCH  28  29
ENDBRANCH  27  28
ENDBRANCH  26  27
ENDBRANCH  25  26
ENDBRANCH  24  25
ENDBRANCH  23  24
ENDBRANCH  22  23
ENDBRANCH  21  22
ENDBRANCH  20  21
ENDBRANCH  19  20
ENDBRANCH  18  19
ENDBRANCH  17  18
ENDBRANCH   1  17
TORSDOF 26
ENDMDL
MODEL 9
REMARK VINA RESULT:    -3.924      2.676      6.961
REMARK INTER + INTRA:         -15.592
REMARK INTER:                 -10.430
REMARK INTRA:                  -5.162
REMARK UNBOUND:                -5.703
REMARK SMILES CCCCCCCCCCCCCCCCCCCCCCCCCCCC(=O)[O-]
REMARK SMILES IDX 15 1 16 2 17 3 18 4 19 5 20 6 21 7 22 8 23 9 24 10 25 11
REMARK SMILES IDX 26 12 27 13 28 14 29 15 30 16 14 17 13 18 12 19 11 20 10 21
REMARK SMILES IDX 9 22 8 23 7 24 6 25 5 26 4 27 3 28 2 29 1 30
REMARK H PARENT
REMARK Flexibility Score: inf
ROOT
ATOM      1  C   UNL     1      -6.626   3.553  19.000  1.00  0.00     0.000 C 
ENDROOT
BRANCH   1   2
ATOM      2  C   UNL     1      -7.930   2.869  18.545  1.00  0.00     0.000 C 
BRANCH   2   3
ATOM      3  C   UNL     1      -8.908   2.591  19.697  1.00  0.00     0.000 C 
BRANCH   3   4
ATOM      4  C   UNL     1      -9.953   1.547  19.284  1.00  0.00     0.000 C 
BRANCH   4   5
ATOM      5  C   UNL     1      -9.333   0.306  18.622  1.00  0.00     0.000 C 
BRANCH   5   6
ATOM      6  C   UNL     1      -9.142  -0.884  19.586  1.00  0.00     0.000 C 
BRANCH   6   7
ATOM      7  C   UNL     1     -10.032  -0.769  20.835  1.00  0.00     0.000 C 
BRANCH   7   8
ATOM      8  C   UNL     1      -9.218  -0.549  22.122  1.00  0.00     0.000 C 
BRANCH   8   9
ATOM      9  C   UNL     1     -10.007   0.223  23.194  1.00  0.00     0.000 C 
BRANCH   9  10
ATOM     10  C   UNL     1     -11.442   0.511  22.724  1.00  0.00     0.000 C 
BRANCH  10  11
ATOM     11  C   UNL     1     -11.776   2.013  22.704  1.00  0.00     0.000 C 
BRANCH  11  12
ATOM     12  C   UNL     1     -12.698   2.468  21.554  1.00  0.00     0.006 C 
BRANCH  12  13
ATOM     13  C   UNL     1     -12.278   3.794  20.896  1.00  0.00     0.053 C 
BRANCH  13  14
ATOM     14  C   UNL     1     -13.413   4.767  20.787  1.00  0.00     0.041 C 
ATOM     15  O   UNL     1     -14.209   4.702  19.814  1.00  0.00    -0.550 OA
ATOM     16  O   UNL     1     -13.613   5.723  21.775  1.00  0.00    -0.550 OA
ENDBRANCH  13  14
ENDBRANCH  12  13
ENDBRANCH  11  12
ENDBRANCH  10  11
ENDBRANCH   9  10
ENDBRANCH   8   9
ENDBRANCH   7   8
ENDBRANCH   6   7
ENDBRANCH   5   6
ENDBRANCH   4   5
ENDBRANCH   3   4
ENDBRANCH   2   3
ENDBRANCH   1   2
BRANCH   1  17
ATOM     17  C   UNL     1      -6.651   5.095  18.967  1.00  0.00     0.000 C 
BRANCH  17  18
ATOM     18  C   UNL     1      -6.506   5.756  20.358  1.00  0.00     0.000 C 
BRANCH  18  19
ATOM     19  C   UNL     1      -7.630   6.751  20.687  1.00  0.00     0.000 C 
BRANCH  19  20
ATOM     20  C   UNL     1      -8.980   6.054  20.927  1.00  0.00     0.000 C 
BRANCH  20  21
ATOM     21  C   UNL     1     -10.116   6.631  20.051  1.00  0.00     0.000 C 
BRANCH  21  22
ATOM     22  C   UNL     1      -9.630   7.197  18.705  1.00  0.00    -0.000 C 
BRANCH  22  23
ATOM     23  C   UNL     1      -9.921   6.295  17.492  1.00  0.00    -0.000 C 
BRANCH  23  24
ATOM     24  C   UNL     1     -10.844   5.101  17.817  1.00  0.00    -0.000 C 
BRANCH  24  25
ATOM     25  C   UNL     1     -11.598   4.579  16.583  1.00  0.00    -0.000 C 
BRANCH  25  26
ATOM     26  C   UNL     1     -12.437   3.323  16.907  1.00  0.00    -0.000 C 
BRANCH  26  27
ATOM     27  C   UNL     1     -12.114   2.117  16.010  1.00  0.00    -0.000 C 
BRANCH  27  28
ATOM     28  C   UNL     1     -10.643   2.084  15.566  1.00  0.00    -0.000 C 
BRANCH  28  29
ATOM     29  C   UNL     1     -10.189   0.678  15.145  1.00  0.00    -0.003 C 
ATOM     30  C   UNL     1      -9.474   0.666  13.792  1.00  0.00     0.004 C 
ENDBRANCH  28  29
ENDBRANCH  27  28
ENDBRANCH  26  27
ENDBRANCH  25  26
ENDBRANCH  24  25
ENDBRANCH  23  24
ENDBRANCH  22  23
ENDBRANCH  21  22
ENDBRANCH  20  21
ENDBRANCH  19  20
ENDBRANCH  18  19
ENDBRANCH  17  18
ENDBRANCH   1  17
TORSDOF 26
ENDMDL
