MODEL 1
REMARK VINA RESULT:    -4.310      0.000      0.000
REMARK INTER + INTRA:         -10.912
REMARK INTER:                  -8.089
REMARK INTRA:                  -2.823
REMARK UNBOUND:                -2.823
REMARK SMILES CCCCCCCCC=CCCCCCCCC(=O)[O-]
REMARK SMILES IDX 10 1 9 2 11 3 12 4 13 5 14 6 15 7 16 8 17 9 18 10 19 11
REMARK SMILES IDX 20 12 8 13 7 14 6 15 5 16 4 17 3 18 2 19 1 20
REMARK H PARENT
REMARK Flexibility Score: inf
ROOT
ATOM      1  C   UNL     1    -108.500   9.114 -20.307  1.00  0.00    -0.031 C 
ATOM      2  C   UNL     1    -108.415   7.842 -19.873  1.00  0.00    -0.031 C 
ENDROOT
BRANCH   1   3
ATOM      3  C   UNL     1    -109.486   9.621 -21.329  1.00  0.00     0.027 C 
BRANCH   3   4
ATOM      4  C   UNL     1    -110.345  10.759 -20.765  1.00  0.00     0.004 C 
BRANCH   4   5
ATOM      5  C   UNL     1    -111.815  10.339 -20.664  1.00  0.00     0.000 C 
BRANCH   5   6
ATOM      6  C   UNL     1    -112.046   8.977 -21.333  1.00  0.00     0.000 C 
BRANCH   6   7
ATOM      7  C   UNL     1    -113.547   8.648 -21.489  1.00  0.00     0.000 C 
BRANCH   7   8
ATOM      8  C   UNL     1    -114.143   9.118 -22.829  1.00  0.00     0.006 C 
BRANCH   8   9
ATOM      9  C   UNL     1    -115.396   9.994 -22.685  1.00  0.00     0.053 C 
BRANCH   9  10
ATOM     10  C   UNL     1    -115.048  11.417 -22.366  1.00  0.00     0.041 C 
ATOM     11  O   UNL     1    -114.398  12.112 -23.190  1.00  0.00    -0.550 OA
ATOM     12  O   UNL     1    -115.439  11.974 -21.155  1.00  0.00    -0.550 OA
ENDBRANCH   9  10
ENDBRANCH   8   9
ENDBRANCH   7   8
ENDBRANCH   6   7
ENDBRANCH   5   6
ENDBRANCH   4   5
ENDBRANCH   3   4
ENDBRANCH   1   3
BRANCH   2  13
ATOM     13  C   UNL     1    -109.301   6.702 -20.324  1.00  0.00     0.027 C 
BRANCH  13  14
ATOM     14  C   UNL     1    -109.802   5.865 -19.137  1.00  0.00     0.004 C 
BRANCH  14  15
ATOM     15  C   UNL     1    -111.335   5.810 -18.990  1.00  0.00     0.000 C 
BRANCH  15  16
ATOM     16  C   UNL     1    -111.936   7.060 -18.311  1.00  0.00     0.000 C 
BRANCH  16  17
ATOM     17  C   UNL     1    -110.996   7.647 -17.244  1.00  0.00    -0.000 C 
BRANCH  17  18
ATOM     18  C   UNL     1    -111.270   9.135 -16.973  1.00  0.00    -0.000 C 
BRANCH  18  19
ATOM     19  C   UNL     1    -110.010  10.000 -17.119  1.00  0.00    -0.003 C 
ATOM     20  C   UNL     1    -110.360  11.484 -17.140  1.00  0.00     0.004 C 
ENDBRANCH  18  19
ENDBRANCH  17  18
ENDBRANCH  16  17
ENDBRANCH  15  16
ENDBRANCH  14  15
ENDBRANCH  13  14
ENDBRANCH   2  13
TORSDOF 15
ENDMDL
MODEL 2
REMARK VINA RESULT:    -4.298      3.240      5.332
REMARK INTER + INTRA:         -10.889
REMARK INTER:                  -7.653
REMARK INTRA:                  -3.237
REMARK UNBOUND:                -2.823
REMARK SMILES CCCCCCCCC=CCCCCCCCC(=O)[O-]
REMARK SMILES IDX 10 1 9 2 11 3 12 4 13 5 14 6 15 7 16 8 17 9 18 10 19 11
REMARK SMILES IDX 20 12 8 13 7 14 6 15 5 16 4 17 3 18 2 19 1 20
REMARK H PARENT
REMARK Flexibility Score: inf
ROOT
ATOM      1  C   UNL     1    -112.072   6.765 -19.483  1.00  0.00    -0.031 C 
ATOM      2  C   UNL     1    -111.960   6.837 -18.143  1.00  0.00    -0.031 C 
ENDROOT
BRANCH   1   3
ATOM      3  C   UNL     1    -112.540   7.886 -20.378  1.00  0.00     0.027 C 
BRANCH   3   4
ATOM      4  C   UNL     1    -111.358   8.609 -21.036  1.00  0.00     0.004 C 
BRANCH   4   5
ATOM      5  C   UNL     1    -111.557  10.128 -21.003  1.00  0.00     0.000 C 
BRANCH   5   6
ATOM      6  C   UNL     1    -111.085  10.716 -19.665  1.00  0.00     0.000 C 
BRANCH   6   7
ATOM      7  C   UNL     1    -112.189  11.541 -18.966  1.00  0.00     0.000 C 
BRANCH   7   8
ATOM      8  C   UNL     1    -111.816  11.982 -17.539  1.00  0.00     0.006 C 
BRANCH   8   9
ATOM      9  C   UNL     1    -110.332  12.338 -17.361  1.00  0.00     0.053 C 
BRANCH   9  10
ATOM     10  C   UNL     1    -110.008  12.679 -15.938  1.00  0.00     0.041 C 
ATOM     11  O   UNL     1    -108.995  13.377 -15.667  1.00  0.00    -0.550 OA
ATOM     12  O   UNL     1    -110.823  12.223 -14.910  1.00  0.00    -0.550 OA
ENDBRANCH   9  10
ENDBRANCH   8   9
ENDBRANCH   7   8
ENDBRANCH   6   7
ENDBRANCH   5   6
ENDBRANCH   4   5
ENDBRANCH   3   4
ENDBRANCH   1   3
BRANCH   2  13
ATOM     13  C   UNL     1    -112.270   8.056 -17.302  1.00  0.00     0.027 C 
BRANCH  13  14
ATOM     14  C   UNL     1    -111.064   8.486 -16.454  1.00  0.00     0.004 C 
BRANCH  14  15
ATOM     15  C   UNL     1    -109.717   7.884 -16.901  1.00  0.00     0.000 C 
BRANCH  15  16
ATOM     16  C   UNL     1    -108.800   8.893 -17.627  1.00  0.00     0.000 C 
BRANCH  16  17
ATOM     17  C   UNL     1    -108.313   8.358 -18.985  1.00  0.00    -0.000 C 
BRANCH  17  18
ATOM     18  C   UNL     1    -108.006   6.852 -18.948  1.00  0.00    -0.000 C 
BRANCH  18  19
ATOM     19  C   UNL     1    -108.515   6.119 -20.198  1.00  0.00    -0.003 C 
ATOM     20  C   UNL     1    -108.908   4.682 -19.871  1.00  0.00     0.004 C 
ENDBRANCH  18  19
ENDBRANCH  17  18
ENDBRANCH  16  17
ENDBRANCH  15  16
ENDBRANCH  14  15
ENDBRANCH  13  14
ENDBRANCH   2  13
TORSDOF 15
ENDMDL
MODEL 3
REMARK VINA RESULT:    -4.294      6.304      9.164
REMARK INTER + INTRA:         -10.882
REMARK INTER:                  -9.193
REMARK INTRA:                  -1.689
REMARK UNBOUND:                -2.823
REMARK SMILES CCCCCCCCC=CCCCCCCCC(=O)[O-]
REMARK SMILES IDX 10 1 9 2 11 3 12 4 13 5 14 6 15 7 16 8 17 9 18 10 19 11
REMARK SMILES IDX 20 12 8 13 7 14 6 15 5 16 4 17 3 18 2 19 1 20
REMARK H PARENT
REMARK Flexibility Score: inf
ROOT
ATOM      1  C   UNL     1    -108.348   3.488 -19.897  1.00  0.00    -0.031 C 
ATOM      2  C   UNL     1    -108.845   4.738 -19.825  1.00  0.00    -0.031 C 
ENDROOT
BRANCH   1   3
ATOM      3  C   UNL     1    -107.125   2.995 -19.165  1.00  0.00     0.027 C 
BRANCH   3   4
ATOM      4  C   UNL     1    -106.006   2.609 -20.140  1.00  0.00     0.004 C 
BRANCH   4   5
ATOM      5  C   UNL     1    -105.397   3.852 -20.797  1.00  0.00     0.000 C 
BRANCH   5   6
ATOM      6  C   UNL     1    -104.654   3.485 -22.090  1.00  0.00     0.000 C 
BRANCH   6   7
ATOM      7  C   UNL     1    -103.272   4.168 -22.185  1.00  0.00     0.000 C 
BRANCH   7   8
ATOM      8  C   UNL     1    -102.720   4.630 -20.823  1.00  0.00     0.006 C 
BRANCH   8   9
ATOM      9  C   UNL     1    -101.537   5.604 -20.926  1.00  0.00     0.053 C 
BRANCH   9  10
ATOM     10  C   UNL     1    -101.093   6.086 -19.578  1.00  0.00     0.041 C 
ATOM     11  O   UNL     1    -101.411   5.448 -18.539  1.00  0.00    -0.550 OA
ATOM     12  O   UNL     1    -100.331   7.242 -19.468  1.00  0.00    -0.550 OA
ENDBRANCH   9  10
ENDBRANCH   8   9
ENDBRANCH   7   8
ENDBRANCH   6   7
ENDBRANCH   5   6
ENDBRANCH   4   5
ENDBRANCH   3   4
ENDBRANCH   1   3
BRANCH   2  13
ATOM     13  C   UNL     1    -108.272   5.861 -18.989  1.00  0.00     0.027 C 
BRANCH  13  14
ATOM     14  C   UNL     1    -108.066   7.140 -19.815  1.00  0.00     0.004 C 
BRANCH  14  15
ATOM     15  C   UNL     1    -109.228   7.484 -20.767  1.00  0.00     0.000 C 
BRANCH  15  16
ATOM     16  C   UNL     1    -109.924   8.822 -20.434  1.00  0.00     0.000 C 
BRANCH  16  17
ATOM     17  C   UNL     1    -111.073   8.640 -19.426  1.00  0.00    -0.000 C 
BRANCH  17  18
ATOM     18  C   UNL     1    -111.918   7.390 -19.716  1.00  0.00    -0.000 C 
BRANCH  18  19
ATOM     19  C   UNL     1    -111.950   6.415 -18.530  1.00  0.00    -0.003 C 
ATOM     20  C   UNL     1    -112.493   5.054 -18.951  1.00  0.00     0.004 C 
ENDBRANCH  18  19
ENDBRANCH  17  18
ENDBRANCH  16  17
ENDBRANCH  15  16
ENDBRANCH  14  15
ENDBRANCH  13  14
ENDBRANCH   2  13
TORSDOF 15
ENDMDL
MODEL 4
REMARK VINA RESULT:    -4.289      4.918      7.768
REMARK INTER + INTRA:         -10.873
REMARK INTER:                  -8.792
REMARK INTRA:                  -2.081
REMARK UNBOUND:                -2.823
REMARK SMILES CCCCCCCCC=CCCCCCCCC(=O)[O-]
REMARK SMILES IDX 10 1 9 2 11 3 12 4 13 5 14 6 15 7 16 8 17 9 18 10 19 11
REMARK SMILES IDX 20 12 8 13 7 14 6 15 5 16 4 17 3 18 2 19 1 20
REMARK H PARENT
REMARK Flexibility Score: inf
ROOT
ATOM      1  C   UNL     1    -109.971   7.228 -17.771  1.00  0.00    -0.031 C 
ATOM      2  C   UNL     1    -110.052   8.230 -16.875  1.00  0.00    -0.031 C 
ENDROOT
BRANCH   1   3
ATOM      3  C   UNL     1    -111.147   6.471 -18.337  1.00  0.00     0.027 C 
BRANCH   3   4
ATOM      4  C   UNL     1    -110.701   5.449 -19.390  1.00  0.00     0.004 C 
BRANCH   4   5
ATOM      5  C   UNL     1    -109.312   5.796 -19.938  1.00  0.00     0.000 C 
BRANCH   5   6
ATOM      6  C   UNL     1    -108.355   4.602 -19.807  1.00  0.00     0.000 C 
BRANCH   6   7
ATOM      7  C   UNL     1    -106.879   5.011 -20.009  1.00  0.00     0.000 C 
BRANCH   7   8
ATOM      8  C   UNL     1    -105.930   3.812 -20.202  1.00  0.00     0.006 C 
BRANCH   8   9
ATOM      9  C   UNL     1    -104.477   4.207 -20.502  1.00  0.00     0.053 C 
BRANCH   9  10
ATOM     10  C   UNL     1    -104.062   3.801 -21.883  1.00  0.00     0.041 C 
ATOM     11  O   UNL     1    -104.823   3.088 -22.591  1.00  0.00    -0.550 OA
ATOM     12  O   UNL     1    -102.834   4.207 -22.389  1.00  0.00    -0.550 OA
ENDBRANCH   9  10
ENDBRANCH   8   9
ENDBRANCH   7   8
ENDBRANCH   6   7
ENDBRANCH   5   6
ENDBRANCH   4   5
ENDBRANCH   3   4
ENDBRANCH   1   3
BRANCH   2  13
ATOM     13  C   UNL     1    -111.334   8.781 -16.290  1.00  0.00     0.027 C 
BRANCH  13  14
ATOM     14  C   UNL     1    -111.354  10.317 -16.303  1.00  0.00     0.004 C 
BRANCH  14  15
ATOM     15  C   UNL     1    -110.296  10.965 -17.218  1.00  0.00     0.000 C 
BRANCH  15  16
ATOM     16  C   UNL     1    -110.896  11.888 -18.301  1.00  0.00     0.000 C 
BRANCH  16  17
ATOM     17  C   UNL     1    -110.487  11.456 -19.720  1.00  0.00    -0.000 C 
BRANCH  17  18
ATOM     18  C   UNL     1    -110.916  10.017 -20.044  1.00  0.00    -0.000 C 
BRANCH  18  19
ATOM     19  C   UNL     1    -109.927   9.307 -20.981  1.00  0.00    -0.003 C 
ATOM     20  C   UNL     1    -108.508   9.358 -20.425  1.00  0.00     0.004 C 
ENDBRANCH  18  19
ENDBRANCH  17  18
ENDBRANCH  16  17
ENDBRANCH  15  16
ENDBRANCH  14  15
ENDBRANCH  13  14
ENDBRANCH   2  13
TORSDOF 15
ENDMDL
MODEL 5
REMARK VINA RESULT:    -4.189      2.210      4.017
REMARK INTER + INTRA:         -10.686
REMARK INTER:                  -8.073
REMARK INTRA:                  -2.613
REMARK UNBOUND:                -2.823
REMARK SMILES CCCCCCCCC=CCCCCCCCC(=O)[O-]
REMARK SMILES IDX 10 1 9 2 11 3 12 4 13 5 14 6 15 7 16 8 17 9 18 10 19 11
REMARK SMILES IDX 20 12 8 13 7 14 6 15 5 16 4 17 3 18 2 19 1 20
REMARK H PARENT
REMARK Flexibility Score: inf
ROOT
ATOM      1  C   UNL     1    -111.867   7.194 -18.103  1.00  0.00    -0.031 C 
ATOM      2  C   UNL     1    -110.986   7.864 -17.335  1.00  0.00    -0.031 C 
ENDROOT
BRANCH   1   3
ATOM      3  C   UNL     1    -111.641   5.827 -18.697  1.00  0.00     0.027 C 
BRANCH   3   4
ATOM      4  C   UNL     1    -112.966   5.147 -19.062  1.00  0.00     0.004 C 
BRANCH   4   5
ATOM      5  C   UNL     1    -114.113   6.163 -19.094  1.00  0.00     0.000 C 
BRANCH   5   6
ATOM      6  C   UNL     1    -114.521   6.488 -20.538  1.00  0.00     0.000 C 
BRANCH   6   7
ATOM      7  C   UNL     1    -114.035   7.886 -20.982  1.00  0.00     0.000 C 
BRANCH   7   8
ATOM      8  C   UNL     1    -115.039   8.627 -21.885  1.00  0.00     0.006 C 
BRANCH   8   9
ATOM      9  C   UNL     1    -114.555   8.824 -23.329  1.00  0.00     0.053 C 
BRANCH   9  10
ATOM     10  C   UNL     1    -115.064   7.747 -24.240  1.00  0.00     0.041 C 
ATOM     11  O   UNL     1    -114.498   7.529 -25.344  1.00  0.00    -0.550 OA
ATOM     12  O   UNL     1    -116.165   6.986 -23.870  1.00  0.00    -0.550 OA
ENDBRANCH   9  10
ENDBRANCH   8   9
ENDBRANCH   7   8
ENDBRANCH   6   7
ENDBRANCH   5   6
ENDBRANCH   4   5
ENDBRANCH   3   4
ENDBRANCH   1   3
BRANCH   2  13
ATOM     13  C   UNL     1    -109.623   7.356 -16.921  1.00  0.00     0.027 C 
BRANCH  13  14
ATOM     14  C   UNL     1    -108.524   7.812 -17.894  1.00  0.00     0.004 C 
BRANCH  14  15
ATOM     15  C   UNL     1    -108.058   6.731 -18.888  1.00  0.00     0.000 C 
BRANCH  15  16
ATOM     16  C   UNL     1    -108.541   6.973 -20.335  1.00  0.00     0.000 C 
BRANCH  16  17
ATOM     17  C   UNL     1    -108.964   8.434 -20.567  1.00  0.00    -0.000 C 
BRANCH  17  18
ATOM     18  C   UNL     1    -110.385   8.550 -21.142  1.00  0.00    -0.000 C 
BRANCH  18  19
ATOM     19  C   UNL     1    -110.994   9.943 -20.923  1.00  0.00    -0.003 C 
ATOM     20  C   UNL     1    -110.354  10.642 -19.728  1.00  0.00     0.004 C 
ENDBRANCH  18  19
ENDBRANCH  17  18
ENDBRANCH  16  17
ENDBRANCH  15  16
ENDBRANCH  14  15
ENDBRANCH  13  14
ENDBRANCH   2  13
TORSDOF 15
ENDMDL
MODEL 6
REMARK VINA RESULT:    -4.182      2.008      2.988
REMARK INTER + INTRA:         -10.673
REMARK INTER:                  -8.062
REMARK INTRA:                  -2.611
REMARK UNBOUND:                -2.823
REMARK SMILES CCCCCCCCC=CCCCCCCCC(=O)[O-]
REMARK SMILES IDX 10 1 9 2 11 3 12 4 13 5 14 6 15 7 16 8 17 9 18 10 19 11
REMARK SMILES IDX 20 12 8 13 7 14 6 15 5 16 4 17 3 18 2 19 1 20
REMARK H PARENT
REMARK Flexibility Score: inf
ROOT
ATOM      1  C   UNL     1    -109.637   8.384 -21.005  1.00  0.00    -0.031 C 
ATOM      2  C   UNL     1    -109.224   7.255 -20.398  1.00  0.00    -0.031 C 
ENDROOT
BRANCH   1   3
ATOM      3  C   UNL     1    -109.049   9.755 -20.784  1.00  0.00     0.027 C 
BRANCH   3   4
ATOM      4  C   UNL     1    -109.898  10.844 -21.449  1.00  0.00     0.004 C 
BRANCH   4   5
ATOM      5  C   UNL     1    -111.206  11.066 -20.682  1.00  0.00     0.000 C 
BRANCH   5   6
ATOM      6  C   UNL     1    -112.417  10.989 -21.622  1.00  0.00     0.000 C 
BRANCH   6   7
ATOM      7  C   UNL     1    -112.933   9.543 -21.794  1.00  0.00     0.000 C 
BRANCH   7   8
ATOM      8  C   UNL     1    -114.465   9.449 -21.924  1.00  0.00     0.006 C 
BRANCH   8   9
ATOM      9  C   UNL     1    -114.972   9.440 -23.373  1.00  0.00     0.053 C 
BRANCH   9  10
ATOM     10  C   UNL     1    -115.034   8.051 -23.933  1.00  0.00     0.041 C 
ATOM     11  O   UNL     1    -115.486   7.104 -23.235  1.00  0.00    -0.550 OA
ATOM     12  O   UNL     1    -114.590   7.800 -25.225  1.00  0.00    -0.550 OA
ENDBRANCH   9  10
ENDBRANCH   8   9
ENDBRANCH   7   8
ENDBRANCH   6   7
ENDBRANCH   5   6
ENDBRANCH   4   5
ENDBRANCH   3   4
ENDBRANCH   1   3
BRANCH   2  13
ATOM     13  C   UNL     1    -108.090   7.160 -19.402  1.00  0.00     0.027 C 
BRANCH  13  14
ATOM     14  C   UNL     1    -108.605   6.994 -17.964  1.00  0.00     0.004 C 
BRANCH  14  15
ATOM     15  C   UNL     1    -108.987   8.312 -17.263  1.00  0.00     0.000 C 
BRANCH  15  16
ATOM     16  C   UNL     1    -110.461   8.365 -16.805  1.00  0.00     0.000 C 
BRANCH  16  17
ATOM     17  C   UNL     1    -111.349   9.131 -17.801  1.00  0.00    -0.000 C 
BRANCH  17  18
ATOM     18  C   UNL     1    -112.381   8.223 -18.488  1.00  0.00    -0.000 C 
BRANCH  18  19
ATOM     19  C   UNL     1    -112.427   6.817 -17.873  1.00  0.00    -0.003 C 
ATOM     20  C   UNL     1    -112.190   5.745 -18.933  1.00  0.00     0.004 C 
ENDBRANCH  18  19
ENDBRANCH  17  18
ENDBRANCH  16  17
ENDBRANCH  15  16
ENDBRANCH  14  15
ENDBRANCH  13  14
ENDBRANCH   2  13
TORSDOF 15
ENDMDL
MODEL 7
REMARK VINA RESULT:    -4.149      4.794      7.776
REMARK INTER + INTRA:         -10.609
REMARK INTER:                  -9.067
REMARK INTRA:                  -1.543
REMARK UNBOUND:                -2.823
REMARK SMILES CCCCCCCCC=CCCCCCCCC(=O)[O-]
REMARK SMILES IDX 10 1 9 2 11 3 12 4 13 5 14 6 15 7 16 8 17 9 18 10 19 11
REMARK SMILES IDX 20 12 8 13 7 14 6 15 5 16 4 17 3 18 2 19 1 20
REMARK H PARENT
REMARK Flexibility Score: inf
ROOT
ATOM      1  C   UNL     1    -109.789   8.697 -17.561  1.00  0.00    -0.031 C 
ATOM      2  C   UNL     1    -109.314   9.562 -18.478  1.00  0.00    -0.031 C 
ENDROOT
BRANCH   1   3
ATOM      3  C   UNL     1    -109.625   7.199 -17.612  1.00  0.00     0.027 C 
BRANCH   3   4
ATOM      4  C   UNL     1    -110.640   6.555 -18.565  1.00  0.00     0.004 C 
BRANCH   4   5
ATOM      5  C   UNL     1    -110.036   5.334 -19.267  1.00  0.00     0.000 C 
BRANCH   5   6
ATOM      6  C   UNL     1    -108.834   5.736 -20.133  1.00  0.00     0.000 C 
BRANCH   6   7
ATOM      7  C   UNL     1    -107.489   5.322 -19.496  1.00  0.00     0.000 C 
BRANCH   7   8
ATOM      8  C   UNL     1    -107.147   3.833 -19.694  1.00  0.00     0.006 C 
BRANCH   8   9
ATOM      9  C   UNL     1    -105.654   3.508 -19.543  1.00  0.00     0.053 C 
BRANCH   9  10
ATOM     10  C   UNL     1    -105.057   3.020 -20.828  1.00  0.00     0.041 C 
ATOM     11  O   UNL     1    -104.734   3.837 -21.730  1.00  0.00    -0.550 OA
ATOM     12  O   UNL     1    -104.858   1.660 -21.030  1.00  0.00    -0.550 OA
ENDBRANCH   9  10
ENDBRANCH   8   9
ENDBRANCH   7   8
ENDBRANCH   6   7
ENDBRANCH   5   6
ENDBRANCH   4   5
ENDBRANCH   3   4
ENDBRANCH   1   3
BRANCH   2  13
ATOM     13  C   UNL     1    -108.521   9.184 -19.710  1.00  0.00     0.027 C 
BRANCH  13  14
ATOM     14  C   UNL     1    -109.225   9.630 -21.001  1.00  0.00     0.004 C 
BRANCH  14  15
ATOM     15  C   UNL     1    -110.464   8.794 -21.379  1.00  0.00     0.000 C 
BRANCH  15  16
ATOM     16  C   UNL     1    -111.802   9.466 -21.001  1.00  0.00     0.000 C 
BRANCH  16  17
ATOM     17  C   UNL     1    -113.008   8.557 -21.291  1.00  0.00    -0.000 C 
BRANCH  17  18
ATOM     18  C   UNL     1    -113.892   9.096 -22.427  1.00  0.00    -0.000 C 
BRANCH  18  19
ATOM     19  C   UNL     1    -114.848   8.030 -22.983  1.00  0.00    -0.003 C 
ATOM     20  C   UNL     1    -114.803   7.992 -24.507  1.00  0.00     0.004 C 
ENDBRANCH  18  19
ENDBRANCH  17  18
ENDBRANCH  16  17
ENDBRANCH  15  16
ENDBRANCH  14  15
ENDBRANCH  13  14
ENDBRANCH   2  13
TORSDOF 15
ENDMDL
MODEL 8
REMARK VINA RESULT:    -4.143      5.257      7.934
REMARK INTER + INTRA:         -10.598
REMARK INTER:                  -8.551
REMARK INTRA:                  -2.047
REMARK UNBOUND:                -2.823
REMARK SMILES CCCCCCCCC=CCCCCCCCC(=O)[O-]
REMARK SMILES IDX 10 1 9 2 11 3 12 4 13 5 14 6 15 7 16 8 17 9 18 10 19 11
REMARK SMILES IDX 20 12 8 13 7 14 6 15 5 16 4 17 3 18 2 19 1 20
REMARK H PARENT
REMARK Flexibility Score: inf
ROOT
ATOM      1  C   UNL     1    -110.100   7.213 -17.355  1.00  0.00    -0.031 C 
ATOM      2  C   UNL     1    -109.662   8.483 -17.255  1.00  0.00    -0.031 C 
ENDROOT
BRANCH   1   3
ATOM      3  C   UNL     1    -110.781   6.621 -18.564  1.00  0.00     0.027 C 
BRANCH   3   4
ATOM      4  C   UNL     1    -109.963   5.469 -19.160  1.00  0.00     0.004 C 
BRANCH   4   5
ATOM      5  C   UNL     1    -109.001   5.979 -20.238  1.00  0.00     0.000 C 
BRANCH   5   6
ATOM      6  C   UNL     1    -107.560   6.034 -19.709  1.00  0.00     0.000 C 
BRANCH   6   7
ATOM      7  C   UNL     1    -107.094   4.675 -19.140  1.00  0.00     0.000 C 
BRANCH   7   8
ATOM      8  C   UNL     1    -106.381   3.787 -20.176  1.00  0.00     0.006 C 
BRANCH   8   9
ATOM      9  C   UNL     1    -104.860   3.993 -20.235  1.00  0.00     0.053 C 
BRANCH   9  10
ATOM     10  C   UNL     1    -104.137   3.087 -19.285  1.00  0.00     0.041 C 
ATOM     11  O   UNL     1    -103.115   3.494 -18.672  1.00  0.00    -0.550 OA
ATOM     12  O   UNL     1    -104.592   1.791 -19.077  1.00  0.00    -0.550 OA
ENDBRANCH   9  10
ENDBRANCH   8   9
ENDBRANCH   7   8
ENDBRANCH   6   7
ENDBRANCH   5   6
ENDBRANCH   4   5
ENDBRANCH   3   4
ENDBRANCH   1   3
BRANCH   2  13
ATOM     13  C   UNL     1    -109.764   9.532 -18.340  1.00  0.00     0.027 C 
BRANCH  13  14
ATOM     14  C   UNL     1    -108.502   9.571 -19.216  1.00  0.00     0.004 C 
BRANCH  14  15
ATOM     15  C   UNL     1    -108.768   9.450 -20.729  1.00  0.00     0.000 C 
BRANCH  15  16
ATOM     16  C   UNL     1    -110.166   9.950 -21.154  1.00  0.00     0.000 C 
BRANCH  16  17
ATOM     17  C   UNL     1    -111.149   8.791 -21.387  1.00  0.00    -0.000 C 
BRANCH  17  18
ATOM     18  C   UNL     1    -112.614   9.254 -21.396  1.00  0.00    -0.000 C 
BRANCH  18  19
ATOM     19  C   UNL     1    -112.754  10.762 -21.139  1.00  0.00    -0.003 C 
ATOM     20  C   UNL     1    -113.436  11.459 -22.311  1.00  0.00     0.004 C 
ENDBRANCH  18  19
ENDBRANCH  17  18
ENDBRANCH  16  17
ENDBRANCH  15  16
ENDBRANCH  14  15
ENDBRANCH  13  14
ENDBRANCH   2  13
TORSDOF 15
ENDMDL
MODEL 9
REMARK VINA RESULT:    -4.142      4.176      6.968
REMARK INTER + INTRA:         -10.598
REMARK INTER:                  -8.001
REMARK INTRA:                  -2.596
REMARK UNBOUND:                -2.823
REMARK SMILES CCCCCCCCC=CCCCCCCCC(=O)[O-]
REMARK SMILES IDX 10 1 9 2 11 3 12 4 13 5 14 6 15 7 16 8 17 9 18 10 19 11
REMARK SMILES IDX 20 12 8 13 7 14 6 15 5 16 4 17 3 18 2 19 1 20
REMARK H PARENT
REMARK Flexibility Score: inf
ROOT
ATOM      1  C   UNL     1    -110.978   7.628 -16.895  1.00  0.00    -0.031 C 
ATOM      2  C   UNL     1    -109.865   8.367 -16.721  1.00  0.00    -0.031 C 
ENDROOT
BRANCH   1   3
ATOM      3  C   UNL     1    -111.870   7.672 -18.110  1.00  0.00     0.027 C 
BRANCH   3   4
ATOM      4  C   UNL     1    -111.958   6.300 -18.791  1.00  0.00     0.004 C 
BRANCH   4   5
ATOM      5  C   UNL     1    -110.567   5.791 -19.181  1.00  0.00     0.000 C 
BRANCH   5   6
ATOM      6  C   UNL     1    -109.928   6.694 -20.245  1.00  0.00     0.000 C 
BRANCH   6   7
ATOM      7  C   UNL     1    -108.393   6.529 -20.308  1.00  0.00     0.000 C 
BRANCH   7   8
ATOM      8  C   UNL     1    -107.820   5.666 -19.168  1.00  0.00     0.006 C 
BRANCH   8   9
ATOM      9  C   UNL     1    -106.771   4.642 -19.624  1.00  0.00     0.053 C 
BRANCH   9  10
ATOM     10  C   UNL     1    -107.300   3.240 -19.569  1.00  0.00     0.041 C 
ATOM     11  O   UNL     1    -108.541   3.029 -19.559  1.00  0.00    -0.550 OA
ATOM     12  O   UNL     1    -106.420   2.166 -19.525  1.00  0.00    -0.550 OA
ENDBRANCH   9  10
ENDBRANCH   8   9
ENDBRANCH   7   8
ENDBRANCH   6   7
ENDBRANCH   5   6
ENDBRANCH   4   5
ENDBRANCH   3   4
ENDBRANCH   1   3
BRANCH   2  13
ATOM     13  C   UNL     1    -109.308   9.359 -17.719  1.00  0.00     0.027 C 
BRANCH  13  14
ATOM     14  C   UNL     1    -110.045  10.706 -17.657  1.00  0.00     0.004 C 
BRANCH  14  15
ATOM     15  C   UNL     1    -110.452  11.278 -19.028  1.00  0.00     0.000 C 
BRANCH  15  16
ATOM     16  C   UNL     1    -109.809  10.540 -20.222  1.00  0.00     0.000 C 
BRANCH  16  17
ATOM     17  C   UNL     1    -110.847  10.149 -21.288  1.00  0.00    -0.000 C 
BRANCH  17  18
ATOM     18  C   UNL     1    -112.221  10.787 -21.034  1.00  0.00    -0.000 C 
BRANCH  18  19
ATOM     19  C   UNL     1    -113.354  10.049 -21.762  1.00  0.00    -0.003 C 
ATOM     20  C   UNL     1    -113.287   8.548 -21.505  1.00  0.00     0.004 C 
ENDBRANCH  18  19
ENDBRANCH  17  18
ENDBRANCH  16  17
ENDBRANCH  15  16
ENDBRANCH  14  15
ENDBRANCH  13  14
ENDBRANCH   2  13
TORSDOF 15
ENDMDL
