MODEL 1
REMARK VINA RESULT:    13.876      0.000      0.000
REMARK INTER + INTRA:          29.299
REMARK INTER:                  30.100
REMARK INTRA:                  -0.801
REMARK UNBOUND:                -0.801
REMARK SMILES CCCCCCCCCCCCCCCCCCCCCC(=O)[O-]
REMARK SMILES IDX 12 1 11 2 10 3 9 4 8 5 7 6 6 7 5 8 4 9 3 10 2 11 1 12 13 13
REMARK SMILES IDX 14 14 15 15 16 16 17 17 18 18 19 19 20 20 21 21 22 22 23 23
REMARK SMILES IDX 24 24
REMARK H PARENT
REMARK Flexibility Score: inf
ROOT
ATOM      1  C   UNL     1     -14.300  30.047 -19.781  1.00  0.00     0.000 C 
ENDROOT
BRANCH   1   2
ATOM      2  C   UNL     1     -15.643  29.297 -19.888  1.00  0.00     0.000 C 
BRANCH   2   3
ATOM      3  C   UNL     1     -15.845  28.163 -18.866  1.00  0.00     0.000 C 
BRANCH   3   4
ATOM      4  C   UNL     1     -17.275  27.596 -18.876  1.00  0.00    -0.000 C 
BRANCH   4   5
ATOM      5  C   UNL     1     -17.315  26.073 -18.655  1.00  0.00    -0.000 C 
BRANCH   5   6
ATOM      6  C   UNL     1     -16.204  25.279 -19.366  1.00  0.00    -0.000 C 
BRANCH   6   7
ATOM      7  C   UNL     1     -16.186  23.792 -18.975  1.00  0.00    -0.000 C 
BRANCH   7   8
ATOM      8  C   UNL     1     -15.890  22.876 -20.181  1.00  0.00    -0.000 C 
BRANCH   8   9
ATOM      9  C   UNL     1     -15.591  23.645 -21.480  1.00  0.00    -0.000 C 
BRANCH   9  10
ATOM     10  C   UNL     1     -14.373  23.091 -22.235  1.00  0.00    -0.000 C 
BRANCH  10  11
ATOM     11  C   UNL     1     -13.580  24.190 -22.959  1.00  0.00    -0.003 C 
ATOM     12  C   UNL     1     -12.101  23.837 -23.125  1.00  0.00     0.004 C 
ENDBRANCH  10  11
ENDBRANCH   9  10
ENDBRANCH   8   9
ENDBRANCH   7   8
ENDBRANCH   6   7
ENDBRANCH   5   6
ENDBRANCH   4   5
ENDBRANCH   3   4
ENDBRANCH   2   3
ENDBRANCH   1   2
BRANCH   1  13
ATOM     13  C   UNL     1     -14.181  31.307 -20.661  1.00  0.00     0.000 C 
BRANCH  13  14
ATOM     14  C   UNL     1     -12.767  31.591 -21.205  1.00  0.00     0.000 C 
BRANCH  14  15
ATOM     15  C   UNL     1     -12.643  32.867 -22.056  1.00  0.00     0.000 C 
BRANCH  15  16
ATOM     16  C   UNL     1     -11.669  33.893 -21.456  1.00  0.00     0.000 C 
BRANCH  16  17
ATOM     17  C   UNL     1     -10.490  33.190 -20.766  1.00  0.00     0.000 C 
BRANCH  17  18
ATOM     18  C   UNL     1      -9.629  34.156 -19.937  1.00  0.00     0.000 C 
BRANCH  18  19
ATOM     19  C   UNL     1      -9.404  33.659 -18.498  1.00  0.00     0.000 C 
BRANCH  19  20
ATOM     20  C   UNL     1      -7.916  33.631 -18.106  1.00  0.00     0.006 C 
BRANCH  20  21
ATOM     21  C   UNL     1      -7.565  32.582 -17.039  1.00  0.00     0.053 C 
BRANCH  21  22
ATOM     22  C   UNL     1      -8.370  32.761 -15.788  1.00  0.00     0.041 C 
ATOM     23  O   UNL     1      -8.684  31.762 -15.090  1.00  0.00    -0.550 OA
ATOM     24  O   UNL     1      -8.754  34.033 -15.383  1.00  0.00    -0.550 OA
ENDBRANCH  21  22
ENDBRANCH  20  21
ENDBRANCH  19  20
ENDBRANCH  18  19
ENDBRANCH  17  18
ENDBRANCH  16  17
ENDBRANCH  15  16
ENDBRANCH  14  15
ENDBRANCH  13  14
ENDBRANCH   1  13
TORSDOF 20
ENDMDL
MODEL 2
REMARK VINA RESULT:    13.926      1.066      2.512
REMARK INTER + INTRA:          29.408
REMARK INTER:                  29.143
REMARK INTRA:                   0.265
REMARK UNBOUND:                -0.801
REMARK SMILES CCCCCCCCCCCCCCCCCCCCCC(=O)[O-]
REMARK SMILES IDX 12 1 11 2 10 3 9 4 8 5 7 6 6 7 5 8 4 9 3 10 2 11 1 12 13 13
REMARK SMILES IDX 14 14 15 15 16 16 17 17 18 18 19 19 20 20 21 21 22 22 23 23
REMARK SMILES IDX 24 24
REMARK H PARENT
REMARK Flexibility Score: inf
ROOT
ATOM      1  C   UNL     1     -13.130  31.900 -21.617  1.00  0.00     0.000 C 
ENDROOT
BRANCH   1   2
ATOM      2  C   UNL     1     -13.425  30.876 -20.502  1.00  0.00     0.000 C 
BRANCH   2   3
ATOM      3  C   UNL     1     -14.892  30.422 -20.397  1.00  0.00     0.000 C 
BRANCH   3   4
ATOM      4  C   UNL     1     -15.088  29.247 -19.425  1.00  0.00    -0.000 C 
BRANCH   4   5
ATOM      5  C   UNL     1     -16.289  28.359 -19.795  1.00  0.00    -0.000 C 
BRANCH   5   6
ATOM      6  C   UNL     1     -16.790  27.434 -18.671  1.00  0.00    -0.000 C 
BRANCH   6   7
ATOM      7  C   UNL     1     -17.235  26.053 -19.183  1.00  0.00    -0.000 C 
BRANCH   7   8
ATOM      8  C   UNL     1     -16.108  25.004 -19.085  1.00  0.00    -0.000 C 
BRANCH   8   9
ATOM      9  C   UNL     1     -16.529  23.603 -19.565  1.00  0.00    -0.000 C 
BRANCH   9  10
ATOM     10  C   UNL     1     -15.420  22.883 -20.348  1.00  0.00    -0.000 C 
BRANCH  10  11
ATOM     11  C   UNL     1     -15.023  23.632 -21.630  1.00  0.00    -0.003 C 
ATOM     12  C   UNL     1     -13.742  23.084 -22.259  1.00  0.00     0.004 C 
ENDBRANCH  10  11
ENDBRANCH   9  10
ENDBRANCH   8   9
ENDBRANCH   7   8
ENDBRANCH   6   7
ENDBRANCH   5   6
ENDBRANCH   4   5
ENDBRANCH   3   4
ENDBRANCH   2   3
ENDBRANCH   1   2
BRANCH   1  13
ATOM     13  C   UNL     1     -12.693  33.295 -21.128  1.00  0.00     0.000 C 
BRANCH  13  14
ATOM     14  C   UNL     1     -11.261  33.706 -21.526  1.00  0.00     0.000 C 
BRANCH  14  15
ATOM     15  C   UNL     1     -10.154  33.190 -20.591  1.00  0.00     0.000 C 
BRANCH  15  16
ATOM     16  C   UNL     1      -9.527  34.303 -19.738  1.00  0.00     0.000 C 
BRANCH  16  17
ATOM     17  C   UNL     1      -8.618  33.712 -18.650  1.00  0.00     0.000 C 
BRANCH  17  18
ATOM     18  C   UNL     1      -7.460  34.650 -18.273  1.00  0.00     0.000 C 
BRANCH  18  19
ATOM     19  C   UNL     1      -6.776  34.243 -16.956  1.00  0.00     0.000 C 
BRANCH  19  20
ATOM     20  C   UNL     1      -7.687  34.435 -15.730  1.00  0.00     0.006 C 
BRANCH  20  21
ATOM     21  C   UNL     1      -8.767  33.353 -15.572  1.00  0.00     0.053 C 
BRANCH  21  22
ATOM     22  C   UNL     1      -8.200  31.971 -15.686  1.00  0.00     0.041 C 
ATOM     23  O   UNL     1      -8.037  31.267 -14.656  1.00  0.00    -0.550 OA
ATOM     24  O   UNL     1      -7.873  31.454 -16.933  1.00  0.00    -0.550 OA
ENDBRANCH  21  22
ENDBRANCH  20  21
ENDBRANCH  19  20
ENDBRANCH  18  19
ENDBRANCH  17  18
ENDBRANCH  16  17
ENDBRANCH  15  16
ENDBRANCH  14  15
ENDBRANCH  13  14
ENDBRANCH   1  13
TORSDOF 20
ENDMDL
MODEL 3
REMARK VINA RESULT:    14.253      0.888      1.421
REMARK INTER + INTRA:          30.117
REMARK INTER:                  30.737
REMARK INTRA:                  -0.620
REMARK UNBOUND:                -0.801
REMARK SMILES CCCCCCCCCCCCCCCCCCCCCC(=O)[O-]
REMARK SMILES IDX 12 1 11 2 10 3 9 4 8 5 7 6 6 7 5 8 4 9 3 10 2 11 1 12 13 13
REMARK SMILES IDX 14 14 15 15 16 16 17 17 18 18 19 19 20 20 21 21 22 22 23 23
REMARK SMILES IDX 24 24
REMARK H PARENT
REMARK Flexibility Score: inf
ROOT
ATOM      1  C   UNL     1     -13.305  30.314 -20.721  1.00  0.00     0.000 C 
ENDROOT
BRANCH   1   2
ATOM      2  C   UNL     1     -14.471  30.145 -19.726  1.00  0.00     0.000 C 
BRANCH   2   3
ATOM      3  C   UNL     1     -15.536  29.111 -20.131  1.00  0.00     0.000 C 
BRANCH   3   4
ATOM      4  C   UNL     1     -16.019  28.253 -18.949  1.00  0.00    -0.000 C 
BRANCH   4   5
ATOM      5  C   UNL     1     -17.232  27.375 -19.304  1.00  0.00    -0.000 C 
BRANCH   5   6
ATOM      6  C   UNL     1     -16.909  25.898 -19.592  1.00  0.00    -0.000 C 
BRANCH   6   7
ATOM      7  C   UNL     1     -16.366  25.151 -18.361  1.00  0.00    -0.000 C 
BRANCH   7   8
ATOM      8  C   UNL     1     -16.262  23.631 -18.600  1.00  0.00    -0.000 C 
BRANCH   8   9
ATOM      9  C   UNL     1     -16.176  23.246 -20.088  1.00  0.00    -0.000 C 
BRANCH   9  10
ATOM     10  C   UNL     1     -14.875  23.723 -20.753  1.00  0.00    -0.000 C 
BRANCH  10  11
ATOM     11  C   UNL     1     -14.544  22.935 -22.030  1.00  0.00    -0.003 C 
ATOM     12  C   UNL     1     -13.573  23.680 -22.947  1.00  0.00     0.004 C 
ENDBRANCH  10  11
ENDBRANCH   9  10
ENDBRANCH   8   9
ENDBRANCH   7   8
ENDBRANCH   6   7
ENDBRANCH   5   6
ENDBRANCH   4   5
ENDBRANCH   3   4
ENDBRANCH   2   3
ENDBRANCH   1   2
BRANCH   1  13
ATOM     13  C   UNL     1     -13.466  31.468 -21.730  1.00  0.00     0.000 C 
BRANCH  13  14
ATOM     14  C   UNL     1     -12.916  32.829 -21.258  1.00  0.00     0.000 C 
BRANCH  14  15
ATOM     15  C   UNL     1     -11.994  33.540 -22.263  1.00  0.00     0.000 C 
BRANCH  15  16
ATOM     16  C   UNL     1     -10.523  33.551 -21.821  1.00  0.00     0.000 C 
BRANCH  16  17
ATOM     17  C   UNL     1     -10.393  34.014 -20.362  1.00  0.00     0.000 C 
BRANCH  17  18
ATOM     18  C   UNL     1      -9.311  33.241 -19.590  1.00  0.00     0.000 C 
BRANCH  18  19
ATOM     19  C   UNL     1      -8.651  34.091 -18.490  1.00  0.00     0.000 C 
BRANCH  19  20
ATOM     20  C   UNL     1      -7.729  33.265 -17.575  1.00  0.00     0.006 C 
BRANCH  20  21
ATOM     21  C   UNL     1      -7.610  33.809 -16.143  1.00  0.00     0.053 C 
BRANCH  21  22
ATOM     22  C   UNL     1      -8.126  32.836 -15.127  1.00  0.00     0.041 C 
ATOM     23  O   UNL     1      -7.862  32.997 -13.907  1.00  0.00    -0.550 OA
ATOM     24  O   UNL     1      -8.916  31.766 -15.526  1.00  0.00    -0.550 OA
ENDBRANCH  21  22
ENDBRANCH  20  21
ENDBRANCH  19  20
ENDBRANCH  18  19
ENDBRANCH  17  18
ENDBRANCH  16  17
ENDBRANCH  15  16
ENDBRANCH  14  15
ENDBRANCH  13  14
ENDBRANCH   1  13
TORSDOF 20
ENDMDL
MODEL 4
REMARK VINA RESULT:    14.898      3.797     10.737
REMARK INTER + INTRA:          31.516
REMARK INTER:                  31.221
REMARK INTRA:                   0.295
REMARK UNBOUND:                -0.801
REMARK SMILES CCCCCCCCCCCCCCCCCCCCCC(=O)[O-]
REMARK SMILES IDX 12 1 11 2 10 3 9 4 8 5 7 6 6 7 5 8 4 9 3 10 2 11 1 12 13 13
REMARK SMILES IDX 14 14 15 15 16 16 17 17 18 18 19 19 20 20 21 21 22 22 23 23
REMARK SMILES IDX 24 24
REMARK H PARENT
REMARK Flexibility Score: inf
ROOT
ATOM      1  C   UNL     1     -13.599  32.222 -20.520  1.00  0.00     0.000 C 
ENDROOT
BRANCH   1   2
ATOM      2  C   UNL     1     -12.543  32.732 -21.521  1.00  0.00     0.000 C 
BRANCH   2   3
ATOM      3  C   UNL     1     -11.644  33.870 -21.004  1.00  0.00     0.000 C 
BRANCH   3   4
ATOM      4  C   UNL     1     -10.213  33.405 -20.685  1.00  0.00    -0.000 C 
BRANCH   4   5
ATOM      5  C   UNL     1      -9.504  34.312 -19.664  1.00  0.00    -0.000 C 
BRANCH   5   6
ATOM      6  C   UNL     1      -8.527  33.593 -18.716  1.00  0.00    -0.000 C 
BRANCH   6   7
ATOM      7  C   UNL     1      -7.316  34.460 -18.330  1.00  0.00    -0.000 C 
BRANCH   7   8
ATOM      8  C   UNL     1      -7.025  34.414 -16.816  1.00  0.00    -0.000 C 
BRANCH   8   9
ATOM      9  C   UNL     1      -8.205  33.890 -15.978  1.00  0.00    -0.000 C 
BRANCH   9  10
ATOM     10  C   UNL     1      -8.662  32.486 -16.403  1.00  0.00    -0.000 C 
BRANCH  10  11
ATOM     11  C   UNL     1      -8.332  31.415 -15.352  1.00  0.00    -0.003 C 
ATOM     12  C   UNL     1      -8.023  32.012 -13.979  1.00  0.00     0.004 C 
ENDBRANCH  10  11
ENDBRANCH   9  10
ENDBRANCH   8   9
ENDBRANCH   7   8
ENDBRANCH   6   7
ENDBRANCH   5   6
ENDBRANCH   4   5
ENDBRANCH   3   4
ENDBRANCH   2   3
ENDBRANCH   1   2
BRANCH   1  13
ATOM     13  C   UNL     1     -14.187  30.833 -20.838  1.00  0.00     0.000 C 
BRANCH  13  14
ATOM     14  C   UNL     1     -14.768  30.078 -19.627  1.00  0.00     0.000 C 
BRANCH  14  15
ATOM     15  C   UNL     1     -15.153  28.613 -19.898  1.00  0.00     0.000 C 
BRANCH  15  16
ATOM     16  C   UNL     1     -16.411  28.174 -19.133  1.00  0.00     0.000 C 
BRANCH  16  17
ATOM     17  C   UNL     1     -16.834  26.756 -19.542  1.00  0.00     0.000 C 
BRANCH  17  18
ATOM     18  C   UNL     1     -16.854  25.779 -18.356  1.00  0.00     0.000 C 
BRANCH  18  19
ATOM     19  C   UNL     1     -16.186  24.433 -18.689  1.00  0.00     0.000 C 
BRANCH  19  20
ATOM     20  C   UNL     1     -16.270  24.083 -20.185  1.00  0.00     0.006 C 
BRANCH  20  21
ATOM     21  C   UNL     1     -15.410  22.879 -20.600  1.00  0.00     0.053 C 
BRANCH  21  22
ATOM     22  C   UNL     1     -14.443  23.227 -21.690  1.00  0.00     0.041 C 
ATOM     23  O   UNL     1     -13.224  22.937 -21.571  1.00  0.00    -0.550 OA
ATOM     24  O   UNL     1     -14.893  23.852 -22.847  1.00  0.00    -0.550 OA
ENDBRANCH  21  22
ENDBRANCH  20  21
ENDBRANCH  19  20
ENDBRANCH  18  19
ENDBRANCH  17  18
ENDBRANCH  16  17
ENDBRANCH  15  16
ENDBRANCH  14  15
ENDBRANCH  13  14
ENDBRANCH   1  13
TORSDOF 20
ENDMDL
MODEL 5
REMARK VINA RESULT:    15.135      3.777     10.862
REMARK INTER + INTRA:          32.030
REMARK INTER:                  32.428
REMARK INTRA:                  -0.398
REMARK UNBOUND:                -0.801
REMARK SMILES CCCCCCCCCCCCCCCCCCCCCC(=O)[O-]
REMARK SMILES IDX 12 1 11 2 10 3 9 4 8 5 7 6 6 7 5 8 4 9 3 10 2 11 1 12 13 13
REMARK SMILES IDX 14 14 15 15 16 16 17 17 18 18 19 19 20 20 21 21 22 22 23 23
REMARK SMILES IDX 24 24
REMARK H PARENT
REMARK Flexibility Score: inf
ROOT
ATOM      1  C   UNL     1     -13.367  32.337 -20.717  1.00  0.00     0.000 C 
ENDROOT
BRANCH   1   2
ATOM      2  C   UNL     1     -12.341  32.958 -21.686  1.00  0.00     0.000 C 
BRANCH   2   3
ATOM      3  C   UNL     1     -11.236  33.800 -21.022  1.00  0.00     0.000 C 
BRANCH   3   4
ATOM      4  C   UNL     1      -9.916  33.029 -20.852  1.00  0.00    -0.000 C 
BRANCH   4   5
ATOM      5  C   UNL     1      -9.729  32.469 -19.431  1.00  0.00    -0.000 C 
BRANCH   5   6
ATOM      6  C   UNL     1      -9.044  33.422 -18.436  1.00  0.00    -0.000 C 
BRANCH   6   7
ATOM      7  C   UNL     1      -7.944  32.737 -17.608  1.00  0.00    -0.000 C 
BRANCH   7   8
ATOM      8  C   UNL     1      -8.162  32.910 -16.091  1.00  0.00    -0.000 C 
BRANCH   8   9
ATOM      9  C   UNL     1      -7.660  34.260 -15.547  1.00  0.00    -0.000 C 
BRANCH   9  10
ATOM     10  C   UNL     1      -6.199  34.549 -15.925  1.00  0.00    -0.000 C 
BRANCH  10  11
ATOM     11  C   UNL     1      -6.047  34.993 -17.388  1.00  0.00    -0.003 C 
ATOM     12  C   UNL     1      -5.969  36.513 -17.538  1.00  0.00     0.004 C 
ENDBRANCH  10  11
ENDBRANCH   9  10
ENDBRANCH   8   9
ENDBRANCH   7   8
ENDBRANCH   6   7
ENDBRANCH   5   6
ENDBRANCH   4   5
ENDBRANCH   3   4
ENDBRANCH   2   3
ENDBRANCH   1   2
BRANCH   1  13
ATOM     13  C   UNL     1     -13.621  30.829 -20.909  1.00  0.00     0.000 C 
BRANCH  13  14
ATOM     14  C   UNL     1     -14.995  30.331 -20.418  1.00  0.00     0.000 C 
BRANCH  14  15
ATOM     15  C   UNL     1     -14.987  28.935 -19.771  1.00  0.00     0.000 C 
BRANCH  15  16
ATOM     16  C   UNL     1     -16.367  28.512 -19.246  1.00  0.00     0.000 C 
BRANCH  16  17
ATOM     17  C   UNL     1     -16.638  27.031 -19.549  1.00  0.00     0.000 C 
BRANCH  17  18
ATOM     18  C   UNL     1     -16.752  26.178 -18.275  1.00  0.00     0.000 C 
BRANCH  18  19
ATOM     19  C   UNL     1     -16.908  24.678 -18.582  1.00  0.00     0.000 C 
BRANCH  19  20
ATOM     20  C   UNL     1     -15.629  24.057 -19.171  1.00  0.00     0.006 C 
BRANCH  20  21
ATOM     21  C   UNL     1     -15.844  23.316 -20.501  1.00  0.00     0.053 C 
BRANCH  21  22
ATOM     22  C   UNL     1     -14.789  23.653 -21.509  1.00  0.00     0.041 C 
ATOM     23  O   UNL     1     -14.929  24.654 -22.259  1.00  0.00    -0.550 OA
ATOM     24  O   UNL     1     -13.642  22.876 -21.605  1.00  0.00    -0.550 OA
ENDBRANCH  21  22
ENDBRANCH  20  21
ENDBRANCH  19  20
ENDBRANCH  18  19
ENDBRANCH  17  18
ENDBRANCH  16  17
ENDBRANCH  15  16
ENDBRANCH  14  15
ENDBRANCH  13  14
ENDBRANCH   1  13
TORSDOF 20
ENDMDL
MODEL 6
REMARK VINA RESULT:    15.167      3.653     10.608
REMARK INTER + INTRA:          32.099
REMARK INTER:                  33.104
REMARK INTRA:                  -1.005
REMARK UNBOUND:                -0.801
REMARK SMILES CCCCCCCCCCCCCCCCCCCCCC(=O)[O-]
REMARK SMILES IDX 12 1 11 2 10 3 9 4 8 5 7 6 6 7 5 8 4 9 3 10 2 11 1 12 13 13
REMARK SMILES IDX 14 14 15 15 16 16 17 17 18 18 19 19 20 20 21 21 22 22 23 23
REMARK SMILES IDX 24 24
REMARK H PARENT
REMARK Flexibility Score: inf
ROOT
ATOM      1  C   UNL     1     -13.665  30.392 -20.314  1.00  0.00     0.000 C 
ENDROOT
BRANCH   1   2
ATOM      2  C   UNL     1     -13.528  31.887 -20.665  1.00  0.00     0.000 C 
BRANCH   2   3
ATOM      3  C   UNL     1     -12.734  32.190 -21.948  1.00  0.00     0.000 C 
BRANCH   3   4
ATOM      4  C   UNL     1     -11.787  33.393 -21.797  1.00  0.00    -0.000 C 
BRANCH   4   5
ATOM      5  C   UNL     1     -10.572  33.089 -20.903  1.00  0.00    -0.000 C 
BRANCH   5   6
ATOM      6  C   UNL     1      -9.978  34.305 -20.170  1.00  0.00    -0.000 C 
BRANCH   6   7
ATOM      7  C   UNL     1      -9.613  34.004 -18.707  1.00  0.00    -0.000 C 
BRANCH   7   8
ATOM      8  C   UNL     1      -8.130  33.611 -18.544  1.00  0.00    -0.000 C 
BRANCH   8   9
ATOM      9  C   UNL     1      -7.569  33.894 -17.139  1.00  0.00    -0.000 C 
BRANCH   9  10
ATOM     10  C   UNL     1      -8.635  33.787 -16.038  1.00  0.00    -0.000 C 
BRANCH  10  11
ATOM     11  C   UNL     1      -8.063  33.260 -14.713  1.00  0.00    -0.003 C 
ATOM     12  C   UNL     1      -8.309  31.763 -14.519  1.00  0.00     0.004 C 
ENDBRANCH  10  11
ENDBRANCH   9  10
ENDBRANCH   8   9
ENDBRANCH   7   8
ENDBRANCH   6   7
ENDBRANCH   5   6
ENDBRANCH   4   5
ENDBRANCH   3   4
ENDBRANCH   2   3
ENDBRANCH   1   2
BRANCH   1  13
ATOM     13  C   UNL     1     -15.106  29.843 -20.333  1.00  0.00     0.000 C 
BRANCH  13  14
ATOM     14  C   UNL     1     -15.446  28.864 -19.192  1.00  0.00     0.000 C 
BRANCH  14  15
ATOM     15  C   UNL     1     -16.049  27.523 -19.646  1.00  0.00     0.000 C 
BRANCH  15  16
ATOM     16  C   UNL     1     -17.326  27.152 -18.876  1.00  0.00     0.000 C 
BRANCH  16  17
ATOM     17  C   UNL     1     -17.173  25.788 -18.188  1.00  0.00     0.000 C 
BRANCH  17  18
ATOM     18  C   UNL     1     -15.896  25.048 -18.616  1.00  0.00     0.000 C 
BRANCH  18  19
ATOM     19  C   UNL     1     -16.195  23.777 -19.430  1.00  0.00     0.000 C 
BRANCH  19  20
ATOM     20  C   UNL     1     -16.046  23.995 -20.947  1.00  0.00     0.006 C 
BRANCH  20  21
ATOM     21  C   UNL     1     -15.172  22.945 -21.652  1.00  0.00     0.053 C 
BRANCH  21  22
ATOM     22  C   UNL     1     -13.842  23.502 -22.059  1.00  0.00     0.041 C 
ATOM     23  O   UNL     1     -12.784  22.886 -21.769  1.00  0.00    -0.550 OA
ATOM     24  O   UNL     1     -13.774  24.688 -22.778  1.00  0.00    -0.550 OA
ENDBRANCH  21  22
ENDBRANCH  20  21
ENDBRANCH  19  20
ENDBRANCH  18  19
ENDBRANCH  17  18
ENDBRANCH  16  17
ENDBRANCH  15  16
ENDBRANCH  14  15
ENDBRANCH  13  14
ENDBRANCH   1  13
TORSDOF 20
ENDMDL
MODEL 7
REMARK VINA RESULT:    15.263      1.717      3.118
REMARK INTER + INTRA:          32.307
REMARK INTER:                  33.102
REMARK INTRA:                  -0.795
REMARK UNBOUND:                -0.801
REMARK SMILES CCCCCCCCCCCCCCCCCCCCCC(=O)[O-]
REMARK SMILES IDX 12 1 11 2 10 3 9 4 8 5 7 6 6 7 5 8 4 9 3 10 2 11 1 12 13 13
REMARK SMILES IDX 14 14 15 15 16 16 17 17 18 18 19 19 20 20 21 21 22 22 23 23
REMARK SMILES IDX 24 24
REMARK H PARENT
REMARK Flexibility Score: inf
ROOT
ATOM      1  C   UNL     1     -13.113  32.336 -21.448  1.00  0.00     0.000 C 
ENDROOT
BRANCH   1   2
ATOM      2  C   UNL     1     -13.301  30.977 -20.744  1.00  0.00     0.000 C 
BRANCH   2   3
ATOM      3  C   UNL     1     -14.760  30.588 -20.447  1.00  0.00     0.000 C 
BRANCH   3   4
ATOM      4  C   UNL     1     -14.878  29.376 -19.507  1.00  0.00    -0.000 C 
BRANCH   4   5
ATOM      5  C   UNL     1     -16.248  28.681 -19.596  1.00  0.00    -0.000 C 
BRANCH   5   6
ATOM      6  C   UNL     1     -16.426  27.464 -18.671  1.00  0.00    -0.000 C 
BRANCH   6   7
ATOM      7  C   UNL     1     -16.835  26.189 -19.427  1.00  0.00    -0.000 C 
BRANCH   7   8
ATOM      8  C   UNL     1     -16.344  24.908 -18.720  1.00  0.00    -0.000 C 
BRANCH   8   9
ATOM      9  C   UNL     1     -16.368  23.660 -19.621  1.00  0.00    -0.000 C 
BRANCH   9  10
ATOM     10  C   UNL     1     -15.002  23.356 -20.255  1.00  0.00    -0.000 C 
BRANCH  10  11
ATOM     11  C   UNL     1     -15.061  23.311 -21.789  1.00  0.00    -0.003 C 
ATOM     12  C   UNL     1     -13.689  23.087 -22.426  1.00  0.00     0.004 C 
ENDBRANCH  10  11
ENDBRANCH   9  10
ENDBRANCH   8   9
ENDBRANCH   7   8
ENDBRANCH   6   7
ENDBRANCH   5   6
ENDBRANCH   4   5
ENDBRANCH   3   4
ENDBRANCH   2   3
ENDBRANCH   1   2
BRANCH   1  13
ATOM     13  C   UNL     1     -12.182  33.327 -20.723  1.00  0.00     0.000 C 
BRANCH  13  14
ATOM     14  C   UNL     1     -10.788  33.499 -21.361  1.00  0.00     0.000 C 
BRANCH  14  15
ATOM     15  C   UNL     1      -9.634  33.675 -20.359  1.00  0.00     0.000 C 
BRANCH  15  16
ATOM     16  C   UNL     1      -9.868  32.924 -19.040  1.00  0.00     0.000 C 
BRANCH  16  17
ATOM     17  C   UNL     1      -9.087  33.578 -17.891  1.00  0.00     0.000 C 
BRANCH  17  18
ATOM     18  C   UNL     1      -8.064  32.626 -17.252  1.00  0.00     0.000 C 
BRANCH  18  19
ATOM     19  C   UNL     1      -7.683  33.042 -15.821  1.00  0.00     0.000 C 
BRANCH  19  20
ATOM     20  C   UNL     1      -7.150  34.484 -15.745  1.00  0.00     0.006 C 
BRANCH  20  21
ATOM     21  C   UNL     1      -5.885  34.733 -16.582  1.00  0.00     0.053 C 
BRANCH  21  22
ATOM     22  C   UNL     1      -6.177  35.518 -17.824  1.00  0.00     0.041 C 
ATOM     23  O   UNL     1      -5.878  35.050 -18.953  1.00  0.00    -0.550 OA
ATOM     24  O   UNL     1      -6.801  36.757 -17.734  1.00  0.00    -0.550 OA
ENDBRANCH  21  22
ENDBRANCH  20  21
ENDBRANCH  19  20
ENDBRANCH  18  19
ENDBRANCH  17  18
ENDBRANCH  16  17
ENDBRANCH  15  16
ENDBRANCH  14  15
ENDBRANCH  13  14
ENDBRANCH   1  13
TORSDOF 20
ENDMDL
MODEL 8
REMARK VINA RESULT:    15.369      1.697      2.314
REMARK INTER + INTRA:          32.537
REMARK INTER:                  33.391
REMARK INTRA:                  -0.854
REMARK UNBOUND:                -0.801
REMARK SMILES CCCCCCCCCCCCCCCCCCCCCC(=O)[O-]
REMARK SMILES IDX 12 1 11 2 10 3 9 4 8 5 7 6 6 7 5 8 4 9 3 10 2 11 1 12 13 13
REMARK SMILES IDX 14 14 15 15 16 16 17 17 18 18 19 19 20 20 21 21 22 22 23 23
REMARK SMILES IDX 24 24
REMARK H PARENT
REMARK Flexibility Score: inf
ROOT
ATOM      1  C   UNL     1     -14.331  30.780 -20.526  1.00  0.00     0.000 C 
ENDROOT
BRANCH   1   2
ATOM      2  C   UNL     1     -14.266  29.722 -19.406  1.00  0.00     0.000 C 
BRANCH   2   3
ATOM      3  C   UNL     1     -15.612  29.386 -18.740  1.00  0.00     0.000 C 
BRANCH   3   4
ATOM      4  C   UNL     1     -16.603  28.706 -19.700  1.00  0.00    -0.000 C 
BRANCH   4   5
ATOM      5  C   UNL     1     -16.339  27.198 -19.862  1.00  0.00    -0.000 C 
BRANCH   5   6
ATOM      6  C   UNL     1     -17.165  26.286 -18.938  1.00  0.00    -0.000 C 
BRANCH   6   7
ATOM      7  C   UNL     1     -16.300  25.288 -18.149  1.00  0.00    -0.000 C 
BRANCH   7   8
ATOM      8  C   UNL     1     -16.637  23.823 -18.496  1.00  0.00    -0.000 C 
BRANCH   8   9
ATOM      9  C   UNL     1     -15.626  23.170 -19.455  1.00  0.00    -0.000 C 
BRANCH   9  10
ATOM     10  C   UNL     1     -15.588  23.846 -20.834  1.00  0.00    -0.000 C 
BRANCH  10  11
ATOM     11  C   UNL     1     -15.065  22.910 -21.935  1.00  0.00    -0.003 C 
ATOM     12  C   UNL     1     -13.538  22.876 -22.002  1.00  0.00     0.004 C 
ENDBRANCH  10  11
ENDBRANCH   9  10
ENDBRANCH   8   9
ENDBRANCH   7   8
ENDBRANCH   6   7
ENDBRANCH   5   6
ENDBRANCH   4   5
ENDBRANCH   3   4
ENDBRANCH   2   3
ENDBRANCH   1   2
BRANCH   1  13
ATOM     13  C   UNL     1     -12.966  31.309 -21.009  1.00  0.00     0.000 C 
BRANCH  13  14
ATOM     14  C   UNL     1     -12.773  32.833 -20.875  1.00  0.00     0.000 C 
BRANCH  14  15
ATOM     15  C   UNL     1     -11.342  33.332 -21.137  1.00  0.00     0.000 C 
BRANCH  15  16
ATOM     16  C   UNL     1     -10.288  32.588 -20.303  1.00  0.00     0.000 C 
BRANCH  16  17
ATOM     17  C   UNL     1      -9.410  33.578 -19.523  1.00  0.00     0.000 C 
BRANCH  17  18
ATOM     18  C   UNL     1      -8.859  32.979 -18.219  1.00  0.00     0.000 C 
BRANCH  18  19
ATOM     19  C   UNL     1      -8.815  34.004 -17.072  1.00  0.00     0.000 C 
BRANCH  19  20
ATOM     20  C   UNL     1      -7.732  33.680 -16.028  1.00  0.00     0.006 C 
BRANCH  20  21
ATOM     21  C   UNL     1      -6.301  34.011 -16.481  1.00  0.00     0.053 C 
BRANCH  21  22
ATOM     22  C   UNL     1      -6.208  35.372 -17.102  1.00  0.00     0.041 C 
ATOM     23  O   UNL     1      -6.010  36.383 -16.380  1.00  0.00    -0.550 OA
ATOM     24  O   UNL     1      -6.317  35.518 -18.479  1.00  0.00    -0.550 OA
ENDBRANCH  21  22
ENDBRANCH  20  21
ENDBRANCH  19  20
ENDBRANCH  18  19
ENDBRANCH  17  18
ENDBRANCH  16  17
ENDBRANCH  15  16
ENDBRANCH  14  15
ENDBRANCH  13  14
ENDBRANCH   1  13
TORSDOF 20
ENDMDL
MODEL 9
REMARK VINA RESULT:    15.605      1.710      4.235
REMARK INTER + INTRA:          33.049
REMARK INTER:                  33.856
REMARK INTRA:                  -0.808
REMARK UNBOUND:                -0.801
REMARK SMILES CCCCCCCCCCCCCCCCCCCCCC(=O)[O-]
REMARK SMILES IDX 12 1 11 2 10 3 9 4 8 5 7 6 6 7 5 8 4 9 3 10 2 11 1 12 13 13
REMARK SMILES IDX 14 14 15 15 16 16 17 17 18 18 19 19 20 20 21 21 22 22 23 23
REMARK SMILES IDX 24 24
REMARK H PARENT
REMARK Flexibility Score: inf
ROOT
ATOM      1  C   UNL     1     -12.027  33.615 -21.120  1.00  0.00     0.000 C 
ENDROOT
BRANCH   1   2
ATOM      2  C   UNL     1     -12.860  32.518 -21.813  1.00  0.00     0.000 C 
BRANCH   2   3
ATOM      3  C   UNL     1     -12.890  31.160 -21.088  1.00  0.00     0.000 C 
BRANCH   3   4
ATOM      4  C   UNL     1     -14.182  30.940 -20.283  1.00  0.00    -0.000 C 
BRANCH   4   5
ATOM      5  C   UNL     1     -14.305  29.509 -19.730  1.00  0.00    -0.000 C 
BRANCH   5   6
ATOM      6  C   UNL     1     -15.692  29.140 -19.174  1.00  0.00    -0.000 C 
BRANCH   6   7
ATOM      7  C   UNL     1     -16.267  27.857 -19.799  1.00  0.00    -0.000 C 
BRANCH   7   8
ATOM      8  C   UNL     1     -17.643  27.486 -19.208  1.00  0.00    -0.000 C 
BRANCH   8   9
ATOM      9  C   UNL     1     -17.618  26.213 -18.343  1.00  0.00    -0.000 C 
BRANCH   9  10
ATOM     10  C   UNL     1     -16.241  25.531 -18.324  1.00  0.00    -0.000 C 
BRANCH  10  11
ATOM     11  C   UNL     1     -16.330  24.018 -18.577  1.00  0.00    -0.003 C 
ATOM     12  C   UNL     1     -16.138  23.654 -20.049  1.00  0.00     0.004 C 
ENDBRANCH  10  11
ENDBRANCH   9  10
ENDBRANCH   8   9
ENDBRANCH   7   8
ENDBRANCH   6   7
ENDBRANCH   5   6
ENDBRANCH   4   5
ENDBRANCH   3   4
ENDBRANCH   2   3
ENDBRANCH   1   2
BRANCH   1  13
ATOM     13  C   UNL     1     -10.580  33.216 -20.768  1.00  0.00     0.000 C 
BRANCH  13  14
ATOM     14  C   UNL     1      -9.727  34.341 -20.147  1.00  0.00     0.000 C 
BRANCH  14  15
ATOM     15  C   UNL     1      -8.952  33.942 -18.879  1.00  0.00     0.000 C 
BRANCH  15  16
ATOM     16  C   UNL     1      -7.443  34.205 -18.994  1.00  0.00     0.000 C 
BRANCH  16  17
ATOM     17  C   UNL     1      -7.080  35.578 -18.410  1.00  0.00     0.000 C 
BRANCH  17  18
ATOM     18  C   UNL     1      -6.015  35.489 -17.306  1.00  0.00     0.000 C 
BRANCH  18  19
ATOM     19  C   UNL     1      -6.174  34.233 -16.432  1.00  0.00     0.000 C 
BRANCH  19  20
ATOM     20  C   UNL     1      -7.277  34.386 -15.369  1.00  0.00     0.006 C 
BRANCH  20  21
ATOM     21  C   UNL     1      -8.532  33.540 -15.636  1.00  0.00     0.053 C 
BRANCH  21  22
ATOM     22  C   UNL     1      -8.210  32.082 -15.769  1.00  0.00     0.041 C 
ATOM     23  O   UNL     1      -8.198  31.342 -14.751  1.00  0.00    -0.550 OA
ATOM     24  O   UNL     1      -7.945  31.538 -17.019  1.00  0.00    -0.550 OA
ENDBRANCH  21  22
ENDBRANCH  20  21
ENDBRANCH  19  20
ENDBRANCH  18  19
ENDBRANCH  17  18
ENDBRANCH  16  17
ENDBRANCH  15  16
ENDBRANCH  14  15
ENDBRANCH  13  14
ENDBRANCH   1  13
TORSDOF 20
ENDMDL
