MODEL 1
REMARK VINA RESULT:    -3.701      0.000      0.000
REMARK INTER + INTRA:         -11.447
REMARK INTER:                  -8.461
REMARK INTRA:                  -2.986
REMARK UNBOUND:                -2.986
REMARK SMILES CCCCCCCCCCCCCCCCCCCCCCCC(=O)[O-]
REMARK SMILES IDX 13 1 14 2 15 3 16 4 17 5 18 6 19 7 20 8 21 9 22 10 23 11
REMARK SMILES IDX 24 12 25 13 26 14 12 15 11 16 10 17 9 18 8 19 7 20 6 21 5 22
REMARK SMILES IDX 4 23 3 24 2 25 1 26
REMARK H PARENT
REMARK Flexibility Score: inf
ROOT
ATOM      1  C   UNL     1     -18.521 -26.569  -2.234  1.00  0.00     0.000 C 
ENDROOT
BRANCH   1   2
ATOM      2  C   UNL     1     -19.344 -26.798  -3.520  1.00  0.00     0.000 C 
BRANCH   2   3
ATOM      3  C   UNL     1     -20.116 -25.540  -3.957  1.00  0.00     0.000 C 
BRANCH   3   4
ATOM      4  C   UNL     1     -19.886 -24.348  -3.015  1.00  0.00     0.000 C 
BRANCH   4   5
ATOM      5  C   UNL     1     -20.995 -23.284  -3.127  1.00  0.00     0.000 C 
BRANCH   5   6
ATOM      6  C   UNL     1     -20.482 -21.864  -2.844  1.00  0.00     0.000 C 
BRANCH   6   7
ATOM      7  C   UNL     1     -19.915 -21.181  -4.101  1.00  0.00     0.000 C 
BRANCH   7   8
ATOM      8  C   UNL     1     -19.711 -19.669  -3.905  1.00  0.00     0.000 C 
BRANCH   8   9
ATOM      9  C   UNL     1     -18.271 -19.229  -4.217  1.00  0.00     0.000 C 
BRANCH   9  10
ATOM     10  C   UNL     1     -18.080 -17.704  -4.162  1.00  0.00     0.006 C 
BRANCH  10  11
ATOM     11  C   UNL     1     -17.208 -17.224  -2.986  1.00  0.00     0.053 C 
BRANCH  11  12
ATOM     12  C   UNL     1     -16.079 -16.342  -3.428  1.00  0.00     0.041 C 
ATOM     13  O   UNL     1     -16.185 -15.088  -3.354  1.00  0.00    -0.550 OA
ATOM     14  O   UNL     1     -14.923 -16.903  -3.958  1.00  0.00    -0.550 OA
ENDBRANCH  11  12
ENDBRANCH  10  11
ENDBRANCH   9  10
ENDBRANCH   8   9
ENDBRANCH   7   8
ENDBRANCH   6   7
ENDBRANCH   5   6
ENDBRANCH   4   5
ENDBRANCH   3   4
ENDBRANCH   2   3
ENDBRANCH   1   2
BRANCH   1  15
ATOM     15  C   UNL     1     -18.056 -27.870  -1.550  1.00  0.00     0.000 C 
BRANCH  15  16
ATOM     16  C   UNL     1     -18.894 -28.300  -0.335  1.00  0.00     0.000 C 
BRANCH  16  17
ATOM     17  C   UNL     1     -19.415 -29.743  -0.456  1.00  0.00     0.000 C 
BRANCH  17  18
ATOM     18  C   UNL     1     -20.591 -29.866  -1.438  1.00  0.00    -0.000 C 
BRANCH  18  19
ATOM     19  C   UNL     1     -21.939 -30.046  -0.718  1.00  0.00    -0.000 C 
BRANCH  19  20
ATOM     20  C   UNL     1     -22.951 -28.932  -1.043  1.00  0.00    -0.000 C 
BRANCH  20  21
ATOM     21  C   UNL     1     -22.456 -27.863  -2.037  1.00  0.00    -0.000 C 
BRANCH  21  22
ATOM     22  C   UNL     1     -22.791 -26.428  -1.593  1.00  0.00    -0.000 C 
BRANCH  22  23
ATOM     23  C   UNL     1     -22.043 -26.023  -0.312  1.00  0.00    -0.000 C 
BRANCH  23  24
ATOM     24  C   UNL     1     -22.993 -25.737   0.863  1.00  0.00    -0.000 C 
BRANCH  24  25
ATOM     25  C   UNL     1     -22.484 -26.328   2.189  1.00  0.00    -0.003 C 
ATOM     26  C   UNL     1     -21.367 -27.351   1.991  1.00  0.00     0.004 C 
ENDBRANCH  24  25
ENDBRANCH  23  24
ENDBRANCH  22  23
ENDBRANCH  21  22
ENDBRANCH  20  21
ENDBRANCH  19  20
ENDBRANCH  18  19
ENDBRANCH  17  18
ENDBRANCH  16  17
ENDBRANCH  15  16
ENDBRANCH   1  15
TORSDOF 22
ENDMDL
MODEL 2
REMARK VINA RESULT:    -3.600      1.973      3.622
REMARK INTER + INTRA:         -11.216
REMARK INTER:                  -7.904
REMARK INTRA:                  -3.312
REMARK UNBOUND:                -2.986
REMARK SMILES CCCCCCCCCCCCCCCCCCCCCCCC(=O)[O-]
REMARK SMILES IDX 13 1 14 2 15 3 16 4 17 5 18 6 19 7 20 8 21 9 22 10 23 11
REMARK SMILES IDX 24 12 25 13 26 14 12 15 11 16 10 17 9 18 8 19 7 20 6 21 5 22
REMARK SMILES IDX 4 23 3 24 2 25 1 26
REMARK H PARENT
REMARK Flexibility Score: inf
ROOT
ATOM      1  C   UNL     1     -18.241 -26.861  -2.262  1.00  0.00     0.000 C 
ENDROOT
BRANCH   1   2
ATOM      2  C   UNL     1     -19.647 -26.246  -2.097  1.00  0.00     0.000 C 
BRANCH   2   3
ATOM      3  C   UNL     1     -19.722 -24.800  -2.621  1.00  0.00     0.000 C 
BRANCH   3   4
ATOM      4  C   UNL     1     -21.130 -24.418  -3.103  1.00  0.00     0.000 C 
BRANCH   4   5
ATOM      5  C   UNL     1     -21.308 -22.895  -3.260  1.00  0.00     0.000 C 
BRANCH   5   6
ATOM      6  C   UNL     1     -21.774 -22.497  -4.669  1.00  0.00     0.000 C 
BRANCH   6   7
ATOM      7  C   UNL     1     -20.825 -21.489  -5.340  1.00  0.00     0.000 C 
BRANCH   7   8
ATOM      8  C   UNL     1     -20.411 -20.352  -4.390  1.00  0.00     0.000 C 
BRANCH   8   9
ATOM      9  C   UNL     1     -18.937 -19.948  -4.570  1.00  0.00     0.000 C 
BRANCH   9  10
ATOM     10  C   UNL     1     -18.709 -18.431  -4.459  1.00  0.00     0.006 C 
BRANCH  10  11
ATOM     11  C   UNL     1     -17.229 -18.029  -4.325  1.00  0.00     0.053 C 
BRANCH  11  12
ATOM     12  C   UNL     1     -17.054 -16.650  -3.762  1.00  0.00     0.041 C 
ATOM     13  O   UNL     1     -17.534 -16.359  -2.634  1.00  0.00    -0.550 OA
ATOM     14  O   UNL     1     -16.393 -15.675  -4.500  1.00  0.00    -0.550 OA
ENDBRANCH  11  12
ENDBRANCH  10  11
ENDBRANCH   9  10
ENDBRANCH   8   9
ENDBRANCH   7   8
ENDBRANCH   6   7
ENDBRANCH   5   6
ENDBRANCH   4   5
ENDBRANCH   3   4
ENDBRANCH   2   3
ENDBRANCH   1   2
BRANCH   1  15
ATOM     15  C   UNL     1     -17.866 -27.867  -1.155  1.00  0.00     0.000 C 
BRANCH  15  16
ATOM     16  C   UNL     1     -19.050 -28.389  -0.324  1.00  0.00     0.000 C 
BRANCH  16  17
ATOM     17  C   UNL     1     -19.552 -29.763  -0.805  1.00  0.00     0.000 C 
BRANCH  17  18
ATOM     18  C   UNL     1     -20.999 -29.715  -1.320  1.00  0.00    -0.000 C 
BRANCH  18  19
ATOM     19  C   UNL     1     -21.077 -29.800  -2.855  1.00  0.00    -0.000 C 
BRANCH  19  20
ATOM     20  C   UNL     1     -21.799 -28.597  -3.490  1.00  0.00    -0.000 C 
BRANCH  20  21
ATOM     21  C   UNL     1     -21.313 -28.207  -4.899  1.00  0.00    -0.000 C 
BRANCH  21  22
ATOM     22  C   UNL     1     -19.811 -28.467  -5.112  1.00  0.00    -0.000 C 
BRANCH  22  23
ATOM     23  C   UNL     1     -19.165 -27.427  -6.042  1.00  0.00    -0.000 C 
BRANCH  23  24
ATOM     24  C   UNL     1     -19.962 -26.112  -6.101  1.00  0.00    -0.000 C 
BRANCH  24  25
ATOM     25  C   UNL     1     -19.052 -24.879  -6.234  1.00  0.00    -0.003 C 
ATOM     26  C   UNL     1     -17.653 -25.110  -5.665  1.00  0.00     0.004 C 
ENDBRANCH  24  25
ENDBRANCH  23  24
ENDBRANCH  22  23
ENDBRANCH  21  22
ENDBRANCH  20  21
ENDBRANCH  19  20
ENDBRANCH  18  19
ENDBRANCH  17  18
ENDBRANCH  16  17
ENDBRANCH  15  16
ENDBRANCH   1  15
TORSDOF 22
ENDMDL
MODEL 3
REMARK VINA RESULT:    -3.564     12.646     14.982
REMARK INTER + INTRA:         -11.133
REMARK INTER:                  -6.599
REMARK INTRA:                  -4.534
REMARK UNBOUND:                -2.986
REMARK SMILES CCCCCCCCCCCCCCCCCCCCCCCC(=O)[O-]
REMARK SMILES IDX 13 1 14 2 15 3 16 4 17 5 18 6 19 7 20 8 21 9 22 10 23 11
REMARK SMILES IDX 24 12 25 13 26 14 12 15 11 16 10 17 9 18 8 19 7 20 6 21 5 22
REMARK SMILES IDX 4 23 3 24 2 25 1 26
REMARK H PARENT
REMARK Flexibility Score: inf
ROOT
ATOM      1  C   UNL     1     -25.320 -15.780   3.364  1.00  0.00     0.000 C 
ENDROOT
BRANCH   1   2
ATOM      2  C   UNL     1     -24.249 -15.119   4.257  1.00  0.00     0.000 C 
BRANCH   2   3
ATOM      3  C   UNL     1     -23.824 -13.733   3.739  1.00  0.00     0.000 C 
BRANCH   3   4
ATOM      4  C   UNL     1     -23.873 -12.653   4.831  1.00  0.00     0.000 C 
BRANCH   4   5
ATOM      5  C   UNL     1     -24.360 -13.203   6.185  1.00  0.00     0.000 C 
BRANCH   5   6
ATOM      6  C   UNL     1     -25.716 -12.618   6.608  1.00  0.00     0.000 C 
BRANCH   6   7
ATOM      7  C   UNL     1     -26.395 -11.827   5.476  1.00  0.00     0.000 C 
BRANCH   7   8
ATOM      8  C   UNL     1     -27.594 -12.578   4.874  1.00  0.00     0.000 C 
BRANCH   8   9
ATOM      9  C   UNL     1     -27.528 -12.650   3.339  1.00  0.00     0.000 C 
BRANCH   9  10
ATOM     10  C   UNL     1     -28.759 -13.328   2.713  1.00  0.00     0.006 C 
BRANCH  10  11
ATOM     11  C   UNL     1     -29.920 -12.361   2.413  1.00  0.00     0.053 C 
BRANCH  11  12
ATOM     12  C   UNL     1     -30.524 -12.588   1.059  1.00  0.00     0.041 C 
ATOM     13  O   UNL     1     -31.653 -12.103   0.777  1.00  0.00    -0.550 OA
ATOM     14  O   UNL     1     -29.857 -13.367   0.121  1.00  0.00    -0.550 OA
ENDBRANCH  11  12
ENDBRANCH  10  11
ENDBRANCH   9  10
ENDBRANCH   8   9
ENDBRANCH   7   8
ENDBRANCH   6   7
ENDBRANCH   5   6
ENDBRANCH   4   5
ENDBRANCH   3   4
ENDBRANCH   2   3
ENDBRANCH   1   2
BRANCH   1  15
ATOM     15  C   UNL     1     -26.634 -16.107   4.103  1.00  0.00     0.000 C 
BRANCH  15  16
ATOM     16  C   UNL     1     -26.519 -16.172   5.634  1.00  0.00     0.000 C 
BRANCH  16  17
ATOM     17  C   UNL     1     -27.890 -16.135   6.334  1.00  0.00     0.000 C 
BRANCH  17  18
ATOM     18  C   UNL     1     -29.054 -15.981   5.342  1.00  0.00    -0.000 C 
BRANCH  18  19
ATOM     19  C   UNL     1     -30.356 -15.539   6.033  1.00  0.00    -0.000 C 
BRANCH  19  20
ATOM     20  C   UNL     1     -31.231 -14.633   5.148  1.00  0.00    -0.000 C 
BRANCH  20  21
ATOM     21  C   UNL     1     -32.258 -15.368   4.265  1.00  0.00    -0.000 C 
BRANCH  21  22
ATOM     22  C   UNL     1     -31.766 -15.585   2.823  1.00  0.00    -0.000 C 
BRANCH  22  23
ATOM     23  C   UNL     1     -32.089 -16.996   2.303  1.00  0.00    -0.000 C 
BRANCH  23  24
ATOM     24  C   UNL     1     -30.954 -17.584   1.446  1.00  0.00    -0.000 C 
BRANCH  24  25
ATOM     25  C   UNL     1     -29.580 -16.994   1.804  1.00  0.00    -0.003 C 
ATOM     26  C   UNL     1     -28.543 -18.066   2.137  1.00  0.00     0.004 C 
ENDBRANCH  24  25
ENDBRANCH  23  24
ENDBRANCH  22  23
ENDBRANCH  21  22
ENDBRANCH  20  21
ENDBRANCH  19  20
ENDBRANCH  18  19
ENDBRANCH  17  18
ENDBRANCH  16  17
ENDBRANCH  15  16
ENDBRANCH   1  15
TORSDOF 22
ENDMDL
MODEL 4
REMARK VINA RESULT:    -3.542      1.699      2.790
REMARK INTER + INTRA:         -11.083
REMARK INTER:                  -8.122
REMARK INTRA:                  -2.962
REMARK UNBOUND:                -2.986
REMARK SMILES CCCCCCCCCCCCCCCCCCCCCCCC(=O)[O-]
REMARK SMILES IDX 13 1 14 2 15 3 16 4 17 5 18 6 19 7 20 8 21 9 22 10 23 11
REMARK SMILES IDX 24 12 25 13 26 14 12 15 11 16 10 17 9 18 8 19 7 20 6 21 5 22
REMARK SMILES IDX 4 23 3 24 2 25 1 26
REMARK H PARENT
REMARK Flexibility Score: inf
ROOT
ATOM      1  C   UNL     1     -18.122 -26.617  -2.558  1.00  0.00     0.000 C 
ENDROOT
BRANCH   1   2
ATOM      2  C   UNL     1     -18.874 -26.245  -3.853  1.00  0.00     0.000 C 
BRANCH   2   3
ATOM      3  C   UNL     1     -20.181 -27.042  -4.025  1.00  0.00     0.000 C 
BRANCH   3   4
ATOM      4  C   UNL     1     -21.403 -26.135  -4.236  1.00  0.00     0.000 C 
BRANCH   4   5
ATOM      5  C   UNL     1     -22.207 -25.913  -2.941  1.00  0.00     0.000 C 
BRANCH   5   6
ATOM      6  C   UNL     1     -21.705 -24.707  -2.133  1.00  0.00     0.000 C 
BRANCH   6   7
ATOM      7  C   UNL     1     -21.920 -23.373  -2.871  1.00  0.00     0.000 C 
BRANCH   7   8
ATOM      8  C   UNL     1     -20.785 -22.369  -2.609  1.00  0.00     0.000 C 
BRANCH   8   9
ATOM      9  C   UNL     1     -19.714 -22.397  -3.713  1.00  0.00     0.000 C 
BRANCH   9  10
ATOM     10  C   UNL     1     -19.685 -21.112  -4.558  1.00  0.00     0.006 C 
BRANCH  10  11
ATOM     11  C   UNL     1     -19.704 -19.815  -3.726  1.00  0.00     0.053 C 
BRANCH  11  12
ATOM     12  C   UNL     1     -18.500 -18.956  -3.969  1.00  0.00     0.041 C 
ATOM     13  O   UNL     1     -17.834 -19.082  -5.032  1.00  0.00    -0.550 OA
ATOM     14  O   UNL     1     -18.090 -18.041  -3.006  1.00  0.00    -0.550 OA
ENDBRANCH  11  12
ENDBRANCH  10  11
ENDBRANCH   9  10
ENDBRANCH   8   9
ENDBRANCH   7   8
ENDBRANCH   6   7
ENDBRANCH   5   6
ENDBRANCH   4   5
ENDBRANCH   3   4
ENDBRANCH   2   3
ENDBRANCH   1   2
BRANCH   1  15
ATOM     15  C   UNL     1     -19.013 -27.276  -1.485  1.00  0.00     0.000 C 
BRANCH  15  16
ATOM     16  C   UNL     1     -18.326 -28.373  -0.656  1.00  0.00     0.000 C 
BRANCH  16  17
ATOM     17  C   UNL     1     -19.156 -29.667  -0.582  1.00  0.00     0.000 C 
BRANCH  17  18
ATOM     18  C   UNL     1     -20.381 -29.636  -1.508  1.00  0.00    -0.000 C 
BRANCH  18  19
ATOM     19  C   UNL     1     -21.685 -29.976  -0.764  1.00  0.00    -0.000 C 
BRANCH  19  20
ATOM     20  C   UNL     1     -22.408 -28.733  -0.214  1.00  0.00    -0.000 C 
BRANCH  20  21
ATOM     21  C   UNL     1     -22.092 -28.383   1.253  1.00  0.00    -0.000 C 
BRANCH  21  22
ATOM     22  C   UNL     1     -21.325 -27.057   1.404  1.00  0.00    -0.000 C 
BRANCH  22  23
ATOM     23  C   UNL     1     -21.162 -26.643   2.875  1.00  0.00    -0.000 C 
BRANCH  23  24
ATOM     24  C   UNL     1     -22.504 -26.304   3.547  1.00  0.00    -0.000 C 
BRANCH  24  25
ATOM     25  C   UNL     1     -22.699 -27.047   4.879  1.00  0.00    -0.003 C 
ATOM     26  C   UNL     1     -21.410 -27.155   5.692  1.00  0.00     0.004 C 
ENDBRANCH  24  25
ENDBRANCH  23  24
ENDBRANCH  22  23
ENDBRANCH  21  22
ENDBRANCH  20  21
ENDBRANCH  19  20
ENDBRANCH  18  19
ENDBRANCH  17  18
ENDBRANCH  16  17
ENDBRANCH  15  16
ENDBRANCH   1  15
TORSDOF 22
ENDMDL
MODEL 5
REMARK VINA RESULT:    -3.521      2.832      3.943
REMARK INTER + INTRA:         -11.037
REMARK INTER:                  -6.981
REMARK INTRA:                  -4.056
REMARK UNBOUND:                -2.986
REMARK SMILES CCCCCCCCCCCCCCCCCCCCCCCC(=O)[O-]
REMARK SMILES IDX 13 1 14 2 15 3 16 4 17 5 18 6 19 7 20 8 21 9 22 10 23 11
REMARK SMILES IDX 24 12 25 13 26 14 12 15 11 16 10 17 9 18 8 19 7 20 6 21 5 22
REMARK SMILES IDX 4 23 3 24 2 25 1 26
REMARK H PARENT
REMARK Flexibility Score: inf
ROOT
ATOM      1  C   UNL     1     -18.734 -28.274  -0.379  1.00  0.00     0.000 C 
ENDROOT
BRANCH   1   2
ATOM      2  C   UNL     1     -17.917 -27.628  -1.518  1.00  0.00     0.000 C 
BRANCH   2   3
ATOM      3  C   UNL     1     -18.711 -26.543  -2.269  1.00  0.00     0.000 C 
BRANCH   3   4
ATOM      4  C   UNL     1     -18.931 -26.890  -3.749  1.00  0.00     0.000 C 
BRANCH   4   5
ATOM      5  C   UNL     1     -19.346 -25.666  -4.588  1.00  0.00     0.000 C 
BRANCH   5   6
ATOM      6  C   UNL     1     -20.862 -25.419  -4.565  1.00  0.00     0.000 C 
BRANCH   6   7
ATOM      7  C   UNL     1     -21.219 -23.999  -4.094  1.00  0.00     0.000 C 
BRANCH   7   8
ATOM      8  C   UNL     1     -20.230 -23.461  -3.047  1.00  0.00     0.000 C 
BRANCH   8   9
ATOM      9  C   UNL     1     -20.145 -21.926  -3.057  1.00  0.00     0.000 C 
BRANCH   9  10
ATOM     10  C   UNL     1     -19.890 -21.344  -4.459  1.00  0.00     0.006 C 
BRANCH  10  11
ATOM     11  C   UNL     1     -20.538 -19.966  -4.691  1.00  0.00     0.053 C 
BRANCH  11  12
ATOM     12  C   UNL     1     -21.764 -20.043  -5.550  1.00  0.00     0.041 C 
ATOM     13  O   UNL     1     -22.199 -21.160  -5.938  1.00  0.00    -0.550 OA
ATOM     14  O   UNL     1     -22.406 -18.878  -5.955  1.00  0.00    -0.550 OA
ENDBRANCH  11  12
ENDBRANCH  10  11
ENDBRANCH   9  10
ENDBRANCH   8   9
ENDBRANCH   7   8
ENDBRANCH   6   7
ENDBRANCH   5   6
ENDBRANCH   4   5
ENDBRANCH   3   4
ENDBRANCH   2   3
ENDBRANCH   1   2
BRANCH   1  15
ATOM     15  C   UNL     1     -19.248 -29.691  -0.706  1.00  0.00     0.000 C 
BRANCH  15  16
ATOM     16  C   UNL     1     -20.744 -29.776  -1.046  1.00  0.00     0.000 C 
BRANCH  16  17
ATOM     17  C   UNL     1     -21.007 -29.804  -2.563  1.00  0.00     0.000 C 
BRANCH  17  18
ATOM     18  C   UNL     1     -21.976 -28.701  -3.014  1.00  0.00    -0.000 C 
BRANCH  18  19
ATOM     19  C   UNL     1     -22.804 -28.136  -1.846  1.00  0.00    -0.000 C 
BRANCH  19  20
ATOM     20  C   UNL     1     -22.787 -26.597  -1.783  1.00  0.00    -0.000 C 
BRANCH  20  21
ATOM     21  C   UNL     1     -21.860 -25.993  -0.711  1.00  0.00    -0.000 C 
BRANCH  21  22
ATOM     22  C   UNL     1     -22.354 -26.246   0.724  1.00  0.00    -0.000 C 
BRANCH  22  23
ATOM     23  C   UNL     1     -21.364 -27.092   1.541  1.00  0.00    -0.000 C 
BRANCH  23  24
ATOM     24  C   UNL     1     -22.021 -28.338   2.161  1.00  0.00    -0.000 C 
BRANCH  24  25
ATOM     25  C   UNL     1     -23.441 -28.583   1.622  1.00  0.00    -0.003 C 
ATOM     26  C   UNL     1     -24.003 -29.943   2.032  1.00  0.00     0.004 C 
ENDBRANCH  24  25
ENDBRANCH  23  24
ENDBRANCH  22  23
ENDBRANCH  21  22
ENDBRANCH  20  21
ENDBRANCH  19  20
ENDBRANCH  18  19
ENDBRANCH  17  18
ENDBRANCH  16  17
ENDBRANCH  15  16
ENDBRANCH   1  15
TORSDOF 22
ENDMDL
MODEL 6
REMARK VINA RESULT:    -3.482     12.266     15.748
REMARK INTER + INTRA:         -10.946
REMARK INTER:                  -6.813
REMARK INTRA:                  -4.133
REMARK UNBOUND:                -2.986
REMARK SMILES CCCCCCCCCCCCCCCCCCCCCCCC(=O)[O-]
REMARK SMILES IDX 13 1 14 2 15 3 16 4 17 5 18 6 19 7 20 8 21 9 22 10 23 11
REMARK SMILES IDX 24 12 25 13 26 14 12 15 11 16 10 17 9 18 8 19 7 20 6 21 5 22
REMARK SMILES IDX 4 23 3 24 2 25 1 26
REMARK H PARENT
REMARK Flexibility Score: inf
ROOT
ATOM      1  C   UNL     1     -26.130 -16.071   4.666  1.00  0.00     0.000 C 
ENDROOT
BRANCH   1   2
ATOM      2  C   UNL     1     -27.560 -16.624   4.492  1.00  0.00     0.000 C 
BRANCH   2   3
ATOM      3  C   UNL     1     -27.914 -16.889   3.018  1.00  0.00     0.000 C 
BRANCH   3   4
ATOM      4  C   UNL     1     -29.096 -16.037   2.530  1.00  0.00     0.000 C 
BRANCH   4   5
ATOM      5  C   UNL     1     -29.823 -16.667   1.327  1.00  0.00     0.000 C 
BRANCH   5   6
ATOM      6  C   UNL     1     -31.245 -17.135   1.674  1.00  0.00     0.000 C 
BRANCH   6   7
ATOM      7  C   UNL     1     -31.780 -16.487   2.963  1.00  0.00     0.000 C 
BRANCH   7   8
ATOM      8  C   UNL     1     -32.227 -17.529   4.001  1.00  0.00     0.000 C 
BRANCH   8   9
ATOM      9  C   UNL     1     -31.091 -17.924   4.959  1.00  0.00     0.000 C 
BRANCH   9  10
ATOM     10  C   UNL     1     -30.834 -19.441   4.998  1.00  0.00     0.006 C 
BRANCH  10  11
ATOM     11  C   UNL     1     -29.597 -19.887   4.197  1.00  0.00     0.053 C 
BRANCH  11  12
ATOM     12  C   UNL     1     -29.933 -20.283   2.790  1.00  0.00     0.041 C 
ATOM     13  O   UNL     1     -29.090 -20.122   1.867  1.00  0.00    -0.550 OA
ATOM     14  O   UNL     1     -31.190 -20.795   2.492  1.00  0.00    -0.550 OA
ENDBRANCH  11  12
ENDBRANCH  10  11
ENDBRANCH   9  10
ENDBRANCH   8   9
ENDBRANCH   7   8
ENDBRANCH   6   7
ENDBRANCH   5   6
ENDBRANCH   4   5
ENDBRANCH   3   4
ENDBRANCH   2   3
ENDBRANCH   1   2
BRANCH   1  15
ATOM     15  C   UNL     1     -25.362 -15.898   3.340  1.00  0.00     0.000 C 
BRANCH  15  16
ATOM     16  C   UNL     1     -24.504 -14.626   3.248  1.00  0.00     0.000 C 
BRANCH  16  17
ATOM     17  C   UNL     1     -24.156 -14.045   4.630  1.00  0.00     0.000 C 
BRANCH  17  18
ATOM     18  C   UNL     1     -23.969 -12.520   4.600  1.00  0.00    -0.000 C 
BRANCH  18  19
ATOM     19  C   UNL     1     -24.925 -11.795   5.564  1.00  0.00    -0.000 C 
BRANCH  19  20
ATOM     20  C   UNL     1     -26.318 -11.545   4.958  1.00  0.00    -0.000 C 
BRANCH  20  21
ATOM     21  C   UNL     1     -27.445 -12.442   5.505  1.00  0.00    -0.000 C 
BRANCH  21  22
ATOM     22  C   UNL     1     -28.290 -13.091   4.394  1.00  0.00    -0.000 C 
BRANCH  22  23
ATOM     23  C   UNL     1     -28.005 -12.481   3.012  1.00  0.00    -0.000 C 
BRANCH  23  24
ATOM     24  C   UNL     1     -29.174 -11.626   2.491  1.00  0.00    -0.000 C 
BRANCH  24  25
ATOM     25  C   UNL     1     -30.280 -12.474   1.842  1.00  0.00    -0.003 C 
ATOM     26  C   UNL     1     -29.875 -13.033   0.479  1.00  0.00     0.004 C 
ENDBRANCH  24  25
ENDBRANCH  23  24
ENDBRANCH  22  23
ENDBRANCH  21  22
ENDBRANCH  20  21
ENDBRANCH  19  20
ENDBRANCH  18  19
ENDBRANCH  17  18
ENDBRANCH  16  17
ENDBRANCH  15  16
ENDBRANCH   1  15
TORSDOF 22
ENDMDL
MODEL 7
REMARK VINA RESULT:    -3.411     13.264     16.333
REMARK INTER + INTRA:         -10.785
REMARK INTER:                  -7.343
REMARK INTRA:                  -3.442
REMARK UNBOUND:                -2.986
REMARK SMILES CCCCCCCCCCCCCCCCCCCCCCCC(=O)[O-]
REMARK SMILES IDX 13 1 14 2 15 3 16 4 17 5 18 6 19 7 20 8 21 9 22 10 23 11
REMARK SMILES IDX 24 12 25 13 26 14 12 15 11 16 10 17 9 18 8 19 7 20 6 21 5 22
REMARK SMILES IDX 4 23 3 24 2 25 1 26
REMARK H PARENT
REMARK Flexibility Score: inf
ROOT
ATOM      1  C   UNL     1     -23.408 -13.269   4.815  1.00  0.00     0.000 C 
ENDROOT
BRANCH   1   2
ATOM      2  C   UNL     1     -23.832 -14.016   3.532  1.00  0.00     0.000 C 
BRANCH   2   3
ATOM      3  C   UNL     1     -25.285 -14.520   3.597  1.00  0.00     0.000 C 
BRANCH   3   4
ATOM      4  C   UNL     1     -25.676 -15.016   4.998  1.00  0.00     0.000 C 
BRANCH   4   5
ATOM      5  C   UNL     1     -26.634 -16.222   4.952  1.00  0.00     0.000 C 
BRANCH   5   6
ATOM      6  C   UNL     1     -28.081 -15.841   5.300  1.00  0.00     0.000 C 
BRANCH   6   7
ATOM      7  C   UNL     1     -29.072 -16.205   4.180  1.00  0.00     0.000 C 
BRANCH   7   8
ATOM      8  C   UNL     1     -28.367 -16.487   2.843  1.00  0.00     0.000 C 
BRANCH   8   9
ATOM      9  C   UNL     1     -29.325 -16.383   1.644  1.00  0.00     0.000 C 
BRANCH   9  10
ATOM     10  C   UNL     1     -30.799 -16.238   2.060  1.00  0.00     0.006 C 
BRANCH  10  11
ATOM     11  C   UNL     1     -31.686 -17.427   1.644  1.00  0.00     0.053 C 
BRANCH  11  12
ATOM     12  C   UNL     1     -31.359 -18.682   2.396  1.00  0.00     0.041 C 
ATOM     13  O   UNL     1     -30.790 -19.643   1.812  1.00  0.00    -0.550 OA
ATOM     14  O   UNL     1     -31.716 -18.805   3.734  1.00  0.00    -0.550 OA
ENDBRANCH  11  12
ENDBRANCH  10  11
ENDBRANCH   9  10
ENDBRANCH   8   9
ENDBRANCH   7   8
ENDBRANCH   6   7
ENDBRANCH   5   6
ENDBRANCH   4   5
ENDBRANCH   3   4
ENDBRANCH   2   3
ENDBRANCH   1   2
BRANCH   1  15
ATOM     15  C   UNL     1     -22.816 -11.869   4.556  1.00  0.00     0.000 C 
BRANCH  15  16
ATOM     16  C   UNL     1     -23.755 -10.696   4.882  1.00  0.00     0.000 C 
BRANCH  16  17
ATOM     17  C   UNL     1     -24.461 -10.863   6.240  1.00  0.00     0.000 C 
BRANCH  17  18
ATOM     18  C   UNL     1     -25.992 -10.854   6.114  1.00  0.00    -0.000 C 
BRANCH  18  19
ATOM     19  C   UNL     1     -26.465 -11.218   4.695  1.00  0.00    -0.000 C 
BRANCH  19  20
ATOM     20  C   UNL     1     -27.980 -11.027   4.496  1.00  0.00    -0.000 C 
BRANCH  20  21
ATOM     21  C   UNL     1     -28.768 -12.310   4.169  1.00  0.00    -0.000 C 
BRANCH  21  22
ATOM     22  C   UNL     1     -28.556 -12.795   2.724  1.00  0.00    -0.000 C 
BRANCH  22  23
ATOM     23  C   UNL     1     -29.435 -12.034   1.719  1.00  0.00    -0.000 C 
BRANCH  23  24
ATOM     24  C   UNL     1     -29.917 -12.925   0.560  1.00  0.00    -0.000 C 
BRANCH  24  25
ATOM     25  C   UNL     1     -30.251 -12.117  -0.704  1.00  0.00    -0.003 C 
ATOM     26  C   UNL     1     -29.365 -10.884  -0.872  1.00  0.00     0.004 C 
ENDBRANCH  24  25
ENDBRANCH  23  24
ENDBRANCH  22  23
ENDBRANCH  21  22
ENDBRANCH  20  21
ENDBRANCH  19  20
ENDBRANCH  18  19
ENDBRANCH  17  18
ENDBRANCH  16  17
ENDBRANCH  15  16
ENDBRANCH   1  15
TORSDOF 22
ENDMDL
MODEL 8
REMARK VINA RESULT:    -3.398      3.999      7.788
REMARK INTER + INTRA:         -10.755
REMARK INTER:                  -6.971
REMARK INTRA:                  -3.784
REMARK UNBOUND:                -2.986
REMARK SMILES CCCCCCCCCCCCCCCCCCCCCCCC(=O)[O-]
REMARK SMILES IDX 13 1 14 2 15 3 16 4 17 5 18 6 19 7 20 8 21 9 22 10 23 11
REMARK SMILES IDX 24 12 25 13 26 14 12 15 11 16 10 17 9 18 8 19 7 20 6 21 5 22
REMARK SMILES IDX 4 23 3 24 2 25 1 26
REMARK H PARENT
REMARK Flexibility Score: inf
ROOT
ATOM      1  C   UNL     1     -17.880 -27.506  -1.503  1.00  0.00     0.000 C 
ENDROOT
BRANCH   1   2
ATOM      2  C   UNL     1     -18.644 -28.243  -0.383  1.00  0.00     0.000 C 
BRANCH   2   3
ATOM      3  C   UNL     1     -19.244 -29.579  -0.859  1.00  0.00     0.000 C 
BRANCH   3   4
ATOM      4  C   UNL     1     -20.760 -29.663  -0.626  1.00  0.00     0.000 C 
BRANCH   4   5
ATOM      5  C   UNL     1     -21.571 -29.391  -1.907  1.00  0.00     0.000 C 
BRANCH   5   6
ATOM      6  C   UNL     1     -22.302 -28.040  -1.869  1.00  0.00     0.000 C 
BRANCH   6   7
ATOM      7  C   UNL     1     -22.222 -27.367  -0.487  1.00  0.00     0.000 C 
BRANCH   7   8
ATOM      8  C   UNL     1     -22.185 -25.833  -0.583  1.00  0.00     0.000 C 
BRANCH   8   9
ATOM      9  C   UNL     1     -22.351 -25.334  -2.028  1.00  0.00     0.000 C 
BRANCH   9  10
ATOM     10  C   UNL     1     -22.597 -23.818  -2.119  1.00  0.00     0.006 C 
BRANCH  10  11
ATOM     11  C   UNL     1     -24.086 -23.425  -2.115  1.00  0.00     0.053 C 
BRANCH  11  12
ATOM     12  C   UNL     1     -24.498 -22.741  -0.845  1.00  0.00     0.041 C 
ATOM     13  O   UNL     1     -25.717 -22.525  -0.607  1.00  0.00    -0.550 OA
ATOM     14  O   UNL     1     -23.534 -22.309   0.057  1.00  0.00    -0.550 OA
ENDBRANCH  11  12
ENDBRANCH  10  11
ENDBRANCH   9  10
ENDBRANCH   8   9
ENDBRANCH   7   8
ENDBRANCH   6   7
ENDBRANCH   5   6
ENDBRANCH   4   5
ENDBRANCH   3   4
ENDBRANCH   2   3
ENDBRANCH   1   2
BRANCH   1  15
ATOM     15  C   UNL     1     -18.770 -26.588  -2.366  1.00  0.00     0.000 C 
BRANCH  15  16
ATOM     16  C   UNL     1     -19.244 -27.204  -3.692  1.00  0.00     0.000 C 
BRANCH  16  17
ATOM     17  C   UNL     1     -19.657 -26.141  -4.725  1.00  0.00     0.000 C 
BRANCH  17  18
ATOM     18  C   UNL     1     -19.371 -24.709  -4.245  1.00  0.00    -0.000 C 
BRANCH  18  19
ATOM     19  C   UNL     1     -20.289 -23.672  -4.917  1.00  0.00    -0.000 C 
BRANCH  19  20
ATOM     20  C   UNL     1     -19.534 -22.725  -5.868  1.00  0.00    -0.000 C 
BRANCH  20  21
ATOM     21  C   UNL     1     -18.356 -21.959  -5.236  1.00  0.00    -0.000 C 
BRANCH  21  22
ATOM     22  C   UNL     1     -17.060 -22.061  -6.060  1.00  0.00    -0.000 C 
BRANCH  22  23
ATOM     23  C   UNL     1     -16.828 -23.478  -6.609  1.00  0.00    -0.000 C 
BRANCH  23  24
ATOM     24  C   UNL     1     -15.603 -24.164  -5.978  1.00  0.00    -0.000 C 
BRANCH  24  25
ATOM     25  C   UNL     1     -15.926 -25.569  -5.444  1.00  0.00    -0.003 C 
ATOM     26  C   UNL     1     -15.124 -25.927  -4.195  1.00  0.00     0.004 C 
ENDBRANCH  24  25
ENDBRANCH  23  24
ENDBRANCH  22  23
ENDBRANCH  21  22
ENDBRANCH  20  21
ENDBRANCH  19  20
ENDBRANCH  18  19
ENDBRANCH  17  18
ENDBRANCH  16  17
ENDBRANCH  15  16
ENDBRANCH   1  15
TORSDOF 22
ENDMDL
MODEL 9
REMARK VINA RESULT:    -3.352      5.102      7.701
REMARK INTER + INTRA:         -10.649
REMARK INTER:                  -6.217
REMARK INTRA:                  -4.433
REMARK UNBOUND:                -2.986
REMARK SMILES CCCCCCCCCCCCCCCCCCCCCCCC(=O)[O-]
REMARK SMILES IDX 13 1 14 2 15 3 16 4 17 5 18 6 19 7 20 8 21 9 22 10 23 11
REMARK SMILES IDX 24 12 25 13 26 14 12 15 11 16 10 17 9 18 8 19 7 20 6 21 5 22
REMARK SMILES IDX 4 23 3 24 2 25 1 26
REMARK H PARENT
REMARK Flexibility Score: inf
ROOT
ATOM      1  C   UNL     1     -18.507 -28.502  -0.379  1.00  0.00     0.000 C 
ENDROOT
BRANCH   1   2
ATOM      2  C   UNL     1     -19.365 -29.714  -0.797  1.00  0.00     0.000 C 
BRANCH   2   3
ATOM      3  C   UNL     1     -20.720 -29.757  -0.066  1.00  0.00     0.000 C 
BRANCH   3   4
ATOM      4  C   UNL     1     -21.900 -29.999  -1.021  1.00  0.00     0.000 C 
BRANCH   4   5
ATOM      5  C   UNL     1     -21.722 -29.281  -2.373  1.00  0.00     0.000 C 
BRANCH   5   6
ATOM      6  C   UNL     1     -22.871 -28.309  -2.681  1.00  0.00     0.000 C 
BRANCH   6   7
ATOM      7  C   UNL     1     -22.844 -27.061  -1.779  1.00  0.00     0.000 C 
BRANCH   7   8
ATOM      8  C   UNL     1     -24.061 -26.989  -0.843  1.00  0.00     0.000 C 
BRANCH   8   9
ATOM      9  C   UNL     1     -23.654 -26.902   0.638  1.00  0.00     0.000 C 
BRANCH   9  10
ATOM     10  C   UNL     1     -22.371 -26.084   0.865  1.00  0.00     0.006 C 
BRANCH  10  11
ATOM     11  C   UNL     1     -21.303 -26.815   1.700  1.00  0.00     0.053 C 
BRANCH  11  12
ATOM     12  C   UNL     1     -21.762 -27.104   3.098  1.00  0.00     0.041 C 
ATOM     13  O   UNL     1     -21.792 -26.185   3.960  1.00  0.00    -0.550 OA
ATOM     14  O   UNL     1     -22.122 -28.397   3.459  1.00  0.00    -0.550 OA
ENDBRANCH  11  12
ENDBRANCH  10  11
ENDBRANCH   9  10
ENDBRANCH   8   9
ENDBRANCH   7   8
ENDBRANCH   6   7
ENDBRANCH   5   6
ENDBRANCH   4   5
ENDBRANCH   3   4
ENDBRANCH   2   3
ENDBRANCH   1   2
BRANCH   1  15
ATOM     15  C   UNL     1     -18.226 -27.510  -1.526  1.00  0.00     0.000 C 
BRANCH  15  16
ATOM     16  C   UNL     1     -19.382 -26.550  -1.852  1.00  0.00     0.000 C 
BRANCH  16  17
ATOM     17  C   UNL     1     -19.176 -25.805  -3.183  1.00  0.00     0.000 C 
BRANCH  17  18
ATOM     18  C   UNL     1     -19.384 -26.712  -4.405  1.00  0.00    -0.000 C 
BRANCH  18  19
ATOM     19  C   UNL     1     -20.464 -26.170  -5.358  1.00  0.00    -0.000 C 
BRANCH  19  20
ATOM     20  C   UNL     1     -21.537 -25.331  -4.640  1.00  0.00    -0.000 C 
BRANCH  20  21
ATOM     21  C   UNL     1     -21.643 -23.865  -5.101  1.00  0.00    -0.000 C 
BRANCH  21  22
ATOM     22  C   UNL     1     -22.364 -22.965  -4.082  1.00  0.00    -0.000 C 
BRANCH  22  23
ATOM     23  C   UNL     1     -22.348 -23.560  -2.664  1.00  0.00    -0.000 C 
BRANCH  23  24
ATOM     24  C   UNL     1     -23.702 -23.415  -1.947  1.00  0.00    -0.000 C 
BRANCH  24  25
ATOM     25  C   UNL     1     -23.559 -22.827  -0.534  1.00  0.00    -0.003 C 
ATOM     26  C   UNL     1     -24.716 -23.211   0.388  1.00  0.00     0.004 C 
ENDBRANCH  24  25
ENDBRANCH  23  24
ENDBRANCH  22  23
ENDBRANCH  21  22
ENDBRANCH  20  21
ENDBRANCH  19  20
ENDBRANCH  18  19
ENDBRANCH  17  18
ENDBRANCH  16  17
ENDBRANCH  15  16
ENDBRANCH   1  15
TORSDOF 22
ENDMDL
