MODEL 1
REMARK VINA RESULT:    26.589      0.000      0.000
REMARK INTER + INTRA:          32.335
REMARK INTER:                  32.029
REMARK INTRA:                   0.306
REMARK UNBOUND:                 0.306
REMARK SMILES O=c1c(O)c(-c2ccc(O)c(O)c2)oc2cc(O)cc(O)c12
REMARK SMILES IDX 5 1 3 2 2 3 1 4 22 5 20 6 19 7 17 8 16 9 15 10 14 11 6 12
REMARK SMILES IDX 7 13 8 14 9 15 13 16 11 17 10 18 12 20 4 22 21 24 18 26
REMARK H PARENT 10 19 12 21 4 23 21 25 18 27
REMARK Flexibility Score: inf
ROOT
ATOM      1  C   UNL     1      -7.650  -4.596  21.175  1.00  0.00     0.180 A 
ATOM      2  C   UNL     1      -7.918  -5.268  19.970  1.00  0.00     0.208 A 
ATOM      3  C   UNL     1      -8.348  -6.604  20.016  1.00  0.00     0.238 A 
ATOM      4  O   UNL     1      -8.638  -7.183  18.938  1.00  0.00    -0.285 OA
ATOM      5  C   UNL     1      -8.488  -7.255  21.265  1.00  0.00     0.111 A 
ATOM      6  C   UNL     1      -8.878  -8.619  21.429  1.00  0.00     0.134 A 
ATOM      7  C   UNL     1      -9.112  -9.121  22.715  1.00  0.00     0.093 A 
ATOM      8  C   UNL     1      -8.906  -8.328  23.847  1.00  0.00     0.123 A 
ATOM      9  C   UNL     1      -8.468  -7.014  23.700  1.00  0.00     0.094 A 
ATOM     10  C   UNL     1      -8.261  -6.473  22.428  1.00  0.00     0.146 A 
ATOM     11  O   UNL     1      -7.854  -5.213  22.332  1.00  0.00    -0.452 OA
ENDROOT
BRANCH   1  12
ATOM     12  C   UNL     1      -7.169  -3.195  21.206  1.00  0.00     0.025 A 
ATOM     13  C   UNL     1      -6.488  -2.631  20.113  1.00  0.00     0.016 A 
ATOM     14  C   UNL     1      -6.023  -1.314  20.175  1.00  0.00     0.051 A 
ATOM     15  C   UNL     1      -6.219  -0.548  21.331  1.00  0.00     0.157 A 
ATOM     16  C   UNL     1      -7.345  -2.429  22.370  1.00  0.00     0.062 A 
ATOM     17  C   UNL     1      -6.881  -1.111  22.435  1.00  0.00     0.158 A 
BRANCH  15  18
ATOM     18  O   UNL     1      -5.755   0.765  21.388  1.00  0.00    -0.504 OA
ATOM     19  H   UNL     1      -6.276   1.491  21.865  1.00  0.00     0.293 HD
ENDBRANCH  15  18
BRANCH  17  20
ATOM     20  O   UNL     1      -7.085  -0.377  23.603  1.00  0.00    -0.504 OA
ATOM     21  H   UNL     1      -7.084  -0.812  24.518  1.00  0.00     0.293 HD
ENDBRANCH  17  20
ENDBRANCH   1  12
BRANCH   2  22
ATOM     22  O   UNL     1      -7.794  -4.599  18.749  1.00  0.00    -0.502 OA
ATOM     23  H   UNL     1      -8.350  -3.785  18.517  1.00  0.00     0.293 HD
ENDBRANCH   2  22
BRANCH   6  24
ATOM     24  O   UNL     1      -9.022  -9.522  20.371  1.00  0.00    -0.507 OA
ATOM     25  H   UNL     1      -8.385 -10.278  20.170  1.00  0.00     0.293 HD
ENDBRANCH   6  24
BRANCH   8  26
ATOM     26  O   UNL     1      -9.125  -8.840  25.124  1.00  0.00    -0.508 OA
ATOM     27  H   UNL     1     -10.061  -8.964  25.491  1.00  0.00     0.293 HD
ENDBRANCH   8  26
TORSDOF 6
ENDMDL
MODEL 2
REMARK VINA RESULT:    27.889      1.100      1.532
REMARK INTER + INTRA:          33.901
REMARK INTER:                  33.594
REMARK INTRA:                   0.308
REMARK UNBOUND:                 0.306
REMARK SMILES O=c1c(O)c(-c2ccc(O)c(O)c2)oc2cc(O)cc(O)c12
REMARK SMILES IDX 5 1 3 2 2 3 1 4 22 5 20 6 19 7 17 8 16 9 15 10 14 11 6 12
REMARK SMILES IDX 7 13 8 14 9 15 13 16 11 17 10 18 12 20 4 22 21 24 18 26
REMARK H PARENT 10 19 12 21 4 23 21 25 18 27
REMARK Flexibility Score: inf
ROOT
ATOM      1  C   UNL     1      -7.441  -4.049  21.041  1.00  0.00     0.180 A 
ATOM      2  C   UNL     1      -7.636  -4.453  19.709  1.00  0.00     0.208 A 
ATOM      3  C   UNL     1      -8.061  -5.766  19.451  1.00  0.00     0.238 A 
ATOM      4  O   UNL     1      -8.286  -6.105  18.260  1.00  0.00    -0.285 OA
ATOM      5  C   UNL     1      -8.271  -6.662  20.526  1.00  0.00     0.111 A 
ATOM      6  C   UNL     1      -8.664  -8.027  20.379  1.00  0.00     0.134 A 
ATOM      7  C   UNL     1      -8.970  -8.784  21.517  1.00  0.00     0.093 A 
ATOM      8  C   UNL     1      -8.834  -8.245  22.798  1.00  0.00     0.123 A 
ATOM      9  C   UNL     1      -8.395  -6.933  22.954  1.00  0.00     0.094 A 
ATOM     10  C   UNL     1      -8.116  -6.141  21.837  1.00  0.00     0.146 A 
ATOM     11  O   UNL     1      -7.709  -4.892  22.030  1.00  0.00    -0.452 OA
ENDROOT
BRANCH   1  12
ATOM     12  C   UNL     1      -6.969  -2.688  21.391  1.00  0.00     0.025 A 
ATOM     13  C   UNL     1      -6.204  -2.454  22.546  1.00  0.00     0.016 A 
ATOM     14  C   UNL     1      -5.791  -1.159  22.869  1.00  0.00     0.051 A 
ATOM     15  C   UNL     1      -6.147  -0.079  22.051  1.00  0.00     0.157 A 
ATOM     16  C   UNL     1      -7.341  -1.599  20.586  1.00  0.00     0.062 A 
ATOM     17  C   UNL     1      -6.929  -0.301  20.905  1.00  0.00     0.158 A 
BRANCH  15  18
ATOM     18  O   UNL     1      -5.731   1.212  22.375  1.00  0.00    -0.504 OA
ATOM     19  H   UNL     1      -5.382   1.441  23.299  1.00  0.00     0.293 HD
ENDBRANCH  15  18
BRANCH  17  20
ATOM     20  O   UNL     1      -7.307   0.754  20.075  1.00  0.00    -0.504 OA
ATOM     21  H   UNL     1      -7.787   1.572  20.431  1.00  0.00     0.293 HD
ENDBRANCH  17  20
ENDBRANCH   1  12
BRANCH   2  22
ATOM     22  O   UNL     1      -7.443  -3.545  18.664  1.00  0.00    -0.502 OA
ATOM     23  H   UNL     1      -7.405  -2.544  18.814  1.00  0.00     0.293 HD
ENDBRANCH   2  22
BRANCH   6  24
ATOM     24  O   UNL     1      -8.742  -8.688  19.150  1.00  0.00    -0.507 OA
ATOM     25  H   UNL     1      -8.280  -9.558  18.935  1.00  0.00     0.293 HD
ENDBRANCH   6  24
BRANCH   8  26
ATOM     26  O   UNL     1      -9.125  -9.011  23.926  1.00  0.00    -0.508 OA
ATOM     27  H   UNL     1      -9.260 -10.013  23.865  1.00  0.00     0.293 HD
ENDBRANCH   8  26
TORSDOF 6
ENDMDL
