MODEL 1
REMARK VINA RESULT:    -3.903      0.000      0.000
REMARK INTER + INTRA:          -3.903
REMARK INTER:                  -3.903
REMARK INTRA:                   0.000
REMARK UNBOUND:                 0.000
REMARK SMILES CC1(C)O[C@]2(C)CC[C@H]1CC2
REMARK SMILES IDX 1 1 2 2 9 3 10 4 11 5 5 6 4 7 7 8 8 9 6 10 3 11
REMARK H PARENT
REMARK Flexibility Score: inf
ROOT
ATOM      1  C   UNL     1     -25.784 -56.261  53.497  1.00  0.00     0.042 C 
ATOM      2  C   UNL     1     -26.838 -55.840  54.544  1.00  0.00     0.066 C 
ATOM      3  C   UNL     1     -28.128 -55.268  53.839  1.00  0.00     0.021 C 
ATOM      4  C   UNL     1     -29.125 -54.817  54.933  1.00  0.00     0.009 C 
ATOM      5  C   UNL     1     -28.399 -53.879  55.927  1.00  0.00     0.035 C 
ATOM      6  C   UNL     1     -26.940 -53.630  55.446  1.00  0.00     0.066 C 
ATOM      7  O   UNL     1     -26.237 -54.873  55.418  1.00  0.00    -0.369 OA
ATOM      8  C   UNL     1     -26.975 -53.031  54.011  1.00  0.00     0.035 C 
ATOM      9  C   UNL     1     -27.735 -53.989  53.062  1.00  0.00     0.009 C 
ATOM     10  C   UNL     1     -26.219 -52.676  56.404  1.00  0.00     0.042 C 
ATOM     11  C   UNL     1     -27.182 -57.093  55.379  1.00  0.00     0.042 C 
ENDROOT
TORSDOF 0
ENDMDL
MODEL 2
REMARK VINA RESULT:    -3.874      1.014      2.492
REMARK INTER + INTRA:          -3.874
REMARK INTER:                  -3.874
REMARK INTRA:                   0.000
REMARK UNBOUND:                 0.000
REMARK SMILES CC1(C)O[C@]2(C)CC[C@H]1CC2
REMARK SMILES IDX 1 1 2 2 9 3 10 4 11 5 5 6 4 7 7 8 8 9 6 10 3 11
REMARK H PARENT
REMARK Flexibility Score: inf
ROOT
ATOM      1  C   UNL     1     -28.537 -53.375  52.519  1.00  0.00     0.042 C 
ATOM      2  C   UNL     1     -27.458 -54.178  53.277  1.00  0.00     0.066 C 
ATOM      3  C   UNL     1     -28.102 -55.411  54.023  1.00  0.00     0.021 C 
ATOM      4  C   UNL     1     -26.988 -56.147  54.805  1.00  0.00     0.009 C 
ATOM      5  C   UNL     1     -26.219 -55.125  55.678  1.00  0.00     0.035 C 
ATOM      6  C   UNL     1     -26.878 -53.721  55.549  1.00  0.00     0.066 C 
ATOM      7  O   UNL     1     -26.799 -53.289  54.190  1.00  0.00    -0.369 OA
ATOM      8  C   UNL     1     -28.373 -53.825  55.966  1.00  0.00     0.035 C 
ATOM      9  C   UNL     1     -29.091 -54.877  55.087  1.00  0.00     0.009 C 
ATOM     10  C   UNL     1     -26.148 -52.707  56.434  1.00  0.00     0.042 C 
ATOM     11  C   UNL     1     -26.421 -54.652  52.236  1.00  0.00     0.042 C 
ENDROOT
TORSDOF 0
ENDMDL
MODEL 3
REMARK VINA RESULT:    -3.847     12.336     14.535
REMARK INTER + INTRA:          -3.847
REMARK INTER:                  -3.847
REMARK INTRA:                   0.000
REMARK UNBOUND:                 0.000
REMARK SMILES CC1(C)O[C@]2(C)CC[C@H]1CC2
REMARK SMILES IDX 1 1 2 2 9 3 10 4 11 5 5 6 4 7 7 8 8 9 6 10 3 11
REMARK H PARENT
REMARK Flexibility Score: inf
ROOT
ATOM      1  C   UNL     1     -23.034 -69.125  55.664  1.00  0.00     0.042 C 
ATOM      2  C   UNL     1     -21.926 -68.596  56.601  1.00  0.00     0.066 C 
ATOM      3  C   UNL     1     -22.166 -69.086  58.081  1.00  0.00     0.021 C 
ATOM      4  C   UNL     1     -21.059 -68.486  58.982  1.00  0.00     0.009 C 
ATOM      5  C   UNL     1     -20.992 -66.957  58.754  1.00  0.00     0.035 C 
ATOM      6  C   UNL     1     -22.115 -66.521  57.769  1.00  0.00     0.066 C 
ATOM      7  O   UNL     1     -21.911 -67.164  56.511  1.00  0.00    -0.369 OA
ATOM      8  C   UNL     1     -23.492 -66.956  58.348  1.00  0.00     0.035 C 
ATOM      9  C   UNL     1     -23.501 -68.486  58.585  1.00  0.00     0.009 C 
ATOM     10  C   UNL     1     -22.081 -65.003  57.560  1.00  0.00     0.042 C 
ATOM     11  C   UNL     1     -20.578 -69.125  56.064  1.00  0.00     0.042 C 
ENDROOT
TORSDOF 0
ENDMDL
MODEL 4
REMARK VINA RESULT:    -3.818     13.518     14.805
REMARK INTER + INTRA:          -3.818
REMARK INTER:                  -3.818
REMARK INTRA:                   0.000
REMARK UNBOUND:                 0.000
REMARK SMILES CC1(C)O[C@]2(C)CC[C@H]1CC2
REMARK SMILES IDX 1 1 2 2 9 3 10 4 11 5 5 6 4 7 7 8 8 9 6 10 3 11
REMARK H PARENT
REMARK Flexibility Score: inf
ROOT
ATOM      1  C   UNL     1     -24.001 -67.890  58.751  1.00  0.00     0.042 C 
ATOM      2  C   UNL     1     -22.934 -67.842  57.635  1.00  0.00     0.066 C 
ATOM      3  C   UNL     1     -22.015 -69.123  57.685  1.00  0.00     0.021 C 
ATOM      4  C   UNL     1     -20.938 -68.997  56.582  1.00  0.00     0.009 C 
ATOM      5  C   UNL     1     -20.233 -67.626  56.713  1.00  0.00     0.035 C 
ATOM      6  C   UNL     1     -20.776 -66.872  57.962  1.00  0.00     0.066 C 
ATOM      7  O   UNL     1     -22.174 -66.635  57.795  1.00  0.00    -0.369 OA
ATOM      8  C   UNL     1     -20.554 -67.757  59.222  1.00  0.00     0.035 C 
ATOM      9  C   UNL     1     -21.252 -69.125  59.032  1.00  0.00     0.009 C 
ATOM     10  C   UNL     1     -20.062 -65.526  58.124  1.00  0.00     0.042 C 
ATOM     11  C   UNL     1     -23.684 -67.761  56.287  1.00  0.00     0.042 C 
ENDROOT
TORSDOF 0
ENDMDL
MODEL 5
REMARK VINA RESULT:    -3.806     12.394     14.534
REMARK INTER + INTRA:          -3.806
REMARK INTER:                  -3.806
REMARK INTRA:                   0.000
REMARK UNBOUND:                 0.000
REMARK SMILES CC1(C)O[C@]2(C)CC[C@H]1CC2
REMARK SMILES IDX 1 1 2 2 9 3 10 4 11 5 5 6 4 7 7 8 8 9 6 10 3 11
REMARK H PARENT
REMARK Flexibility Score: inf
ROOT
ATOM      1  C   UNL     1     -21.150 -69.125  59.428  1.00  0.00     0.042 C 
ATOM      2  C   UNL     1     -22.194 -68.519  58.466  1.00  0.00     0.066 C 
ATOM      3  C   UNL     1     -22.035 -69.123  57.017  1.00  0.00     0.021 C 
ATOM      4  C   UNL     1     -23.069 -68.444  56.087  1.00  0.00     0.009 C 
ATOM      5  C   UNL     1     -22.943 -66.907  56.222  1.00  0.00     0.035 C 
ATOM      6  C   UNL     1     -21.763 -66.557  57.173  1.00  0.00     0.066 C 
ATOM      7  O   UNL     1     -22.030 -67.093  58.469  1.00  0.00    -0.369 OA
ATOM      8  C   UNL     1     -20.458 -67.195  56.616  1.00  0.00     0.035 C 
ATOM      9  C   UNL     1     -20.642 -68.724  56.472  1.00  0.00     0.009 C 
ATOM     10  C   UNL     1     -21.606 -65.037  57.290  1.00  0.00     0.042 C 
ATOM     11  C   UNL     1     -23.591 -68.843  59.041  1.00  0.00     0.042 C 
ENDROOT
TORSDOF 0
ENDMDL
MODEL 6
REMARK VINA RESULT:    -3.801      2.095      3.482
REMARK INTER + INTRA:          -3.801
REMARK INTER:                  -3.801
REMARK INTRA:                   0.000
REMARK UNBOUND:                 0.000
REMARK SMILES CC1(C)O[C@]2(C)CC[C@H]1CC2
REMARK SMILES IDX 1 1 2 2 9 3 10 4 11 5 5 6 4 7 7 8 8 9 6 10 3 11
REMARK H PARENT
REMARK Flexibility Score: inf
ROOT
ATOM      1  C   UNL     1     -29.510 -55.397  52.042  1.00  0.00     0.042 C 
ATOM      2  C   UNL     1     -29.033 -53.946  52.265  1.00  0.00     0.066 C 
ATOM      3  C   UNL     1     -27.847 -53.592  51.286  1.00  0.00     0.021 C 
ATOM      4  C   UNL     1     -27.377 -52.149  51.589  1.00  0.00     0.009 C 
ATOM      5  C   UNL     1     -27.097 -52.012  53.105  1.00  0.00     0.035 C 
ATOM      6  C   UNL     1     -27.291 -53.389  53.803  1.00  0.00     0.066 C 
ATOM      7  O   UNL     1     -28.646 -53.809  53.641  1.00  0.00    -0.369 OA
ATOM      8  C   UNL     1     -26.350 -54.432  53.135  1.00  0.00     0.035 C 
ATOM      9  C   UNL     1     -26.648 -54.512  51.618  1.00  0.00     0.009 C 
ATOM     10  C   UNL     1     -26.984 -53.276  55.299  1.00  0.00     0.042 C 
ATOM     11  C   UNL     1     -30.243 -53.020  52.013  1.00  0.00     0.042 C 
ENDROOT
TORSDOF 0
ENDMDL
MODEL 7
REMARK VINA RESULT:    -3.797      1.146      3.055
REMARK INTER + INTRA:          -3.797
REMARK INTER:                  -3.797
REMARK INTRA:                   0.000
REMARK UNBOUND:                 0.000
REMARK SMILES CC1(C)O[C@]2(C)CC[C@H]1CC2
REMARK SMILES IDX 1 1 2 2 9 3 10 4 11 5 5 6 4 7 7 8 8 9 6 10 3 11
REMARK H PARENT
REMARK Flexibility Score: inf
ROOT
ATOM      1  C   UNL     1     -26.671 -52.523  53.747  1.00  0.00     0.042 C 
ATOM      2  C   UNL     1     -27.553 -53.752  54.056  1.00  0.00     0.066 C 
ATOM      3  C   UNL     1     -28.090 -53.696  55.538  1.00  0.00     0.021 C 
ATOM      4  C   UNL     1     -28.922 -54.973  55.807  1.00  0.00     0.009 C 
ATOM      5  C   UNL     1     -28.088 -56.215  55.411  1.00  0.00     0.035 C 
ATOM      6  C   UNL     1     -26.665 -55.774  54.965  1.00  0.00     0.066 C 
ATOM      7  O   UNL     1     -26.773 -54.932  53.816  1.00  0.00    -0.369 OA
ATOM      8  C   UNL     1     -25.996 -54.977  56.121  1.00  0.00     0.035 C 
ATOM      9  C   UNL     1     -26.879 -53.763  56.500  1.00  0.00     0.009 C 
ATOM     10  C   UNL     1     -25.817 -56.998  54.602  1.00  0.00     0.042 C 
ATOM     11  C   UNL     1     -28.726 -53.739  53.051  1.00  0.00     0.042 C 
ENDROOT
TORSDOF 0
ENDMDL
MODEL 8
REMARK VINA RESULT:    -3.782     12.166     14.475
REMARK INTER + INTRA:          -3.782
REMARK INTER:                  -3.782
REMARK INTRA:                   0.000
REMARK UNBOUND:                 0.000
REMARK SMILES CC1(C)O[C@]2(C)CC[C@H]1CC2
REMARK SMILES IDX 1 1 2 2 9 3 10 4 11 5 5 6 4 7 7 8 8 9 6 10 3 11
REMARK H PARENT
REMARK Flexibility Score: inf
ROOT
ATOM      1  C   UNL     1     -23.595 -65.438  58.000  1.00  0.00     0.042 C 
ATOM      2  C   UNL     1     -22.676 -66.487  57.337  1.00  0.00     0.066 C 
ATOM      3  C   UNL     1     -23.529 -67.593  56.604  1.00  0.00     0.021 C 
ATOM      4  C   UNL     1     -22.561 -68.641  56.004  1.00  0.00     0.009 C 
ATOM      5  C   UNL     1     -21.589 -69.125  57.107  1.00  0.00     0.035 C 
ATOM      6  C   UNL     1     -21.965 -68.469  58.466  1.00  0.00     0.066 C 
ATOM      7  O   UNL     1     -21.835 -67.051  58.354  1.00  0.00    -0.369 OA
ATOM      8  C   UNL     1     -23.442 -68.821  58.806  1.00  0.00     0.035 C 
ATOM      9  C   UNL     1     -24.371 -68.344  57.664  1.00  0.00     0.009 C 
ATOM     10  C   UNL     1     -21.031 -68.965  59.574  1.00  0.00     0.042 C 
ATOM     11  C   UNL     1     -21.775 -65.738  56.331  1.00  0.00     0.042 C 
ENDROOT
TORSDOF 0
ENDMDL
MODEL 9
REMARK VINA RESULT:    -3.742     13.340     14.797
REMARK INTER + INTRA:          -3.742
REMARK INTER:                  -3.742
REMARK INTRA:                   0.000
REMARK UNBOUND:                 0.000
REMARK SMILES CC1(C)O[C@]2(C)CC[C@H]1CC2
REMARK SMILES IDX 1 1 2 2 9 3 10 4 11 5 5 6 4 7 7 8 8 9 6 10 3 11
REMARK H PARENT
REMARK Flexibility Score: inf
ROOT
ATOM      1  C   UNL     1     -20.912 -66.143  56.226  1.00  0.00     0.042 C 
ATOM      2  C   UNL     1     -21.227 -66.884  57.544  1.00  0.00     0.066 C 
ATOM      3  C   UNL     1     -20.674 -68.361  57.499  1.00  0.00     0.021 C 
ATOM      4  C   UNL     1     -21.062 -69.070  58.819  1.00  0.00     0.009 C 
ATOM      5  C   UNL     1     -22.581 -68.898  59.061  1.00  0.00     0.035 C 
ATOM      6  C   UNL     1     -23.226 -68.155  57.856  1.00  0.00     0.066 C 
ATOM      7  O   UNL     1     -22.648 -66.853  57.745  1.00  0.00    -0.369 OA
ATOM      8  C   UNL     1     -22.937 -68.955  56.554  1.00  0.00     0.035 C 
ATOM      9  C   UNL     1     -21.410 -69.124  56.371  1.00  0.00     0.009 C 
ATOM     10  C   UNL     1     -24.736 -68.008  58.067  1.00  0.00     0.042 C 
ATOM     11  C   UNL     1     -20.563 -66.088  58.689  1.00  0.00     0.042 C 
ENDROOT
TORSDOF 0
ENDMDL
