MODEL 1
REMARK VINA RESULT:    -3.350      0.000      0.000
REMARK INTER + INTRA:          -9.408
REMARK INTER:                  -6.483
REMARK INTRA:                  -2.926
REMARK UNBOUND:                -2.926
REMARK SMILES CCCCCCCCCCCCCCCCCC(=O)[O-]
REMARK SMILES IDX 10 1 11 2 12 3 13 4 14 5 15 6 16 7 17 8 18 9 19 10 20 11
REMARK SMILES IDX 9 12 8 13 7 14 6 15 5 16 4 17 3 18 2 19 1 20
REMARK H PARENT
REMARK Flexibility Score: inf
ROOT
ATOM      1  C   UNL     1      -6.600 -64.455  -1.472  1.00  0.00     0.000 C 
ENDROOT
BRANCH   1   2
ATOM      2  C   UNL     1      -6.040 -65.829  -1.069  1.00  0.00     0.000 C 
BRANCH   2   3
ATOM      3  C   UNL     1      -4.587 -65.749  -0.571  1.00  0.00     0.000 C 
BRANCH   3   4
ATOM      4  C   UNL     1      -3.989 -64.338  -0.712  1.00  0.00     0.000 C 
BRANCH   4   5
ATOM      5  C   UNL     1      -2.883 -64.272  -1.778  1.00  0.00     0.000 C 
BRANCH   5   6
ATOM      6  C   UNL     1      -3.359 -63.602  -3.080  1.00  0.00     0.000 C 
BRANCH   6   7
ATOM      7  C   UNL     1      -3.236 -64.533  -4.298  1.00  0.00     0.006 C 
BRANCH   7   8
ATOM      8  C   UNL     1      -4.487 -65.396  -4.506  1.00  0.00     0.053 C 
BRANCH   8   9
ATOM      9  C   UNL     1      -4.120 -66.847  -4.542  1.00  0.00     0.041 C 
ATOM     10  O   UNL     1      -4.405 -67.600  -3.574  1.00  0.00    -0.550 OA
ATOM     11  O   UNL     1      -3.496 -67.378  -5.664  1.00  0.00    -0.550 OA
ENDBRANCH   8   9
ENDBRANCH   7   8
ENDBRANCH   6   7
ENDBRANCH   5   6
ENDBRANCH   4   5
ENDBRANCH   3   4
ENDBRANCH   2   3
ENDBRANCH   1   2
BRANCH   1  12
ATOM     12  C   UNL     1      -8.133 -64.371  -1.305  1.00  0.00     0.000 C 
BRANCH  12  13
ATOM     13  C   UNL     1      -8.777 -65.677  -0.802  1.00  0.00    -0.000 C 
BRANCH  13  14
ATOM     14  C   UNL     1      -9.223 -65.657   0.672  1.00  0.00    -0.000 C 
BRANCH  14  15
ATOM     15  C   UNL     1      -8.496 -66.663   1.590  1.00  0.00    -0.000 C 
BRANCH  15  16
ATOM     16  C   UNL     1      -7.866 -66.052   2.854  1.00  0.00    -0.000 C 
BRANCH  16  17
ATOM     17  C   UNL     1      -7.690 -64.527   2.755  1.00  0.00    -0.000 C 
BRANCH  17  18
ATOM     18  C   UNL     1      -6.289 -64.126   2.269  1.00  0.00    -0.000 C 
BRANCH  18  19
ATOM     19  C   UNL     1      -6.194 -62.634   1.915  1.00  0.00    -0.003 C 
ATOM     20  C   UNL     1      -7.531 -62.103   1.405  1.00  0.00     0.004 C 
ENDBRANCH  18  19
ENDBRANCH  17  18
ENDBRANCH  16  17
ENDBRANCH  15  16
ENDBRANCH  14  15
ENDBRANCH  13  14
ENDBRANCH  12  13
ENDBRANCH   1  12
TORSDOF 16
ENDMDL
MODEL 2
REMARK VINA RESULT:    -3.242      3.877      6.833
REMARK INTER + INTRA:          -9.200
REMARK INTER:                  -6.905
REMARK INTRA:                  -2.295
REMARK UNBOUND:                -2.926
REMARK SMILES CCCCCCCCCCCCCCCCCC(=O)[O-]
REMARK SMILES IDX 10 1 11 2 12 3 13 4 14 5 15 6 16 7 17 8 18 9 19 10 20 11
REMARK SMILES IDX 9 12 8 13 7 14 6 15 5 16 4 17 3 18 2 19 1 20
REMARK H PARENT
REMARK Flexibility Score: inf
ROOT
ATOM      1  C   UNL     1      -9.152 -66.133   0.350  1.00  0.00     0.000 C 
ENDROOT
BRANCH   1   2
ATOM      2  C   UNL     1      -8.175 -66.604   1.439  1.00  0.00     0.000 C 
BRANCH   2   3
ATOM      3  C   UNL     1      -8.586 -66.131   2.843  1.00  0.00     0.000 C 
BRANCH   3   4
ATOM      4  C   UNL     1      -7.395 -65.608   3.665  1.00  0.00     0.000 C 
BRANCH   4   5
ATOM      5  C   UNL     1      -6.666 -64.445   2.971  1.00  0.00     0.000 C 
BRANCH   5   6
ATOM      6  C   UNL     1      -7.489 -63.144   2.983  1.00  0.00     0.000 C 
BRANCH   6   7
ATOM      7  C   UNL     1      -6.808 -62.012   2.197  1.00  0.00     0.006 C 
BRANCH   7   8
ATOM      8  C   UNL     1      -7.773 -61.301   1.238  1.00  0.00     0.053 C 
BRANCH   8   9
ATOM      9  C   UNL     1      -8.440 -60.151   1.927  1.00  0.00     0.041 C 
ATOM     10  O   UNL     1      -7.751 -59.229   2.439  1.00  0.00    -0.550 OA
ATOM     11  O   UNL     1      -9.826 -60.077   1.972  1.00  0.00    -0.550 OA
ENDBRANCH   8   9
ENDBRANCH   7   8
ENDBRANCH   6   7
ENDBRANCH   5   6
ENDBRANCH   4   5
ENDBRANCH   3   4
ENDBRANCH   2   3
ENDBRANCH   1   2
BRANCH   1  12
ATOM     12  C   UNL     1      -8.950 -64.648  -0.023  1.00  0.00     0.000 C 
BRANCH  12  13
ATOM     13  C   UNL     1      -8.257 -64.436  -1.383  1.00  0.00    -0.000 C 
BRANCH  13  14
ATOM     14  C   UNL     1      -6.931 -63.655  -1.322  1.00  0.00    -0.000 C 
BRANCH  14  15
ATOM     15  C   UNL     1      -5.785 -64.366  -0.572  1.00  0.00    -0.000 C 
BRANCH  15  16
ATOM     16  C   UNL     1      -4.933 -65.314  -1.434  1.00  0.00    -0.000 C 
BRANCH  16  17
ATOM     17  C   UNL     1      -5.504 -66.742  -1.492  1.00  0.00    -0.000 C 
BRANCH  17  18
ATOM     18  C   UNL     1      -5.013 -67.522  -2.722  1.00  0.00    -0.000 C 
BRANCH  18  19
ATOM     19  C   UNL     1      -4.221 -66.640  -3.699  1.00  0.00    -0.003 C 
ATOM     20  C   UNL     1      -3.807 -67.426  -4.940  1.00  0.00     0.004 C 
ENDBRANCH  18  19
ENDBRANCH  17  18
ENDBRANCH  16  17
ENDBRANCH  15  16
ENDBRANCH  14  15
ENDBRANCH  13  14
ENDBRANCH  12  13
ENDBRANCH   1  12
TORSDOF 16
ENDMDL
MODEL 3
REMARK VINA RESULT:    -3.157      1.613      3.607
REMARK INTER + INTRA:          -9.035
REMARK INTER:                  -6.521
REMARK INTRA:                  -2.514
REMARK UNBOUND:                -2.926
REMARK SMILES CCCCCCCCCCCCCCCCCC(=O)[O-]
REMARK SMILES IDX 10 1 11 2 12 3 13 4 14 5 15 6 16 7 17 8 18 9 19 10 20 11
REMARK SMILES IDX 9 12 8 13 7 14 6 15 5 16 4 17 3 18 2 19 1 20
REMARK H PARENT
REMARK Flexibility Score: inf
ROOT
ATOM      1  C   UNL     1      -8.129 -61.487   1.842  1.00  0.00     0.000 C 
ENDROOT
BRANCH   1   2
ATOM      2  C   UNL     1      -7.381 -62.235   0.726  1.00  0.00     0.000 C 
BRANCH   2   3
ATOM      3  C   UNL     1      -5.883 -62.398   1.029  1.00  0.00     0.000 C 
BRANCH   3   4
ATOM      4  C   UNL     1      -5.455 -63.873   1.126  1.00  0.00     0.000 C 
BRANCH   4   5
ATOM      5  C   UNL     1      -4.305 -64.217   0.165  1.00  0.00     0.000 C 
BRANCH   5   6
ATOM      6  C   UNL     1      -4.387 -65.662  -0.358  1.00  0.00     0.000 C 
BRANCH   6   7
ATOM      7  C   UNL     1      -4.956 -65.739  -1.784  1.00  0.00     0.006 C 
BRANCH   7   8
ATOM      8  C   UNL     1      -5.168 -67.184  -2.254  1.00  0.00     0.053 C 
BRANCH   8   9
ATOM      9  C   UNL     1      -4.515 -67.402  -3.583  1.00  0.00     0.041 C 
ATOM     10  O   UNL     1      -4.777 -68.431  -4.260  1.00  0.00    -0.550 OA
ATOM     11  O   UNL     1      -3.644 -66.448  -4.095  1.00  0.00    -0.550 OA
ENDBRANCH   8   9
ENDBRANCH   7   8
ENDBRANCH   6   7
ENDBRANCH   5   6
ENDBRANCH   4   5
ENDBRANCH   3   4
ENDBRANCH   2   3
ENDBRANCH   1   2
BRANCH   1  12
ATOM     12  C   UNL     1      -7.289 -61.355   3.131  1.00  0.00     0.000 C 
BRANCH  12  13
ATOM     13  C   UNL     1      -7.815 -62.204   4.306  1.00  0.00    -0.000 C 
BRANCH  13  14
ATOM     14  C   UNL     1      -7.100 -63.553   4.503  1.00  0.00    -0.000 C 
BRANCH  14  15
ATOM     15  C   UNL     1      -7.995 -64.799   4.334  1.00  0.00    -0.000 C 
BRANCH  15  16
ATOM     16  C   UNL     1      -7.425 -65.890   3.411  1.00  0.00    -0.000 C 
BRANCH  16  17
ATOM     17  C   UNL     1      -8.499 -66.538   2.520  1.00  0.00    -0.000 C 
BRANCH  17  18
ATOM     18  C   UNL     1      -8.892 -65.648   1.330  1.00  0.00    -0.000 C 
BRANCH  18  19
ATOM     19  C   UNL     1      -8.216 -66.085   0.021  1.00  0.00    -0.003 C 
ATOM     20  C   UNL     1      -8.566 -65.137  -1.123  1.00  0.00     0.004 C 
ENDBRANCH  18  19
ENDBRANCH  17  18
ENDBRANCH  16  17
ENDBRANCH  15  16
ENDBRANCH  14  15
ENDBRANCH  13  14
ENDBRANCH  12  13
ENDBRANCH   1  12
TORSDOF 16
ENDMDL
MODEL 4
REMARK VINA RESULT:    -3.146      2.419      3.854
REMARK INTER + INTRA:          -9.015
REMARK INTER:                  -7.395
REMARK INTRA:                  -1.620
REMARK UNBOUND:                -2.926
REMARK SMILES CCCCCCCCCCCCCCCCCC(=O)[O-]
REMARK SMILES IDX 10 1 11 2 12 3 13 4 14 5 15 6 16 7 17 8 18 9 19 10 20 11
REMARK SMILES IDX 9 12 8 13 7 14 6 15 5 16 4 17 3 18 2 19 1 20
REMARK H PARENT
REMARK Flexibility Score: inf
ROOT
ATOM      1  C   UNL     1      -4.288 -65.292  -2.244  1.00  0.00     0.000 C 
ENDROOT
BRANCH   1   2
ATOM      2  C   UNL     1      -5.015 -66.633  -2.048  1.00  0.00     0.000 C 
BRANCH   2   3
ATOM      3  C   UNL     1      -4.776 -67.608  -3.212  1.00  0.00     0.000 C 
BRANCH   3   4
ATOM      4  C   UNL     1      -3.967 -66.976  -4.358  1.00  0.00     0.000 C 
BRANCH   4   5
ATOM      5  C   UNL     1      -4.209 -67.677  -5.706  1.00  0.00     0.000 C 
BRANCH   5   6
ATOM      6  C   UNL     1      -4.616 -66.692  -6.817  1.00  0.00     0.000 C 
BRANCH   6   7
ATOM      7  C   UNL     1      -5.098 -65.344  -6.258  1.00  0.00     0.006 C 
BRANCH   7   8
ATOM      8  C   UNL     1      -5.708 -64.444  -7.342  1.00  0.00     0.053 C 
BRANCH   8   9
ATOM      9  C   UNL     1      -7.169 -64.730  -7.496  1.00  0.00     0.041 C 
ATOM     10  O   UNL     1      -7.558 -65.673  -8.235  1.00  0.00    -0.550 OA
ATOM     11  O   UNL     1      -8.103 -63.980  -6.792  1.00  0.00    -0.550 OA
ENDBRANCH   8   9
ENDBRANCH   7   8
ENDBRANCH   6   7
ENDBRANCH   5   6
ENDBRANCH   4   5
ENDBRANCH   3   4
ENDBRANCH   2   3
ENDBRANCH   1   2
BRANCH   1  12
ATOM     12  C   UNL     1      -5.226 -64.079  -2.058  1.00  0.00     0.000 C 
BRANCH  12  13
ATOM     13  C   UNL     1      -6.342 -64.309  -1.021  1.00  0.00    -0.000 C 
BRANCH  13  14
ATOM     14  C   UNL     1      -7.773 -64.095  -1.548  1.00  0.00    -0.000 C 
BRANCH  14  15
ATOM     15  C   UNL     1      -8.871 -64.883  -0.803  1.00  0.00    -0.000 C 
BRANCH  15  16
ATOM     16  C   UNL     1      -8.616 -66.395  -0.678  1.00  0.00    -0.000 C 
BRANCH  16  17
ATOM     17  C   UNL     1      -8.584 -66.876   0.783  1.00  0.00    -0.000 C 
BRANCH  17  18
ATOM     18  C   UNL     1      -8.553 -65.711   1.785  1.00  0.00    -0.000 C 
BRANCH  18  19
ATOM     19  C   UNL     1      -7.171 -65.531   2.433  1.00  0.00    -0.003 C 
ATOM     20  C   UNL     1      -7.294 -65.282   3.934  1.00  0.00     0.004 C 
ENDBRANCH  18  19
ENDBRANCH  17  18
ENDBRANCH  16  17
ENDBRANCH  15  16
ENDBRANCH  14  15
ENDBRANCH  13  14
ENDBRANCH  12  13
ENDBRANCH   1  12
TORSDOF 16
ENDMDL
MODEL 5
REMARK VINA RESULT:    -3.143      2.581      4.388
REMARK INTER + INTRA:          -9.008
REMARK INTER:                  -6.285
REMARK INTRA:                  -2.723
REMARK UNBOUND:                -2.926
REMARK SMILES CCCCCCCCCCCCCCCCCC(=O)[O-]
REMARK SMILES IDX 10 1 11 2 12 3 13 4 14 5 15 6 16 7 17 8 18 9 19 10 20 11
REMARK SMILES IDX 9 12 8 13 7 14 6 15 5 16 4 17 3 18 2 19 1 20
REMARK H PARENT
REMARK Flexibility Score: inf
ROOT
ATOM      1  C   UNL     1      -4.142 -63.839  -3.804  1.00  0.00     0.000 C 
ENDROOT
BRANCH   1   2
ATOM      2  C   UNL     1      -3.448 -65.210  -3.755  1.00  0.00     0.000 C 
BRANCH   2   3
ATOM      3  C   UNL     1      -4.405 -66.339  -3.337  1.00  0.00     0.000 C 
BRANCH   3   4
ATOM      4  C   UNL     1      -4.337 -67.553  -4.280  1.00  0.00     0.000 C 
BRANCH   4   5
ATOM      5  C   UNL     1      -3.583 -67.244  -5.585  1.00  0.00     0.000 C 
BRANCH   5   6
ATOM      6  C   UNL     1      -4.527 -67.110  -6.793  1.00  0.00     0.000 C 
BRANCH   6   7
ATOM      7  C   UNL     1      -4.618 -65.666  -7.310  1.00  0.00     0.006 C 
BRANCH   7   8
ATOM      8  C   UNL     1      -6.013 -65.058  -7.113  1.00  0.00     0.053 C 
BRANCH   8   9
ATOM      9  C   UNL     1      -6.781 -65.085  -8.397  1.00  0.00     0.041 C 
ATOM     10  O   UNL     1      -7.644 -65.979  -8.604  1.00  0.00    -0.550 OA
ATOM     11  O   UNL     1      -6.571 -64.099  -9.353  1.00  0.00    -0.550 OA
ENDBRANCH   8   9
ENDBRANCH   7   8
ENDBRANCH   6   7
ENDBRANCH   5   6
ENDBRANCH   4   5
ENDBRANCH   3   4
ENDBRANCH   2   3
ENDBRANCH   1   2
BRANCH   1  12
ATOM     12  C   UNL     1      -5.663 -63.937  -3.558  1.00  0.00     0.000 C 
BRANCH  12  13
ATOM     13  C   UNL     1      -6.173 -63.011  -2.436  1.00  0.00    -0.000 C 
BRANCH  13  14
ATOM     14  C   UNL     1      -5.099 -62.556  -1.431  1.00  0.00    -0.000 C 
BRANCH  14  15
ATOM     15  C   UNL     1      -5.176 -63.225  -0.042  1.00  0.00    -0.000 C 
BRANCH  15  16
ATOM     16  C   UNL     1      -5.110 -64.762  -0.056  1.00  0.00    -0.000 C 
BRANCH  16  17
ATOM     17  C   UNL     1      -6.418 -65.419   0.419  1.00  0.00    -0.000 C 
BRANCH  17  18
ATOM     18  C   UNL     1      -7.113 -66.219  -0.694  1.00  0.00    -0.000 C 
BRANCH  18  19
ATOM     19  C   UNL     1      -8.512 -65.675  -1.022  1.00  0.00    -0.003 C 
ATOM     20  C   UNL     1      -8.971 -64.664   0.025  1.00  0.00     0.004 C 
ENDBRANCH  18  19
ENDBRANCH  17  18
ENDBRANCH  16  17
ENDBRANCH  15  16
ENDBRANCH  14  15
ENDBRANCH  13  14
ENDBRANCH  12  13
ENDBRANCH   1  12
TORSDOF 16
ENDMDL
MODEL 6
REMARK VINA RESULT:    -3.101      2.923      6.598
REMARK INTER + INTRA:          -8.927
REMARK INTER:                  -6.382
REMARK INTRA:                  -2.544
REMARK UNBOUND:                -2.926
REMARK SMILES CCCCCCCCCCCCCCCCCC(=O)[O-]
REMARK SMILES IDX 10 1 11 2 12 3 13 4 14 5 15 6 16 7 17 8 18 9 19 10 20 11
REMARK SMILES IDX 9 12 8 13 7 14 6 15 5 16 4 17 3 18 2 19 1 20
REMARK H PARENT
REMARK Flexibility Score: inf
ROOT
ATOM      1  C   UNL     1      -6.111 -66.191  -0.981  1.00  0.00     0.000 C 
ENDROOT
BRANCH   1   2
ATOM      2  C   UNL     1      -6.695 -64.861  -1.484  1.00  0.00     0.000 C 
BRANCH   2   3
ATOM      3  C   UNL     1      -8.194 -64.721  -1.173  1.00  0.00     0.000 C 
BRANCH   3   4
ATOM      4  C   UNL     1      -8.801 -66.009  -0.591  1.00  0.00     0.000 C 
BRANCH   4   5
ATOM      5  C   UNL     1      -9.329 -65.817   0.841  1.00  0.00     0.000 C 
BRANCH   5   6
ATOM      6  C   UNL     1      -8.385 -66.411   1.901  1.00  0.00     0.000 C 
BRANCH   6   7
ATOM      7  C   UNL     1      -7.811 -65.339   2.843  1.00  0.00     0.006 C 
BRANCH   7   8
ATOM      8  C   UNL     1      -6.548 -64.677   2.277  1.00  0.00     0.053 C 
BRANCH   8   9
ATOM      9  C   UNL     1      -6.758 -63.203   2.118  1.00  0.00     0.041 C 
ATOM     10  O   UNL     1      -7.865 -62.758   1.714  1.00  0.00    -0.550 OA
ATOM     11  O   UNL     1      -5.742 -62.316   2.452  1.00  0.00    -0.550 OA
ENDBRANCH   8   9
ENDBRANCH   7   8
ENDBRANCH   6   7
ENDBRANCH   5   6
ENDBRANCH   4   5
ENDBRANCH   3   4
ENDBRANCH   2   3
ENDBRANCH   1   2
BRANCH   1  12
ATOM     12  C   UNL     1      -4.748 -66.520  -1.628  1.00  0.00     0.000 C 
BRANCH  12  13
ATOM     13  C   UNL     1      -4.860 -67.319  -2.942  1.00  0.00    -0.000 C 
BRANCH  13  14
ATOM     14  C   UNL     1      -3.877 -66.892  -4.048  1.00  0.00    -0.000 C 
BRANCH  14  15
ATOM     15  C   UNL     1      -4.408 -65.813  -5.016  1.00  0.00    -0.000 C 
BRANCH  15  16
ATOM     16  C   UNL     1      -4.374 -64.375  -4.469  1.00  0.00    -0.000 C 
BRANCH  16  17
ATOM     17  C   UNL     1      -2.947 -63.893  -4.151  1.00  0.00    -0.000 C 
BRANCH  17  18
ATOM     18  C   UNL     1      -2.710 -63.715  -2.643  1.00  0.00    -0.000 C 
BRANCH  18  19
ATOM     19  C   UNL     1      -3.805 -62.873  -1.971  1.00  0.00    -0.003 C 
ATOM     20  C   UNL     1      -3.620 -62.834  -0.456  1.00  0.00     0.004 C 
ENDBRANCH  18  19
ENDBRANCH  17  18
ENDBRANCH  16  17
ENDBRANCH  15  16
ENDBRANCH  14  15
ENDBRANCH  13  14
ENDBRANCH  12  13
ENDBRANCH   1  12
TORSDOF 16
ENDMDL
MODEL 7
REMARK VINA RESULT:    -3.097      4.929      7.918
REMARK INTER + INTRA:          -8.919
REMARK INTER:                  -7.174
REMARK INTRA:                  -1.745
REMARK UNBOUND:                -2.926
REMARK SMILES CCCCCCCCCCCCCCCCCC(=O)[O-]
REMARK SMILES IDX 10 1 11 2 12 3 13 4 14 5 15 6 16 7 17 8 18 9 19 10 20 11
REMARK SMILES IDX 9 12 8 13 7 14 6 15 5 16 4 17 3 18 2 19 1 20
REMARK H PARENT
REMARK Flexibility Score: inf
ROOT
ATOM      1  C   UNL     1      -8.497 -66.877   2.642  1.00  0.00     0.000 C 
ENDROOT
BRANCH   1   2
ATOM      2  C   UNL     1      -7.576 -66.070   3.572  1.00  0.00     0.000 C 
BRANCH   2   3
ATOM      3  C   UNL     1      -7.104 -66.886   4.786  1.00  0.00     0.000 C 
BRANCH   3   4
ATOM      4  C   UNL     1      -7.705 -68.302   4.819  1.00  0.00     0.000 C 
BRANCH   4   5
ATOM      5  C   UNL     1      -6.687 -69.364   5.268  1.00  0.00     0.000 C 
BRANCH   5   6
ATOM      6  C   UNL     1      -7.118 -70.791   4.887  1.00  0.00     0.000 C 
BRANCH   6   7
ATOM      7  C   UNL     1      -8.607 -70.875   4.516  1.00  0.00     0.006 C 
BRANCH   7   8
ATOM      8  C   UNL     1      -9.474 -71.376   5.679  1.00  0.00     0.053 C 
BRANCH   8   9
ATOM      9  C   UNL     1      -9.866 -72.804   5.461  1.00  0.00     0.041 C 
ATOM     10  O   UNL     1      -9.206 -73.733   5.998  1.00  0.00    -0.550 OA
ATOM     11  O   UNL     1     -10.984 -73.109   4.696  1.00  0.00    -0.550 OA
ENDBRANCH   8   9
ENDBRANCH   7   8
ENDBRANCH   6   7
ENDBRANCH   5   6
ENDBRANCH   4   5
ENDBRANCH   3   4
ENDBRANCH   2   3
ENDBRANCH   1   2
BRANCH   1  12
ATOM     12  C   UNL     1      -8.998 -66.046   1.441  1.00  0.00     0.000 C 
BRANCH  12  13
ATOM     13  C   UNL     1      -8.863 -66.767   0.085  1.00  0.00    -0.000 C 
BRANCH  13  14
ATOM     14  C   UNL     1      -8.052 -66.004  -0.979  1.00  0.00    -0.000 C 
BRANCH  14  15
ATOM     15  C   UNL     1      -6.573 -66.426  -1.103  1.00  0.00    -0.000 C 
BRANCH  15  16
ATOM     16  C   UNL     1      -5.552 -65.332  -0.741  1.00  0.00    -0.000 C 
BRANCH  16  17
ATOM     17  C   UNL     1      -5.570 -64.972   0.755  1.00  0.00    -0.000 C 
BRANCH  17  18
ATOM     18  C   UNL     1      -5.152 -63.516   1.014  1.00  0.00    -0.000 C 
BRANCH  18  19
ATOM     19  C   UNL     1      -6.215 -62.731   1.800  1.00  0.00    -0.003 C 
ATOM     20  C   UNL     1      -7.567 -62.775   1.094  1.00  0.00     0.004 C 
ENDBRANCH  18  19
ENDBRANCH  17  18
ENDBRANCH  16  17
ENDBRANCH  15  16
ENDBRANCH  14  15
ENDBRANCH  13  14
ENDBRANCH  12  13
ENDBRANCH   1  12
TORSDOF 16
ENDMDL
MODEL 8
REMARK VINA RESULT:    -3.093      3.690      6.389
REMARK INTER + INTRA:          -8.911
REMARK INTER:                  -6.183
REMARK INTRA:                  -2.728
REMARK UNBOUND:                -2.926
REMARK SMILES CCCCCCCCCCCCCCCCCC(=O)[O-]
REMARK SMILES IDX 10 1 11 2 12 3 13 4 14 5 15 6 16 7 17 8 18 9 19 10 20 11
REMARK SMILES IDX 9 12 8 13 7 14 6 15 5 16 4 17 3 18 2 19 1 20
REMARK H PARENT
REMARK Flexibility Score: inf
ROOT
ATOM      1  C   UNL     1      -8.701 -66.172   1.710  1.00  0.00     0.000 C 
ENDROOT
BRANCH   1   2
ATOM      2  C   UNL     1      -8.113 -65.388   2.894  1.00  0.00     0.000 C 
BRANCH   2   3
ATOM      3  C   UNL     1      -6.622 -65.063   2.703  1.00  0.00     0.000 C 
BRANCH   3   4
ATOM      4  C   UNL     1      -6.380 -63.592   2.322  1.00  0.00     0.000 C 
BRANCH   4   5
ATOM      5  C   UNL     1      -7.494 -62.661   2.830  1.00  0.00     0.000 C 
BRANCH   5   6
ATOM      6  C   UNL     1      -8.088 -61.789   1.709  1.00  0.00     0.000 C 
BRANCH   6   7
ATOM      7  C   UNL     1      -8.798 -60.539   2.253  1.00  0.00     0.006 C 
BRANCH   7   8
ATOM      8  C   UNL     1      -8.167 -59.236   1.742  1.00  0.00     0.053 C 
BRANCH   8   9
ATOM      9  C   UNL     1      -8.669 -58.918   0.368  1.00  0.00     0.041 C 
ATOM     10  O   UNL     1      -7.946 -59.138  -0.640  1.00  0.00    -0.550 OA
ATOM     11  O   UNL     1      -9.951 -58.413   0.195  1.00  0.00    -0.550 OA
ENDBRANCH   8   9
ENDBRANCH   7   8
ENDBRANCH   6   7
ENDBRANCH   5   6
ENDBRANCH   4   5
ENDBRANCH   3   4
ENDBRANCH   2   3
ENDBRANCH   1   2
BRANCH   1  12
ATOM     12  C   UNL     1      -9.102 -65.254   0.534  1.00  0.00     0.000 C 
BRANCH  12  13
ATOM     13  C   UNL     1      -8.414 -65.612  -0.798  1.00  0.00    -0.000 C 
BRANCH  13  14
ATOM     14  C   UNL     1      -7.317 -66.688  -0.694  1.00  0.00    -0.000 C 
BRANCH  14  15
ATOM     15  C   UNL     1      -5.991 -66.344  -1.405  1.00  0.00    -0.000 C 
BRANCH  15  16
ATOM     16  C   UNL     1      -5.022 -65.472  -0.586  1.00  0.00    -0.000 C 
BRANCH  16  17
ATOM     17  C   UNL     1      -4.450 -64.295  -1.396  1.00  0.00    -0.000 C 
BRANCH  17  18
ATOM     18  C   UNL     1      -5.519 -63.590  -2.245  1.00  0.00    -0.000 C 
BRANCH  18  19
ATOM     19  C   UNL     1      -6.310 -62.545  -1.443  1.00  0.00    -0.003 C 
ATOM     20  C   UNL     1      -5.373 -61.591  -0.705  1.00  0.00     0.004 C 
ENDBRANCH  18  19
ENDBRANCH  17  18
ENDBRANCH  16  17
ENDBRANCH  15  16
ENDBRANCH  14  15
ENDBRANCH  13  14
ENDBRANCH  12  13
ENDBRANCH   1  12
TORSDOF 16
ENDMDL
MODEL 9
REMARK VINA RESULT:    -3.039      5.043      8.563
REMARK INTER + INTRA:          -8.808
REMARK INTER:                  -7.031
REMARK INTRA:                  -1.777
REMARK UNBOUND:                -2.926
REMARK SMILES CCCCCCCCCCCCCCCCCC(=O)[O-]
REMARK SMILES IDX 10 1 11 2 12 3 13 4 14 5 15 6 16 7 17 8 18 9 19 10 20 11
REMARK SMILES IDX 9 12 8 13 7 14 6 15 5 16 4 17 3 18 2 19 1 20
REMARK H PARENT
REMARK Flexibility Score: inf
ROOT
ATOM      1  C   UNL     1      -9.990 -66.018   6.547  1.00  0.00     0.000 C 
ENDROOT
BRANCH   1   2
ATOM      2  C   UNL     1     -10.814 -67.285   6.833  1.00  0.00     0.000 C 
BRANCH   2   3
ATOM      3  C   UNL     1     -10.105 -68.566   6.365  1.00  0.00     0.000 C 
BRANCH   3   4
ATOM      4  C   UNL     1      -8.651 -68.654   6.861  1.00  0.00     0.000 C 
BRANCH   4   5
ATOM      5  C   UNL     1      -7.839 -69.727   6.115  1.00  0.00     0.000 C 
BRANCH   5   6
ATOM      6  C   UNL     1      -8.230 -69.835   4.631  1.00  0.00     0.000 C 
BRANCH   6   7
ATOM      7  C   UNL     1      -8.627 -71.265   4.231  1.00  0.00     0.006 C 
BRANCH   7   8
ATOM      8  C   UNL     1      -8.366 -72.281   5.351  1.00  0.00     0.053 C 
BRANCH   8   9
ATOM      9  C   UNL     1      -7.309 -73.256   4.935  1.00  0.00     0.041 C 
ATOM     10  O   UNL     1      -7.628 -74.348   4.393  1.00  0.00    -0.550 OA
ATOM     11  O   UNL     1      -5.967 -72.943   5.109  1.00  0.00    -0.550 OA
ENDBRANCH   8   9
ENDBRANCH   7   8
ENDBRANCH   6   7
ENDBRANCH   5   6
ENDBRANCH   4   5
ENDBRANCH   3   4
ENDBRANCH   2   3
ENDBRANCH   1   2
BRANCH   1  12
ATOM     12  C   UNL     1      -9.620 -65.879   5.055  1.00  0.00     0.000 C 
BRANCH  12  13
ATOM     13  C   UNL     1      -8.137 -65.537   4.810  1.00  0.00    -0.000 C 
BRANCH  13  14
ATOM     14  C   UNL     1      -7.504 -66.229   3.589  1.00  0.00    -0.000 C 
BRANCH  14  15
ATOM     15  C   UNL     1      -8.508 -66.835   2.585  1.00  0.00    -0.000 C 
BRANCH  15  16
ATOM     16  C   UNL     1      -8.741 -66.001   1.314  1.00  0.00    -0.000 C 
BRANCH  16  17
ATOM     17  C   UNL     1      -8.640 -66.837   0.026  1.00  0.00    -0.000 C 
BRANCH  17  18
ATOM     18  C   UNL     1      -7.337 -66.575  -0.745  1.00  0.00    -0.000 C 
BRANCH  18  19
ATOM     19  C   UNL     1      -6.448 -65.527  -0.057  1.00  0.00    -0.003 C 
ATOM     20  C   UNL     1      -4.992 -65.668  -0.493  1.00  0.00     0.004 C 
ENDBRANCH  18  19
ENDBRANCH  17  18
ENDBRANCH  16  17
ENDBRANCH  15  16
ENDBRANCH  14  15
ENDBRANCH  13  14
ENDBRANCH  12  13
ENDBRANCH   1  12
TORSDOF 16
ENDMDL
