MODEL 1
REMARK VINA RESULT:    -4.555      0.000      0.000
REMARK INTER + INTRA:         -13.088
REMARK INTER:                 -10.412
REMARK INTRA:                  -2.676
REMARK UNBOUND:                -2.676
REMARK SMILES CCCCCCCCCCCCCCCCCCCCCCCC(=O)[O-]
REMARK SMILES IDX 13 1 14 2 15 3 16 4 17 5 18 6 19 7 20 8 21 9 22 10 23 11
REMARK SMILES IDX 24 12 25 13 26 14 12 15 11 16 10 17 9 18 8 19 7 20 6 21 5 22
REMARK SMILES IDX 4 23 3 24 2 25 1 26
REMARK H PARENT
REMARK Flexibility Score: inf
ROOT
ATOM      1  C   UNL     1      -7.199 -10.273  -5.133  1.00  0.00     0.000 C 
ENDROOT
BRANCH   1   2
ATOM      2  C   UNL     1      -6.646 -10.761  -6.486  1.00  0.00     0.000 C 
BRANCH   2   3
ATOM      3  C   UNL     1      -7.354 -12.029  -6.994  1.00  0.00     0.000 C 
BRANCH   3   4
ATOM      4  C   UNL     1      -8.786 -12.167  -6.451  1.00  0.00     0.000 C 
BRANCH   4   5
ATOM      5  C   UNL     1      -9.656 -13.220  -7.166  1.00  0.00     0.000 C 
BRANCH   5   6
ATOM      6  C   UNL     1     -11.171 -12.934  -7.081  1.00  0.00     0.000 C 
BRANCH   6   7
ATOM      7  C   UNL     1     -11.471 -11.432  -6.935  1.00  0.00     0.000 C 
BRANCH   7   8
ATOM      8  C   UNL     1     -12.742 -11.161  -6.113  1.00  0.00     0.000 C 
BRANCH   8   9
ATOM      9  C   UNL     1     -13.591 -12.429  -5.910  1.00  0.00     0.000 C 
BRANCH   9  10
ATOM     10  C   UNL     1     -13.506 -12.972  -4.476  1.00  0.00     0.006 C 
BRANCH  10  11
ATOM     11  C   UNL     1     -13.129 -11.889  -3.457  1.00  0.00     0.053 C 
BRANCH  11  12
ATOM     12  C   UNL     1     -11.896 -12.284  -2.706  1.00  0.00     0.041 C 
ATOM     13  O   UNL     1     -11.692 -11.838  -1.545  1.00  0.00    -0.550 OA
ATOM     14  O   UNL     1     -10.994 -13.176  -3.270  1.00  0.00    -0.550 OA
ENDBRANCH  11  12
ENDBRANCH  10  11
ENDBRANCH   9  10
ENDBRANCH   8   9
ENDBRANCH   7   8
ENDBRANCH   6   7
ENDBRANCH   5   6
ENDBRANCH   4   5
ENDBRANCH   3   4
ENDBRANCH   2   3
ENDBRANCH   1   2
BRANCH   1  15
ATOM     15  C   UNL     1      -7.860  -8.880  -5.160  1.00  0.00     0.000 C 
BRANCH  15  16
ATOM     16  C   UNL     1      -9.402  -8.882  -5.109  1.00  0.00     0.000 C 
BRANCH  16  17
ATOM     17  C   UNL     1     -10.072  -7.560  -5.526  1.00  0.00     0.000 C 
BRANCH  17  18
ATOM     18  C   UNL     1     -11.494  -7.758  -6.075  1.00  0.00    -0.000 C 
BRANCH  18  19
ATOM     19  C   UNL     1     -12.573  -7.114  -5.186  1.00  0.00    -0.000 C 
BRANCH  19  20
ATOM     20  C   UNL     1     -12.461  -5.585  -5.018  1.00  0.00    -0.000 C 
BRANCH  20  21
ATOM     21  C   UNL     1     -12.591  -4.776  -6.321  1.00  0.00    -0.000 C 
BRANCH  21  22
ATOM     22  C   UNL     1     -11.582  -3.621  -6.409  1.00  0.00    -0.000 C 
BRANCH  22  23
ATOM     23  C   UNL     1     -10.887  -3.604  -7.778  1.00  0.00    -0.000 C 
BRANCH  23  24
ATOM     24  C   UNL     1     -10.359  -4.987  -8.193  1.00  0.00    -0.000 C 
BRANCH  24  25
ATOM     25  C   UNL     1     -10.938  -5.463  -9.533  1.00  0.00    -0.003 C 
ATOM     26  C   UNL     1     -11.376  -4.281 -10.393  1.00  0.00     0.004 C 
ENDBRANCH  24  25
ENDBRANCH  23  24
ENDBRANCH  22  23
ENDBRANCH  21  22
ENDBRANCH  20  21
ENDBRANCH  19  20
ENDBRANCH  18  19
ENDBRANCH  17  18
ENDBRANCH  16  17
ENDBRANCH  15  16
ENDBRANCH   1  15
TORSDOF 22
ENDMDL
MODEL 2
REMARK VINA RESULT:    -4.549      1.171      2.761
REMARK INTER + INTRA:         -13.074
REMARK INTER:                 -10.280
REMARK INTRA:                  -2.794
REMARK UNBOUND:                -2.676
REMARK SMILES CCCCCCCCCCCCCCCCCCCCCCCC(=O)[O-]
REMARK SMILES IDX 13 1 14 2 15 3 16 4 17 5 18 6 19 7 20 8 21 9 22 10 23 11
REMARK SMILES IDX 24 12 25 13 26 14 12 15 11 16 10 17 9 18 8 19 7 20 6 21 5 22
REMARK SMILES IDX 4 23 3 24 2 25 1 26
REMARK H PARENT
REMARK Flexibility Score: inf
ROOT
ATOM      1  C   UNL     1      -7.171 -10.357  -5.092  1.00  0.00     0.000 C 
ENDROOT
BRANCH   1   2
ATOM      2  C   UNL     1      -6.151 -10.073  -6.211  1.00  0.00     0.000 C 
BRANCH   2   3
ATOM      3  C   UNL     1      -5.607 -11.358  -6.858  1.00  0.00     0.000 C 
BRANCH   3   4
ATOM      4  C   UNL     1      -6.591 -11.979  -7.865  1.00  0.00     0.000 C 
BRANCH   4   5
ATOM      5  C   UNL     1      -6.772 -13.505  -7.744  1.00  0.00     0.000 C 
BRANCH   5   6
ATOM      6  C   UNL     1      -8.249 -13.950  -7.667  1.00  0.00     0.000 C 
BRANCH   6   7
ATOM      7  C   UNL     1      -9.147 -12.872  -7.035  1.00  0.00     0.000 C 
BRANCH   7   8
ATOM      8  C   UNL     1     -10.625 -13.032  -7.429  1.00  0.00     0.000 C 
BRANCH   8   9
ATOM      9  C   UNL     1     -11.574 -12.320  -6.448  1.00  0.00     0.000 C 
BRANCH   9  10
ATOM     10  C   UNL     1     -11.134 -12.474  -4.984  1.00  0.00     0.006 C 
BRANCH  10  11
ATOM     11  C   UNL     1     -12.246 -13.039  -4.091  1.00  0.00     0.053 C 
BRANCH  11  12
ATOM     12  C   UNL     1     -12.495 -12.131  -2.928  1.00  0.00     0.041 C 
ATOM     13  O   UNL     1     -11.787 -12.222  -1.890  1.00  0.00    -0.550 OA
ATOM     14  O   UNL     1     -13.482 -11.156  -3.006  1.00  0.00    -0.550 OA
ENDBRANCH  11  12
ENDBRANCH  10  11
ENDBRANCH   9  10
ENDBRANCH   8   9
ENDBRANCH   7   8
ENDBRANCH   6   7
ENDBRANCH   5   6
ENDBRANCH   4   5
ENDBRANCH   3   4
ENDBRANCH   2   3
ENDBRANCH   1   2
BRANCH   1  15
ATOM     15  C   UNL     1      -8.159  -9.210  -4.800  1.00  0.00     0.000 C 
BRANCH  15  16
ATOM     16  C   UNL     1      -9.554  -9.362  -5.440  1.00  0.00     0.000 C 
BRANCH  16  17
ATOM     17  C   UNL     1     -10.383  -8.068  -5.519  1.00  0.00     0.000 C 
BRANCH  17  18
ATOM     18  C   UNL     1      -9.523  -6.799  -5.390  1.00  0.00    -0.000 C 
BRANCH  18  19
ATOM     19  C   UNL     1      -9.267  -6.111  -6.743  1.00  0.00    -0.000 C 
BRANCH  19  20
ATOM     20  C   UNL     1     -10.348  -6.348  -7.818  1.00  0.00    -0.000 C 
BRANCH  20  21
ATOM     21  C   UNL     1     -11.143  -5.096  -8.229  1.00  0.00    -0.000 C 
BRANCH  21  22
ATOM     22  C   UNL     1     -10.803  -3.867  -7.373  1.00  0.00    -0.000 C 
BRANCH  22  23
ATOM     23  C   UNL     1     -11.964  -3.517  -6.431  1.00  0.00    -0.000 C 
BRANCH  23  24
ATOM     24  C   UNL     1     -12.839  -4.735  -6.090  1.00  0.00    -0.000 C 
BRANCH  24  25
ATOM     25  C   UNL     1     -12.692  -5.179  -4.627  1.00  0.00    -0.003 C 
ATOM     26  C   UNL     1     -13.430  -6.491  -4.375  1.00  0.00     0.004 C 
ENDBRANCH  24  25
ENDBRANCH  23  24
ENDBRANCH  22  23
ENDBRANCH  21  22
ENDBRANCH  20  21
ENDBRANCH  19  20
ENDBRANCH  18  19
ENDBRANCH  17  18
ENDBRANCH  16  17
ENDBRANCH  15  16
ENDBRANCH   1  15
TORSDOF 22
ENDMDL
MODEL 3
REMARK VINA RESULT:    -4.538      0.900      2.642
REMARK INTER + INTRA:         -13.051
REMARK INTER:                 -10.187
REMARK INTRA:                  -2.864
REMARK UNBOUND:                -2.676
REMARK SMILES CCCCCCCCCCCCCCCCCCCCCCCC(=O)[O-]
REMARK SMILES IDX 13 1 14 2 15 3 16 4 17 5 18 6 19 7 20 8 21 9 22 10 23 11
REMARK SMILES IDX 24 12 25 13 26 14 12 15 11 16 10 17 9 18 8 19 7 20 6 21 5 22
REMARK SMILES IDX 4 23 3 24 2 25 1 26
REMARK H PARENT
REMARK Flexibility Score: inf
ROOT
ATOM      1  C   UNL     1      -8.136  -9.000  -4.912  1.00  0.00     0.000 C 
ENDROOT
BRANCH   1   2
ATOM      2  C   UNL     1      -7.265 -10.146  -5.461  1.00  0.00     0.000 C 
BRANCH   2   3
ATOM      3  C   UNL     1      -7.944 -11.520  -5.334  1.00  0.00     0.000 C 
BRANCH   3   4
ATOM      4  C   UNL     1      -8.319 -12.125  -6.698  1.00  0.00     0.000 C 
BRANCH   4   5
ATOM      5  C   UNL     1      -9.663 -12.878  -6.731  1.00  0.00     0.000 C 
BRANCH   5   6
ATOM      6  C   UNL     1     -10.874 -11.972  -7.044  1.00  0.00     0.000 C 
BRANCH   6   7
ATOM      7  C   UNL     1     -12.174 -12.778  -7.206  1.00  0.00     0.000 C 
BRANCH   7   8
ATOM      8  C   UNL     1     -13.360 -12.139  -6.466  1.00  0.00     0.000 C 
BRANCH   8   9
ATOM      9  C   UNL     1     -12.966 -10.844  -5.732  1.00  0.00     0.000 C 
BRANCH   9  10
ATOM     10  C   UNL     1     -13.299 -10.890  -4.233  1.00  0.00     0.006 C 
BRANCH  10  11
ATOM     11  C   UNL     1     -13.179 -12.303  -3.647  1.00  0.00     0.053 C 
BRANCH  11  12
ATOM     12  C   UNL     1     -11.891 -12.451  -2.899  1.00  0.00     0.041 C 
ATOM     13  O   UNL     1     -11.747 -11.906  -1.772  1.00  0.00    -0.550 OA
ATOM     14  O   UNL     1     -10.865 -13.225  -3.427  1.00  0.00    -0.550 OA
ENDBRANCH  11  12
ENDBRANCH  10  11
ENDBRANCH   9  10
ENDBRANCH   8   9
ENDBRANCH   7   8
ENDBRANCH   6   7
ENDBRANCH   5   6
ENDBRANCH   4   5
ENDBRANCH   3   4
ENDBRANCH   2   3
ENDBRANCH   1   2
BRANCH   1  15
ATOM     15  C   UNL     1      -9.654  -9.172  -5.125  1.00  0.00     0.000 C 
BRANCH  15  16
ATOM     16  C   UNL     1     -10.402  -7.905  -5.589  1.00  0.00     0.000 C 
BRANCH  16  17
ATOM     17  C   UNL     1      -9.656  -6.580  -5.349  1.00  0.00     0.000 C 
BRANCH  17  18
ATOM     18  C   UNL     1      -9.245  -5.881  -6.655  1.00  0.00    -0.000 C 
BRANCH  18  19
ATOM     19  C   UNL     1     -10.266  -6.085  -7.789  1.00  0.00    -0.000 C 
BRANCH  19  20
ATOM     20  C   UNL     1     -10.557  -4.835  -8.646  1.00  0.00    -0.000 C 
BRANCH  20  21
ATOM     21  C   UNL     1     -11.804  -4.037  -8.228  1.00  0.00    -0.000 C 
BRANCH  21  22
ATOM     22  C   UNL     1     -11.850  -3.747  -6.720  1.00  0.00    -0.000 C 
BRANCH  22  23
ATOM     23  C   UNL     1     -12.893  -4.633  -6.023  1.00  0.00    -0.000 C 
BRANCH  23  24
ATOM     24  C   UNL     1     -12.495  -4.997  -4.583  1.00  0.00    -0.000 C 
BRANCH  24  25
ATOM     25  C   UNL     1     -13.489  -5.962  -3.920  1.00  0.00    -0.003 C 
ATOM     26  C   UNL     1     -13.700  -7.207  -4.777  1.00  0.00     0.004 C 
ENDBRANCH  24  25
ENDBRANCH  23  24
ENDBRANCH  22  23
ENDBRANCH  21  22
ENDBRANCH  20  21
ENDBRANCH  19  20
ENDBRANCH  18  19
ENDBRANCH  17  18
ENDBRANCH  16  17
ENDBRANCH  15  16
ENDBRANCH   1  15
TORSDOF 22
ENDMDL
MODEL 4
REMARK VINA RESULT:    -4.519      4.326      6.472
REMARK INTER + INTRA:         -13.008
REMARK INTER:                 -11.196
REMARK INTRA:                  -1.812
REMARK UNBOUND:                -2.676
REMARK SMILES CCCCCCCCCCCCCCCCCCCCCCCC(=O)[O-]
REMARK SMILES IDX 13 1 14 2 15 3 16 4 17 5 18 6 19 7 20 8 21 9 22 10 23 11
REMARK SMILES IDX 24 12 25 13 26 14 12 15 11 16 10 17 9 18 8 19 7 20 6 21 5 22
REMARK SMILES IDX 4 23 3 24 2 25 1 26
REMARK H PARENT
REMARK Flexibility Score: inf
ROOT
ATOM      1  C   UNL     1      -7.988  -9.108  -4.625  1.00  0.00     0.000 C 
ENDROOT
BRANCH   1   2
ATOM      2  C   UNL     1      -7.348 -10.023  -5.686  1.00  0.00     0.000 C 
BRANCH   2   3
ATOM      3  C   UNL     1      -7.990 -11.420  -5.732  1.00  0.00     0.000 C 
BRANCH   3   4
ATOM      4  C   UNL     1      -7.573 -12.224  -6.975  1.00  0.00     0.000 C 
BRANCH   4   5
ATOM      5  C   UNL     1      -6.318 -11.701  -7.701  1.00  0.00     0.000 C 
BRANCH   5   6
ATOM      6  C   UNL     1      -5.032 -12.484  -7.359  1.00  0.00     0.000 C 
BRANCH   6   7
ATOM      7  C   UNL     1      -4.047 -11.648  -6.524  1.00  0.00     0.000 C 
BRANCH   7   8
ATOM      8  C   UNL     1      -2.940 -12.503  -5.887  1.00  0.00     0.000 C 
BRANCH   8   9
ATOM      9  C   UNL     1      -2.242 -11.785  -4.717  1.00  0.00     0.000 C 
BRANCH   9  10
ATOM     10  C   UNL     1      -2.096 -12.680  -3.478  1.00  0.00     0.006 C 
BRANCH  10  11
ATOM     11  C   UNL     1      -1.278 -13.947  -3.761  1.00  0.00     0.053 C 
BRANCH  11  12
ATOM     12  C   UNL     1       0.140 -13.593  -4.084  1.00  0.00     0.041 C 
ATOM     13  O   UNL     1       0.901 -13.145  -3.186  1.00  0.00    -0.550 OA
ATOM     14  O   UNL     1       0.632 -13.795  -5.367  1.00  0.00    -0.550 OA
ENDBRANCH  11  12
ENDBRANCH  10  11
ENDBRANCH   9  10
ENDBRANCH   8   9
ENDBRANCH   7   8
ENDBRANCH   6   7
ENDBRANCH   5   6
ENDBRANCH   4   5
ENDBRANCH   3   4
ENDBRANCH   2   3
ENDBRANCH   1   2
BRANCH   1  15
ATOM     15  C   UNL     1      -9.115  -8.192  -5.144  1.00  0.00     0.000 C 
BRANCH  15  16
ATOM     16  C   UNL     1     -10.454  -8.899  -5.444  1.00  0.00     0.000 C 
BRANCH  16  17
ATOM     17  C   UNL     1     -11.507  -8.030  -6.154  1.00  0.00     0.000 C 
BRANCH  17  18
ATOM     18  C   UNL     1     -12.555  -7.453  -5.188  1.00  0.00    -0.000 C 
BRANCH  18  19
ATOM     19  C   UNL     1     -12.824  -5.955  -5.423  1.00  0.00    -0.000 C 
BRANCH  19  20
ATOM     20  C   UNL     1     -11.604  -5.030  -5.238  1.00  0.00    -0.000 C 
BRANCH  20  21
ATOM     21  C   UNL     1     -11.649  -3.724  -6.050  1.00  0.00    -0.000 C 
BRANCH  21  22
ATOM     22  C   UNL     1     -11.860  -3.962  -7.553  1.00  0.00    -0.000 C 
BRANCH  22  23
ATOM     23  C   UNL     1     -10.556  -4.413  -8.225  1.00  0.00    -0.000 C 
BRANCH  23  24
ATOM     24  C   UNL     1     -10.691  -5.771  -8.932  1.00  0.00    -0.000 C 
BRANCH  24  25
ATOM     25  C   UNL     1     -11.361  -5.657 -10.310  1.00  0.00    -0.003 C 
ATOM     26  C   UNL     1     -10.823  -4.457 -11.084  1.00  0.00     0.004 C 
ENDBRANCH  24  25
ENDBRANCH  23  24
ENDBRANCH  22  23
ENDBRANCH  21  22
ENDBRANCH  20  21
ENDBRANCH  19  20
ENDBRANCH  18  19
ENDBRANCH  17  18
ENDBRANCH  16  17
ENDBRANCH  15  16
ENDBRANCH   1  15
TORSDOF 22
ENDMDL
MODEL 5
REMARK VINA RESULT:    -4.488      0.978      1.759
REMARK INTER + INTRA:         -12.936
REMARK INTER:                 -10.614
REMARK INTRA:                  -2.323
REMARK UNBOUND:                -2.676
REMARK SMILES CCCCCCCCCCCCCCCCCCCCCCCC(=O)[O-]
REMARK SMILES IDX 13 1 14 2 15 3 16 4 17 5 18 6 19 7 20 8 21 9 22 10 23 11
REMARK SMILES IDX 24 12 25 13 26 14 12 15 11 16 10 17 9 18 8 19 7 20 6 21 5 22
REMARK SMILES IDX 4 23 3 24 2 25 1 26
REMARK H PARENT
REMARK Flexibility Score: inf
ROOT
ATOM      1  C   UNL     1      -7.407  -9.649  -5.124  1.00  0.00     0.000 C 
ENDROOT
BRANCH   1   2
ATOM      2  C   UNL     1      -7.442 -10.986  -5.888  1.00  0.00     0.000 C 
BRANCH   2   3
ATOM      3  C   UNL     1      -6.300 -11.116  -6.910  1.00  0.00     0.000 C 
BRANCH   3   4
ATOM      4  C   UNL     1      -6.569 -12.202  -7.967  1.00  0.00     0.000 C 
BRANCH   4   5
ATOM      5  C   UNL     1      -7.415 -13.393  -7.476  1.00  0.00     0.000 C 
BRANCH   5   6
ATOM      6  C   UNL     1      -8.440 -13.896  -8.516  1.00  0.00     0.000 C 
BRANCH   6   7
ATOM      7  C   UNL     1      -9.880 -13.863  -7.975  1.00  0.00     0.000 C 
BRANCH   7   8
ATOM      8  C   UNL     1      -9.994 -13.090  -6.651  1.00  0.00     0.000 C 
BRANCH   8   9
ATOM      9  C   UNL     1     -11.108 -12.027  -6.686  1.00  0.00     0.000 C 
BRANCH   9  10
ATOM     10  C   UNL     1     -11.305 -11.335  -5.329  1.00  0.00     0.006 C 
BRANCH  10  11
ATOM     11  C   UNL     1     -12.417 -11.982  -4.494  1.00  0.00     0.053 C 
BRANCH  11  12
ATOM     12  C   UNL     1     -11.856 -12.562  -3.234  1.00  0.00     0.041 C 
ATOM     13  O   UNL     1     -12.428 -12.354  -2.131  1.00  0.00    -0.550 OA
ATOM     14  O   UNL     1     -10.723 -13.365  -3.282  1.00  0.00    -0.550 OA
ENDBRANCH  11  12
ENDBRANCH  10  11
ENDBRANCH   9  10
ENDBRANCH   8   9
ENDBRANCH   7   8
ENDBRANCH   6   7
ENDBRANCH   5   6
ENDBRANCH   4   5
ENDBRANCH   3   4
ENDBRANCH   2   3
ENDBRANCH   1   2
BRANCH   1  15
ATOM     15  C   UNL     1      -8.788  -9.069  -4.757  1.00  0.00     0.000 C 
BRANCH  15  16
ATOM     16  C   UNL     1      -8.875  -7.528  -4.754  1.00  0.00     0.000 C 
BRANCH  16  17
ATOM     17  C   UNL     1      -9.771  -6.921  -5.848  1.00  0.00     0.000 C 
BRANCH  17  18
ATOM     18  C   UNL     1     -11.087  -7.693  -6.040  1.00  0.00    -0.000 C 
BRANCH  18  19
ATOM     19  C   UNL     1     -12.312  -6.926  -5.509  1.00  0.00    -0.000 C 
BRANCH  19  20
ATOM     20  C   UNL     1     -12.064  -5.443  -5.169  1.00  0.00    -0.000 C 
BRANCH  20  21
ATOM     21  C   UNL     1     -12.536  -4.442  -6.238  1.00  0.00    -0.000 C 
BRANCH  21  22
ATOM     22  C   UNL     1     -11.390  -3.593  -6.808  1.00  0.00    -0.000 C 
BRANCH  22  23
ATOM     23  C   UNL     1     -10.849  -4.205  -8.108  1.00  0.00    -0.000 C 
BRANCH  23  24
ATOM     24  C   UNL     1     -11.367  -3.485  -9.364  1.00  0.00    -0.000 C 
BRANCH  24  25
ATOM     25  C   UNL     1     -11.082  -4.267 -10.654  1.00  0.00    -0.003 C 
ATOM     26  C   UNL     1     -11.437  -5.742 -10.493  1.00  0.00     0.004 C 
ENDBRANCH  24  25
ENDBRANCH  23  24
ENDBRANCH  22  23
ENDBRANCH  21  22
ENDBRANCH  20  21
ENDBRANCH  19  20
ENDBRANCH  18  19
ENDBRANCH  17  18
ENDBRANCH  16  17
ENDBRANCH  15  16
ENDBRANCH   1  15
TORSDOF 22
ENDMDL
MODEL 6
REMARK VINA RESULT:    -4.467      3.197      7.611
REMARK INTER + INTRA:         -12.887
REMARK INTER:                 -10.128
REMARK INTRA:                  -2.759
REMARK UNBOUND:                -2.676
REMARK SMILES CCCCCCCCCCCCCCCCCCCCCCCC(=O)[O-]
REMARK SMILES IDX 13 1 14 2 15 3 16 4 17 5 18 6 19 7 20 8 21 9 22 10 23 11
REMARK SMILES IDX 24 12 25 13 26 14 12 15 11 16 10 17 9 18 8 19 7 20 6 21 5 22
REMARK SMILES IDX 4 23 3 24 2 25 1 26
REMARK H PARENT
REMARK Flexibility Score: inf
ROOT
ATOM      1  C   UNL     1      -7.521  -9.860  -5.111  1.00  0.00     0.000 C 
ENDROOT
BRANCH   1   2
ATOM      2  C   UNL     1      -8.862  -9.190  -4.753  1.00  0.00     0.000 C 
BRANCH   2   3
ATOM      3  C   UNL     1      -8.778  -7.655  -4.755  1.00  0.00     0.000 C 
BRANCH   3   4
ATOM      4  C   UNL     1      -9.923  -6.999  -5.545  1.00  0.00     0.000 C 
BRANCH   4   5
ATOM      5  C   UNL     1     -11.108  -7.929  -5.870  1.00  0.00     0.000 C 
BRANCH   5   6
ATOM      6  C   UNL     1     -12.483  -7.336  -5.493  1.00  0.00     0.000 C 
BRANCH   6   7
ATOM      7  C   UNL     1     -12.386  -5.853  -5.094  1.00  0.00     0.000 C 
BRANCH   7   8
ATOM      8  C   UNL     1     -12.676  -4.906  -6.269  1.00  0.00     0.000 C 
BRANCH   8   9
ATOM      9  C   UNL     1     -11.676  -3.738  -6.344  1.00  0.00     0.000 C 
BRANCH   9  10
ATOM     10  C   UNL     1     -10.824  -3.772  -7.622  1.00  0.00     0.006 C 
BRANCH  10  11
ATOM     11  C   UNL     1     -10.929  -5.111  -8.365  1.00  0.00     0.053 C 
BRANCH  11  12
ATOM     12  C   UNL     1     -11.216  -4.882  -9.816  1.00  0.00     0.041 C 
ATOM     13  O   UNL     1     -11.571  -5.842 -10.550  1.00  0.00    -0.550 OA
ATOM     14  O   UNL     1     -11.132  -3.602 -10.348  1.00  0.00    -0.550 OA
ENDBRANCH  11  12
ENDBRANCH  10  11
ENDBRANCH   9  10
ENDBRANCH   8   9
ENDBRANCH   7   8
ENDBRANCH   6   7
ENDBRANCH   5   6
ENDBRANCH   4   5
ENDBRANCH   3   4
ENDBRANCH   2   3
ENDBRANCH   1   2
BRANCH   1  15
ATOM     15  C   UNL     1      -7.638 -11.167  -5.920  1.00  0.00     0.000 C 
BRANCH  15  16
ATOM     16  C   UNL     1      -9.045 -11.799  -5.953  1.00  0.00     0.000 C 
BRANCH  16  17
ATOM     17  C   UNL     1      -9.248 -12.888  -7.021  1.00  0.00     0.000 C 
BRANCH  17  18
ATOM     18  C   UNL     1     -10.713 -13.339  -7.144  1.00  0.00    -0.000 C 
BRANCH  18  19
ATOM     19  C   UNL     1     -11.576 -12.353  -7.953  1.00  0.00    -0.000 C 
BRANCH  19  20
ATOM     20  C   UNL     1     -12.360 -11.323  -7.115  1.00  0.00    -0.000 C 
BRANCH  20  21
ATOM     21  C   UNL     1     -13.720 -11.813  -6.588  1.00  0.00    -0.000 C 
BRANCH  21  22
ATOM     22  C   UNL     1     -13.671 -12.239  -5.114  1.00  0.00    -0.000 C 
BRANCH  22  23
ATOM     23  C   UNL     1     -12.565 -11.485  -4.362  1.00  0.00    -0.000 C 
BRANCH  23  24
ATOM     24  C   UNL     1     -11.738 -12.402  -3.446  1.00  0.00    -0.000 C 
BRANCH  24  25
ATOM     25  C   UNL     1     -11.854 -12.020  -1.963  1.00  0.00    -0.003 C 
ATOM     26  C   UNL     1     -13.304 -11.730  -1.583  1.00  0.00     0.004 C 
ENDBRANCH  24  25
ENDBRANCH  23  24
ENDBRANCH  22  23
ENDBRANCH  21  22
ENDBRANCH  20  21
ENDBRANCH  19  20
ENDBRANCH  18  19
ENDBRANCH  17  18
ENDBRANCH  16  17
ENDBRANCH  15  16
ENDBRANCH   1  15
TORSDOF 22
ENDMDL
MODEL 7
REMARK VINA RESULT:    -4.388      3.008      7.710
REMARK INTER + INTRA:         -12.706
REMARK INTER:                 -10.141
REMARK INTRA:                  -2.565
REMARK UNBOUND:                -2.676
REMARK SMILES CCCCCCCCCCCCCCCCCCCCCCCC(=O)[O-]
REMARK SMILES IDX 13 1 14 2 15 3 16 4 17 5 18 6 19 7 20 8 21 9 22 10 23 11
REMARK SMILES IDX 24 12 25 13 26 14 12 15 11 16 10 17 9 18 8 19 7 20 6 21 5 22
REMARK SMILES IDX 4 23 3 24 2 25 1 26
REMARK H PARENT
REMARK Flexibility Score: inf
ROOT
ATOM      1  C   UNL     1     -13.910 -10.823  -3.409  1.00  0.00     0.000 C 
ENDROOT
BRANCH   1   2
ATOM      2  C   UNL     1     -13.554 -10.549  -4.882  1.00  0.00     0.000 C 
BRANCH   2   3
ATOM      3  C   UNL     1     -12.038 -10.437  -5.116  1.00  0.00     0.000 C 
BRANCH   3   4
ATOM      4  C   UNL     1     -11.684  -9.490  -6.274  1.00  0.00     0.000 C 
BRANCH   4   5
ATOM      5  C   UNL     1     -11.668  -7.992  -5.911  1.00  0.00     0.000 C 
BRANCH   5   6
ATOM      6  C   UNL     1     -10.249  -7.420  -5.697  1.00  0.00     0.000 C 
BRANCH   6   7
ATOM      7  C   UNL     1     -10.279  -5.973  -5.177  1.00  0.00     0.000 C 
BRANCH   7   8
ATOM      8  C   UNL     1     -11.684  -5.352  -5.240  1.00  0.00     0.000 C 
BRANCH   8   9
ATOM      9  C   UNL     1     -11.678  -3.946  -5.867  1.00  0.00     0.000 C 
BRANCH   9  10
ATOM     10  C   UNL     1     -12.025  -3.966  -7.363  1.00  0.00     0.006 C 
BRANCH  10  11
ATOM     11  C   UNL     1     -10.783  -3.860  -8.258  1.00  0.00     0.053 C 
BRANCH  11  12
ATOM     12  C   UNL     1     -10.740  -4.998  -9.229  1.00  0.00     0.041 C 
ATOM     13  O   UNL     1     -10.414  -6.151  -8.839  1.00  0.00    -0.550 OA
ATOM     14  O   UNL     1     -11.100  -4.795 -10.555  1.00  0.00    -0.550 OA
ENDBRANCH  11  12
ENDBRANCH  10  11
ENDBRANCH   9  10
ENDBRANCH   8   9
ENDBRANCH   7   8
ENDBRANCH   6   7
ENDBRANCH   5   6
ENDBRANCH   4   5
ENDBRANCH   3   4
ENDBRANCH   2   3
ENDBRANCH   1   2
BRANCH   1  15
ATOM     15  C   UNL     1     -13.471 -12.201  -2.875  1.00  0.00     0.000 C 
BRANCH  15  16
ATOM     16  C   UNL     1     -11.961 -12.346  -2.589  1.00  0.00     0.000 C 
BRANCH  16  17
ATOM     17  C   UNL     1     -11.208 -13.306  -3.527  1.00  0.00     0.000 C 
BRANCH  17  18
ATOM     18  C   UNL     1     -12.146 -14.095  -4.454  1.00  0.00    -0.000 C 
BRANCH  18  19
ATOM     19  C   UNL     1     -11.795 -13.928  -5.944  1.00  0.00    -0.000 C 
BRANCH  19  20
ATOM     20  C   UNL     1     -10.286 -13.891  -6.264  1.00  0.00    -0.000 C 
BRANCH  20  21
ATOM     21  C   UNL     1      -9.813 -12.640  -7.024  1.00  0.00    -0.000 C 
BRANCH  21  22
ATOM     22  C   UNL     1      -8.416 -12.172  -6.591  1.00  0.00    -0.000 C 
BRANCH  22  23
ATOM     23  C   UNL     1      -8.503 -11.235  -5.379  1.00  0.00    -0.000 C 
BRANCH  23  24
ATOM     24  C   UNL     1      -7.291 -10.295  -5.267  1.00  0.00    -0.000 C 
BRANCH  24  25
ATOM     25  C   UNL     1      -6.412 -10.309  -6.526  1.00  0.00    -0.003 C 
ATOM     26  C   UNL     1      -4.990 -10.754  -6.198  1.00  0.00     0.004 C 
ENDBRANCH  24  25
ENDBRANCH  23  24
ENDBRANCH  22  23
ENDBRANCH  21  22
ENDBRANCH  20  21
ENDBRANCH  19  20
ENDBRANCH  18  19
ENDBRANCH  17  18
ENDBRANCH  16  17
ENDBRANCH  15  16
ENDBRANCH   1  15
TORSDOF 22
ENDMDL
MODEL 8
REMARK VINA RESULT:    -4.373      2.144      7.418
REMARK INTER + INTRA:         -12.672
REMARK INTER:                 -10.235
REMARK INTRA:                  -2.437
REMARK UNBOUND:                -2.676
REMARK SMILES CCCCCCCCCCCCCCCCCCCCCCCC(=O)[O-]
REMARK SMILES IDX 13 1 14 2 15 3 16 4 17 5 18 6 19 7 20 8 21 9 22 10 23 11
REMARK SMILES IDX 24 12 25 13 26 14 12 15 11 16 10 17 9 18 8 19 7 20 6 21 5 22
REMARK SMILES IDX 4 23 3 24 2 25 1 26
REMARK H PARENT
REMARK Flexibility Score: inf
ROOT
ATOM      1  C   UNL     1      -7.849  -9.381  -5.075  1.00  0.00     0.000 C 
ENDROOT
BRANCH   1   2
ATOM      2  C   UNL     1      -9.357  -9.689  -5.137  1.00  0.00     0.000 C 
BRANCH   2   3
ATOM      3  C   UNL     1     -10.196  -8.468  -5.550  1.00  0.00     0.000 C 
BRANCH   3   4
ATOM      4  C   UNL     1      -9.459  -7.137  -5.323  1.00  0.00     0.000 C 
BRANCH   4   5
ATOM      5  C   UNL     1      -9.251  -6.283  -6.590  1.00  0.00     0.000 C 
BRANCH   5   6
ATOM      6  C   UNL     1     -10.352  -6.476  -7.655  1.00  0.00     0.000 C 
BRANCH   6   7
ATOM      7  C   UNL     1     -10.319  -5.374  -8.729  1.00  0.00     0.000 C 
BRANCH   7   8
ATOM      8  C   UNL     1     -11.482  -4.379  -8.587  1.00  0.00     0.000 C 
BRANCH   8   9
ATOM      9  C   UNL     1     -11.509  -3.700  -7.205  1.00  0.00     0.000 C 
BRANCH   9  10
ATOM     10  C   UNL     1     -12.662  -4.203  -6.323  1.00  0.00     0.006 C 
BRANCH  10  11
ATOM     11  C   UNL     1     -12.178  -4.732  -4.967  1.00  0.00     0.053 C 
BRANCH  11  12
ATOM     12  C   UNL     1     -13.107  -5.789  -4.457  1.00  0.00     0.041 C 
ATOM     13  O   UNL     1     -13.217  -6.884  -5.069  1.00  0.00    -0.550 OA
ATOM     14  O   UNL     1     -13.820  -5.580  -3.283  1.00  0.00    -0.550 OA
ENDBRANCH  11  12
ENDBRANCH  10  11
ENDBRANCH   9  10
ENDBRANCH   8   9
ENDBRANCH   7   8
ENDBRANCH   6   7
ENDBRANCH   5   6
ENDBRANCH   4   5
ENDBRANCH   3   4
ENDBRANCH   2   3
ENDBRANCH   1   2
BRANCH   1  15
ATOM     15  C   UNL     1      -6.927 -10.617  -5.087  1.00  0.00     0.000 C 
BRANCH  15  16
ATOM     16  C   UNL     1      -5.859 -10.631  -6.201  1.00  0.00     0.000 C 
BRANCH  16  17
ATOM     17  C   UNL     1      -6.293 -11.305  -7.515  1.00  0.00     0.000 C 
BRANCH  17  18
ATOM     18  C   UNL     1      -5.707 -12.717  -7.684  1.00  0.00    -0.000 C 
BRANCH  18  19
ATOM     19  C   UNL     1      -6.787 -13.814  -7.704  1.00  0.00    -0.000 C 
BRANCH  19  20
ATOM     20  C   UNL     1      -8.209 -13.332  -8.057  1.00  0.00    -0.000 C 
BRANCH  20  21
ATOM     21  C   UNL     1      -9.090 -12.966  -6.850  1.00  0.00    -0.000 C 
BRANCH  21  22
ATOM     22  C   UNL     1     -10.540 -13.451  -7.001  1.00  0.00    -0.000 C 
BRANCH  22  23
ATOM     23  C   UNL     1     -11.531 -12.330  -6.655  1.00  0.00    -0.000 C 
BRANCH  23  24
ATOM     24  C   UNL     1     -12.431 -12.683  -5.459  1.00  0.00    -0.000 C 
BRANCH  24  25
ATOM     25  C   UNL     1     -11.892 -12.134  -4.130  1.00  0.00    -0.003 C 
ATOM     26  C   UNL     1     -10.984 -13.150  -3.444  1.00  0.00     0.004 C 
ENDBRANCH  24  25
ENDBRANCH  23  24
ENDBRANCH  22  23
ENDBRANCH  21  22
ENDBRANCH  20  21
ENDBRANCH  19  20
ENDBRANCH  18  19
ENDBRANCH  17  18
ENDBRANCH  16  17
ENDBRANCH  15  16
ENDBRANCH   1  15
TORSDOF 22
ENDMDL
MODEL 9
REMARK VINA RESULT:    -4.318      2.874      7.603
REMARK INTER + INTRA:         -12.548
REMARK INTER:                  -9.901
REMARK INTRA:                  -2.646
REMARK UNBOUND:                -2.676
REMARK SMILES CCCCCCCCCCCCCCCCCCCCCCCC(=O)[O-]
REMARK SMILES IDX 13 1 14 2 15 3 16 4 17 5 18 6 19 7 20 8 21 9 22 10 23 11
REMARK SMILES IDX 24 12 25 13 26 14 12 15 11 16 10 17 9 18 8 19 7 20 6 21 5 22
REMARK SMILES IDX 4 23 3 24 2 25 1 26
REMARK H PARENT
REMARK Flexibility Score: inf
ROOT
ATOM      1  C   UNL     1      -8.287 -10.505  -5.140  1.00  0.00     0.000 C 
ENDROOT
BRANCH   1   2
ATOM      2  C   UNL     1      -9.430  -9.473  -5.105  1.00  0.00     0.000 C 
BRANCH   2   3
ATOM      3  C   UNL     1      -8.920  -8.024  -5.027  1.00  0.00     0.000 C 
BRANCH   3   4
ATOM      4  C   UNL     1     -10.004  -6.993  -5.383  1.00  0.00     0.000 C 
BRANCH   4   5
ATOM      5  C   UNL     1     -11.319  -7.588  -5.923  1.00  0.00     0.000 C 
BRANCH   5   6
ATOM      6  C   UNL     1     -12.579  -7.069  -5.197  1.00  0.00     0.000 C 
BRANCH   6   7
ATOM      7  C   UNL     1     -12.511  -5.556  -4.927  1.00  0.00     0.000 C 
BRANCH   7   8
ATOM      8  C   UNL     1     -12.642  -4.721  -6.211  1.00  0.00     0.000 C 
BRANCH   8   9
ATOM      9  C   UNL     1     -11.583  -3.606  -6.297  1.00  0.00     0.000 C 
BRANCH   9  10
ATOM     10  C   UNL     1     -10.771  -3.663  -7.600  1.00  0.00     0.006 C 
BRANCH  10  11
ATOM     11  C   UNL     1     -11.628  -4.051  -8.811  1.00  0.00     0.053 C 
BRANCH  11  12
ATOM     12  C   UNL     1     -11.108  -5.306  -9.439  1.00  0.00     0.041 C 
ATOM     13  O   UNL     1     -10.364  -6.081  -8.782  1.00  0.00    -0.550 OA
ATOM     14  O   UNL     1     -11.479  -5.641 -10.735  1.00  0.00    -0.550 OA
ENDBRANCH  11  12
ENDBRANCH  10  11
ENDBRANCH   9  10
ENDBRANCH   8   9
ENDBRANCH   7   8
ENDBRANCH   6   7
ENDBRANCH   5   6
ENDBRANCH   4   5
ENDBRANCH   3   4
ENDBRANCH   2   3
ENDBRANCH   1   2
BRANCH   1  15
ATOM     15  C   UNL     1      -6.901  -9.936  -5.504  1.00  0.00     0.000 C 
BRANCH  15  16
ATOM     16  C   UNL     1      -5.993 -10.882  -6.316  1.00  0.00     0.000 C 
BRANCH  16  17
ATOM     17  C   UNL     1      -6.630 -11.471  -7.587  1.00  0.00     0.000 C 
BRANCH  17  18
ATOM     18  C   UNL     1      -6.555 -13.006  -7.637  1.00  0.00    -0.000 C 
BRANCH  18  19
ATOM     19  C   UNL     1      -7.810 -13.646  -8.257  1.00  0.00    -0.000 C 
BRANCH  19  20
ATOM     20  C   UNL     1      -8.947 -13.963  -7.264  1.00  0.00    -0.000 C 
BRANCH  20  21
ATOM     21  C   UNL     1      -9.960 -12.825  -7.050  1.00  0.00    -0.000 C 
BRANCH  21  22
ATOM     22  C   UNL     1     -11.196 -12.949  -7.954  1.00  0.00    -0.000 C 
BRANCH  22  23
ATOM     23  C   UNL     1     -12.462 -12.489  -7.217  1.00  0.00    -0.000 C 
BRANCH  23  24
ATOM     24  C   UNL     1     -12.181 -12.053  -5.769  1.00  0.00    -0.000 C 
BRANCH  24  25
ATOM     25  C   UNL     1     -12.916 -10.759  -5.387  1.00  0.00    -0.003 C 
ATOM     26  C   UNL     1     -13.666 -10.924  -4.068  1.00  0.00     0.004 C 
ENDBRANCH  24  25
ENDBRANCH  23  24
ENDBRANCH  22  23
ENDBRANCH  21  22
ENDBRANCH  20  21
ENDBRANCH  19  20
ENDBRANCH  18  19
ENDBRANCH  17  18
ENDBRANCH  16  17
ENDBRANCH  15  16
ENDBRANCH   1  15
TORSDOF 22
ENDMDL
