MODEL 1
REMARK VINA RESULT:    -6.919      0.000      0.000
REMARK INTER + INTRA:          -8.656
REMARK INTER:                  -8.335
REMARK INTRA:                  -0.321
REMARK UNBOUND:                -0.321
REMARK SMILES O=c1c(O)c(-c2ccc(O)c(O)c2)oc2cc(O)cc(O)c12
REMARK SMILES IDX 5 1 3 2 2 3 1 4 22 5 20 6 19 7 17 8 16 9 15 10 14 11 6 12
REMARK SMILES IDX 7 13 8 14 9 15 13 16 11 17 10 18 12 20 4 22 21 24 18 26
REMARK H PARENT 10 19 12 21 4 23 21 25 18 27
REMARK Flexibility Score: inf
ROOT
ATOM      1  C   UNL     1     107.145 121.196 120.524  1.00  0.00     0.180 A 
ATOM      2  C   UNL     1     106.113 120.606 121.276  1.00  0.00     0.208 A 
ATOM      3  C   UNL     1     104.810 121.115 121.160  1.00  0.00     0.238 A 
ATOM      4  O   UNL     1     103.882 120.548 121.793  1.00  0.00    -0.285 OA
ATOM      5  C   UNL     1     104.558 122.218 120.308  1.00  0.00     0.111 A 
ATOM      6  C   UNL     1     103.283 122.841 120.146  1.00  0.00     0.134 A 
ATOM      7  C   UNL     1     103.122 123.841 119.178  1.00  0.00     0.093 A 
ATOM      8  C   UNL     1     104.201 124.285 118.414  1.00  0.00     0.123 A 
ATOM      9  C   UNL     1     105.465 123.724 118.608  1.00  0.00     0.094 A 
ATOM     10  C   UNL     1     105.649 122.700 119.540  1.00  0.00     0.146 A 
ATOM     11  O   UNL     1     106.865 122.185 119.685  1.00  0.00    -0.452 OA
ENDROOT
BRANCH   1  12
ATOM     12  C   UNL     1     108.549 120.730 120.611  1.00  0.00     0.025 A 
ATOM     13  C   UNL     1     109.399 121.160 121.644  1.00  0.00     0.016 A 
ATOM     14  C   UNL     1     110.727 120.727 121.692  1.00  0.00     0.051 A 
ATOM     15  C   UNL     1     111.228 119.870 120.704  1.00  0.00     0.157 A 
ATOM     16  C   UNL     1     109.060 119.889 119.611  1.00  0.00     0.062 A 
ATOM     17  C   UNL     1     110.389 119.451 119.656  1.00  0.00     0.158 A 
BRANCH  15  18
ATOM     18  O   UNL     1     112.552 119.438 120.756  1.00  0.00    -0.504 OA
ATOM     19  H   UNL     1     112.870 118.640 120.220  1.00  0.00     0.293 HD
ENDBRANCH  15  18
BRANCH  17  20
ATOM     20  O   UNL     1     110.859 118.605 118.653  1.00  0.00    -0.504 OA
ATOM     21  H   UNL     1     110.891 117.599 118.768  1.00  0.00     0.293 HD
ENDBRANCH  17  20
ENDBRANCH   1  12
BRANCH   2  22
ATOM     22  O   UNL     1     106.380 119.505 122.093  1.00  0.00    -0.502 OA
ATOM     23  H   UNL     1     105.925 118.609 121.966  1.00  0.00     0.293 HD
ENDBRANCH   2  22
BRANCH   6  24
ATOM     24  O   UNL     1     102.161 122.536 120.921  1.00  0.00    -0.507 OA
ATOM     25  H   UNL     1     101.374 123.152 121.061  1.00  0.00     0.293 HD
ENDBRANCH   6  24
BRANCH   8  26
ATOM     26  O   UNL     1     104.008 125.292 117.472  1.00  0.00    -0.508 OA
ATOM     27  H   UNL     1     103.726 125.082 116.522  1.00  0.00     0.293 HD
ENDBRANCH   8  26
TORSDOF 6
ENDMDL
MODEL 2
REMARK VINA RESULT:    -6.735      1.213      2.984
REMARK INTER + INTRA:          -8.434
REMARK INTER:                  -8.111
REMARK INTRA:                  -0.322
REMARK UNBOUND:                -0.321
REMARK SMILES O=c1c(O)c(-c2ccc(O)c(O)c2)oc2cc(O)cc(O)c12
REMARK SMILES IDX 5 1 3 2 2 3 1 4 22 5 20 6 19 7 17 8 16 9 15 10 14 11 6 12
REMARK SMILES IDX 7 13 8 14 9 15 13 16 11 17 10 18 12 20 4 22 21 24 18 26
REMARK H PARENT 10 19 12 21 4 23 21 25 18 27
REMARK Flexibility Score: inf
ROOT
ATOM      1  C   UNL     1     107.650 122.111 119.502  1.00  0.00     0.180 A 
ATOM      2  C   UNL     1     107.732 123.152 118.560  1.00  0.00     0.208 A 
ATOM      3  C   UNL     1     106.568 123.861 118.225  1.00  0.00     0.238 A 
ATOM      4  O   UNL     1     106.659 124.827 117.423  1.00  0.00    -0.285 OA
ATOM      5  C   UNL     1     105.333 123.511 118.824  1.00  0.00     0.111 A 
ATOM      6  C   UNL     1     104.084 124.136 118.529  1.00  0.00     0.134 A 
ATOM      7  C   UNL     1     102.949 123.797 119.276  1.00  0.00     0.093 A 
ATOM      8  C   UNL     1     103.003 122.811 120.261  1.00  0.00     0.123 A 
ATOM      9  C   UNL     1     104.207 122.152 120.516  1.00  0.00     0.094 A 
ATOM     10  C   UNL     1     105.364 122.494 119.812  1.00  0.00     0.146 A 
ATOM     11  O   UNL     1     106.491 121.850 120.093  1.00  0.00    -0.452 OA
ENDROOT
BRANCH   1  12
ATOM     12  C   UNL     1     108.829 121.302 119.887  1.00  0.00     0.025 A 
ATOM     13  C   UNL     1     109.647 121.671 120.969  1.00  0.00     0.016 A 
ATOM     14  C   UNL     1     110.769 120.906 121.299  1.00  0.00     0.051 A 
ATOM     15  C   UNL     1     111.098 119.770 120.548  1.00  0.00     0.157 A 
ATOM     16  C   UNL     1     109.174 120.176 119.124  1.00  0.00     0.062 A 
ATOM     17  C   UNL     1     110.296 119.406 119.452  1.00  0.00     0.158 A 
BRANCH  15  18
ATOM     18  O   UNL     1     112.215 119.008 120.881  1.00  0.00    -0.504 OA
ATOM     19  H   UNL     1     112.443 118.155 120.385  1.00  0.00     0.293 HD
ENDBRANCH  15  18
BRANCH  17  20
ATOM     20  O   UNL     1     110.600 118.287 118.678  1.00  0.00    -0.504 OA
ATOM     21  H   UNL     1     109.991 117.964 117.936  1.00  0.00     0.293 HD
ENDBRANCH  17  20
ENDBRANCH   1  12
BRANCH   2  22
ATOM     22  O   UNL     1     108.965 123.496 117.999  1.00  0.00    -0.502 OA
ATOM     23  H   UNL     1     109.455 124.348 118.241  1.00  0.00     0.293 HD
ENDBRANCH   2  22
BRANCH   6  24
ATOM     24  O   UNL     1     103.900 125.067 117.502  1.00  0.00    -0.507 OA
ATOM     25  H   UNL     1     103.963 124.857 116.518  1.00  0.00     0.293 HD
ENDBRANCH   6  24
BRANCH   8  26
ATOM     26  O   UNL     1     101.851 122.488 120.975  1.00  0.00    -0.508 OA
ATOM     27  H   UNL     1     101.745 121.590 121.432  1.00  0.00     0.293 HD
ENDBRANCH   8  26
TORSDOF 6
ENDMDL
MODEL 3
REMARK VINA RESULT:    -6.394      1.340      3.305
REMARK INTER + INTRA:          -8.023
REMARK INTER:                  -7.694
REMARK INTRA:                  -0.330
REMARK UNBOUND:                -0.321
REMARK SMILES O=c1c(O)c(-c2ccc(O)c(O)c2)oc2cc(O)cc(O)c12
REMARK SMILES IDX 5 1 3 2 2 3 1 4 22 5 20 6 19 7 17 8 16 9 15 10 14 11 6 12
REMARK SMILES IDX 7 13 8 14 9 15 13 16 11 17 10 18 12 20 4 22 21 24 18 26
REMARK H PARENT 10 19 12 21 4 23 21 25 18 27
REMARK Flexibility Score: inf
ROOT
ATOM      1  C   UNL     1     107.614 122.014 119.371  1.00  0.00     0.180 A 
ATOM      2  C   UNL     1     107.685 123.126 118.513  1.00  0.00     0.208 A 
ATOM      3  C   UNL     1     106.508 123.827 118.208  1.00  0.00     0.238 A 
ATOM      4  O   UNL     1     106.587 124.854 117.484  1.00  0.00    -0.285 OA
ATOM      5  C   UNL     1     105.272 123.398 118.750  1.00  0.00     0.111 A 
ATOM      6  C   UNL     1     104.011 124.009 118.474  1.00  0.00     0.134 A 
ATOM      7  C   UNL     1     102.871 123.582 119.167  1.00  0.00     0.093 A 
ATOM      8  C   UNL     1     102.934 122.526 120.075  1.00  0.00     0.123 A 
ATOM      9  C   UNL     1     104.150 121.882 120.307  1.00  0.00     0.094 A 
ATOM     10  C   UNL     1     105.312 122.309 119.658  1.00  0.00     0.146 A 
ATOM     11  O   UNL     1     106.451 121.677 119.915  1.00  0.00    -0.452 OA
ENDROOT
BRANCH   1  12
ATOM     12  C   UNL     1     108.808 121.210 119.721  1.00  0.00     0.025 A 
ATOM     13  C   UNL     1     109.181 120.088 118.962  1.00  0.00     0.016 A 
ATOM     14  C   UNL     1     110.297 119.329 119.325  1.00  0.00     0.051 A 
ATOM     15  C   UNL     1     111.049 119.673 120.456  1.00  0.00     0.157 A 
ATOM     16  C   UNL     1     109.551 121.539 120.866  1.00  0.00     0.062 A 
ATOM     17  C   UNL     1     110.670 120.783 121.232  1.00  0.00     0.158 A 
BRANCH  15  18
ATOM     18  O   UNL     1     112.163 118.917 120.814  1.00  0.00    -0.504 OA
ATOM     19  H   UNL     1     112.888 118.690 120.144  1.00  0.00     0.293 HD
ENDBRANCH  15  18
BRANCH  17  20
ATOM     20  O   UNL     1     111.392 121.147 122.368  1.00  0.00    -0.504 OA
ATOM     21  H   UNL     1     112.381 120.949 122.464  1.00  0.00     0.293 HD
ENDBRANCH  17  20
ENDBRANCH   1  12
BRANCH   2  22
ATOM     22  O   UNL     1     108.918 123.546 118.009  1.00  0.00    -0.502 OA
ATOM     23  H   UNL     1     109.602 124.032 118.576  1.00  0.00     0.293 HD
ENDBRANCH   2  22
BRANCH   6  24
ATOM     24  O   UNL     1     103.822 125.011 117.518  1.00  0.00    -0.507 OA
ATOM     25  H   UNL     1     104.192 124.988 116.580  1.00  0.00     0.293 HD
ENDBRANCH   6  24
BRANCH   8  26
ATOM     26  O   UNL     1     101.777 122.117 120.735  1.00  0.00    -0.508 OA
ATOM     27  H   UNL     1     100.889 122.581 120.585  1.00  0.00     0.293 HD
ENDBRANCH   8  26
TORSDOF 6
ENDMDL
MODEL 4
REMARK VINA RESULT:    -6.259      1.579      6.445
REMARK INTER + INTRA:          -7.860
REMARK INTER:                  -7.543
REMARK INTRA:                  -0.317
REMARK UNBOUND:                -0.321
REMARK SMILES O=c1c(O)c(-c2ccc(O)c(O)c2)oc2cc(O)cc(O)c12
REMARK SMILES IDX 5 1 3 2 2 3 1 4 22 5 20 6 19 7 17 8 16 9 15 10 14 11 6 12
REMARK SMILES IDX 7 13 8 14 9 15 13 16 11 17 10 18 12 20 4 22 21 24 18 26
REMARK H PARENT 10 19 12 21 4 23 21 25 18 27
REMARK Flexibility Score: inf
ROOT
ATOM      1  C   UNL     1     106.271 121.722 120.111  1.00  0.00     0.180 A 
ATOM      2  C   UNL     1     105.744 121.035 121.220  1.00  0.00     0.208 A 
ATOM      3  C   UNL     1     106.623 120.370 122.088  1.00  0.00     0.238 A 
ATOM      4  O   UNL     1     106.151 119.803 123.108  1.00  0.00    -0.285 OA
ATOM      5  C   UNL     1     108.015 120.384 121.829  1.00  0.00     0.111 A 
ATOM      6  C   UNL     1     108.994 119.709 122.620  1.00  0.00     0.134 A 
ATOM      7  C   UNL     1     110.354 119.900 122.346  1.00  0.00     0.093 A 
ATOM      8  C   UNL     1     110.770 120.687 121.273  1.00  0.00     0.123 A 
ATOM      9  C   UNL     1     109.819 121.303 120.456  1.00  0.00     0.094 A 
ATOM     10  C   UNL     1     108.455 121.161 120.726  1.00  0.00     0.146 A 
ATOM     11  O   UNL     1     107.584 121.772 119.932  1.00  0.00    -0.452 OA
ENDROOT
BRANCH   1  12
ATOM     12  C   UNL     1     105.405 122.428 119.137  1.00  0.00     0.025 A 
ATOM     13  C   UNL     1     105.110 123.794 119.278  1.00  0.00     0.016 A 
ATOM     14  C   UNL     1     104.271 124.433 118.361  1.00  0.00     0.051 A 
ATOM     15  C   UNL     1     103.705 123.715 117.299  1.00  0.00     0.157 A 
ATOM     16  C   UNL     1     104.819 121.707 118.085  1.00  0.00     0.062 A 
ATOM     17  C   UNL     1     103.979 122.343 117.164  1.00  0.00     0.158 A 
BRANCH  15  18
ATOM     18  O   UNL     1     102.871 124.356 116.385  1.00  0.00    -0.504 OA
ATOM     19  H   UNL     1     102.086 124.919 116.688  1.00  0.00     0.293 HD
ENDBRANCH  15  18
BRANCH  17  20
ATOM     20  O   UNL     1     103.425 121.598 116.124  1.00  0.00    -0.504 OA
ATOM     21  H   UNL     1     103.999 121.090 115.461  1.00  0.00     0.293 HD
ENDBRANCH  17  20
ENDBRANCH   1  12
BRANCH   2  22
ATOM     22  O   UNL     1     104.370 121.053 121.469  1.00  0.00    -0.502 OA
ATOM     23  H   UNL     1     103.855 121.912 121.622  1.00  0.00     0.293 HD
ENDBRANCH   2  22
BRANCH   6  24
ATOM     24  O   UNL     1     108.684 118.827 123.659  1.00  0.00    -0.507 OA
ATOM     25  H   UNL     1     109.126 117.931 123.803  1.00  0.00     0.293 HD
ENDBRANCH   6  24
BRANCH   8  26
ATOM     26  O   UNL     1     112.131 120.842 121.020  1.00  0.00    -0.508 OA
ATOM     27  H   UNL     1     112.741 120.044 120.896  1.00  0.00     0.293 HD
ENDBRANCH   8  26
TORSDOF 6
ENDMDL
MODEL 5
REMARK VINA RESULT:    -6.178      1.427      3.017
REMARK INTER + INTRA:          -7.763
REMARK INTER:                  -7.649
REMARK INTRA:                  -0.114
REMARK UNBOUND:                -0.321
REMARK SMILES O=c1c(O)c(-c2ccc(O)c(O)c2)oc2cc(O)cc(O)c12
REMARK SMILES IDX 5 1 3 2 2 3 1 4 22 5 20 6 19 7 17 8 16 9 15 10 14 11 6 12
REMARK SMILES IDX 7 13 8 14 9 15 13 16 11 17 10 18 12 20 4 22 21 24 18 26
REMARK H PARENT 10 19 12 21 4 23 21 25 18 27
REMARK Flexibility Score: inf
ROOT
ATOM      1  C   UNL     1     107.251 121.428 120.823  1.00  0.00     0.180 A 
ATOM      2  C   UNL     1     106.732 122.137 119.725  1.00  0.00     0.208 A 
ATOM      3  C   UNL     1     105.411 122.607 119.781  1.00  0.00     0.238 A 
ATOM      4  O   UNL     1     104.971 123.287 118.817  1.00  0.00    -0.285 OA
ATOM      5  C   UNL     1     104.620 122.350 120.927  1.00  0.00     0.111 A 
ATOM      6  C   UNL     1     103.256 122.745 121.074  1.00  0.00     0.134 A 
ATOM      7  C   UNL     1     102.610 122.552 122.301  1.00  0.00     0.093 A 
ATOM      8  C   UNL     1     103.256 121.921 123.364  1.00  0.00     0.123 A 
ATOM      9  C   UNL     1     104.571 121.477 123.211  1.00  0.00     0.094 A 
ATOM     10  C   UNL     1     105.253 121.688 122.010  1.00  0.00     0.146 A 
ATOM     11  O   UNL     1     106.506 121.260 121.909  1.00  0.00    -0.452 OA
ENDROOT
BRANCH   1  12
ATOM     12  C   UNL     1     108.628 120.880 120.829  1.00  0.00     0.025 A 
ATOM     13  C   UNL     1     109.586 121.320 121.758  1.00  0.00     0.016 A 
ATOM     14  C   UNL     1     110.886 120.807 121.729  1.00  0.00     0.051 A 
ATOM     15  C   UNL     1     111.250 119.858 120.765  1.00  0.00     0.157 A 
ATOM     16  C   UNL     1     109.003 119.946 119.852  1.00  0.00     0.062 A 
ATOM     17  C   UNL     1     110.303 119.428 119.820  1.00  0.00     0.158 A 
BRANCH  15  18
ATOM     18  O   UNL     1     112.546 119.346 120.740  1.00  0.00    -0.504 OA
ATOM     19  H   UNL     1     112.768 118.444 121.144  1.00  0.00     0.293 HD
ENDBRANCH  15  18
BRANCH  17  20
ATOM     20  O   UNL     1     110.636 118.491 118.842  1.00  0.00    -0.504 OA
ATOM     21  H   UNL     1     110.509 117.496 118.985  1.00  0.00     0.293 HD
ENDBRANCH  17  20
ENDBRANCH   1  12
BRANCH   2  22
ATOM     22  O   UNL     1     107.538 122.399 118.614  1.00  0.00    -0.502 OA
ATOM     23  H   UNL     1     108.475 122.025 118.521  1.00  0.00     0.293 HD
ENDBRANCH   2  22
BRANCH   6  24
ATOM     24  O   UNL     1     102.488 123.300 120.046  1.00  0.00    -0.507 OA
ATOM     25  H   UNL     1     102.353 122.880 119.138  1.00  0.00     0.293 HD
ENDBRANCH   6  24
BRANCH   8  26
ATOM     26  O   UNL     1     102.578 121.732 124.567  1.00  0.00    -0.508 OA
ATOM     27  H   UNL     1     102.923 121.094 125.275  1.00  0.00     0.293 HD
ENDBRANCH   8  26
TORSDOF 6
ENDMDL
MODEL 6
REMARK VINA RESULT:    -6.061      1.624      3.296
REMARK INTER + INTRA:          -7.622
REMARK INTER:                  -7.339
REMARK INTRA:                  -0.283
REMARK UNBOUND:                -0.321
REMARK SMILES O=c1c(O)c(-c2ccc(O)c(O)c2)oc2cc(O)cc(O)c12
REMARK SMILES IDX 5 1 3 2 2 3 1 4 22 5 20 6 19 7 17 8 16 9 15 10 14 11 6 12
REMARK SMILES IDX 7 13 8 14 9 15 13 16 11 17 10 18 12 20 4 22 21 24 18 26
REMARK H PARENT 10 19 12 21 4 23 21 25 18 27
REMARK Flexibility Score: inf
ROOT
ATOM      1  C   UNL     1     107.111 121.277 119.450  1.00  0.00     0.180 A 
ATOM      2  C   UNL     1     106.928 122.492 118.765  1.00  0.00     0.208 A 
ATOM      3  C   UNL     1     105.622 122.942 118.514  1.00  0.00     0.238 A 
ATOM      4  O   UNL     1     105.465 124.056 117.949  1.00  0.00    -0.285 OA
ATOM      5  C   UNL     1     104.516 122.165 118.937  1.00  0.00     0.111 A 
ATOM      6  C   UNL     1     103.150 122.505 118.700  1.00  0.00     0.134 A 
ATOM      7  C   UNL     1     102.135 121.730 119.276  1.00  0.00     0.093 A 
ATOM      8  C   UNL     1     102.435 120.592 120.025  1.00  0.00     0.123 A 
ATOM      9  C   UNL     1     103.767 120.217 120.212  1.00  0.00     0.094 A 
ATOM     10  C   UNL     1     104.802 120.991 119.680  1.00  0.00     0.146 A 
ATOM     11  O   UNL     1     106.055 120.605 119.890  1.00  0.00    -0.452 OA
ENDROOT
BRANCH   1  12
ATOM     12  C   UNL     1     108.457 120.726 119.730  1.00  0.00     0.025 A 
ATOM     13  C   UNL     1     108.984 119.665 118.973  1.00  0.00     0.016 A 
ATOM     14  C   UNL     1     110.246 119.144 119.271  1.00  0.00     0.051 A 
ATOM     15  C   UNL     1     110.993 119.665 120.335  1.00  0.00     0.157 A 
ATOM     16  C   UNL     1     109.200 121.230 120.808  1.00  0.00     0.062 A 
ATOM     17  C   UNL     1     110.465 120.712 121.109  1.00  0.00     0.158 A 
BRANCH  15  18
ATOM     18  O   UNL     1     112.253 119.145 120.628  1.00  0.00    -0.504 OA
ATOM     19  H   UNL     1     112.786 119.465 121.427  1.00  0.00     0.293 HD
ENDBRANCH  15  18
BRANCH  17  20
ATOM     20  O   UNL     1     111.180 121.247 122.180  1.00  0.00    -0.504 OA
ATOM     21  H   UNL     1     111.203 122.242 122.368  1.00  0.00     0.293 HD
ENDBRANCH  17  20
ENDBRANCH   1  12
BRANCH   2  22
ATOM     22  O   UNL     1     108.033 123.253 118.377  1.00  0.00    -0.502 OA
ATOM     23  H   UNL     1     108.916 123.222 118.872  1.00  0.00     0.293 HD
ENDBRANCH   2  22
BRANCH   6  24
ATOM     24  O   UNL     1     102.739 123.568 117.891  1.00  0.00    -0.507 OA
ATOM     25  H   UNL     1     101.780 123.772 117.652  1.00  0.00     0.293 HD
ENDBRANCH   6  24
BRANCH   8  26
ATOM     26  O   UNL     1     101.401 119.836 120.571  1.00  0.00    -0.508 OA
ATOM     27  H   UNL     1     101.581 119.092 121.235  1.00  0.00     0.293 HD
ENDBRANCH   8  26
TORSDOF 6
ENDMDL
MODEL 7
REMARK VINA RESULT:    -6.048      2.048      4.036
REMARK INTER + INTRA:          -7.606
REMARK INTER:                  -7.283
REMARK INTRA:                  -0.323
REMARK UNBOUND:                -0.321
REMARK SMILES O=c1c(O)c(-c2ccc(O)c(O)c2)oc2cc(O)cc(O)c12
REMARK SMILES IDX 5 1 3 2 2 3 1 4 22 5 20 6 19 7 17 8 16 9 15 10 14 11 6 12
REMARK SMILES IDX 7 13 8 14 9 15 13 16 11 17 10 18 12 20 4 22 21 24 18 26
REMARK H PARENT 10 19 12 21 4 23 21 25 18 27
REMARK Flexibility Score: inf
ROOT
ATOM      1  C   UNL     1     107.152 120.218 121.314  1.00  0.00     0.180 A 
ATOM      2  C   UNL     1     106.301 121.066 120.582  1.00  0.00     0.208 A 
ATOM      3  C   UNL     1     104.912 120.892 120.688  1.00  0.00     0.238 A 
ATOM      4  O   UNL     1     104.155 121.688 120.074  1.00  0.00    -0.285 OA
ATOM      5  C   UNL     1     104.392 119.863 121.511  1.00  0.00     0.111 A 
ATOM      6  C   UNL     1     103.002 119.571 121.660  1.00  0.00     0.134 A 
ATOM      7  C   UNL     1     102.595 118.615 122.600  1.00  0.00     0.093 A 
ATOM      8  C   UNL     1     103.527 117.897 123.348  1.00  0.00     0.123 A 
ATOM      9  C   UNL     1     104.891 118.133 123.166  1.00  0.00     0.094 A 
ATOM     10  C   UNL     1     105.327 119.105 122.261  1.00  0.00     0.146 A 
ATOM     11  O   UNL     1     106.632 119.307 122.126  1.00  0.00    -0.452 OA
ENDROOT
BRANCH   1  12
ATOM     12  C   UNL     1     108.628 120.324 121.236  1.00  0.00     0.025 A 
ATOM     13  C   UNL     1     109.349 121.150 122.115  1.00  0.00     0.016 A 
ATOM     14  C   UNL     1     110.738 121.254 122.007  1.00  0.00     0.051 A 
ATOM     15  C   UNL     1     111.425 120.546 121.012  1.00  0.00     0.157 A 
ATOM     16  C   UNL     1     109.317 119.634 120.227  1.00  0.00     0.062 A 
ATOM     17  C   UNL     1     110.709 119.734 120.116  1.00  0.00     0.158 A 
BRANCH  15  18
ATOM     18  O   UNL     1     112.811 120.650 120.909  1.00  0.00    -0.504 OA
ATOM     19  H   UNL     1     113.429 120.110 121.503  1.00  0.00     0.293 HD
ENDBRANCH  15  18
BRANCH  17  20
ATOM     20  O   UNL     1     111.362 119.023 119.110  1.00  0.00    -0.504 OA
ATOM     21  H   UNL     1     112.248 118.557 119.268  1.00  0.00     0.293 HD
ENDBRANCH  17  20
ENDBRANCH   1  12
BRANCH   2  22
ATOM     22  O   UNL     1     106.836 122.088 119.795  1.00  0.00    -0.502 OA
ATOM     23  H   UNL     1     107.145 121.937 118.843  1.00  0.00     0.293 HD
ENDBRANCH   2  22
BRANCH   6  24
ATOM     24  O   UNL     1     101.993 120.165 120.896  1.00  0.00    -0.507 OA
ATOM     25  H   UNL     1     101.619 121.088 121.056  1.00  0.00     0.293 HD
ENDBRANCH   6  24
BRANCH   8  26
ATOM     26  O   UNL     1     103.087 116.943 124.263  1.00  0.00    -0.508 OA
ATOM     27  H   UNL     1     102.426 116.223 124.000  1.00  0.00     0.293 HD
ENDBRANCH   8  26
TORSDOF 6
ENDMDL
MODEL 8
REMARK VINA RESULT:    -5.965     10.334     11.740
REMARK INTER + INTRA:          -7.506
REMARK INTER:                  -7.196
REMARK INTRA:                  -0.311
REMARK UNBOUND:                -0.321
REMARK SMILES O=c1c(O)c(-c2ccc(O)c(O)c2)oc2cc(O)cc(O)c12
REMARK SMILES IDX 5 1 3 2 2 3 1 4 22 5 20 6 19 7 17 8 16 9 15 10 14 11 6 12
REMARK SMILES IDX 7 13 8 14 9 15 13 16 11 17 10 18 12 20 4 22 21 24 18 26
REMARK H PARENT 10 19 12 21 4 23 21 25 18 27
REMARK Flexibility Score: inf
ROOT
ATOM      1  C   UNL     1     101.972 115.660 113.356  1.00  0.00     0.180 A 
ATOM      2  C   UNL     1     101.019 115.139 112.463  1.00  0.00     0.208 A 
ATOM      3  C   UNL     1     100.583 113.815 112.629  1.00  0.00     0.238 A 
ATOM      4  O   UNL     1      99.690 113.372 111.860  1.00  0.00    -0.285 OA
ATOM      5  C   UNL     1     101.118 113.023 113.674  1.00  0.00     0.111 A 
ATOM      6  C   UNL     1     100.778 111.656 113.909  1.00  0.00     0.134 A 
ATOM      7  C   UNL     1     101.270 111.009 115.050  1.00  0.00     0.093 A 
ATOM      8  C   UNL     1     102.139 111.657 115.928  1.00  0.00     0.123 A 
ATOM      9  C   UNL     1     102.524 112.975 115.674  1.00  0.00     0.094 A 
ATOM     10  C   UNL     1     102.022 113.658 114.563  1.00  0.00     0.146 A 
ATOM     11  O   UNL     1     102.405 114.914 114.365  1.00  0.00    -0.452 OA
ENDROOT
BRANCH   1  12
ATOM     12  C   UNL     1     102.497 117.040 113.232  1.00  0.00     0.025 A 
ATOM     13  C   UNL     1     101.804 118.137 113.769  1.00  0.00     0.016 A 
ATOM     14  C   UNL     1     102.306 119.433 113.618  1.00  0.00     0.051 A 
ATOM     15  C   UNL     1     103.499 119.652 112.918  1.00  0.00     0.157 A 
ATOM     16  C   UNL     1     103.681 117.266 112.512  1.00  0.00     0.062 A 
ATOM     17  C   UNL     1     104.188 118.561 112.360  1.00  0.00     0.158 A 
BRANCH  15  18
ATOM     18  O   UNL     1     103.999 120.944 112.771  1.00  0.00    -0.504 OA
ATOM     19  H   UNL     1     104.994 121.128 112.739  1.00  0.00     0.293 HD
ENDBRANCH  15  18
BRANCH  17  20
ATOM     20  O   UNL     1     105.374 118.746 111.650  1.00  0.00    -0.504 OA
ATOM     21  H   UNL     1     106.279 118.746 112.105  1.00  0.00     0.293 HD
ENDBRANCH  17  20
ENDBRANCH   1  12
BRANCH   2  22
ATOM     22  O   UNL     1     100.488 115.945 111.453  1.00  0.00    -0.502 OA
ATOM     23  H   UNL     1      99.621 115.723 110.978  1.00  0.00     0.293 HD
ENDBRANCH   2  22
BRANCH   6  24
ATOM     24  O   UNL     1      99.992 110.887 113.046  1.00  0.00    -0.507 OA
ATOM     25  H   UNL     1     100.170 109.922 112.814  1.00  0.00     0.293 HD
ENDBRANCH   6  24
BRANCH   8  26
ATOM     26  O   UNL     1     102.621 110.979 117.045  1.00  0.00    -0.508 OA
ATOM     27  H   UNL     1     102.000 110.659 117.779  1.00  0.00     0.293 HD
ENDBRANCH   8  26
TORSDOF 6
ENDMDL
MODEL 9
REMARK VINA RESULT:    -5.807      2.792      6.695
REMARK INTER + INTRA:          -7.316
REMARK INTER:                  -7.006
REMARK INTRA:                  -0.311
REMARK UNBOUND:                -0.321
REMARK SMILES O=c1c(O)c(-c2ccc(O)c(O)c2)oc2cc(O)cc(O)c12
REMARK SMILES IDX 5 1 3 2 2 3 1 4 22 5 20 6 19 7 17 8 16 9 15 10 14 11 6 12
REMARK SMILES IDX 7 13 8 14 9 15 13 16 11 17 10 18 12 20 4 22 21 24 18 26
REMARK H PARENT 10 19 12 21 4 23 21 25 18 27
REMARK Flexibility Score: inf
ROOT
ATOM      1  C   UNL     1     105.699 119.810 122.069  1.00  0.00     0.180 A 
ATOM      2  C   UNL     1     105.241 120.554 120.968  1.00  0.00     0.208 A 
ATOM      3  C   UNL     1     106.179 121.198 120.145  1.00  0.00     0.238 A 
ATOM      4  O   UNL     1     105.766 121.817 119.129  1.00  0.00    -0.285 OA
ATOM      5  C   UNL     1     107.560 121.104 120.442  1.00  0.00     0.111 A 
ATOM      6  C   UNL     1     108.594 121.750 119.699  1.00  0.00     0.134 A 
ATOM      7  C   UNL     1     109.934 121.482 120.006  1.00  0.00     0.093 A 
ATOM      8  C   UNL     1     110.277 120.644 121.067  1.00  0.00     0.123 A 
ATOM      9  C   UNL     1     109.273 120.055 121.837  1.00  0.00     0.094 A 
ATOM     10  C   UNL     1     107.927 120.275 121.533  1.00  0.00     0.146 A 
ATOM     11  O   UNL     1     107.003 119.687 122.284  1.00  0.00    -0.452 OA
ENDROOT
BRANCH   1  12
ATOM     12  C   UNL     1     104.771 119.122 122.997  1.00  0.00     0.025 A 
ATOM     13  C   UNL     1     104.255 117.848 122.704  1.00  0.00     0.016 A 
ATOM     14  C   UNL     1     103.361 117.230 123.582  1.00  0.00     0.051 A 
ATOM     15  C   UNL     1     102.960 117.878 124.757  1.00  0.00     0.157 A 
ATOM     16  C   UNL     1     104.349 119.778 124.164  1.00  0.00     0.062 A 
ATOM     17  C   UNL     1     103.455 119.161 125.047  1.00  0.00     0.158 A 
BRANCH  15  18
ATOM     18  O   UNL     1     102.070 117.257 125.632  1.00  0.00    -0.504 OA
ATOM     19  H   UNL     1     101.209 116.837 125.303  1.00  0.00     0.293 HD
ENDBRANCH  15  18
BRANCH  17  20
ATOM     20  O   UNL     1     103.070 119.837 126.204  1.00  0.00    -0.504 OA
ATOM     21  H   UNL     1     103.173 119.429 127.126  1.00  0.00     0.293 HD
ENDBRANCH  17  20
ENDBRANCH   1  12
BRANCH   2  22
ATOM     22  O   UNL     1     103.876 120.614 120.679  1.00  0.00    -0.502 OA
ATOM     23  H   UNL     1     103.512 121.096 119.867  1.00  0.00     0.293 HD
ENDBRANCH   2  22
BRANCH   6  24
ATOM     24  O   UNL     1     108.360 122.676 118.679  1.00  0.00    -0.507 OA
ATOM     25  H   UNL     1     108.157 123.654 118.826  1.00  0.00     0.293 HD
ENDBRANCH   6  24
BRANCH   8  26
ATOM     26  O   UNL     1     111.621 120.412 121.353  1.00  0.00    -0.508 OA
ATOM     27  H   UNL     1     111.948 120.299 122.305  1.00  0.00     0.293 HD
ENDBRANCH   8  26
TORSDOF 6
ENDMDL
