MODEL 1
REMARK VINA RESULT:    -6.572      0.000      0.000
REMARK INTER + INTRA:          -7.987
REMARK INTER:                  -7.724
REMARK INTRA:                  -0.263
REMARK UNBOUND:                -0.263
REMARK SMILES O=c1cc(-c2ccc(O)c(O)c2)oc2cc(O)cc(O)c12
REMARK SMILES IDX 4 1 3 2 2 3 1 4 21 5 19 6 18 7 16 8 15 9 14 10 13 11 5 12
REMARK SMILES IDX 6 13 7 14 8 15 12 16 10 17 9 18 11 20 20 22 17 24
REMARK H PARENT 9 19 11 21 20 23 17 25
REMARK Flexibility Score: inf
ROOT
ATOM      1  C   UNL     1       9.437  30.224   4.991  1.00  0.00     0.138 A 
ATOM      2  C   UNL     1       9.239  28.836   5.024  1.00  0.00     0.100 A 
ATOM      3  C   UNL     1       9.060  28.136   3.830  1.00  0.00     0.197 A 
ATOM      4  O   UNL     1       8.940  26.885   3.890  1.00  0.00    -0.289 OA
ATOM      5  C   UNL     1       9.044  28.835   2.599  1.00  0.00     0.107 A 
ATOM      6  C   UNL     1       8.835  28.231   1.323  1.00  0.00     0.134 A 
ATOM      7  C   UNL     1       8.939  29.013   0.165  1.00  0.00     0.093 A 
ATOM      8  C   UNL     1       9.184  30.383   0.239  1.00  0.00     0.123 A 
ATOM      9  C   UNL     1       9.340  30.993   1.484  1.00  0.00     0.094 A 
ATOM     10  C   UNL     1       9.277  30.235   2.656  1.00  0.00     0.146 A 
ATOM     11  O   UNL     1       9.449  30.852   3.821  1.00  0.00    -0.456 OA
ENDROOT
BRANCH   1  12
ATOM     12  C   UNL     1       9.629  31.019   6.231  1.00  0.00     0.021 A 
ATOM     13  C   UNL     1       8.536  31.702   6.789  1.00  0.00     0.016 A 
ATOM     14  C   UNL     1       8.691  32.464   7.949  1.00  0.00     0.051 A 
ATOM     15  C   UNL     1       9.944  32.564   8.566  1.00  0.00     0.157 A 
ATOM     16  C   UNL     1      10.890  31.135   6.849  1.00  0.00     0.062 A 
ATOM     17  C   UNL     1      11.048  31.899   8.011  1.00  0.00     0.158 A 
BRANCH  15  18
ATOM     18  O   UNL     1      10.094  33.323   9.726  1.00  0.00    -0.504 OA
ATOM     19  H   UNL     1      10.465  34.267   9.699  1.00  0.00     0.293 HD
ENDBRANCH  15  18
BRANCH  17  20
ATOM     20  O   UNL     1      12.311  31.989   8.595  1.00  0.00    -0.504 OA
ATOM     21  H   UNL     1      13.162  31.879   8.057  1.00  0.00     0.293 HD
ENDBRANCH  17  20
ENDBRANCH   1  12
BRANCH   6  22
ATOM     22  O   UNL     1       8.504  26.885   1.137  1.00  0.00    -0.507 OA
ATOM     23  H   UNL     1       9.156  26.119   1.167  1.00  0.00     0.293 HD
ENDBRANCH   6  22
BRANCH   8  24
ATOM     24  O   UNL     1       9.266  31.131  -0.934  1.00  0.00    -0.508 OA
ATOM     25  H   UNL     1       9.913  30.887  -1.674  1.00  0.00     0.293 HD
ENDBRANCH   8  24
TORSDOF 5
ENDMDL
MODEL 2
REMARK VINA RESULT:    -6.400      4.037      7.488
REMARK INTER + INTRA:          -7.785
REMARK INTER:                  -7.506
REMARK INTRA:                  -0.279
REMARK UNBOUND:                -0.263
REMARK SMILES O=c1cc(-c2ccc(O)c(O)c2)oc2cc(O)cc(O)c12
REMARK SMILES IDX 4 1 3 2 2 3 1 4 21 5 19 6 18 7 16 8 15 9 14 10 13 11 5 12
REMARK SMILES IDX 6 13 7 14 8 15 12 16 10 17 9 18 11 20 20 22 17 24
REMARK H PARENT 9 19 11 21 20 23 17 25
REMARK Flexibility Score: inf
ROOT
ATOM      1  C   UNL     1       9.933  30.340  -1.625  1.00  0.00     0.138 A 
ATOM      2  C   UNL     1       9.268  31.290  -2.412  1.00  0.00     0.100 A 
ATOM      3  C   UNL     1       9.741  31.578  -3.693  1.00  0.00     0.197 A 
ATOM      4  O   UNL     1       9.089  32.393  -4.395  1.00  0.00    -0.289 OA
ATOM      5  C   UNL     1      10.907  30.936  -4.174  1.00  0.00     0.107 A 
ATOM      6  C   UNL     1      11.501  31.176  -5.450  1.00  0.00     0.134 A 
ATOM      7  C   UNL     1      12.600  30.408  -5.854  1.00  0.00     0.093 A 
ATOM      8  C   UNL     1      13.162  29.452  -5.010  1.00  0.00     0.123 A 
ATOM      9  C   UNL     1      12.621  29.245  -3.740  1.00  0.00     0.094 A 
ATOM     10  C   UNL     1      11.503  29.970  -3.321  1.00  0.00     0.146 A 
ATOM     11  O   UNL     1      11.008  29.729  -2.111  1.00  0.00    -0.456 OA
ENDROOT
BRANCH   1  12
ATOM     12  C   UNL     1       9.476  29.998  -0.254  1.00  0.00     0.021 A 
ATOM     13  C   UNL     1       9.415  31.004   0.725  1.00  0.00     0.016 A 
ATOM     14  C   UNL     1       8.997  30.707   2.024  1.00  0.00     0.051 A 
ATOM     15  C   UNL     1       8.641  29.397   2.370  1.00  0.00     0.157 A 
ATOM     16  C   UNL     1       9.130  28.679   0.104  1.00  0.00     0.062 A 
ATOM     17  C   UNL     1       8.712  28.380   1.406  1.00  0.00     0.158 A 
BRANCH  15  18
ATOM     18  O   UNL     1       8.222  29.105   3.667  1.00  0.00    -0.504 OA
ATOM     19  H   UNL     1       8.268  28.164   4.041  1.00  0.00     0.293 HD
ENDBRANCH  15  18
BRANCH  17  20
ATOM     20  O   UNL     1       8.376  27.063   1.723  1.00  0.00    -0.504 OA
ATOM     21  H   UNL     1       7.432  26.711   1.626  1.00  0.00     0.293 HD
ENDBRANCH  17  20
ENDBRANCH   1  12
BRANCH   6  22
ATOM     22  O   UNL     1      11.070  32.162  -6.343  1.00  0.00    -0.507 OA
ATOM     23  H   UNL     1      10.435  32.912  -6.116  1.00  0.00     0.293 HD
ENDBRANCH   6  22
BRANCH   8  24
ATOM     24  O   UNL     1      14.265  28.718  -5.440  1.00  0.00    -0.508 OA
ATOM     25  H   UNL     1      15.030  28.493  -4.814  1.00  0.00     0.293 HD
ENDBRANCH   8  24
TORSDOF 5
ENDMDL
MODEL 3
REMARK VINA RESULT:    -6.349      7.406     12.402
REMARK INTER + INTRA:          -7.725
REMARK INTER:                  -7.457
REMARK INTRA:                  -0.268
REMARK UNBOUND:                -0.263
REMARK SMILES O=c1cc(-c2ccc(O)c(O)c2)oc2cc(O)cc(O)c12
REMARK SMILES IDX 4 1 3 2 2 3 1 4 21 5 19 6 18 7 16 8 15 9 14 10 13 11 5 12
REMARK SMILES IDX 6 13 7 14 8 15 12 16 10 17 9 18 11 20 20 22 17 24
REMARK H PARENT 9 19 11 21 20 23 17 25
REMARK Flexibility Score: inf
ROOT
ATOM      1  C   UNL     1      12.550  30.172  -6.163  1.00  0.00     0.138 A 
ATOM      2  C   UNL     1      11.852  31.374  -6.343  1.00  0.00     0.100 A 
ATOM      3  C   UNL     1      10.974  31.817  -5.352  1.00  0.00     0.197 A 
ATOM      4  O   UNL     1      10.406  32.927  -5.518  1.00  0.00    -0.289 OA
ATOM      5  C   UNL     1      10.769  31.034  -4.191  1.00  0.00     0.107 A 
ATOM      6  C   UNL     1       9.874  31.369  -3.131  1.00  0.00     0.134 A 
ATOM      7  C   UNL     1       9.829  30.563  -1.985  1.00  0.00     0.093 A 
ATOM      8  C   UNL     1      10.601  29.406  -1.886  1.00  0.00     0.123 A 
ATOM      9  C   UNL     1      11.442  29.043  -2.938  1.00  0.00     0.094 A 
ATOM     10  C   UNL     1      11.536  29.844  -4.079  1.00  0.00     0.146 A 
ATOM     11  O   UNL     1      12.363  29.470  -5.050  1.00  0.00    -0.456 OA
ENDROOT
BRANCH   1  12
ATOM     12  C   UNL     1      13.492  29.651  -7.186  1.00  0.00     0.021 A 
ATOM     13  C   UNL     1      12.986  29.127  -8.387  1.00  0.00     0.016 A 
ATOM     14  C   UNL     1      13.851  28.623  -9.362  1.00  0.00     0.051 A 
ATOM     15  C   UNL     1      15.235  28.625  -9.149  1.00  0.00     0.157 A 
ATOM     16  C   UNL     1      14.885  29.638  -6.972  1.00  0.00     0.062 A 
ATOM     17  C   UNL     1      15.753  29.132  -7.947  1.00  0.00     0.158 A 
BRANCH  15  18
ATOM     18  O   UNL     1      16.094  28.124 -10.125  1.00  0.00    -0.504 OA
ATOM     19  H   UNL     1      16.885  28.661 -10.464  1.00  0.00     0.293 HD
ENDBRANCH  15  18
BRANCH  17  20
ATOM     20  O   UNL     1      17.125  29.137  -7.699  1.00  0.00    -0.504 OA
ATOM     21  H   UNL     1      17.803  28.932  -8.423  1.00  0.00     0.293 HD
ENDBRANCH  17  20
ENDBRANCH   1  12
BRANCH   6  22
ATOM     22  O   UNL     1       8.997  32.458  -3.159  1.00  0.00    -0.507 OA
ATOM     23  H   UNL     1       8.367  32.675  -3.914  1.00  0.00     0.293 HD
ENDBRANCH   6  22
BRANCH   8  24
ATOM     24  O   UNL     1      10.519  28.621  -0.738  1.00  0.00    -0.508 OA
ATOM     25  H   UNL     1      11.338  28.177  -0.340  1.00  0.00     0.293 HD
ENDBRANCH   8  24
TORSDOF 5
ENDMDL
MODEL 4
REMARK VINA RESULT:    -6.322      7.210     11.958
REMARK INTER + INTRA:          -7.694
REMARK INTER:                  -7.395
REMARK INTRA:                  -0.299
REMARK UNBOUND:                -0.263
REMARK SMILES O=c1cc(-c2ccc(O)c(O)c2)oc2cc(O)cc(O)c12
REMARK SMILES IDX 4 1 3 2 2 3 1 4 21 5 19 6 18 7 16 8 15 9 14 10 13 11 5 12
REMARK SMILES IDX 6 13 7 14 8 15 12 16 10 17 9 18 11 20 20 22 17 24
REMARK H PARENT 9 19 11 21 20 23 17 25
REMARK Flexibility Score: inf
ROOT
ATOM      1  C   UNL     1      11.186  31.956  -6.284  1.00  0.00     0.138 A 
ATOM      2  C   UNL     1      12.163  31.040  -6.698  1.00  0.00     0.100 A 
ATOM      3  C   UNL     1      12.611  30.060  -5.812  1.00  0.00     0.197 A 
ATOM      4  O   UNL     1      13.447  29.220  -6.232  1.00  0.00    -0.289 OA
ATOM      5  C   UNL     1      12.102  30.019  -4.491  1.00  0.00     0.107 A 
ATOM      6  C   UNL     1      12.509  29.086  -3.491  1.00  0.00     0.134 A 
ATOM      7  C   UNL     1      11.862  29.081  -2.248  1.00  0.00     0.093 A 
ATOM      8  C   UNL     1      10.866  30.009  -1.950  1.00  0.00     0.123 A 
ATOM      9  C   UNL     1      10.495  30.958  -2.904  1.00  0.00     0.094 A 
ATOM     10  C   UNL     1      11.097  30.967  -4.164  1.00  0.00     0.146 A 
ATOM     11  O   UNL     1      10.701  31.877  -5.050  1.00  0.00    -0.456 OA
ENDROOT
BRANCH   1  12
ATOM     12  C   UNL     1      10.676  33.021  -7.184  1.00  0.00     0.021 A 
ATOM     13  C   UNL     1      10.494  32.744  -8.549  1.00  0.00     0.016 A 
ATOM     14  C   UNL     1      10.024  33.730  -9.419  1.00  0.00     0.051 A 
ATOM     15  C   UNL     1       9.735  35.015  -8.940  1.00  0.00     0.157 A 
ATOM     16  C   UNL     1      10.396  34.319  -6.711  1.00  0.00     0.062 A 
ATOM     17  C   UNL     1       9.926  35.310  -7.581  1.00  0.00     0.158 A 
BRANCH  15  18
ATOM     18  O   UNL     1       9.264  35.996  -9.810  1.00  0.00    -0.504 OA
ATOM     19  H   UNL     1       9.043  35.788 -10.778  1.00  0.00     0.293 HD
ENDBRANCH  15  18
BRANCH  17  20
ATOM     20  O   UNL     1       9.659  36.583  -7.076  1.00  0.00    -0.504 OA
ATOM     21  H   UNL     1      10.018  37.422  -7.515  1.00  0.00     0.293 HD
ENDBRANCH  17  20
ENDBRANCH   1  12
BRANCH   6  22
ATOM     22  O   UNL     1      13.550  28.166  -3.653  1.00  0.00    -0.507 OA
ATOM     23  H   UNL     1      14.145  27.829  -2.914  1.00  0.00     0.293 HD
ENDBRANCH   6  22
BRANCH   8  24
ATOM     24  O   UNL     1      10.255  29.983  -0.698  1.00  0.00    -0.508 OA
ATOM     25  H   UNL     1       9.446  30.557  -0.491  1.00  0.00     0.293 HD
ENDBRANCH   8  24
TORSDOF 5
ENDMDL
MODEL 5
REMARK VINA RESULT:    -6.165      3.319      7.991
REMARK INTER + INTRA:          -7.509
REMARK INTER:                  -7.246
REMARK INTRA:                  -0.263
REMARK UNBOUND:                -0.263
REMARK SMILES O=c1cc(-c2ccc(O)c(O)c2)oc2cc(O)cc(O)c12
REMARK SMILES IDX 4 1 3 2 2 3 1 4 21 5 19 6 18 7 16 8 15 9 14 10 13 11 5 12
REMARK SMILES IDX 6 13 7 14 8 15 12 16 10 17 9 18 11 20 20 22 17 24
REMARK H PARENT 9 19 11 21 20 23 17 25
REMARK Flexibility Score: inf
ROOT
ATOM      1  C   UNL     1      10.150  29.824  -1.034  1.00  0.00     0.138 A 
ATOM      2  C   UNL     1       9.880  28.470  -0.789  1.00  0.00     0.100 A 
ATOM      3  C   UNL     1       9.296  28.090   0.421  1.00  0.00     0.197 A 
ATOM      4  O   UNL     1       9.016  26.876   0.587  1.00  0.00    -0.289 OA
ATOM      5  C   UNL     1       9.014  29.068   1.405  1.00  0.00     0.107 A 
ATOM      6  C   UNL     1       8.452  28.794   2.687  1.00  0.00     0.134 A 
ATOM      7  C   UNL     1       8.127  29.858   3.539  1.00  0.00     0.093 A 
ATOM      8  C   UNL     1       8.396  31.177   3.182  1.00  0.00     0.123 A 
ATOM      9  C   UNL     1       8.992  31.453   1.950  1.00  0.00     0.094 A 
ATOM     10  C   UNL     1       9.296  30.418   1.063  1.00  0.00     0.146 A 
ATOM     11  O   UNL     1       9.847  30.726  -0.107  1.00  0.00    -0.456 OA
ENDROOT
BRANCH   1  12
ATOM     12  C   UNL     1      10.773  30.284  -2.301  1.00  0.00     0.021 A 
ATOM     13  C   UNL     1       9.952  30.730  -3.351  1.00  0.00     0.016 A 
ATOM     14  C   UNL     1      10.512  31.160  -4.556  1.00  0.00     0.051 A 
ATOM     15  C   UNL     1      11.901  31.143  -4.736  1.00  0.00     0.157 A 
ATOM     16  C   UNL     1      12.168  30.256  -2.494  1.00  0.00     0.062 A 
ATOM     17  C   UNL     1      12.731  30.685  -3.701  1.00  0.00     0.158 A 
BRANCH  15  18
ATOM     18  O   UNL     1      12.457  31.576  -5.939  1.00  0.00    -0.504 OA
ATOM     19  H   UNL     1      12.672  30.928  -6.689  1.00  0.00     0.293 HD
ENDBRANCH  15  18
BRANCH  17  20
ATOM     20  O   UNL     1      14.117  30.645  -3.854  1.00  0.00    -0.504 OA
ATOM     21  H   UNL     1      14.606  31.258  -4.494  1.00  0.00     0.293 HD
ENDBRANCH  17  20
ENDBRANCH   1  12
BRANCH   6  22
ATOM     22  O   UNL     1       8.215  27.507   3.181  1.00  0.00    -0.507 OA
ATOM     23  H   UNL     1       7.305  27.100   3.324  1.00  0.00     0.293 HD
ENDBRANCH   6  22
BRANCH   8  24
ATOM     24  O   UNL     1       8.073  32.208   4.061  1.00  0.00    -0.508 OA
ATOM     25  H   UNL     1       7.252  32.786   3.922  1.00  0.00     0.293 HD
ENDBRANCH   8  24
TORSDOF 5
ENDMDL
MODEL 6
REMARK VINA RESULT:    -6.061      4.890      7.903
REMARK INTER + INTRA:          -7.387
REMARK INTER:                  -7.087
REMARK INTRA:                  -0.301
REMARK UNBOUND:                -0.263
REMARK SMILES O=c1cc(-c2ccc(O)c(O)c2)oc2cc(O)cc(O)c12
REMARK SMILES IDX 4 1 3 2 2 3 1 4 21 5 19 6 18 7 16 8 15 9 14 10 13 11 5 12
REMARK SMILES IDX 6 13 7 14 8 15 12 16 10 17 9 18 11 20 20 22 17 24
REMARK H PARENT 9 19 11 21 20 23 17 25
REMARK Flexibility Score: inf
ROOT
ATOM      1  C   UNL     1      10.557  29.477  -2.069  1.00  0.00     0.138 A 
ATOM      2  C   UNL     1      11.791  29.052  -2.581  1.00  0.00     0.100 A 
ATOM      3  C   UNL     1      12.311  29.661  -3.724  1.00  0.00     0.197 A 
ATOM      4  O   UNL     1      13.446  29.295  -4.125  1.00  0.00    -0.289 OA
ATOM      5  C   UNL     1      11.574  30.678  -4.377  1.00  0.00     0.107 A 
ATOM      6  C   UNL     1      11.990  31.346  -5.568  1.00  0.00     0.134 A 
ATOM      7  C   UNL     1      11.221  32.406  -6.068  1.00  0.00     0.093 A 
ATOM      8  C   UNL     1      10.026  32.782  -5.456  1.00  0.00     0.123 A 
ATOM      9  C   UNL     1       9.586  32.102  -4.320  1.00  0.00     0.094 A 
ATOM     10  C   UNL     1      10.347  31.064  -3.777  1.00  0.00     0.146 A 
ATOM     11  O   UNL     1       9.900  30.454  -2.683  1.00  0.00    -0.456 OA
ENDROOT
BRANCH   1  12
ATOM     12  C   UNL     1       9.955  28.862  -0.859  1.00  0.00     0.021 A 
ATOM     13  C   UNL     1      10.096  27.480  -0.644  1.00  0.00     0.016 A 
ATOM     14  C   UNL     1       9.532  26.875   0.481  1.00  0.00     0.051 A 
ATOM     15  C   UNL     1       8.809  27.638   1.407  1.00  0.00     0.157 A 
ATOM     16  C   UNL     1       9.215  29.621   0.068  1.00  0.00     0.062 A 
ATOM     17  C   UNL     1       8.648  29.017   1.196  1.00  0.00     0.158 A 
BRANCH  15  18
ATOM     18  O   UNL     1       8.250  27.031   2.530  1.00  0.00    -0.504 OA
ATOM     19  H   UNL     1       7.862  27.577   3.291  1.00  0.00     0.293 HD
ENDBRANCH  15  18
BRANCH  17  20
ATOM     20  O   UNL     1       7.923  29.802   2.093  1.00  0.00    -0.504 OA
ATOM     21  H   UNL     1       6.944  29.633   2.287  1.00  0.00     0.293 HD
ENDBRANCH  17  20
ENDBRANCH   1  12
BRANCH   6  22
ATOM     22  O   UNL     1      13.125  31.000  -6.307  1.00  0.00    -0.507 OA
ATOM     23  H   UNL     1      13.346  31.347  -7.226  1.00  0.00     0.293 HD
ENDBRANCH   6  22
BRANCH   8  24
ATOM     24  O   UNL     1       9.281  33.830  -5.991  1.00  0.00    -0.508 OA
ATOM     25  H   UNL     1       8.733  33.714  -6.836  1.00  0.00     0.293 HD
ENDBRANCH   8  24
TORSDOF 5
ENDMDL
MODEL 7
REMARK VINA RESULT:    -6.016      5.596      9.154
REMARK INTER + INTRA:          -7.334
REMARK INTER:                  -7.058
REMARK INTRA:                  -0.276
REMARK UNBOUND:                -0.263
REMARK SMILES O=c1cc(-c2ccc(O)c(O)c2)oc2cc(O)cc(O)c12
REMARK SMILES IDX 4 1 3 2 2 3 1 4 21 5 19 6 18 7 16 8 15 9 14 10 13 11 5 12
REMARK SMILES IDX 6 13 7 14 8 15 12 16 10 17 9 18 11 20 20 22 17 24
REMARK H PARENT 9 19 11 21 20 23 17 25
REMARK Flexibility Score: inf
ROOT
ATOM      1  C   UNL     1      10.488  29.547  -3.613  1.00  0.00     0.138 A 
ATOM      2  C   UNL     1       9.622  29.760  -4.695  1.00  0.00     0.100 A 
ATOM      3  C   UNL     1      10.145  29.895  -5.982  1.00  0.00     0.197 A 
ATOM      4  O   UNL     1       9.338  30.030  -6.937  1.00  0.00    -0.289 OA
ATOM      5  C   UNL     1      11.546  29.851  -6.181  1.00  0.00     0.107 A 
ATOM      6  C   UNL     1      12.194  30.010  -7.442  1.00  0.00     0.134 A 
ATOM      7  C   UNL     1      13.583  29.849  -7.530  1.00  0.00     0.093 A 
ATOM      8  C   UNL     1      14.352  29.593  -6.396  1.00  0.00     0.123 A 
ATOM      9  C   UNL     1      13.734  29.484  -5.149  1.00  0.00     0.094 A 
ATOM     10  C   UNL     1      12.347  29.605  -5.034  1.00  0.00     0.146 A 
ATOM     11  O   UNL     1      11.797  29.478  -3.831  1.00  0.00    -0.456 OA
ENDROOT
BRANCH   1  12
ATOM     12  C   UNL     1       9.987  29.400  -2.223  1.00  0.00     0.021 A 
ATOM     13  C   UNL     1       9.308  30.471  -1.618  1.00  0.00     0.016 A 
ATOM     14  C   UNL     1       8.834  30.363  -0.308  1.00  0.00     0.051 A 
ATOM     15  C   UNL     1       9.038  29.185   0.422  1.00  0.00     0.157 A 
ATOM     16  C   UNL     1      10.201  28.223  -1.478  1.00  0.00     0.062 A 
ATOM     17  C   UNL     1       9.728  28.113  -0.165  1.00  0.00     0.158 A 
BRANCH  15  18
ATOM     18  O   UNL     1       8.561  29.079   1.728  1.00  0.00    -0.504 OA
ATOM     19  H   UNL     1       7.569  29.050   1.931  1.00  0.00     0.293 HD
ENDBRANCH  15  18
BRANCH  17  20
ATOM     20  O   UNL     1       9.958  26.932   0.540  1.00  0.00    -0.504 OA
ATOM     21  H   UNL     1      10.679  26.274   0.268  1.00  0.00     0.293 HD
ENDBRANCH  17  20
ENDBRANCH   1  12
BRANCH   6  22
ATOM     22  O   UNL     1      11.532  30.347  -8.627  1.00  0.00    -0.507 OA
ATOM     23  H   UNL     1      10.582  30.678  -8.686  1.00  0.00     0.293 HD
ENDBRANCH   6  22
BRANCH   8  24
ATOM     24  O   UNL     1      15.733  29.453  -6.519  1.00  0.00    -0.508 OA
ATOM     25  H   UNL     1      16.327  29.331  -5.708  1.00  0.00     0.293 HD
ENDBRANCH   8  24
TORSDOF 5
ENDMDL
MODEL 8
REMARK VINA RESULT:    -5.950      7.373     11.395
REMARK INTER + INTRA:          -7.256
REMARK INTER:                  -6.978
REMARK INTRA:                  -0.278
REMARK UNBOUND:                -0.263
REMARK SMILES O=c1cc(-c2ccc(O)c(O)c2)oc2cc(O)cc(O)c12
REMARK SMILES IDX 4 1 3 2 2 3 1 4 21 5 19 6 18 7 16 8 15 9 14 10 13 11 5 12
REMARK SMILES IDX 6 13 7 14 8 15 12 16 10 17 9 18 11 20 20 22 17 24
REMARK H PARENT 9 19 11 21 20 23 17 25
REMARK Flexibility Score: inf
ROOT
ATOM      1  C   UNL     1      10.242  32.431  -5.268  1.00  0.00     0.138 A 
ATOM      2  C   UNL     1       9.283  32.519  -4.250  1.00  0.00     0.100 A 
ATOM      3  C   UNL     1       9.330  31.625  -3.179  1.00  0.00     0.197 A 
ATOM      4  O   UNL     1       8.489  31.766  -2.253  1.00  0.00    -0.289 OA
ATOM      5  C   UNL     1      10.321  30.615  -3.146  1.00  0.00     0.107 A 
ATOM      6  C   UNL     1      10.445  29.628  -2.123  1.00  0.00     0.134 A 
ATOM      7  C   UNL     1      11.528  28.740  -2.149  1.00  0.00     0.093 A 
ATOM      8  C   UNL     1      12.456  28.764  -3.188  1.00  0.00     0.123 A 
ATOM      9  C   UNL     1      12.317  29.692  -4.220  1.00  0.00     0.094 A 
ATOM     10  C   UNL     1      11.268  30.615  -4.206  1.00  0.00     0.146 A 
ATOM     11  O   UNL     1      11.181  31.494  -5.199  1.00  0.00    -0.456 OA
ENDROOT
BRANCH   1  12
ATOM     12  C   UNL     1      10.238  33.352  -6.433  1.00  0.00     0.021 A 
ATOM     13  C   UNL     1      10.424  32.833  -7.725  1.00  0.00     0.016 A 
ATOM     14  C   UNL     1      10.433  33.679  -8.836  1.00  0.00     0.051 A 
ATOM     15  C   UNL     1      10.265  35.060  -8.675  1.00  0.00     0.157 A 
ATOM     16  C   UNL     1      10.083  34.744  -6.276  1.00  0.00     0.062 A 
ATOM     17  C   UNL     1      10.093  35.594  -7.388  1.00  0.00     0.158 A 
BRANCH  15  18
ATOM     18  O   UNL     1      10.271  35.901  -9.786  1.00  0.00    -0.504 OA
ATOM     19  H   UNL     1       9.456  36.445 -10.046  1.00  0.00     0.293 HD
ENDBRANCH  15  18
BRANCH  17  20
ATOM     20  O   UNL     1       9.934  36.966  -7.193  1.00  0.00    -0.504 OA
ATOM     21  H   UNL     1       9.255  37.342  -6.543  1.00  0.00     0.293 HD
ENDBRANCH  17  20
ENDBRANCH   1  12
BRANCH   6  22
ATOM     22  O   UNL     1       9.529  29.461  -1.079  1.00  0.00    -0.507 OA
ATOM     23  H   UNL     1       9.382  28.605  -0.569  1.00  0.00     0.293 HD
ENDBRANCH   6  22
BRANCH   8  24
ATOM     24  O   UNL     1      13.512  27.855  -3.188  1.00  0.00    -0.508 OA
ATOM     25  H   UNL     1      13.920  27.516  -4.052  1.00  0.00     0.293 HD
ENDBRANCH   8  24
TORSDOF 5
ENDMDL
MODEL 9
REMARK VINA RESULT:    -5.854      6.711     10.646
REMARK INTER + INTRA:          -7.143
REMARK INTER:                  -6.832
REMARK INTRA:                  -0.311
REMARK UNBOUND:                -0.263
REMARK SMILES O=c1cc(-c2ccc(O)c(O)c2)oc2cc(O)cc(O)c12
REMARK SMILES IDX 4 1 3 2 2 3 1 4 21 5 19 6 18 7 16 8 15 9 14 10 13 11 5 12
REMARK SMILES IDX 6 13 7 14 8 15 12 16 10 17 9 18 11 20 20 22 17 24
REMARK H PARENT 9 19 11 21 20 23 17 25
REMARK Flexibility Score: inf
ROOT
ATOM      1  C   UNL     1      10.492  31.099  -5.253  1.00  0.00     0.138 A 
ATOM      2  C   UNL     1      10.738  30.480  -6.486  1.00  0.00     0.100 A 
ATOM      3  C   UNL     1      10.744  31.245  -7.653  1.00  0.00     0.197 A 
ATOM      4  O   UNL     1      11.022  30.669  -8.737  1.00  0.00    -0.289 OA
ATOM      5  C   UNL     1      10.467  32.631  -7.589  1.00  0.00     0.107 A 
ATOM      6  C   UNL     1      10.413  33.504  -8.717  1.00  0.00     0.134 A 
ATOM      7  C   UNL     1      10.227  34.878  -8.517  1.00  0.00     0.093 A 
ATOM      8  C   UNL     1      10.036  35.402  -7.240  1.00  0.00     0.123 A 
ATOM      9  C   UNL     1      10.037  34.551  -6.134  1.00  0.00     0.094 A 
ATOM     10  C   UNL     1      10.255  33.181  -6.296  1.00  0.00     0.146 A 
ATOM     11  O   UNL     1      10.266  32.408  -5.215  1.00  0.00    -0.456 OA
ENDROOT
BRANCH   1  12
ATOM     12  C   UNL     1      10.470  30.334  -3.980  1.00  0.00     0.021 A 
ATOM     13  C   UNL     1      10.231  28.950  -4.011  1.00  0.00     0.016 A 
ATOM     14  C   UNL     1      10.196  28.208  -2.828  1.00  0.00     0.051 A 
ATOM     15  C   UNL     1      10.391  28.838  -1.593  1.00  0.00     0.157 A 
ATOM     16  C   UNL     1      10.652  30.964  -2.733  1.00  0.00     0.062 A 
ATOM     17  C   UNL     1      10.617  30.223  -1.546  1.00  0.00     0.158 A 
BRANCH  15  18
ATOM     18  O   UNL     1      10.359  28.095  -0.414  1.00  0.00    -0.504 OA
ATOM     19  H   UNL     1       9.493  27.714  -0.049  1.00  0.00     0.293 HD
ENDBRANCH  15  18
BRANCH  17  20
ATOM     20  O   UNL     1      10.803  30.882  -0.331  1.00  0.00    -0.504 OA
ATOM     21  H   UNL     1      10.591  30.444   0.557  1.00  0.00     0.293 HD
ENDBRANCH  17  20
ENDBRANCH   1  12
BRANCH   6  22
ATOM     22  O   UNL     1      10.511  33.077 -10.045  1.00  0.00    -0.507 OA
ATOM     23  H   UNL     1       9.811  32.543 -10.535  1.00  0.00     0.293 HD
ENDBRANCH   6  22
BRANCH   8  24
ATOM     24  O   UNL     1       9.838  36.772  -7.082  1.00  0.00    -0.508 OA
ATOM     25  H   UNL     1      10.346  37.304  -6.384  1.00  0.00     0.293 HD
ENDBRANCH   8  24
TORSDOF 5
ENDMDL
