MODEL 1
REMARK VINA RESULT:    -7.703      0.000      0.000
REMARK INTER + INTRA:          -9.690
REMARK INTER:                  -9.279
REMARK INTRA:                  -0.410
REMARK UNBOUND:                -0.410
REMARK SMILES O=c1c(O)c(-c2ccc(O)cc2O)oc2cc(O)cc(O)c12
REMARK SMILES IDX 5 1 3 2 2 3 1 4 22 5 20 6 19 7 17 8 16 9 15 10 14 11 6 12
REMARK SMILES IDX 8 13 7 14 9 15 11 16 12 17 10 18 13 20 4 22 21 24 18 26
REMARK H PARENT 10 19 13 21 4 23 21 25 18 27
REMARK Flexibility Score: inf
ROOT
ATOM      1  C   UNL     1      27.708  -0.331  -5.637  1.00  0.00     0.184 A 
ATOM      2  C   UNL     1      28.644  -1.373  -5.555  1.00  0.00     0.208 A 
ATOM      3  C   UNL     1      30.009  -1.056  -5.461  1.00  0.00     0.238 A 
ATOM      4  O   UNL     1      30.847  -1.996  -5.441  1.00  0.00    -0.285 OA
ATOM      5  C   UNL     1      30.416   0.299  -5.434  1.00  0.00     0.111 A 
ATOM      6  C   UNL     1      31.768   0.737  -5.300  1.00  0.00     0.134 A 
ATOM      7  C   UNL     1      32.068   2.100  -5.416  1.00  0.00     0.093 A 
ATOM      8  C   UNL     1      31.060   3.046  -5.596  1.00  0.00     0.123 A 
ATOM      9  C   UNL     1      29.728   2.636  -5.667  1.00  0.00     0.094 A 
ATOM     10  C   UNL     1      29.400   1.279  -5.592  1.00  0.00     0.146 A 
ATOM     11  O   UNL     1      28.123   0.930  -5.676  1.00  0.00    -0.451 OA
ENDROOT
BRANCH   1  12
ATOM     12  C   UNL     1      26.256  -0.595  -5.721  1.00  0.00     0.063 A 
ATOM     13  C   UNL     1      24.150  -1.001  -4.578  1.00  0.00     0.047 A 
ATOM     14  C   UNL     1      25.522  -0.745  -4.534  1.00  0.00     0.020 A 
ATOM     15  C   UNL     1      23.495  -1.123  -5.807  1.00  0.00     0.119 A 
ATOM     16  C   UNL     1      24.223  -0.998  -6.997  1.00  0.00     0.093 A 
ATOM     17  C   UNL     1      25.603  -0.748  -6.962  1.00  0.00     0.130 A 
BRANCH  15  18
ATOM     18  O   UNL     1      22.126  -1.374  -5.834  1.00  0.00    -0.508 OA
ATOM     19  H   UNL     1      21.681  -1.798  -6.640  1.00  0.00     0.293 HD
ENDBRANCH  15  18
BRANCH  17  20
ATOM     20  O   UNL     1      26.325  -0.674  -8.153  1.00  0.00    -0.507 OA
ATOM     21  H   UNL     1      27.171  -0.123  -8.229  1.00  0.00     0.293 HD
ENDBRANCH  17  20
ENDBRANCH   1  12
BRANCH   2  22
ATOM     22  O   UNL     1      28.215  -2.703  -5.602  1.00  0.00    -0.502 OA
ATOM     23  H   UNL     1      28.862  -3.482  -5.584  1.00  0.00     0.293 HD
ENDBRANCH   2  22
BRANCH   6  24
ATOM     24  O   UNL     1      32.841  -0.117  -5.029  1.00  0.00    -0.507 OA
ATOM     25  H   UNL     1      32.800  -1.125  -5.072  1.00  0.00     0.293 HD
ENDBRANCH   6  24
BRANCH   8  26
ATOM     26  O   UNL     1      31.393   4.396  -5.691  1.00  0.00    -0.508 OA
ATOM     27  H   UNL     1      31.892   4.762  -6.494  1.00  0.00     0.293 HD
ENDBRANCH   8  26
TORSDOF 6
ENDMDL
MODEL 2
REMARK VINA RESULT:    -7.640      2.316      3.369
REMARK INTER + INTRA:          -9.613
REMARK INTER:                  -9.194
REMARK INTRA:                  -0.419
REMARK UNBOUND:                -0.410
REMARK SMILES O=c1c(O)c(-c2ccc(O)cc2O)oc2cc(O)cc(O)c12
REMARK SMILES IDX 5 1 3 2 2 3 1 4 22 5 20 6 19 7 17 8 16 9 15 10 14 11 6 12
REMARK SMILES IDX 8 13 7 14 9 15 11 16 12 17 10 18 13 20 4 22 21 24 18 26
REMARK H PARENT 10 19 13 21 4 23 21 25 18 27
REMARK Flexibility Score: inf
ROOT
ATOM      1  C   UNL     1      29.797   0.358  -6.255  1.00  0.00     0.184 A 
ATOM      2  C   UNL     1      30.208   0.150  -7.580  1.00  0.00     0.208 A 
ATOM      3  C   UNL     1      31.582   0.141  -7.874  1.00  0.00     0.238 A 
ATOM      4  O   UNL     1      31.942   0.008  -9.073  1.00  0.00    -0.285 OA
ATOM      5  C   UNL     1      32.524   0.325  -6.834  1.00  0.00     0.111 A 
ATOM      6  C   UNL     1      33.940   0.295  -7.008  1.00  0.00     0.134 A 
ATOM      7  C   UNL     1      34.776   0.618  -5.933  1.00  0.00     0.093 A 
ATOM      8  C   UNL     1      34.251   0.906  -4.674  1.00  0.00     0.123 A 
ATOM      9  C   UNL     1      32.870   0.880  -4.476  1.00  0.00     0.094 A 
ATOM     10  C   UNL     1      32.008   0.597  -5.539  1.00  0.00     0.146 A 
ATOM     11  O   UNL     1      30.701   0.593  -5.311  1.00  0.00    -0.451 OA
ENDROOT
BRANCH   1  12
ATOM     12  C   UNL     1      28.368   0.362  -5.876  1.00  0.00     0.063 A 
ATOM     13  C   UNL     1      26.246   1.544  -5.790  1.00  0.00     0.047 A 
ATOM     14  C   UNL     1      27.598   1.505  -6.141  1.00  0.00     0.020 A 
ATOM     15  C   UNL     1      25.650   0.448  -5.160  1.00  0.00     0.119 A 
ATOM     16  C   UNL     1      26.417  -0.688  -4.870  1.00  0.00     0.093 A 
ATOM     17  C   UNL     1      27.777  -0.733  -5.213  1.00  0.00     0.130 A 
BRANCH  15  18
ATOM     18  O   UNL     1      24.301   0.500  -4.821  1.00  0.00    -0.508 OA
ATOM     19  H   UNL     1      23.603   0.840  -5.473  1.00  0.00     0.293 HD
ENDBRANCH  15  18
BRANCH  17  20
ATOM     20  O   UNL     1      28.540  -1.851  -4.876  1.00  0.00    -0.507 OA
ATOM     21  H   UNL     1      28.126  -2.666  -4.439  1.00  0.00     0.293 HD
ENDBRANCH  17  20
ENDBRANCH   1  12
BRANCH   2  22
ATOM     22  O   UNL     1      29.256  -0.011  -8.591  1.00  0.00    -0.502 OA
ATOM     23  H   UNL     1      28.595  -0.779  -8.597  1.00  0.00     0.293 HD
ENDBRANCH   2  22
BRANCH   6  24
ATOM     24  O   UNL     1      34.571  -0.069  -8.202  1.00  0.00    -0.507 OA
ATOM     25  H   UNL     1      34.503   0.443  -9.069  1.00  0.00     0.293 HD
ENDBRANCH   6  24
BRANCH   8  26
ATOM     26  O   UNL     1      35.114   1.208  -3.622  1.00  0.00    -0.508 OA
ATOM     27  H   UNL     1      34.951   0.857  -2.686  1.00  0.00     0.293 HD
ENDBRANCH   8  26
TORSDOF 6
ENDMDL
MODEL 3
REMARK VINA RESULT:    -7.619      3.766      8.423
REMARK INTER + INTRA:          -9.588
REMARK INTER:                  -9.340
REMARK INTRA:                  -0.247
REMARK UNBOUND:                -0.410
REMARK SMILES O=c1c(O)c(-c2ccc(O)cc2O)oc2cc(O)cc(O)c12
REMARK SMILES IDX 5 1 3 2 2 3 1 4 22 5 20 6 19 7 17 8 16 9 15 10 14 11 6 12
REMARK SMILES IDX 8 13 7 14 9 15 11 16 12 17 10 18 13 20 4 22 21 24 18 26
REMARK H PARENT 10 19 13 21 4 23 21 25 18 27
REMARK Flexibility Score: inf
ROOT
ATOM      1  C   UNL     1      33.394  -0.659  -5.781  1.00  0.00     0.184 A 
ATOM      2  C   UNL     1      32.441  -0.507  -4.763  1.00  0.00     0.208 A 
ATOM      3  C   UNL     1      31.134  -0.974  -4.979  1.00  0.00     0.238 A 
ATOM      4  O   UNL     1      30.270  -0.787  -4.082  1.00  0.00    -0.285 OA
ATOM      5  C   UNL     1      30.805  -1.601  -6.204  1.00  0.00     0.111 A 
ATOM      6  C   UNL     1      29.524  -2.148  -6.517  1.00  0.00     0.134 A 
ATOM      7  C   UNL     1      29.273  -2.628  -7.808  1.00  0.00     0.093 A 
ATOM      8  C   UNL     1      30.275  -2.641  -8.778  1.00  0.00     0.123 A 
ATOM      9  C   UNL     1      31.549  -2.165  -8.466  1.00  0.00     0.094 A 
ATOM     10  C   UNL     1      31.819  -1.645  -7.198  1.00  0.00     0.146 A 
ATOM     11  O   UNL     1      33.040  -1.191  -6.945  1.00  0.00    -0.451 OA
ENDROOT
BRANCH   1  12
ATOM     12  C   UNL     1      34.791  -0.205  -5.612  1.00  0.00     0.063 A 
ATOM     13  C   UNL     1      36.617   1.216  -6.357  1.00  0.00     0.047 A 
ATOM     14  C   UNL     1      35.299   0.769  -6.485  1.00  0.00     0.020 A 
ATOM     15  C   UNL     1      37.446   0.687  -5.364  1.00  0.00     0.119 A 
ATOM     16  C   UNL     1      36.954  -0.303  -4.503  1.00  0.00     0.093 A 
ATOM     17  C   UNL     1      35.635  -0.762  -4.629  1.00  0.00     0.130 A 
BRANCH  15  18
ATOM     18  O   UNL     1      38.755   1.146  -5.246  1.00  0.00    -0.508 OA
ATOM     19  H   UNL     1      38.965   2.050  -4.839  1.00  0.00     0.293 HD
ENDBRANCH  15  18
BRANCH  17  20
ATOM     20  O   UNL     1      35.173  -1.782  -3.797  1.00  0.00    -0.507 OA
ATOM     21  H   UNL     1      34.994  -2.715  -4.148  1.00  0.00     0.293 HD
ENDBRANCH  17  20
ENDBRANCH   1  12
BRANCH   2  22
ATOM     22  O   UNL     1      32.788   0.131  -3.569  1.00  0.00    -0.502 OA
ATOM     23  H   UNL     1      32.136   0.242  -2.802  1.00  0.00     0.293 HD
ENDBRANCH   2  22
BRANCH   6  24
ATOM     24  O   UNL     1      28.480  -2.266  -5.594  1.00  0.00    -0.507 OA
ATOM     25  H   UNL     1      28.394  -1.719  -4.750  1.00  0.00     0.293 HD
ENDBRANCH   6  24
BRANCH   8  26
ATOM     26  O   UNL     1      29.994  -3.141 -10.049  1.00  0.00    -0.508 OA
ATOM     27  H   UNL     1      30.734  -3.362 -10.706  1.00  0.00     0.293 HD
ENDBRANCH   8  26
TORSDOF 6
ENDMDL
MODEL 4
REMARK VINA RESULT:    -7.601      2.241      7.006
REMARK INTER + INTRA:          -9.566
REMARK INTER:                  -9.147
REMARK INTRA:                  -0.419
REMARK UNBOUND:                -0.410
REMARK SMILES O=c1c(O)c(-c2ccc(O)cc2O)oc2cc(O)cc(O)c12
REMARK SMILES IDX 5 1 3 2 2 3 1 4 22 5 20 6 19 7 17 8 16 9 15 10 14 11 6 12
REMARK SMILES IDX 8 13 7 14 9 15 11 16 12 17 10 18 13 20 4 22 21 24 18 26
REMARK H PARENT 10 19 13 21 4 23 21 25 18 27
REMARK Flexibility Score: inf
ROOT
ATOM      1  C   UNL     1      30.776  -0.270  -6.165  1.00  0.00     0.184 A 
ATOM      2  C   UNL     1      30.489  -0.219  -7.538  1.00  0.00     0.208 A 
ATOM      3  C   UNL     1      29.148  -0.238  -7.954  1.00  0.00     0.238 A 
ATOM      4  O   UNL     1      28.898  -0.246  -9.189  1.00  0.00    -0.285 OA
ATOM      5  C   UNL     1      28.113  -0.292  -6.990  1.00  0.00     0.111 A 
ATOM      6  C   UNL     1      26.719  -0.276  -7.295  1.00  0.00     0.134 A 
ATOM      7  C   UNL     1      25.784  -0.464  -6.270  1.00  0.00     0.093 A 
ATOM      8  C   UNL     1      26.190  -0.604  -4.943  1.00  0.00     0.123 A 
ATOM      9  C   UNL     1      27.548  -0.561  -4.625  1.00  0.00     0.094 A 
ATOM     10  C   UNL     1      28.506  -0.411  -5.630  1.00  0.00     0.146 A 
ATOM     11  O   UNL     1      29.788  -0.386  -5.287  1.00  0.00    -0.451 OA
ENDROOT
BRANCH   1  12
ATOM     12  C   UNL     1      32.165  -0.236  -5.660  1.00  0.00     0.063 A 
ATOM     13  C   UNL     1      34.251  -1.410  -5.241  1.00  0.00     0.047 A 
ATOM     14  C   UNL     1      32.937  -1.407  -5.716  1.00  0.00     0.020 A 
ATOM     15  C   UNL     1      34.806  -0.250  -4.694  1.00  0.00     0.119 A 
ATOM     16  C   UNL     1      34.035   0.917  -4.613  1.00  0.00     0.093 A 
ATOM     17  C   UNL     1      32.712   0.927  -5.081  1.00  0.00     0.130 A 
BRANCH  15  18
ATOM     18  O   UNL     1      36.118  -0.268  -4.230  1.00  0.00    -0.508 OA
ATOM     19  H   UNL     1      36.542   0.549  -3.807  1.00  0.00     0.293 HD
ENDBRANCH  15  18
BRANCH  17  20
ATOM     20  O   UNL     1      31.940   2.082  -4.951  1.00  0.00    -0.507 OA
ATOM     21  H   UNL     1      31.371   2.251  -4.130  1.00  0.00     0.293 HD
ENDBRANCH  17  20
ENDBRANCH   1  12
BRANCH   2  22
ATOM     22  O   UNL     1      31.531  -0.184  -8.469  1.00  0.00    -0.502 OA
ATOM     23  H   UNL     1      31.370  -0.031  -9.458  1.00  0.00     0.293 HD
ENDBRANCH   2  22
BRANCH   6  24
ATOM     24  O   UNL     1      26.203  -0.053  -8.576  1.00  0.00    -0.507 OA
ATOM     25  H   UNL     1      26.672  -0.298  -9.435  1.00  0.00     0.293 HD
ENDBRANCH   6  24
BRANCH   8  26
ATOM     26  O   UNL     1      25.231  -0.774  -3.946  1.00  0.00    -0.508 OA
ATOM     27  H   UNL     1      24.289  -1.080  -4.164  1.00  0.00     0.293 HD
ENDBRANCH   8  26
TORSDOF 6
ENDMDL
MODEL 5
REMARK VINA RESULT:    -7.522      2.947      7.793
REMARK INTER + INTRA:          -9.471
REMARK INTER:                  -9.122
REMARK INTRA:                  -0.349
REMARK UNBOUND:                -0.410
REMARK SMILES O=c1c(O)c(-c2ccc(O)cc2O)oc2cc(O)cc(O)c12
REMARK SMILES IDX 5 1 3 2 2 3 1 4 22 5 20 6 19 7 17 8 16 9 15 10 14 11 6 12
REMARK SMILES IDX 8 13 7 14 9 15 11 16 12 17 10 18 13 20 4 22 21 24 18 26
REMARK H PARENT 10 19 13 21 4 23 21 25 18 27
REMARK Flexibility Score: inf
ROOT
ATOM      1  C   UNL     1      33.279   0.122  -5.408  1.00  0.00     0.184 A 
ATOM      2  C   UNL     1      32.910  -1.230  -5.481  1.00  0.00     0.208 A 
ATOM      3  C   UNL     1      31.560  -1.558  -5.689  1.00  0.00     0.238 A 
ATOM      4  O   UNL     1      31.228  -2.772  -5.700  1.00  0.00    -0.285 OA
ATOM      5  C   UNL     1      30.602  -0.527  -5.838  1.00  0.00     0.111 A 
ATOM      6  C   UNL     1      29.213  -0.742  -6.092  1.00  0.00     0.134 A 
ATOM      7  C   UNL     1      28.334   0.347  -6.092  1.00  0.00     0.093 A 
ATOM      8  C   UNL     1      28.800   1.649  -5.910  1.00  0.00     0.123 A 
ATOM      9  C   UNL     1      30.164   1.877  -5.720  1.00  0.00     0.094 A 
ATOM     10  C   UNL     1      31.061   0.807  -5.679  1.00  0.00     0.146 A 
ATOM     11  O   UNL     1      32.348   1.066  -5.485  1.00  0.00    -0.451 OA
ENDROOT
BRANCH   1  12
ATOM     12  C   UNL     1      34.684   0.535  -5.208  1.00  0.00     0.063 A 
ATOM     13  C   UNL     1      36.403   1.397  -3.721  1.00  0.00     0.047 A 
ATOM     14  C   UNL     1      35.084   0.994  -3.943  1.00  0.00     0.020 A 
ATOM     15  C   UNL     1      37.335   1.359  -4.762  1.00  0.00     0.119 A 
ATOM     16  C   UNL     1      36.939   0.925  -6.033  1.00  0.00     0.093 A 
ATOM     17  C   UNL     1      35.615   0.524  -6.266  1.00  0.00     0.130 A 
BRANCH  15  18
ATOM     18  O   UNL     1      38.647   1.760  -4.524  1.00  0.00    -0.508 OA
ATOM     19  H   UNL     1      39.433   1.277  -4.943  1.00  0.00     0.293 HD
ENDBRANCH  15  18
BRANCH  17  20
ATOM     20  O   UNL     1      35.222   0.140  -7.549  1.00  0.00    -0.507 OA
ATOM     21  H   UNL     1      35.420   0.713  -8.360  1.00  0.00     0.293 HD
ENDBRANCH  17  20
ENDBRANCH   1  12
BRANCH   2  22
ATOM     22  O   UNL     1      33.875  -2.228  -5.313  1.00  0.00    -0.502 OA
ATOM     23  H   UNL     1      33.999  -2.980  -5.980  1.00  0.00     0.293 HD
ENDBRANCH   2  22
BRANCH   6  24
ATOM     24  O   UNL     1      28.657  -1.993  -6.376  1.00  0.00    -0.507 OA
ATOM     25  H   UNL     1      28.883  -2.847  -5.889  1.00  0.00     0.293 HD
ENDBRANCH   6  24
BRANCH   8  26
ATOM     26  O   UNL     1      27.898   2.711  -5.931  1.00  0.00    -0.508 OA
ATOM     27  H   UNL     1      27.460   3.051  -5.082  1.00  0.00     0.293 HD
ENDBRANCH   8  26
TORSDOF 6
ENDMDL
MODEL 6
REMARK VINA RESULT:    -7.385      2.365      7.088
REMARK INTER + INTRA:          -9.306
REMARK INTER:                  -8.969
REMARK INTRA:                  -0.338
REMARK UNBOUND:                -0.410
REMARK SMILES O=c1c(O)c(-c2ccc(O)cc2O)oc2cc(O)cc(O)c12
REMARK SMILES IDX 5 1 3 2 2 3 1 4 22 5 20 6 19 7 17 8 16 9 15 10 14 11 6 12
REMARK SMILES IDX 8 13 7 14 9 15 11 16 12 17 10 18 13 20 4 22 21 24 18 26
REMARK H PARENT 10 19 13 21 4 23 21 25 18 27
REMARK Flexibility Score: inf
ROOT
ATOM      1  C   UNL     1      30.719  -0.355  -6.804  1.00  0.00     0.184 A 
ATOM      2  C   UNL     1      30.237  -0.239  -8.117  1.00  0.00     0.208 A 
ATOM      3  C   UNL     1      28.850  -0.248  -8.337  1.00  0.00     0.238 A 
ATOM      4  O   UNL     1      28.426  -0.197  -9.521  1.00  0.00    -0.285 OA
ATOM      5  C   UNL     1      27.965  -0.356  -7.237  1.00  0.00     0.111 A 
ATOM      6  C   UNL     1      26.541  -0.335  -7.338  1.00  0.00     0.134 A 
ATOM      7  C   UNL     1      25.764  -0.581  -6.199  1.00  0.00     0.093 A 
ATOM      8  C   UNL     1      26.357  -0.782  -4.953  1.00  0.00     0.123 A 
ATOM      9  C   UNL     1      27.746  -0.745  -4.832  1.00  0.00     0.094 A 
ATOM     10  C   UNL     1      28.550  -0.539  -5.956  1.00  0.00     0.146 A 
ATOM     11  O   UNL     1      29.868  -0.522  -5.800  1.00  0.00    -0.451 OA
ENDROOT
BRANCH   1  12
ATOM     12  C   UNL     1      32.166  -0.336  -6.503  1.00  0.00     0.063 A 
ATOM     13  C   UNL     1      34.291   0.840  -6.599  1.00  0.00     0.047 A 
ATOM     14  C   UNL     1      32.921   0.791  -6.864  1.00  0.00     0.020 A 
ATOM     15  C   UNL     1      34.928  -0.241  -5.982  1.00  0.00     0.119 A 
ATOM     16  C   UNL     1      34.187  -1.379  -5.639  1.00  0.00     0.093 A 
ATOM     17  C   UNL     1      32.812  -1.439  -5.908  1.00  0.00     0.130 A 
BRANCH  15  18
ATOM     18  O   UNL     1      36.294  -0.176  -5.721  1.00  0.00    -0.508 OA
ATOM     19  H   UNL     1      36.648   0.153  -4.829  1.00  0.00     0.293 HD
ENDBRANCH  15  18
BRANCH  17  20
ATOM     20  O   UNL     1      32.096  -2.597  -5.606  1.00  0.00    -0.507 OA
ATOM     21  H   UNL     1      32.544  -3.408  -5.196  1.00  0.00     0.293 HD
ENDBRANCH  17  20
ENDBRANCH   1  12
BRANCH   2  22
ATOM     22  O   UNL     1      31.134  -0.151  -9.186  1.00  0.00    -0.502 OA
ATOM     23  H   UNL     1      31.972  -0.718  -9.240  1.00  0.00     0.293 HD
ENDBRANCH   2  22
BRANCH   6  24
ATOM     24  O   UNL     1      25.847  -0.054  -8.518  1.00  0.00    -0.507 OA
ATOM     25  H   UNL     1      25.557  -0.745  -9.194  1.00  0.00     0.293 HD
ENDBRANCH   6  24
BRANCH   8  26
ATOM     26  O   UNL     1      25.552  -1.008  -3.838  1.00  0.00    -0.508 OA
ATOM     27  H   UNL     1      24.898  -0.308  -3.507  1.00  0.00     0.293 HD
ENDBRANCH   8  26
TORSDOF 6
ENDMDL
MODEL 7
REMARK VINA RESULT:    -7.361      4.670      8.486
REMARK INTER + INTRA:          -9.278
REMARK INTER:                  -8.941
REMARK INTRA:                  -0.337
REMARK UNBOUND:                -0.410
REMARK SMILES O=c1c(O)c(-c2ccc(O)cc2O)oc2cc(O)cc(O)c12
REMARK SMILES IDX 5 1 3 2 2 3 1 4 22 5 20 6 19 7 17 8 16 9 15 10 14 11 6 12
REMARK SMILES IDX 8 13 7 14 9 15 11 16 12 17 10 18 13 20 4 22 21 24 18 26
REMARK H PARENT 10 19 13 21 4 23 21 25 18 27
REMARK Flexibility Score: inf
ROOT
ATOM      1  C   UNL     1      34.234   0.299  -6.155  1.00  0.00     0.184 A 
ATOM      2  C   UNL     1      33.622  -0.923  -5.837  1.00  0.00     0.208 A 
ATOM      3  C   UNL     1      32.436  -1.283  -6.498  1.00  0.00     0.238 A 
ATOM      4  O   UNL     1      31.864  -2.356  -6.171  1.00  0.00    -0.285 OA
ATOM      5  C   UNL     1      31.889  -0.422  -7.479  1.00  0.00     0.111 A 
ATOM      6  C   UNL     1      30.715  -0.703  -8.240  1.00  0.00     0.134 A 
ATOM      7  C   UNL     1      30.192   0.278  -9.091  1.00  0.00     0.093 A 
ATOM      8  C   UNL     1      30.834   1.505  -9.257  1.00  0.00     0.123 A 
ATOM      9  C   UNL     1      32.016   1.768  -8.564  1.00  0.00     0.094 A 
ATOM     10  C   UNL     1      32.543   0.823  -7.680  1.00  0.00     0.146 A 
ATOM     11  O   UNL     1      33.663   1.116  -7.031  1.00  0.00    -0.451 OA
ENDROOT
BRANCH   1  12
ATOM     12  C   UNL     1      35.492   0.729  -5.508  1.00  0.00     0.063 A 
ATOM     13  C   UNL     1      37.893   1.071  -5.661  1.00  0.00     0.047 A 
ATOM     14  C   UNL     1      36.687   0.677  -6.243  1.00  0.00     0.020 A 
ATOM     15  C   UNL     1      37.925   1.509  -4.334  1.00  0.00     0.119 A 
ATOM     16  C   UNL     1      36.741   1.543  -3.586  1.00  0.00     0.093 A 
ATOM     17  C   UNL     1      35.526   1.143  -4.161  1.00  0.00     0.130 A 
BRANCH  15  18
ATOM     18  O   UNL     1      39.135   1.903  -3.769  1.00  0.00    -0.508 OA
ATOM     19  H   UNL     1      39.847   2.374  -4.316  1.00  0.00     0.293 HD
ENDBRANCH  15  18
BRANCH  17  20
ATOM     20  O   UNL     1      34.364   1.135  -3.390  1.00  0.00    -0.507 OA
ATOM     21  H   UNL     1      34.389   0.972  -2.391  1.00  0.00     0.293 HD
ENDBRANCH  17  20
ENDBRANCH   1  12
BRANCH   2  22
ATOM     22  O   UNL     1      34.174  -1.747  -4.851  1.00  0.00    -0.502 OA
ATOM     23  H   UNL     1      33.743  -2.618  -4.568  1.00  0.00     0.293 HD
ENDBRANCH   2  22
BRANCH   6  24
ATOM     24  O   UNL     1      30.046  -1.930  -8.218  1.00  0.00    -0.507 OA
ATOM     25  H   UNL     1      29.576  -2.315  -7.411  1.00  0.00     0.293 HD
ENDBRANCH   6  24
BRANCH   8  26
ATOM     26  O   UNL     1      30.293   2.452 -10.124  1.00  0.00    -0.508 OA
ATOM     27  H   UNL     1      29.437   2.947  -9.900  1.00  0.00     0.293 HD
ENDBRANCH   8  26
TORSDOF 6
ENDMDL
MODEL 8
REMARK VINA RESULT:    -7.347      3.118      7.358
REMARK INTER + INTRA:          -9.261
REMARK INTER:                  -8.841
REMARK INTRA:                  -0.420
REMARK UNBOUND:                -0.410
REMARK SMILES O=c1c(O)c(-c2ccc(O)cc2O)oc2cc(O)cc(O)c12
REMARK SMILES IDX 5 1 3 2 2 3 1 4 22 5 20 6 19 7 17 8 16 9 15 10 14 11 6 12
REMARK SMILES IDX 8 13 7 14 9 15 11 16 12 17 10 18 13 20 4 22 21 24 18 26
REMARK H PARENT 10 19 13 21 4 23 21 25 18 27
REMARK Flexibility Score: inf
ROOT
ATOM      1  C   UNL     1      31.998  -0.253  -7.137  1.00  0.00     0.184 A 
ATOM      2  C   UNL     1      31.898  -1.258  -8.111  1.00  0.00     0.208 A 
ATOM      3  C   UNL     1      30.660  -1.478  -8.736  1.00  0.00     0.238 A 
ATOM      4  O   UNL     1      30.563  -2.416  -9.571  1.00  0.00    -0.285 OA
ATOM      5  C   UNL     1      29.544  -0.680  -8.388  1.00  0.00     0.111 A 
ATOM      6  C   UNL     1      28.252  -0.788  -8.984  1.00  0.00     0.134 A 
ATOM      7  C   UNL     1      27.188  -0.035  -8.472  1.00  0.00     0.093 A 
ATOM      8  C   UNL     1      27.383   0.868  -7.428  1.00  0.00     0.123 A 
ATOM      9  C   UNL     1      28.656   1.027  -6.877  1.00  0.00     0.094 A 
ATOM     10  C   UNL     1      29.729   0.263  -7.342  1.00  0.00     0.146 A 
ATOM     11  O   UNL     1      30.920   0.436  -6.783  1.00  0.00    -0.451 OA
ENDROOT
BRANCH   1  12
ATOM     12  C   UNL     1      33.276   0.042  -6.453  1.00  0.00     0.063 A 
ATOM     13  C   UNL     1      35.521   0.966  -6.558  1.00  0.00     0.047 A 
ATOM     14  C   UNL     1      34.300   0.678  -7.172  1.00  0.00     0.020 A 
ATOM     15  C   UNL     1      35.740   0.611  -5.224  1.00  0.00     0.119 A 
ATOM     16  C   UNL     1      34.732  -0.045  -4.506  1.00  0.00     0.093 A 
ATOM     17  C   UNL     1      33.505  -0.344  -5.117  1.00  0.00     0.130 A 
BRANCH  15  18
ATOM     18  O   UNL     1      36.961   0.909  -4.625  1.00  0.00    -0.508 OA
ATOM     19  H   UNL     1      37.669   1.452  -5.106  1.00  0.00     0.293 HD
ENDBRANCH  15  18
BRANCH  17  20
ATOM     20  O   UNL     1      32.528  -1.041  -4.405  1.00  0.00    -0.507 OA
ATOM     21  H   UNL     1      32.491  -1.022  -3.393  1.00  0.00     0.293 HD
ENDBRANCH  17  20
ENDBRANCH   1  12
BRANCH   2  22
ATOM     22  O   UNL     1      33.011  -2.044  -8.423  1.00  0.00    -0.502 OA
ATOM     23  H   UNL     1      33.176  -2.946  -7.994  1.00  0.00     0.293 HD
ENDBRANCH   2  22
BRANCH   6  24
ATOM     24  O   UNL     1      27.969  -1.594 -10.091  1.00  0.00    -0.507 OA
ATOM     25  H   UNL     1      27.053  -1.947 -10.327  1.00  0.00     0.293 HD
ENDBRANCH   6  24
BRANCH   8  26
ATOM     26  O   UNL     1      26.305   1.612  -6.953  1.00  0.00    -0.508 OA
ATOM     27  H   UNL     1      25.411   1.180  -6.752  1.00  0.00     0.293 HD
ENDBRANCH   8  26
TORSDOF 6
ENDMDL
MODEL 9
REMARK VINA RESULT:    -7.305      2.553      3.796
REMARK INTER + INTRA:          -9.210
REMARK INTER:                  -8.792
REMARK INTRA:                  -0.418
REMARK UNBOUND:                -0.410
REMARK SMILES O=c1c(O)c(-c2ccc(O)cc2O)oc2cc(O)cc(O)c12
REMARK SMILES IDX 5 1 3 2 2 3 1 4 22 5 20 6 19 7 17 8 16 9 15 10 14 11 6 12
REMARK SMILES IDX 8 13 7 14 9 15 11 16 12 17 10 18 13 20 4 22 21 24 18 26
REMARK H PARENT 10 19 13 21 4 23 21 25 18 27
REMARK Flexibility Score: inf
ROOT
ATOM      1  C   UNL     1      28.810   0.230  -7.132  1.00  0.00     0.184 A 
ATOM      2  C   UNL     1      28.994   1.209  -8.121  1.00  0.00     0.208 A 
ATOM      3  C   UNL     1      30.284   1.429  -8.630  1.00  0.00     0.238 A 
ATOM      4  O   UNL     1      30.451   2.344  -9.478  1.00  0.00    -0.285 OA
ATOM      5  C   UNL     1      31.369   0.655  -8.153  1.00  0.00     0.111 A 
ATOM      6  C   UNL     1      32.712   0.765  -8.625  1.00  0.00     0.134 A 
ATOM      7  C   UNL     1      33.729   0.041  -7.990  1.00  0.00     0.093 A 
ATOM      8  C   UNL     1      33.444  -0.836  -6.944  1.00  0.00     0.123 A 
ATOM      9  C   UNL     1      32.126  -0.996  -6.514  1.00  0.00     0.094 A 
ATOM     10  C   UNL     1      31.095  -0.261  -7.103  1.00  0.00     0.146 A 
ATOM     11  O   UNL     1      29.857  -0.434  -6.657  1.00  0.00    -0.451 OA
ENDROOT
BRANCH   1  12
ATOM     12  C   UNL     1      27.476  -0.063  -6.567  1.00  0.00     0.063 A 
ATOM     13  C   UNL     1      25.257  -1.007  -6.866  1.00  0.00     0.047 A 
ATOM     14  C   UNL     1      26.529  -0.720  -7.367  1.00  0.00     0.020 A 
ATOM     15  C   UNL     1      24.911  -0.631  -5.566  1.00  0.00     0.119 A 
ATOM     16  C   UNL     1      25.842   0.046  -4.767  1.00  0.00     0.093 A 
ATOM     17  C   UNL     1      27.120   0.344  -5.265  1.00  0.00     0.130 A 
BRANCH  15  18
ATOM     18  O   UNL     1      23.641  -0.928  -5.079  1.00  0.00    -0.508 OA
ATOM     19  H   UNL     1      23.479  -1.104  -4.094  1.00  0.00     0.293 HD
ENDBRANCH  15  18
BRANCH  17  20
ATOM     20  O   UNL     1      28.021   1.061  -4.478  1.00  0.00    -0.507 OA
ATOM     21  H   UNL     1      28.440   1.925  -4.801  1.00  0.00     0.293 HD
ENDBRANCH  17  20
ENDBRANCH   1  12
BRANCH   2  22
ATOM     22  O   UNL     1      27.908   1.970  -8.561  1.00  0.00    -0.502 OA
ATOM     23  H   UNL     1      27.066   1.550  -8.937  1.00  0.00     0.293 HD
ENDBRANCH   2  22
BRANCH   6  24
ATOM     24  O   UNL     1      33.092   1.544  -9.722  1.00  0.00    -0.507 OA
ATOM     25  H   UNL     1      33.998   1.975  -9.836  1.00  0.00     0.293 HD
ENDBRANCH   6  24
BRANCH   8  26
ATOM     26  O   UNL     1      34.479  -1.552  -6.346  1.00  0.00    -0.508 OA
ATOM     27  H   UNL     1      34.547  -2.559  -6.436  1.00  0.00     0.293 HD
ENDBRANCH   8  26
TORSDOF 6
ENDMDL
