MODEL 1
REMARK VINA RESULT:    -5.098      0.000      0.000
REMARK INTER + INTRA:         -12.968
REMARK INTER:                 -11.059
REMARK INTRA:                  -1.909
REMARK UNBOUND:                -1.909
REMARK SMILES CCCCCCCCCCCCCCCCCCCCCC(=O)[O-]
REMARK SMILES IDX 12 1 11 2 10 3 9 4 8 5 7 6 6 7 5 8 4 9 3 10 2 11 1 12 13 13
REMARK SMILES IDX 14 14 15 15 16 16 17 17 18 18 19 19 20 20 21 21 22 22 23 23
REMARK SMILES IDX 24 24
REMARK H PARENT
REMARK Flexibility Score: inf
ROOT
ATOM      1  C   UNL     1       1.935  48.962  22.126  1.00  0.00     0.000 C 
ENDROOT
BRANCH   1   2
ATOM      2  C   UNL     1       1.758  50.203  21.228  1.00  0.00     0.000 C 
BRANCH   2   3
ATOM      3  C   UNL     1       0.994  51.378  21.874  1.00  0.00     0.000 C 
BRANCH   3   4
ATOM      4  C   UNL     1       1.324  52.767  21.300  1.00  0.00    -0.000 C 
BRANCH   4   5
ATOM      5  C   UNL     1       2.023  53.683  22.316  1.00  0.00    -0.000 C 
BRANCH   5   6
ATOM      6  C   UNL     1       3.139  52.968  23.099  1.00  0.00    -0.000 C 
BRANCH   6   7
ATOM      7  C   UNL     1       3.050  53.164  24.628  1.00  0.00    -0.000 C 
BRANCH   7   8
ATOM      8  C   UNL     1       2.071  52.169  25.280  1.00  0.00    -0.000 C 
BRANCH   8   9
ATOM      9  C   UNL     1       2.561  50.716  25.196  1.00  0.00    -0.000 C 
BRANCH   9  10
ATOM     10  C   UNL     1       1.552  49.719  25.795  1.00  0.00    -0.000 C 
BRANCH  10  11
ATOM     11  C   UNL     1       2.240  48.547  26.514  1.00  0.00    -0.003 C 
ATOM     12  C   UNL     1       3.525  48.965  27.228  1.00  0.00     0.004 C 
ENDBRANCH  10  11
ENDBRANCH   9  10
ENDBRANCH   8   9
ENDBRANCH   7   8
ENDBRANCH   6   7
ENDBRANCH   5   6
ENDBRANCH   4   5
ENDBRANCH   3   4
ENDBRANCH   2   3
ENDBRANCH   1   2
BRANCH   1  13
ATOM     13  C   UNL     1       0.857  47.872  21.956  1.00  0.00     0.000 C 
BRANCH  13  14
ATOM     14  C   UNL     1      -0.118  47.741  23.138  1.00  0.00     0.000 C 
BRANCH  14  15
ATOM     15  C   UNL     1      -0.857  46.392  23.153  1.00  0.00     0.000 C 
BRANCH  15  16
ATOM     16  C   UNL     1      -1.439  46.043  24.535  1.00  0.00     0.000 C 
BRANCH  16  17
ATOM     17  C   UNL     1      -2.917  45.610  24.531  1.00  0.00     0.000 C 
BRANCH  17  18
ATOM     18  C   UNL     1      -3.129  44.201  23.951  1.00  0.00     0.000 C 
BRANCH  18  19
ATOM     19  C   UNL     1      -4.614  43.824  23.813  1.00  0.00     0.000 C 
BRANCH  19  20
ATOM     20  C   UNL     1      -5.613  44.917  24.238  1.00  0.00     0.006 C 
BRANCH  20  21
ATOM     21  C   UNL     1      -6.554  44.465  25.361  1.00  0.00     0.053 C 
BRANCH  21  22
ATOM     22  C   UNL     1      -7.578  43.510  24.834  1.00  0.00     0.041 C 
ATOM     23  O   UNL     1      -8.305  43.835  23.858  1.00  0.00    -0.550 OA
ATOM     24  O   UNL     1      -7.694  42.241  25.385  1.00  0.00    -0.550 OA
ENDBRANCH  21  22
ENDBRANCH  20  21
ENDBRANCH  19  20
ENDBRANCH  18  19
ENDBRANCH  17  18
ENDBRANCH  16  17
ENDBRANCH  15  16
ENDBRANCH  14  15
ENDBRANCH  13  14
ENDBRANCH   1  13
TORSDOF 20
ENDMDL
MODEL 2
REMARK VINA RESULT:    -4.949      1.425      2.161
REMARK INTER + INTRA:         -12.645
REMARK INTER:                 -10.278
REMARK INTRA:                  -2.367
REMARK UNBOUND:                -1.909
REMARK SMILES CCCCCCCCCCCCCCCCCCCCCC(=O)[O-]
REMARK SMILES IDX 12 1 11 2 10 3 9 4 8 5 7 6 6 7 5 8 4 9 3 10 2 11 1 12 13 13
REMARK SMILES IDX 14 14 15 15 16 16 17 17 18 18 19 19 20 20 21 21 22 22 23 23
REMARK SMILES IDX 24 24
REMARK H PARENT
REMARK Flexibility Score: inf
ROOT
ATOM      1  C   UNL     1       0.099  48.052  22.883  1.00  0.00     0.000 C 
ENDROOT
BRANCH   1   2
ATOM      2  C   UNL     1       1.017  48.187  21.652  1.00  0.00     0.000 C 
BRANCH   2   3
ATOM      3  C   UNL     1       2.151  49.225  21.789  1.00  0.00     0.000 C 
BRANCH   3   4
ATOM      4  C   UNL     1       1.825  50.625  21.241  1.00  0.00    -0.000 C 
BRANCH   4   5
ATOM      5  C   UNL     1       1.403  51.614  22.338  1.00  0.00    -0.000 C 
BRANCH   5   6
ATOM      6  C   UNL     1       2.600  52.308  23.012  1.00  0.00    -0.000 C 
BRANCH   6   7
ATOM      7  C   UNL     1       2.940  51.745  24.409  1.00  0.00    -0.000 C 
BRANCH   7   8
ATOM      8  C   UNL     1       1.720  51.764  25.350  1.00  0.00    -0.000 C 
BRANCH   8   9
ATOM      9  C   UNL     1       1.271  50.355  25.765  1.00  0.00    -0.000 C 
BRANCH   9  10
ATOM     10  C   UNL     1       2.364  49.296  25.530  1.00  0.00    -0.000 C 
BRANCH  10  11
ATOM     11  C   UNL     1       2.659  48.467  26.790  1.00  0.00    -0.003 C 
ATOM     12  C   UNL     1       3.646  49.155  27.732  1.00  0.00     0.004 C 
ENDBRANCH  10  11
ENDBRANCH   9  10
ENDBRANCH   8   9
ENDBRANCH   7   8
ENDBRANCH   6   7
ENDBRANCH   5   6
ENDBRANCH   4   5
ENDBRANCH   3   4
ENDBRANCH   2   3
ENDBRANCH   1   2
BRANCH   1  13
ATOM     13  C   UNL     1      -0.468  46.637  23.125  1.00  0.00     0.000 C 
BRANCH  13  14
ATOM     14  C   UNL     1      -0.525  46.211  24.602  1.00  0.00     0.000 C 
BRANCH  14  15
ATOM     15  C   UNL     1      -0.853  47.380  25.546  1.00  0.00     0.000 C 
BRANCH  15  16
ATOM     16  C   UNL     1      -2.364  47.559  25.777  1.00  0.00     0.000 C 
BRANCH  16  17
ATOM     17  C   UNL     1      -3.256  46.482  25.132  1.00  0.00     0.000 C 
BRANCH  17  18
ATOM     18  C   UNL     1      -4.657  47.001  24.767  1.00  0.00     0.000 C 
BRANCH  18  19
ATOM     19  C   UNL     1      -5.716  46.680  25.837  1.00  0.00     0.000 C 
BRANCH  19  20
ATOM     20  C   UNL     1      -6.306  45.259  25.773  1.00  0.00     0.006 C 
BRANCH  20  21
ATOM     21  C   UNL     1      -6.438  44.729  24.340  1.00  0.00     0.053 C 
BRANCH  21  22
ATOM     22  C   UNL     1      -5.557  43.536  24.140  1.00  0.00     0.041 C 
ATOM     23  O   UNL     1      -5.854  42.433  24.670  1.00  0.00    -0.550 OA
ATOM     24  O   UNL     1      -4.437  43.628  23.324  1.00  0.00    -0.550 OA
ENDBRANCH  21  22
ENDBRANCH  20  21
ENDBRANCH  19  20
ENDBRANCH  18  19
ENDBRANCH  17  18
ENDBRANCH  16  17
ENDBRANCH  15  16
ENDBRANCH  14  15
ENDBRANCH  13  14
ENDBRANCH   1  13
TORSDOF 20
ENDMDL
MODEL 3
REMARK VINA RESULT:    -4.862      1.915      3.061
REMARK INTER + INTRA:         -12.455
REMARK INTER:                  -9.239
REMARK INTRA:                  -3.216
REMARK UNBOUND:                -1.909
REMARK SMILES CCCCCCCCCCCCCCCCCCCCCC(=O)[O-]
REMARK SMILES IDX 12 1 11 2 10 3 9 4 8 5 7 6 6 7 5 8 4 9 3 10 2 11 1 12 13 13
REMARK SMILES IDX 14 14 15 15 16 16 17 17 18 18 19 19 20 20 21 21 22 22 23 23
REMARK SMILES IDX 24 24
REMARK H PARENT
REMARK Flexibility Score: inf
ROOT
ATOM      1  C   UNL     1       2.157  49.092  21.631  1.00  0.00     0.000 C 
ENDROOT
BRANCH   1   2
ATOM      2  C   UNL     1       1.783  50.543  21.270  1.00  0.00     0.000 C 
BRANCH   2   3
ATOM      3  C   UNL     1       1.359  51.428  22.462  1.00  0.00     0.000 C 
BRANCH   3   4
ATOM      4  C   UNL     1       2.478  51.751  23.467  1.00  0.00    -0.000 C 
BRANCH   4   5
ATOM      5  C   UNL     1       2.117  51.360  24.909  1.00  0.00    -0.000 C 
BRANCH   5   6
ATOM      6  C   UNL     1       2.543  49.924  25.265  1.00  0.00    -0.000 C 
BRANCH   6   7
ATOM      7  C   UNL     1       1.941  49.408  26.590  1.00  0.00    -0.000 C 
BRANCH   7   8
ATOM      8  C   UNL     1       0.477  48.961  26.421  1.00  0.00    -0.000 C 
BRANCH   8   9
ATOM      9  C   UNL     1      -0.513  49.904  27.122  1.00  0.00    -0.000 C 
BRANCH   9  10
ATOM     10  C   UNL     1      -1.768  50.177  26.272  1.00  0.00    -0.000 C 
BRANCH  10  11
ATOM     11  C   UNL     1      -1.423  50.583  24.830  1.00  0.00    -0.003 C 
ATOM     12  C   UNL     1      -2.662  50.904  23.995  1.00  0.00     0.004 C 
ENDBRANCH  10  11
ENDBRANCH   9  10
ENDBRANCH   8   9
ENDBRANCH   7   8
ENDBRANCH   6   7
ENDBRANCH   5   6
ENDBRANCH   4   5
ENDBRANCH   3   4
ENDBRANCH   2   3
ENDBRANCH   1   2
BRANCH   1  13
ATOM     13  C   UNL     1       0.984  48.091  21.619  1.00  0.00     0.000 C 
BRANCH  13  14
ATOM     14  C   UNL     1       0.207  47.993  22.944  1.00  0.00     0.000 C 
BRANCH  14  15
ATOM     15  C   UNL     1      -0.549  46.662  23.093  1.00  0.00     0.000 C 
BRANCH  15  16
ATOM     16  C   UNL     1      -0.674  46.205  24.558  1.00  0.00     0.000 C 
BRANCH  16  17
ATOM     17  C   UNL     1      -2.109  46.190  25.117  1.00  0.00     0.000 C 
BRANCH  17  18
ATOM     18  C   UNL     1      -3.017  47.249  24.471  1.00  0.00     0.000 C 
BRANCH  18  19
ATOM     19  C   UNL     1      -4.447  47.246  25.041  1.00  0.00     0.000 C 
BRANCH  19  20
ATOM     20  C   UNL     1      -4.968  45.872  25.501  1.00  0.00     0.006 C 
BRANCH  20  21
ATOM     21  C   UNL     1      -5.742  45.126  24.407  1.00  0.00     0.053 C 
BRANCH  21  22
ATOM     22  C   UNL     1      -5.177  43.756  24.207  1.00  0.00     0.041 C 
ATOM     23  O   UNL     1      -4.007  43.610  23.764  1.00  0.00    -0.550 OA
ATOM     24  O   UNL     1      -5.922  42.638  24.561  1.00  0.00    -0.550 OA
ENDBRANCH  21  22
ENDBRANCH  20  21
ENDBRANCH  19  20
ENDBRANCH  18  19
ENDBRANCH  17  18
ENDBRANCH  16  17
ENDBRANCH  15  16
ENDBRANCH  14  15
ENDBRANCH  13  14
ENDBRANCH   1  13
TORSDOF 20
ENDMDL
MODEL 4
REMARK VINA RESULT:    -4.836      1.909      3.106
REMARK INTER + INTRA:         -12.400
REMARK INTER:                  -9.329
REMARK INTRA:                  -3.071
REMARK UNBOUND:                -1.909
REMARK SMILES CCCCCCCCCCCCCCCCCCCCCC(=O)[O-]
REMARK SMILES IDX 12 1 11 2 10 3 9 4 8 5 7 6 6 7 5 8 4 9 3 10 2 11 1 12 13 13
REMARK SMILES IDX 14 14 15 15 16 16 17 17 18 18 19 19 20 20 21 21 22 22 23 23
REMARK SMILES IDX 24 24
REMARK H PARENT
REMARK Flexibility Score: inf
ROOT
ATOM      1  C   UNL     1       0.849  50.643  22.064  1.00  0.00     0.000 C 
ENDROOT
BRANCH   1   2
ATOM      2  C   UNL     1       1.116  52.062  21.525  1.00  0.00     0.000 C 
BRANCH   2   3
ATOM      3  C   UNL     1       0.175  53.159  22.066  1.00  0.00     0.000 C 
BRANCH   3   4
ATOM      4  C   UNL     1      -1.234  52.678  22.454  1.00  0.00    -0.000 C 
BRANCH   4   5
ATOM      5  C   UNL     1      -1.451  52.626  23.974  1.00  0.00    -0.000 C 
BRANCH   5   6
ATOM      6  C   UNL     1      -2.176  51.347  24.433  1.00  0.00    -0.000 C 
BRANCH   6   7
ATOM      7  C   UNL     1      -1.292  50.398  25.270  1.00  0.00    -0.000 C 
BRANCH   7   8
ATOM      8  C   UNL     1       0.024  51.070  25.706  1.00  0.00    -0.000 C 
BRANCH   8   9
ATOM      9  C   UNL     1       1.183  50.071  25.837  1.00  0.00    -0.000 C 
BRANCH   9  10
ATOM     10  C   UNL     1       2.506  50.629  25.282  1.00  0.00    -0.000 C 
BRANCH  10  11
ATOM     11  C   UNL     1       2.429  52.135  24.984  1.00  0.00    -0.003 C 
ATOM     12  C   UNL     1       3.534  52.608  24.041  1.00  0.00     0.004 C 
ENDBRANCH  10  11
ENDBRANCH   9  10
ENDBRANCH   8   9
ENDBRANCH   7   8
ENDBRANCH   6   7
ENDBRANCH   5   6
ENDBRANCH   4   5
ENDBRANCH   3   4
ENDBRANCH   2   3
ENDBRANCH   1   2
BRANCH   1  13
ATOM     13  C   UNL     1       1.475  49.500  21.238  1.00  0.00     0.000 C 
BRANCH  13  14
ATOM     14  C   UNL     1       1.064  48.085  21.682  1.00  0.00     0.000 C 
BRANCH  14  15
ATOM     15  C   UNL     1       0.223  48.087  22.969  1.00  0.00     0.000 C 
BRANCH  15  16
ATOM     16  C   UNL     1      -0.488  46.746  23.223  1.00  0.00     0.000 C 
BRANCH  16  17
ATOM     17  C   UNL     1      -0.569  46.318  24.700  1.00  0.00     0.000 C 
BRANCH  17  18
ATOM     18  C   UNL     1      -1.841  46.822  25.402  1.00  0.00     0.000 C 
BRANCH  18  19
ATOM     19  C   UNL     1      -3.112  46.637  24.553  1.00  0.00     0.000 C 
BRANCH  19  20
ATOM     20  C   UNL     1      -4.272  45.909  25.256  1.00  0.00     0.006 C 
BRANCH  20  21
ATOM     21  C   UNL     1      -5.223  45.210  24.277  1.00  0.00     0.053 C 
BRANCH  21  22
ATOM     22  C   UNL     1      -4.845  43.771  24.117  1.00  0.00     0.041 C 
ATOM     23  O   UNL     1      -5.576  42.865  24.599  1.00  0.00    -0.550 OA
ATOM     24  O   UNL     1      -3.713  43.426  23.389  1.00  0.00    -0.550 OA
ENDBRANCH  21  22
ENDBRANCH  20  21
ENDBRANCH  19  20
ENDBRANCH  18  19
ENDBRANCH  17  18
ENDBRANCH  16  17
ENDBRANCH  15  16
ENDBRANCH  14  15
ENDBRANCH  13  14
ENDBRANCH   1  13
TORSDOF 20
ENDMDL
MODEL 5
REMARK VINA RESULT:    -4.836      1.400      2.976
REMARK INTER + INTRA:         -12.399
REMARK INTER:                 -10.173
REMARK INTRA:                  -2.226
REMARK UNBOUND:                -1.909
REMARK SMILES CCCCCCCCCCCCCCCCCCCCCC(=O)[O-]
REMARK SMILES IDX 12 1 11 2 10 3 9 4 8 5 7 6 6 7 5 8 4 9 3 10 2 11 1 12 13 13
REMARK SMILES IDX 14 14 15 15 16 16 17 17 18 18 19 19 20 20 21 21 22 22 23 23
REMARK SMILES IDX 24 24
REMARK H PARENT
REMARK Flexibility Score: inf
ROOT
ATOM      1  C   UNL     1       0.830  51.550  21.709  1.00  0.00     0.000 C 
ENDROOT
BRANCH   1   2
ATOM      2  C   UNL     1       1.364  52.945  21.327  1.00  0.00     0.000 C 
BRANCH   2   3
ATOM      3  C   UNL     1       1.968  53.759  22.491  1.00  0.00     0.000 C 
BRANCH   3   4
ATOM      4  C   UNL     1       3.428  53.421  22.838  1.00  0.00    -0.000 C 
BRANCH   4   5
ATOM      5  C   UNL     1       3.550  52.358  23.940  1.00  0.00    -0.000 C 
BRANCH   5   6
ATOM      6  C   UNL     1       2.405  52.424  24.966  1.00  0.00    -0.000 C 
BRANCH   6   7
ATOM      7  C   UNL     1       1.658  51.086  25.152  1.00  0.00    -0.000 C 
BRANCH   7   8
ATOM      8  C   UNL     1       1.865  50.501  26.562  1.00  0.00    -0.000 C 
BRANCH   8   9
ATOM      9  C   UNL     1       2.916  49.381  26.589  1.00  0.00    -0.000 C 
BRANCH   9  10
ATOM     10  C   UNL     1       3.593  49.242  27.964  1.00  0.00    -0.000 C 
BRANCH  10  11
ATOM     11  C   UNL     1       2.679  49.690  29.116  1.00  0.00    -0.003 C 
ATOM     12  C   UNL     1       3.452  50.001  30.397  1.00  0.00     0.004 C 
ENDBRANCH  10  11
ENDBRANCH   9  10
ENDBRANCH   8   9
ENDBRANCH   7   8
ENDBRANCH   6   7
ENDBRANCH   5   6
ENDBRANCH   4   5
ENDBRANCH   3   4
ENDBRANCH   2   3
ENDBRANCH   1   2
BRANCH   1  13
ATOM     13  C   UNL     1       1.621  50.363  21.122  1.00  0.00     0.000 C 
BRANCH  13  14
ATOM     14  C   UNL     1       2.061  49.309  22.155  1.00  0.00     0.000 C 
BRANCH  14  15
ATOM     15  C   UNL     1       1.101  48.110  22.225  1.00  0.00     0.000 C 
BRANCH  15  16
ATOM     16  C   UNL     1      -0.123  48.373  23.121  1.00  0.00     0.000 C 
BRANCH  16  17
ATOM     17  C   UNL     1      -0.035  47.779  24.539  1.00  0.00     0.000 C 
BRANCH  17  18
ATOM     18  C   UNL     1      -0.373  46.279  24.584  1.00  0.00     0.000 C 
BRANCH  18  19
ATOM     19  C   UNL     1      -1.588  45.909  23.714  1.00  0.00     0.000 C 
BRANCH  19  20
ATOM     20  C   UNL     1      -2.739  45.205  24.458  1.00  0.00     0.006 C 
BRANCH  20  21
ATOM     21  C   UNL     1      -3.952  46.116  24.685  1.00  0.00     0.053 C 
BRANCH  21  22
ATOM     22  C   UNL     1      -5.219  45.392  24.353  1.00  0.00     0.041 C 
ATOM     23  O   UNL     1      -5.466  44.273  24.876  1.00  0.00    -0.550 OA
ATOM     24  O   UNL     1      -6.153  45.977  23.508  1.00  0.00    -0.550 OA
ENDBRANCH  21  22
ENDBRANCH  20  21
ENDBRANCH  19  20
ENDBRANCH  18  19
ENDBRANCH  17  18
ENDBRANCH  16  17
ENDBRANCH  15  16
ENDBRANCH  14  15
ENDBRANCH  13  14
ENDBRANCH   1  13
TORSDOF 20
ENDMDL
MODEL 6
REMARK VINA RESULT:    -4.827      1.375      2.300
REMARK INTER + INTRA:         -12.379
REMARK INTER:                 -10.652
REMARK INTRA:                  -1.727
REMARK UNBOUND:                -1.909
REMARK SMILES CCCCCCCCCCCCCCCCCCCCCC(=O)[O-]
REMARK SMILES IDX 12 1 11 2 10 3 9 4 8 5 7 6 6 7 5 8 4 9 3 10 2 11 1 12 13 13
REMARK SMILES IDX 14 14 15 15 16 16 17 17 18 18 19 19 20 20 21 21 22 22 23 23
REMARK SMILES IDX 24 24
REMARK H PARENT
REMARK Flexibility Score: inf
ROOT
ATOM      1  C   UNL     1       0.171  47.936  22.928  1.00  0.00     0.000 C 
ENDROOT
BRANCH   1   2
ATOM      2  C   UNL     1       1.022  48.139  21.659  1.00  0.00     0.000 C 
BRANCH   2   3
ATOM      3  C   UNL     1       2.080  49.259  21.749  1.00  0.00     0.000 C 
BRANCH   3   4
ATOM      4  C   UNL     1       1.581  50.663  21.364  1.00  0.00    -0.000 C 
BRANCH   4   5
ATOM      5  C   UNL     1       1.333  51.564  22.583  1.00  0.00    -0.000 C 
BRANCH   5   6
ATOM      6  C   UNL     1       2.345  51.329  23.719  1.00  0.00    -0.000 C 
BRANCH   6   7
ATOM      7  C   UNL     1       1.718  50.725  24.994  1.00  0.00    -0.000 C 
BRANCH   7   8
ATOM      8  C   UNL     1       2.454  49.451  25.449  1.00  0.00    -0.000 C 
BRANCH   8   9
ATOM      9  C   UNL     1       1.657  48.646  26.487  1.00  0.00    -0.000 C 
BRANCH   9  10
ATOM     10  C   UNL     1       1.193  49.512  27.672  1.00  0.00    -0.000 C 
BRANCH  10  11
ATOM     11  C   UNL     1       2.002  49.241  28.951  1.00  0.00    -0.003 C 
ATOM     12  C   UNL     1       3.260  50.103  29.048  1.00  0.00     0.004 C 
ENDBRANCH  10  11
ENDBRANCH   9  10
ENDBRANCH   8   9
ENDBRANCH   7   8
ENDBRANCH   6   7
ENDBRANCH   5   6
ENDBRANCH   4   5
ENDBRANCH   3   4
ENDBRANCH   2   3
ENDBRANCH   1   2
BRANCH   1  13
ATOM     13  C   UNL     1      -0.536  46.568  23.030  1.00  0.00     0.000 C 
BRANCH  13  14
ATOM     14  C   UNL     1      -1.096  46.236  24.424  1.00  0.00     0.000 C 
BRANCH  14  15
ATOM     15  C   UNL     1      -2.529  46.757  24.629  1.00  0.00     0.000 C 
BRANCH  15  16
ATOM     16  C   UNL     1      -3.578  45.631  24.653  1.00  0.00     0.000 C 
BRANCH  16  17
ATOM     17  C   UNL     1      -3.147  44.321  23.967  1.00  0.00     0.000 C 
BRANCH  17  18
ATOM     18  C   UNL     1      -4.292  43.300  23.848  1.00  0.00     0.000 C 
BRANCH  18  19
ATOM     19  C   UNL     1      -5.660  43.880  24.249  1.00  0.00     0.000 C 
BRANCH  19  20
ATOM     20  C   UNL     1      -6.702  42.845  24.713  1.00  0.00     0.006 C 
BRANCH  20  21
ATOM     21  C   UNL     1      -8.106  43.439  24.877  1.00  0.00     0.053 C 
BRANCH  21  22
ATOM     22  C   UNL     1      -8.092  44.544  25.885  1.00  0.00     0.041 C 
ATOM     23  O   UNL     1      -7.760  44.311  27.077  1.00  0.00    -0.550 OA
ATOM     24  O   UNL     1      -8.395  45.844  25.497  1.00  0.00    -0.550 OA
ENDBRANCH  21  22
ENDBRANCH  20  21
ENDBRANCH  19  20
ENDBRANCH  18  19
ENDBRANCH  17  18
ENDBRANCH  16  17
ENDBRANCH  15  16
ENDBRANCH  14  15
ENDBRANCH  13  14
ENDBRANCH   1  13
TORSDOF 20
ENDMDL
MODEL 7
REMARK VINA RESULT:    -4.818      3.899      9.159
REMARK INTER + INTRA:         -12.360
REMARK INTER:                 -10.240
REMARK INTRA:                  -2.120
REMARK UNBOUND:                -1.909
REMARK SMILES CCCCCCCCCCCCCCCCCCCCCC(=O)[O-]
REMARK SMILES IDX 12 1 11 2 10 3 9 4 8 5 7 6 6 7 5 8 4 9 3 10 2 11 1 12 13 13
REMARK SMILES IDX 14 14 15 15 16 16 17 17 18 18 19 19 20 20 21 21 22 22 23 23
REMARK SMILES IDX 24 24
REMARK H PARENT
REMARK Flexibility Score: inf
ROOT
ATOM      1  C   UNL     1       0.241  48.208  22.809  1.00  0.00     0.000 C 
ENDROOT
BRANCH   1   2
ATOM      2  C   UNL     1      -0.423  46.836  23.036  1.00  0.00     0.000 C 
BRANCH   2   3
ATOM      3  C   UNL     1      -0.564  46.411  24.513  1.00  0.00     0.000 C 
BRANCH   3   4
ATOM      4  C   UNL     1      -1.386  47.368  25.394  1.00  0.00    -0.000 C 
BRANCH   4   5
ATOM      5  C   UNL     1      -2.853  47.475  24.953  1.00  0.00    -0.000 C 
BRANCH   5   6
ATOM      6  C   UNL     1      -3.701  46.267  25.390  1.00  0.00    -0.000 C 
BRANCH   6   7
ATOM      7  C   UNL     1      -5.214  46.447  25.142  1.00  0.00    -0.000 C 
BRANCH   7   8
ATOM      8  C   UNL     1      -5.780  45.355  24.215  1.00  0.00    -0.000 C 
BRANCH   8   9
ATOM      9  C   UNL     1      -4.959  44.058  24.258  1.00  0.00    -0.000 C 
BRANCH   9  10
ATOM     10  C   UNL     1      -5.846  42.802  24.333  1.00  0.00    -0.000 C 
BRANCH  10  11
ATOM     11  C   UNL     1      -7.345  43.142  24.348  1.00  0.00    -0.003 C 
ATOM     12  C   UNL     1      -8.015  42.796  25.677  1.00  0.00     0.004 C 
ENDBRANCH  10  11
ENDBRANCH   9  10
ENDBRANCH   8   9
ENDBRANCH   7   8
ENDBRANCH   6   7
ENDBRANCH   5   6
ENDBRANCH   4   5
ENDBRANCH   3   4
ENDBRANCH   2   3
ENDBRANCH   1   2
BRANCH   1  13
ATOM     13  C   UNL     1       1.421  48.207  21.814  1.00  0.00     0.000 C 
BRANCH  13  14
ATOM     14  C   UNL     1       1.912  49.605  21.398  1.00  0.00     0.000 C 
BRANCH  14  15
ATOM     15  C   UNL     1       0.927  50.721  21.783  1.00  0.00     0.000 C 
BRANCH  15  16
ATOM     16  C   UNL     1       1.606  52.094  21.934  1.00  0.00     0.000 C 
BRANCH  16  17
ATOM     17  C   UNL     1       2.403  52.289  23.238  1.00  0.00     0.000 C 
BRANCH  17  18
ATOM     18  C   UNL     1       1.687  51.714  24.472  1.00  0.00     0.000 C 
BRANCH  18  19
ATOM     19  C   UNL     1       2.464  50.563  25.136  1.00  0.00     0.000 C 
BRANCH  19  20
ATOM     20  C   UNL     1       1.601  49.552  25.915  1.00  0.00     0.006 C 
BRANCH  20  21
ATOM     21  C   UNL     1       2.434  48.506  26.666  1.00  0.00     0.053 C 
BRANCH  21  22
ATOM     22  C   UNL     1       2.724  48.969  28.059  1.00  0.00     0.041 C 
ATOM     23  O   UNL     1       3.885  49.339  28.376  1.00  0.00    -0.550 OA
ATOM     24  O   UNL     1       1.699  49.043  28.994  1.00  0.00    -0.550 OA
ENDBRANCH  21  22
ENDBRANCH  20  21
ENDBRANCH  19  20
ENDBRANCH  18  19
ENDBRANCH  17  18
ENDBRANCH  16  17
ENDBRANCH  15  16
ENDBRANCH  14  15
ENDBRANCH  13  14
ENDBRANCH   1  13
TORSDOF 20
ENDMDL
MODEL 8
REMARK VINA RESULT:    -4.793      4.577      6.259
REMARK INTER + INTRA:         -12.306
REMARK INTER:                  -8.597
REMARK INTRA:                  -3.709
REMARK UNBOUND:                -1.909
REMARK SMILES CCCCCCCCCCCCCCCCCCCCCC(=O)[O-]
REMARK SMILES IDX 12 1 11 2 10 3 9 4 8 5 7 6 6 7 5 8 4 9 3 10 2 11 1 12 13 13
REMARK SMILES IDX 14 14 15 15 16 16 17 17 18 18 19 19 20 20 21 21 22 22 23 23
REMARK SMILES IDX 24 24
REMARK H PARENT
REMARK Flexibility Score: inf
ROOT
ATOM      1  C   UNL     1       1.884  49.178  22.272  1.00  0.00     0.000 C 
ENDROOT
BRANCH   1   2
ATOM      2  C   UNL     1       1.791  50.340  21.264  1.00  0.00     0.000 C 
BRANCH   2   3
ATOM      3  C   UNL     1       1.002  51.573  21.753  1.00  0.00     0.000 C 
BRANCH   3   4
ATOM      4  C   UNL     1       1.458  52.918  21.159  1.00  0.00    -0.000 C 
BRANCH   4   5
ATOM      5  C   UNL     1       2.001  53.887  22.221  1.00  0.00    -0.000 C 
BRANCH   5   6
ATOM      6  C   UNL     1       3.365  53.453  22.786  1.00  0.00    -0.000 C 
BRANCH   6   7
ATOM      7  C   UNL     1       3.283  52.818  24.191  1.00  0.00    -0.000 C 
BRANCH   7   8
ATOM      8  C   UNL     1       2.015  53.255  24.948  1.00  0.00    -0.000 C 
BRANCH   8   9
ATOM      9  C   UNL     1       1.420  52.129  25.807  1.00  0.00    -0.000 C 
BRANCH   9  10
ATOM     10  C   UNL     1       2.071  50.763  25.519  1.00  0.00    -0.000 C 
BRANCH  10  11
ATOM     11  C   UNL     1       2.497  50.034  26.803  1.00  0.00    -0.003 C 
ATOM     12  C   UNL     1       2.751  48.544  26.579  1.00  0.00     0.004 C 
ENDBRANCH  10  11
ENDBRANCH   9  10
ENDBRANCH   8   9
ENDBRANCH   7   8
ENDBRANCH   6   7
ENDBRANCH   5   6
ENDBRANCH   4   5
ENDBRANCH   3   4
ENDBRANCH   2   3
ENDBRANCH   1   2
BRANCH   1  13
ATOM     13  C   UNL     1       0.614  48.309  22.389  1.00  0.00     0.000 C 
BRANCH  13  14
ATOM     14  C   UNL     1       0.011  48.236  23.803  1.00  0.00     0.000 C 
BRANCH  14  15
ATOM     15  C   UNL     1      -1.398  48.845  23.880  1.00  0.00     0.000 C 
BRANCH  15  16
ATOM     16  C   UNL     1      -1.416  50.232  24.547  1.00  0.00     0.000 C 
BRANCH  16  17
ATOM     17  C   UNL     1      -2.255  51.298  23.817  1.00  0.00     0.000 C 
BRANCH  17  18
ATOM     18  C   UNL     1      -2.045  52.715  24.376  1.00  0.00     0.000 C 
BRANCH  18  19
ATOM     19  C   UNL     1      -1.596  53.725  23.305  1.00  0.00     0.000 C 
BRANCH  19  20
ATOM     20  C   UNL     1      -2.046  53.402  21.868  1.00  0.00     0.006 C 
BRANCH  20  21
ATOM     21  C   UNL     1      -2.711  54.593  21.166  1.00  0.00     0.053 C 
BRANCH  21  22
ATOM     22  C   UNL     1      -4.113  54.773  21.656  1.00  0.00     0.041 C 
ATOM     23  O   UNL     1      -4.580  55.930  21.830  1.00  0.00    -0.550 OA
ATOM     24  O   UNL     1      -4.923  53.665  21.869  1.00  0.00    -0.550 OA
ENDBRANCH  21  22
ENDBRANCH  20  21
ENDBRANCH  19  20
ENDBRANCH  18  19
ENDBRANCH  17  18
ENDBRANCH  16  17
ENDBRANCH  15  16
ENDBRANCH  14  15
ENDBRANCH  13  14
ENDBRANCH   1  13
TORSDOF 20
ENDMDL
MODEL 9
REMARK VINA RESULT:    -4.717      2.153      2.793
REMARK INTER + INTRA:         -12.140
REMARK INTER:                 -10.034
REMARK INTRA:                  -2.106
REMARK UNBOUND:                -1.909
REMARK SMILES CCCCCCCCCCCCCCCCCCCCCC(=O)[O-]
REMARK SMILES IDX 12 1 11 2 10 3 9 4 8 5 7 6 6 7 5 8 4 9 3 10 2 11 1 12 13 13
REMARK SMILES IDX 14 14 15 15 16 16 17 17 18 18 19 19 20 20 21 21 22 22 23 23
REMARK SMILES IDX 24 24
REMARK H PARENT
REMARK Flexibility Score: inf
ROOT
ATOM      1  C   UNL     1       0.051  47.976  22.929  1.00  0.00     0.000 C 
ENDROOT
BRANCH   1   2
ATOM      2  C   UNL     1       0.993  48.094  21.715  1.00  0.00     0.000 C 
BRANCH   2   3
ATOM      3  C   UNL     1       2.115  49.144  21.853  1.00  0.00     0.000 C 
BRANCH   3   4
ATOM      4  C   UNL     1       1.819  50.508  21.204  1.00  0.00    -0.000 C 
BRANCH   4   5
ATOM      5  C   UNL     1       1.412  51.581  22.225  1.00  0.00    -0.000 C 
BRANCH   5   6
ATOM      6  C   UNL     1       2.500  51.844  23.283  1.00  0.00    -0.000 C 
BRANCH   6   7
ATOM      7  C   UNL     1       1.960  51.904  24.728  1.00  0.00    -0.000 C 
BRANCH   7   8
ATOM      8  C   UNL     1       0.669  51.080  24.896  1.00  0.00    -0.000 C 
BRANCH   8   9
ATOM      9  C   UNL     1       0.774  50.040  26.022  1.00  0.00    -0.000 C 
BRANCH   9  10
ATOM     10  C   UNL     1       1.882  49.004  25.765  1.00  0.00    -0.000 C 
BRANCH  10  11
ATOM     11  C   UNL     1       3.127  49.248  26.633  1.00  0.00    -0.003 C 
ATOM     12  C   UNL     1       2.878  48.965  28.114  1.00  0.00     0.004 C 
ENDBRANCH  10  11
ENDBRANCH   9  10
ENDBRANCH   8   9
ENDBRANCH   7   8
ENDBRANCH   6   7
ENDBRANCH   5   6
ENDBRANCH   4   5
ENDBRANCH   3   4
ENDBRANCH   2   3
ENDBRANCH   1   2
BRANCH   1  13
ATOM     13  C   UNL     1      -0.514  46.563  23.185  1.00  0.00     0.000 C 
BRANCH  13  14
ATOM     14  C   UNL     1      -0.751  46.223  24.667  1.00  0.00     0.000 C 
BRANCH  14  15
ATOM     15  C   UNL     1      -1.680  47.229  25.366  1.00  0.00     0.000 C 
BRANCH  15  16
ATOM     16  C   UNL     1      -3.053  46.631  25.720  1.00  0.00     0.000 C 
BRANCH  16  17
ATOM     17  C   UNL     1      -3.594  47.013  27.111  1.00  0.00     0.000 C 
BRANCH  17  18
ATOM     18  C   UNL     1      -5.071  46.632  27.307  1.00  0.00     0.000 C 
BRANCH  18  19
ATOM     19  C   UNL     1      -5.669  45.895  26.095  1.00  0.00     0.000 C 
BRANCH  19  20
ATOM     20  C   UNL     1      -6.973  45.124  26.373  1.00  0.00     0.006 C 
BRANCH  20  21
ATOM     21  C   UNL     1      -7.533  45.379  27.778  1.00  0.00     0.053 C 
BRANCH  21  22
ATOM     22  C   UNL     1      -8.735  46.267  27.708  1.00  0.00     0.041 C 
ATOM     23  O   UNL     1      -9.543  46.167  26.747  1.00  0.00    -0.550 OA
ATOM     24  O   UNL     1      -8.994  47.168  28.733  1.00  0.00    -0.550 OA
ENDBRANCH  21  22
ENDBRANCH  20  21
ENDBRANCH  19  20
ENDBRANCH  18  19
ENDBRANCH  17  18
ENDBRANCH  16  17
ENDBRANCH  15  16
ENDBRANCH  14  15
ENDBRANCH  13  14
ENDBRANCH   1  13
TORSDOF 20
ENDMDL
