MODEL 1
REMARK VINA RESULT:    -6.981      0.000      0.000
REMARK INTER + INTRA:          -8.478
REMARK INTER:                  -8.205
REMARK INTRA:                  -0.273
REMARK UNBOUND:                -0.273
REMARK SMILES O=c1cc(-c2ccc(O)c(O)c2)oc2cc(O)cc(O)c12
REMARK SMILES IDX 4 1 3 2 2 3 1 4 21 5 19 6 18 7 16 8 15 9 14 10 13 11 5 12
REMARK SMILES IDX 6 13 7 14 8 15 12 16 10 17 9 18 11 20 20 22 17 24
REMARK H PARENT 9 19 11 21 20 23 17 25
REMARK Flexibility Score: inf
ROOT
ATOM      1  C   UNL     1      82.146   1.948  -0.069  1.00  0.00     0.138 A 
ATOM      2  C   UNL     1      82.834   2.726  -1.015  1.00  0.00     0.100 A 
ATOM      3  C   UNL     1      84.228   2.773  -0.983  1.00  0.00     0.197 A 
ATOM      4  O   UNL     1      84.837   3.473  -1.837  1.00  0.00    -0.289 OA
ATOM      5  C   UNL     1      84.926   2.036  -0.004  1.00  0.00     0.107 A 
ATOM      6  C   UNL     1      86.337   2.029   0.100  1.00  0.00     0.134 A 
ATOM      7  C   UNL     1      86.956   1.266   1.100  1.00  0.00     0.093 A 
ATOM      8  C   UNL     1      86.194   0.510   1.995  1.00  0.00     0.123 A 
ATOM      9  C   UNL     1      84.799   0.513   1.896  1.00  0.00     0.094 A 
ATOM     10  C   UNL     1      84.162   1.269   0.908  1.00  0.00     0.146 A 
ATOM     11  O   UNL     1      82.835   1.257   0.836  1.00  0.00    -0.456 OA
ENDROOT
BRANCH   1  12
ATOM     12  C   UNL     1      80.663   1.860  -0.056  1.00  0.00     0.021 A 
ATOM     13  C   UNL     1      79.860   2.965   0.277  1.00  0.00     0.016 A 
ATOM     14  C   UNL     1      78.469   2.850   0.291  1.00  0.00     0.051 A 
ATOM     15  C   UNL     1      77.848   1.635  -0.020  1.00  0.00     0.157 A 
ATOM     16  C   UNL     1      80.039   0.637  -0.354  1.00  0.00     0.062 A 
ATOM     17  C   UNL     1      78.645   0.513  -0.345  1.00  0.00     0.158 A 
BRANCH  15  18
ATOM     18  O   UNL     1      76.453   1.589   0.009  1.00  0.00    -0.504 OA
ATOM     19  H   UNL     1      75.870   1.601  -0.815  1.00  0.00     0.293 HD
ENDBRANCH  15  18
BRANCH  17  20
ATOM     20  O   UNL     1      78.098  -0.732  -0.661  1.00  0.00    -0.504 OA
ATOM     21  H   UNL     1      78.506  -1.614  -0.386  1.00  0.00     0.293 HD
ENDBRANCH  17  20
ENDBRANCH   1  12
BRANCH   6  22
ATOM     22  O   UNL     1      87.125   2.774  -0.780  1.00  0.00    -0.507 OA
ATOM     23  H   UNL     1      87.204   3.781  -0.700  1.00  0.00     0.293 HD
ENDBRANCH   6  22
BRANCH   8  24
ATOM     24  O   UNL     1      86.835  -0.240   2.979  1.00  0.00    -0.508 OA
ATOM     25  H   UNL     1      86.358  -0.989   3.467  1.00  0.00     0.293 HD
ENDBRANCH   8  24
TORSDOF 5
ENDMDL
MODEL 2
REMARK VINA RESULT:    -6.352      8.555      9.798
REMARK INTER + INTRA:          -7.739
REMARK INTER:                  -7.444
REMARK INTRA:                  -0.295
REMARK UNBOUND:                -0.273
REMARK SMILES O=c1cc(-c2ccc(O)c(O)c2)oc2cc(O)cc(O)c12
REMARK SMILES IDX 4 1 3 2 2 3 1 4 21 5 19 6 18 7 16 8 15 9 14 10 13 11 5 12
REMARK SMILES IDX 6 13 7 14 8 15 12 16 10 17 9 18 11 20 20 22 17 24
REMARK H PARENT 9 19 11 21 20 23 17 25
REMARK Flexibility Score: inf
ROOT
ATOM      1  C   UNL     1      84.439  -2.145  -7.037  1.00  0.00     0.138 A 
ATOM      2  C   UNL     1      83.209  -1.832  -7.637  1.00  0.00     0.100 A 
ATOM      3  C   UNL     1      82.981  -0.536  -8.101  1.00  0.00     0.197 A 
ATOM      4  O   UNL     1      81.874  -0.264  -8.640  1.00  0.00    -0.289 OA
ATOM      5  C   UNL     1      83.990   0.439  -7.964  1.00  0.00     0.107 A 
ATOM      6  C   UNL     1      83.841   1.776  -8.406  1.00  0.00     0.134 A 
ATOM      7  C   UNL     1      84.896   2.684  -8.236  1.00  0.00     0.093 A 
ATOM      8  C   UNL     1      86.093   2.285  -7.637  1.00  0.00     0.123 A 
ATOM      9  C   UNL     1      86.245   0.965  -7.199  1.00  0.00     0.094 A 
ATOM     10  C   UNL     1      85.206   0.044  -7.357  1.00  0.00     0.146 A 
ATOM     11  O   UNL     1      85.374  -1.204  -6.931  1.00  0.00    -0.456 OA
ENDROOT
BRANCH   1  12
ATOM     12  C   UNL     1      84.737  -3.507  -6.525  1.00  0.00     0.021 A 
ATOM     13  C   UNL     1      86.009  -3.851  -6.034  1.00  0.00     0.016 A 
ATOM     14  C   UNL     1      86.263  -5.142  -5.569  1.00  0.00     0.051 A 
ATOM     15  C   UNL     1      85.262  -6.119  -5.588  1.00  0.00     0.157 A 
ATOM     16  C   UNL     1      83.737  -4.493  -6.558  1.00  0.00     0.062 A 
ATOM     17  C   UNL     1      83.982  -5.790  -6.091  1.00  0.00     0.158 A 
BRANCH  15  18
ATOM     18  O   UNL     1      85.581  -7.390  -5.106  1.00  0.00    -0.504 OA
ATOM     19  H   UNL     1      86.191  -7.559  -4.320  1.00  0.00     0.293 HD
ENDBRANCH  15  18
BRANCH  17  20
ATOM     20  O   UNL     1      82.935  -6.713  -6.148  1.00  0.00    -0.504 OA
ATOM     21  H   UNL     1      82.000  -6.488  -6.455  1.00  0.00     0.293 HD
ENDBRANCH  17  20
ENDBRANCH   1  12
BRANCH   6  22
ATOM     22  O   UNL     1      82.657   2.204  -9.008  1.00  0.00    -0.507 OA
ATOM     23  H   UNL     1      82.603   2.387 -10.003  1.00  0.00     0.293 HD
ENDBRANCH   6  22
BRANCH   8  24
ATOM     24  O   UNL     1      87.125   3.208  -7.482  1.00  0.00    -0.508 OA
ATOM     25  H   UNL     1      87.398   3.548  -6.568  1.00  0.00     0.293 HD
ENDBRANCH   8  24
TORSDOF 5
ENDMDL
MODEL 3
REMARK VINA RESULT:    -6.147      8.754     10.082
REMARK INTER + INTRA:          -7.498
REMARK INTER:                  -7.206
REMARK INTRA:                  -0.292
REMARK UNBOUND:                -0.273
REMARK SMILES O=c1cc(-c2ccc(O)c(O)c2)oc2cc(O)cc(O)c12
REMARK SMILES IDX 4 1 3 2 2 3 1 4 21 5 19 6 18 7 16 8 15 9 14 10 13 11 5 12
REMARK SMILES IDX 6 13 7 14 8 15 12 16 10 17 9 18 11 20 20 22 17 24
REMARK H PARENT 9 19 11 21 20 23 17 25
REMARK Flexibility Score: inf
ROOT
ATOM      1  C   UNL     1      84.932   0.206  -7.842  1.00  0.00     0.138 A 
ATOM      2  C   UNL     1      83.954  -0.090  -8.805  1.00  0.00     0.100 A 
ATOM      3  C   UNL     1      83.514  -1.405  -8.957  1.00  0.00     0.197 A 
ATOM      4  O   UNL     1      82.633  -1.661  -9.822  1.00  0.00    -0.289 OA
ATOM      5  C   UNL     1      84.056  -2.418  -8.140  1.00  0.00     0.107 A 
ATOM      6  C   UNL     1      83.668  -3.777  -8.229  1.00  0.00     0.134 A 
ATOM      7  C   UNL     1      84.253  -4.723  -7.376  1.00  0.00     0.093 A 
ATOM      8  C   UNL     1      85.214  -4.340  -6.437  1.00  0.00     0.123 A 
ATOM      9  C   UNL     1      85.601  -2.999  -6.344  1.00  0.00     0.094 A 
ATOM     10  C   UNL     1      85.032  -2.040  -7.187  1.00  0.00     0.146 A 
ATOM     11  O   UNL     1      85.417  -0.772  -7.081  1.00  0.00    -0.456 OA
ENDROOT
BRANCH   1  12
ATOM     12  C   UNL     1      85.437   1.587  -7.636  1.00  0.00     0.021 A 
ATOM     13  C   UNL     1      86.617   1.844  -6.915  1.00  0.00     0.016 A 
ATOM     14  C   UNL     1      87.061   3.153  -6.729  1.00  0.00     0.051 A 
ATOM     15  C   UNL     1      86.342   4.234  -7.249  1.00  0.00     0.157 A 
ATOM     16  C   UNL     1      84.707   2.674  -8.146  1.00  0.00     0.062 A 
ATOM     17  C   UNL     1      85.147   3.991  -7.965  1.00  0.00     0.158 A 
BRANCH  15  18
ATOM     18  O   UNL     1      86.843   5.519  -7.030  1.00  0.00    -0.504 OA
ATOM     19  H   UNL     1      86.494   6.347  -7.489  1.00  0.00     0.293 HD
ENDBRANCH  15  18
BRANCH  17  20
ATOM     20  O   UNL     1      84.372   5.018  -8.509  1.00  0.00    -0.504 OA
ATOM     21  H   UNL     1      84.240   5.162  -9.499  1.00  0.00     0.293 HD
ENDBRANCH  17  20
ENDBRANCH   1  12
BRANCH   6  22
ATOM     22  O   UNL     1      82.710  -4.189  -9.156  1.00  0.00    -0.507 OA
ATOM     23  H   UNL     1      82.928  -4.862  -9.882  1.00  0.00     0.293 HD
ENDBRANCH   6  22
BRANCH   8  24
ATOM     24  O   UNL     1      85.778  -5.301  -5.600  1.00  0.00    -0.508 OA
ATOM     25  H   UNL     1      85.226  -5.788  -4.905  1.00  0.00     0.293 HD
ENDBRANCH   8  24
TORSDOF 5
ENDMDL
MODEL 4
REMARK VINA RESULT:    -5.958      3.623      6.543
REMARK INTER + INTRA:          -7.275
REMARK INTER:                  -7.010
REMARK INTRA:                  -0.265
REMARK UNBOUND:                -0.273
REMARK SMILES O=c1cc(-c2ccc(O)c(O)c2)oc2cc(O)cc(O)c12
REMARK SMILES IDX 4 1 3 2 2 3 1 4 21 5 19 6 18 7 16 8 15 9 14 10 13 11 5 12
REMARK SMILES IDX 6 13 7 14 8 15 12 16 10 17 9 18 11 20 20 22 17 24
REMARK H PARENT 9 19 11 21 20 23 17 25
REMARK Flexibility Score: inf
ROOT
ATOM      1  C   UNL     1      86.015   1.130   2.742  1.00  0.00     0.138 A 
ATOM      2  C   UNL     1      86.514  -0.157   3.002  1.00  0.00     0.100 A 
ATOM      3  C   UNL     1      86.678  -0.576   4.322  1.00  0.00     0.197 A 
ATOM      4  O   UNL     1      87.125  -1.734   4.546  1.00  0.00    -0.289 OA
ATOM      5  C   UNL     1      86.337   0.296   5.376  1.00  0.00     0.107 A 
ATOM      6  C   UNL     1      86.473  -0.049   6.742  1.00  0.00     0.134 A 
ATOM      7  C   UNL     1      86.108   0.875   7.731  1.00  0.00     0.093 A 
ATOM      8  C   UNL     1      85.609   2.132   7.384  1.00  0.00     0.123 A 
ATOM      9  C   UNL     1      85.472   2.478   6.035  1.00  0.00     0.094 A 
ATOM     10  C   UNL     1      85.832   1.573   5.034  1.00  0.00     0.146 A 
ATOM     11  O   UNL     1      85.694   1.925   3.759  1.00  0.00    -0.456 OA
ENDROOT
BRANCH   1  12
ATOM     12  C   UNL     1      85.819   1.629   1.357  1.00  0.00     0.021 A 
ATOM     13  C   UNL     1      86.864   2.234   0.634  1.00  0.00     0.016 A 
ATOM     14  C   UNL     1      86.648   2.703  -0.662  1.00  0.00     0.051 A 
ATOM     15  C   UNL     1      85.390   2.587  -1.265  1.00  0.00     0.157 A 
ATOM     16  C   UNL     1      84.554   1.526   0.756  1.00  0.00     0.062 A 
ATOM     17  C   UNL     1      84.329   1.992  -0.545  1.00  0.00     0.158 A 
BRANCH  15  18
ATOM     18  O   UNL     1      85.242   3.073  -2.565  1.00  0.00    -0.504 OA
ATOM     19  H   UNL     1      85.135   2.486  -3.380  1.00  0.00     0.293 HD
ENDBRANCH  15  18
BRANCH  17  20
ATOM     20  O   UNL     1      83.046   1.846  -1.077  1.00  0.00    -0.504 OA
ATOM     21  H   UNL     1      82.585   2.545  -1.641  1.00  0.00     0.293 HD
ENDBRANCH  17  20
ENDBRANCH   1  12
BRANCH   6  22
ATOM     22  O   UNL     1      86.969  -1.298   7.120  1.00  0.00    -0.507 OA
ATOM     23  H   UNL     1      87.395  -1.448   8.027  1.00  0.00     0.293 HD
ENDBRANCH   6  22
BRANCH   8  24
ATOM     24  O   UNL     1      85.252   3.031   8.387  1.00  0.00    -0.508 OA
ATOM     25  H   UNL     1      85.320   2.785   9.367  1.00  0.00     0.293 HD
ENDBRANCH   8  24
TORSDOF 5
ENDMDL
MODEL 5
REMARK VINA RESULT:    -5.340      8.585     10.305
REMARK INTER + INTRA:          -6.549
REMARK INTER:                  -6.241
REMARK INTRA:                  -0.309
REMARK UNBOUND:                -0.273
REMARK SMILES O=c1cc(-c2ccc(O)c(O)c2)oc2cc(O)cc(O)c12
REMARK SMILES IDX 4 1 3 2 2 3 1 4 21 5 19 6 18 7 16 8 15 9 14 10 13 11 5 12
REMARK SMILES IDX 6 13 7 14 8 15 12 16 10 17 9 18 11 20 20 22 17 24
REMARK H PARENT 9 19 11 21 20 23 17 25
REMARK Flexibility Score: inf
ROOT
ATOM      1  C   UNL     1      84.832   6.019   6.976  1.00  0.00     0.138 A 
ATOM      2  C   UNL     1      85.640   4.874   7.070  1.00  0.00     0.100 A 
ATOM      3  C   UNL     1      85.126   3.716   7.652  1.00  0.00     0.197 A 
ATOM      4  O   UNL     1      85.858   2.692   7.730  1.00  0.00    -0.289 OA
ATOM      5  C   UNL     1      83.801   3.709   8.136  1.00  0.00     0.107 A 
ATOM      6  C   UNL     1      83.203   2.579   8.741  1.00  0.00     0.134 A 
ATOM      7  C   UNL     1      81.877   2.653   9.193  1.00  0.00     0.093 A 
ATOM      8  C   UNL     1      81.140   3.831   9.050  1.00  0.00     0.123 A 
ATOM      9  C   UNL     1      81.727   4.951   8.452  1.00  0.00     0.094 A 
ATOM     10  C   UNL     1      83.047   4.899   7.998  1.00  0.00     0.146 A 
ATOM     11  O   UNL     1      83.583   5.977   7.434  1.00  0.00    -0.456 OA
ENDROOT
BRANCH   1  12
ATOM     12  C   UNL     1      85.326   7.279   6.365  1.00  0.00     0.021 A 
ATOM     13  C   UNL     1      86.690   7.620   6.375  1.00  0.00     0.016 A 
ATOM     14  C   UNL     1      87.124   8.816   5.802  1.00  0.00     0.051 A 
ATOM     15  C   UNL     1      86.213   9.700   5.214  1.00  0.00     0.157 A 
ATOM     16  C   UNL     1      84.410   8.175   5.788  1.00  0.00     0.062 A 
ATOM     17  C   UNL     1      84.837   9.375   5.209  1.00  0.00     0.158 A 
BRANCH  15  18
ATOM     18  O   UNL     1      86.714  10.878   4.656  1.00  0.00    -0.504 OA
ATOM     19  H   UNL     1      86.693  11.776   5.118  1.00  0.00     0.293 HD
ENDBRANCH  15  18
BRANCH  17  20
ATOM     20  O   UNL     1      83.868  10.209   4.647  1.00  0.00    -0.504 OA
ATOM     21  H   UNL     1      82.883  10.151   4.855  1.00  0.00     0.293 HD
ENDBRANCH  17  20
ENDBRANCH   1  12
BRANCH   6  22
ATOM     22  O   UNL     1      83.914   1.388   8.897  1.00  0.00    -0.507 OA
ATOM     23  H   UNL     1      84.024   0.950   9.804  1.00  0.00     0.293 HD
ENDBRANCH   6  22
BRANCH   8  24
ATOM     24  O   UNL     1      79.824   3.877   9.507  1.00  0.00    -0.508 OA
ATOM     25  H   UNL     1      79.478   3.217  10.192  1.00  0.00     0.293 HD
ENDBRANCH   8  24
TORSDOF 5
ENDMDL
MODEL 6
REMARK VINA RESULT:    -5.185      6.726      8.511
REMARK INTER + INTRA:          -6.366
REMARK INTER:                  -6.072
REMARK INTRA:                  -0.295
REMARK UNBOUND:                -0.273
REMARK SMILES O=c1cc(-c2ccc(O)c(O)c2)oc2cc(O)cc(O)c12
REMARK SMILES IDX 4 1 3 2 2 3 1 4 21 5 19 6 18 7 16 8 15 9 14 10 13 11 5 12
REMARK SMILES IDX 6 13 7 14 8 15 12 16 10 17 9 18 11 20 20 22 17 24
REMARK H PARENT 9 19 11 21 20 23 17 25
REMARK Flexibility Score: inf
ROOT
ATOM      1  C   UNL     1      85.000   0.886  -6.570  1.00  0.00     0.138 A 
ATOM      2  C   UNL     1      85.327   0.824  -5.206  1.00  0.00     0.100 A 
ATOM      3  C   UNL     1      85.909   1.931  -4.587  1.00  0.00     0.197 A 
ATOM      4  O   UNL     1      86.197   1.867  -3.361  1.00  0.00    -0.289 OA
ATOM      5  C   UNL     1      86.158   3.097  -5.340  1.00  0.00     0.107 A 
ATOM      6  C   UNL     1      86.746   4.262  -4.792  1.00  0.00     0.134 A 
ATOM      7  C   UNL     1      86.957   5.383  -5.608  1.00  0.00     0.093 A 
ATOM      8  C   UNL     1      86.592   5.362  -6.956  1.00  0.00     0.123 A 
ATOM      9  C   UNL     1      86.010   4.213  -7.503  1.00  0.00     0.094 A 
ATOM     10  C   UNL     1      85.794   3.085  -6.708  1.00  0.00     0.146 A 
ATOM     11  O   UNL     1      85.241   2.005  -7.250  1.00  0.00    -0.456 OA
ENDROOT
BRANCH   1  12
ATOM     12  C   UNL     1      84.379  -0.261  -7.280  1.00  0.00     0.021 A 
ATOM     13  C   UNL     1      84.154  -0.237  -8.668  1.00  0.00     0.016 A 
ATOM     14  C   UNL     1      83.558  -1.326  -9.307  1.00  0.00     0.051 A 
ATOM     15  C   UNL     1      83.168  -2.456  -8.580  1.00  0.00     0.157 A 
ATOM     16  C   UNL     1      83.974  -1.390  -6.549  1.00  0.00     0.062 A 
ATOM     17  C   UNL     1      83.378  -2.487  -7.182  1.00  0.00     0.158 A 
BRANCH  15  18
ATOM     18  O   UNL     1      82.581  -3.512  -9.280  1.00  0.00    -0.504 OA
ATOM     19  H   UNL     1      81.729  -3.972  -8.997  1.00  0.00     0.293 HD
ENDBRANCH  15  18
BRANCH  17  20
ATOM     20  O   UNL     1      83.011  -3.577  -6.390  1.00  0.00    -0.504 OA
ATOM     21  H   UNL     1      82.884  -4.515  -6.742  1.00  0.00     0.293 HD
ENDBRANCH  17  20
ENDBRANCH   1  12
BRANCH   6  22
ATOM     22  O   UNL     1      87.121   4.312  -3.449  1.00  0.00    -0.507 OA
ATOM     23  H   UNL     1      87.191   5.190  -2.949  1.00  0.00     0.293 HD
ENDBRANCH   6  22
BRANCH   8  24
ATOM     24  O   UNL     1      86.812   6.490  -7.745  1.00  0.00    -0.508 OA
ATOM     25  H   UNL     1      87.699   6.649  -8.206  1.00  0.00     0.293 HD
ENDBRANCH   8  24
TORSDOF 5
ENDMDL
MODEL 7
REMARK VINA RESULT:    -5.000      7.716      9.239
REMARK INTER + INTRA:          -6.149
REMARK INTER:                  -5.837
REMARK INTRA:                  -0.312
REMARK UNBOUND:                -0.273
REMARK SMILES O=c1cc(-c2ccc(O)c(O)c2)oc2cc(O)cc(O)c12
REMARK SMILES IDX 4 1 3 2 2 3 1 4 21 5 19 6 18 7 16 8 15 9 14 10 13 11 5 12
REMARK SMILES IDX 6 13 7 14 8 15 12 16 10 17 9 18 11 20 20 22 17 24
REMARK H PARENT 9 19 11 21 20 23 17 25
REMARK Flexibility Score: inf
ROOT
ATOM      1  C   UNL     1      84.837  -1.071  -7.100  1.00  0.00     0.138 A 
ATOM      2  C   UNL     1      84.098  -0.517  -8.158  1.00  0.00     0.100 A 
ATOM      3  C   UNL     1      84.097   0.865  -8.346  1.00  0.00     0.197 A 
ATOM      4  O   UNL     1      83.433   1.353  -9.300  1.00  0.00    -0.289 OA
ATOM      5  C   UNL     1      84.839   1.686  -7.472  1.00  0.00     0.107 A 
ATOM      6  C   UNL     1      84.891   3.096  -7.590  1.00  0.00     0.134 A 
ATOM      7  C   UNL     1      85.657   3.841  -6.682  1.00  0.00     0.093 A 
ATOM      8  C   UNL     1      86.371   3.207  -5.663  1.00  0.00     0.123 A 
ATOM      9  C   UNL     1      86.323   1.814  -5.542  1.00  0.00     0.094 A 
ATOM     10  C   UNL     1      85.564   1.053  -6.435  1.00  0.00     0.146 A 
ATOM     11  O   UNL     1      85.534  -0.269  -6.298  1.00  0.00    -0.456 OA
ENDROOT
BRANCH   1  12
ATOM     12  C   UNL     1      84.875  -2.535  -6.853  1.00  0.00     0.021 A 
ATOM     13  C   UNL     1      83.858  -3.390  -7.315  1.00  0.00     0.016 A 
ATOM     14  C   UNL     1      83.916  -4.760  -7.059  1.00  0.00     0.051 A 
ATOM     15  C   UNL     1      84.980  -5.309  -6.335  1.00  0.00     0.157 A 
ATOM     16  C   UNL     1      85.936  -3.085  -6.114  1.00  0.00     0.062 A 
ATOM     17  C   UNL     1      86.003  -4.459  -5.855  1.00  0.00     0.158 A 
BRANCH  15  18
ATOM     18  O   UNL     1      84.979  -6.688  -6.117  1.00  0.00    -0.504 OA
ATOM     19  H   UNL     1      84.158  -7.221  -5.873  1.00  0.00     0.293 HD
ENDBRANCH  15  18
BRANCH  17  20
ATOM     20  O   UNL     1      87.093  -4.932  -5.121  1.00  0.00    -0.504 OA
ATOM     21  H   UNL     1      87.636  -4.365  -4.487  1.00  0.00     0.293 HD
ENDBRANCH  17  20
ENDBRANCH   1  12
BRANCH   6  22
ATOM     22  O   UNL     1      84.189   3.757  -8.599  1.00  0.00    -0.507 OA
ATOM     23  H   UNL     1      83.371   4.320  -8.396  1.00  0.00     0.293 HD
ENDBRANCH   6  22
BRANCH   8  24
ATOM     24  O   UNL     1      87.125   3.971  -4.774  1.00  0.00    -0.508 OA
ATOM     25  H   UNL     1      87.004   3.890  -3.772  1.00  0.00     0.293 HD
ENDBRANCH   8  24
TORSDOF 5
ENDMDL
