MODEL 1
REMARK VINA RESULT:    -5.523      0.000      0.000
REMARK INTER + INTRA:          -8.315
REMARK INTER:                  -7.460
REMARK INTRA:                  -0.854
REMARK UNBOUND:                -0.854
REMARK SMILES C=C[C@@](C)(CCC=C(C)C)OC(C)=O
REMARK SMILES IDX 3 1 4 2 5 3 6 4 7 5 9 6 8 7 10 8 2 9 1 10 11 11 12 12 14 13
REMARK SMILES IDX 13 14
REMARK H PARENT
REMARK Flexibility Score: inf
ROOT
ATOM      1  C   UNL     1       3.283  29.677  69.518  1.00  0.00     0.127 C 
ATOM      2  C   UNL     1       3.247  28.298  70.206  1.00  0.00     0.061 C 
ENDROOT
BRANCH   1   3
ATOM      3  C   UNL     1       3.516  29.483  67.987  1.00  0.00     0.057 C 
BRANCH   3   4
ATOM      4  C   UNL     1       4.269  30.639  67.301  1.00  0.00     0.032 C 
BRANCH   4   5
ATOM      5  C   UNL     1       3.296  31.626  66.705  1.00  0.00    -0.028 C 
ATOM      6  C   UNL     1       3.804  33.403  68.397  1.00  0.00     0.039 C 
ATOM      7  C   UNL     1       3.057  32.861  67.200  1.00  0.00    -0.080 C 
ATOM      8  C   UNL     1       2.024  33.721  66.518  1.00  0.00     0.039 C 
ENDBRANCH   4   5
ENDBRANCH   3   4
ENDBRANCH   1   3
BRANCH   1   9
ATOM      9  C   UNL     1       1.987  30.406  69.874  1.00  0.00     0.013 C 
ATOM     10  C   UNL     1       0.836  30.295  69.200  1.00  0.00     0.008 C 
ENDBRANCH   1   9
BRANCH   1  11
ATOM     11  O   UNL     1       4.400  30.372  70.092  1.00  0.00    -0.455 OA
BRANCH  11  12
ATOM     12  C   UNL     1       5.134  29.987  71.224  1.00  0.00     0.303 C 
ATOM     13  O   UNL     1       4.664  30.110  72.385  1.00  0.00    -0.253 OA
ATOM     14  C   UNL     1       6.481  29.374  71.042  1.00  0.00     0.139 C 
ENDBRANCH  11  12
ENDBRANCH   1  11
TORSDOF 6
ENDMDL
MODEL 2
REMARK VINA RESULT:    -5.488      1.907      2.753
REMARK INTER + INTRA:          -8.267
REMARK INTER:                  -7.215
REMARK INTRA:                  -1.052
REMARK UNBOUND:                -0.854
REMARK SMILES C=C[C@@](C)(CCC=C(C)C)OC(C)=O
REMARK SMILES IDX 3 1 4 2 5 3 6 4 7 5 9 6 8 7 10 8 2 9 1 10 11 11 12 12 14 13
REMARK SMILES IDX 13 14
REMARK H PARENT
REMARK Flexibility Score: inf
ROOT
ATOM      1  C   UNL     1       3.124  29.410  70.237  1.00  0.00     0.127 C 
ATOM      2  C   UNL     1       2.925  30.901  70.576  1.00  0.00     0.061 C 
ENDROOT
BRANCH   1   3
ATOM      3  C   UNL     1       2.141  29.007  69.093  1.00  0.00     0.057 C 
BRANCH   3   4
ATOM      4  C   UNL     1       2.718  29.147  67.671  1.00  0.00     0.032 C 
BRANCH   4   5
ATOM      5  C   UNL     1       2.140  30.359  66.982  1.00  0.00    -0.028 C 
ATOM      6  C   UNL     1       4.250  31.694  67.193  1.00  0.00     0.039 C 
ATOM      7  C   UNL     1       2.806  31.518  66.782  1.00  0.00    -0.080 C 
ATOM      8  C   UNL     1       2.081  32.657  66.113  1.00  0.00     0.039 C 
ENDBRANCH   4   5
ENDBRANCH   3   4
ENDBRANCH   1   3
BRANCH   1   9
ATOM      9  C   UNL     1       4.601  29.205  69.902  1.00  0.00     0.013 C 
ATOM     10  C   UNL     1       5.596  30.006  70.304  1.00  0.00     0.008 C 
ENDBRANCH   1   9
BRANCH   1  11
ATOM     11  O   UNL     1       2.796  28.688  71.433  1.00  0.00    -0.455 OA
BRANCH  11  12
ATOM     12  C   UNL     1       3.350  27.471  71.854  1.00  0.00     0.303 C 
ATOM     13  O   UNL     1       3.135  26.399  71.229  1.00  0.00    -0.253 OA
ATOM     14  C   UNL     1       4.254  27.456  73.041  1.00  0.00     0.139 C 
ENDBRANCH  11  12
ENDBRANCH   1  11
TORSDOF 6
ENDMDL
MODEL 3
REMARK VINA RESULT:    -5.479      1.706      2.412
REMARK INTER + INTRA:          -8.255
REMARK INTER:                  -7.283
REMARK INTRA:                  -0.972
REMARK UNBOUND:                -0.854
REMARK SMILES C=C[C@@](C)(CCC=C(C)C)OC(C)=O
REMARK SMILES IDX 3 1 4 2 5 3 6 4 7 5 9 6 8 7 10 8 2 9 1 10 11 11 12 12 14 13
REMARK SMILES IDX 13 14
REMARK H PARENT
REMARK Flexibility Score: inf
ROOT
ATOM      1  C   UNL     1       3.823  29.871  69.735  1.00  0.00     0.127 C 
ATOM      2  C   UNL     1       2.785  29.080  70.554  1.00  0.00     0.061 C 
ENDROOT
BRANCH   1   3
ATOM      3  C   UNL     1       3.705  29.472  68.231  1.00  0.00     0.057 C 
BRANCH   3   4
ATOM      4  C   UNL     1       2.264  29.230  67.742  1.00  0.00     0.032 C 
BRANCH   4   5
ATOM      5  C   UNL     1       1.777  30.401  66.925  1.00  0.00    -0.028 C 
ATOM      6  C   UNL     1       0.117  31.132  68.656  1.00  0.00     0.039 C 
ATOM      7  C   UNL     1       0.796  31.249  67.310  1.00  0.00    -0.080 C 
ATOM      8  C   UNL     1       0.389  32.351  66.367  1.00  0.00     0.039 C 
ENDBRANCH   4   5
ENDBRANCH   3   4
ENDBRANCH   1   3
BRANCH   1   9
ATOM      9  C   UNL     1       3.598  31.358  70.015  1.00  0.00     0.013 C 
ATOM     10  C   UNL     1       3.905  32.351  69.170  1.00  0.00     0.008 C 
ENDBRANCH   1   9
BRANCH   1  11
ATOM     11  O   UNL     1       5.107  29.476  70.241  1.00  0.00    -0.455 OA
BRANCH  11  12
ATOM     12  C   UNL     1       5.422  28.259  70.864  1.00  0.00     0.303 C 
ATOM     13  O   UNL     1       5.439  27.177  70.221  1.00  0.00    -0.253 OA
ATOM     14  C   UNL     1       5.795  28.257  72.307  1.00  0.00     0.139 C 
ENDBRANCH  11  12
ENDBRANCH   1  11
TORSDOF 6
ENDMDL
MODEL 4
REMARK VINA RESULT:    -5.394      1.715      2.517
REMARK INTER + INTRA:          -8.141
REMARK INTER:                  -7.131
REMARK INTRA:                  -1.010
REMARK UNBOUND:                -0.854
REMARK SMILES C=C[C@@](C)(CCC=C(C)C)OC(C)=O
REMARK SMILES IDX 3 1 4 2 5 3 6 4 7 5 9 6 8 7 10 8 2 9 1 10 11 11 12 12 14 13
REMARK SMILES IDX 13 14
REMARK H PARENT
REMARK Flexibility Score: inf
ROOT
ATOM      1  C   UNL     1       3.980  29.897  70.852  1.00  0.00     0.127 C 
ATOM      2  C   UNL     1       5.479  30.159  70.605  1.00  0.00     0.061 C 
ENDROOT
BRANCH   1   3
ATOM      3  C   UNL     1       3.181  31.217  70.612  1.00  0.00     0.057 C 
BRANCH   3   4
ATOM      4  C   UNL     1       3.797  32.158  69.560  1.00  0.00     0.032 C 
BRANCH   4   5
ATOM      5  C   UNL     1       2.871  32.312  68.379  1.00  0.00    -0.028 C 
ATOM      6  C   UNL     1       4.202  30.770  66.920  1.00  0.00     0.039 C 
ATOM      7  C   UNL     1       3.052  31.716  67.179  1.00  0.00    -0.080 C 
ATOM      8  C   UNL     1       2.061  31.999  66.080  1.00  0.00     0.039 C 
ENDBRANCH   4   5
ENDBRANCH   3   4
ENDBRANCH   1   3
BRANCH   1   9
ATOM      9  C   UNL     1       3.559  28.732  69.957  1.00  0.00     0.013 C 
ATOM     10  C   UNL     1       2.401  28.657  69.290  1.00  0.00     0.008 C 
ENDBRANCH   1   9
BRANCH   1  11
ATOM     11  O   UNL     1       3.871  29.510  72.230  1.00  0.00    -0.455 OA
BRANCH  11  12
ATOM     12  C   UNL     1       3.805  28.201  72.729  1.00  0.00     0.303 C 
ATOM     13  O   UNL     1       2.702  27.633  72.944  1.00  0.00    -0.253 OA
ATOM     14  C   UNL     1       5.072  27.448  72.962  1.00  0.00     0.139 C 
ENDBRANCH  11  12
ENDBRANCH   1  11
TORSDOF 6
ENDMDL
MODEL 5
REMARK VINA RESULT:    -5.367      1.004      1.636
REMARK INTER + INTRA:          -8.104
REMARK INTER:                  -7.165
REMARK INTRA:                  -0.939
REMARK UNBOUND:                -0.854
REMARK SMILES C=C[C@@](C)(CCC=C(C)C)OC(C)=O
REMARK SMILES IDX 3 1 4 2 5 3 6 4 7 5 9 6 8 7 10 8 2 9 1 10 11 11 12 12 14 13
REMARK SMILES IDX 13 14
REMARK H PARENT
REMARK Flexibility Score: inf
ROOT
ATOM      1  C   UNL     1       3.531  30.129  69.006  1.00  0.00     0.127 C 
ATOM      2  C   UNL     1       3.303  29.362  67.688  1.00  0.00     0.061 C 
ENDROOT
BRANCH   1   3
ATOM      3  C   UNL     1       4.352  31.424  68.712  1.00  0.00     0.057 C 
BRANCH   3   4
ATOM      4  C   UNL     1       3.534  32.729  68.767  1.00  0.00     0.032 C 
BRANCH   4   5
ATOM      5  C   UNL     1       3.138  33.166  67.378  1.00  0.00    -0.028 C 
ATOM      6  C   UNL     1       0.717  33.431  67.970  1.00  0.00     0.039 C 
ATOM      7  C   UNL     1       1.875  33.460  66.998  1.00  0.00    -0.080 C 
ATOM      8  C   UNL     1       1.628  33.844  65.562  1.00  0.00     0.039 C 
ENDBRANCH   4   5
ENDBRANCH   3   4
ENDBRANCH   1   3
BRANCH   1   9
ATOM      9  C   UNL     1       2.162  30.378  69.639  1.00  0.00     0.013 C 
ATOM     10  C   UNL     1       1.002  29.905  69.167  1.00  0.00     0.008 C 
ENDBRANCH   1   9
BRANCH   1  11
ATOM     11  O   UNL     1       4.297  29.251  69.844  1.00  0.00    -0.455 OA
BRANCH  11  12
ATOM     12  C   UNL     1       5.055  29.615  70.966  1.00  0.00     0.303 C 
ATOM     13  O   UNL     1       4.514  30.082  72.002  1.00  0.00    -0.253 OA
ATOM     14  C   UNL     1       6.530  29.397  70.948  1.00  0.00     0.139 C 
ENDBRANCH  11  12
ENDBRANCH   1  11
TORSDOF 6
ENDMDL
MODEL 6
REMARK VINA RESULT:    -5.356      1.766      3.350
REMARK INTER + INTRA:          -8.090
REMARK INTER:                  -7.275
REMARK INTRA:                  -0.814
REMARK UNBOUND:                -0.854
REMARK SMILES C=C[C@@](C)(CCC=C(C)C)OC(C)=O
REMARK SMILES IDX 3 1 4 2 5 3 6 4 7 5 9 6 8 7 10 8 2 9 1 10 11 11 12 12 14 13
REMARK SMILES IDX 13 14
REMARK H PARENT
REMARK Flexibility Score: inf
ROOT
ATOM      1  C   UNL     1       3.355  29.686  69.400  1.00  0.00     0.127 C 
ATOM      2  C   UNL     1       3.480  31.027  70.149  1.00  0.00     0.061 C 
ENDROOT
BRANCH   1   3
ATOM      3  C   UNL     1       3.909  29.853  67.950  1.00  0.00     0.057 C 
BRANCH   3   4
ATOM      4  C   UNL     1       4.321  31.291  67.582  1.00  0.00     0.032 C 
BRANCH   4   5
ATOM      5  C   UNL     1       3.394  31.856  66.533  1.00  0.00    -0.028 C 
ATOM      6  C   UNL     1       2.757  33.840  67.925  1.00  0.00     0.039 C 
ATOM      7  C   UNL     1       2.666  32.985  66.682  1.00  0.00    -0.080 C 
ATOM      8  C   UNL     1       1.752  33.403  65.559  1.00  0.00     0.039 C 
ENDBRANCH   4   5
ENDBRANCH   3   4
ENDBRANCH   1   3
BRANCH   1   9
ATOM      9  C   UNL     1       4.071  28.622  70.233  1.00  0.00     0.013 C 
ATOM     10  C   UNL     1       3.469  27.591  70.840  1.00  0.00     0.008 C 
ENDBRANCH   1   9
BRANCH   1  11
ATOM     11  O   UNL     1       1.951  29.394  69.350  1.00  0.00    -0.455 OA
BRANCH  11  12
ATOM     12  C   UNL     1       1.029  29.871  68.407  1.00  0.00     0.303 C 
ATOM     13  O   UNL     1       0.891  29.318  67.284  1.00  0.00    -0.253 OA
ATOM     14  C   UNL     1       0.160  31.029  68.762  1.00  0.00     0.139 C 
ENDBRANCH  11  12
ENDBRANCH   1  11
TORSDOF 6
ENDMDL
MODEL 7
REMARK VINA RESULT:    -5.346      2.104      5.441
REMARK INTER + INTRA:          -8.075
REMARK INTER:                  -7.327
REMARK INTRA:                  -0.749
REMARK UNBOUND:                -0.854
REMARK SMILES C=C[C@@](C)(CCC=C(C)C)OC(C)=O
REMARK SMILES IDX 3 1 4 2 5 3 6 4 7 5 9 6 8 7 10 8 2 9 1 10 11 11 12 12 14 13
REMARK SMILES IDX 13 14
REMARK H PARENT
REMARK Flexibility Score: inf
ROOT
ATOM      1  C   UNL     1       4.220  30.428  69.449  1.00  0.00     0.127 C 
ATOM      2  C   UNL     1       3.146  31.232  70.209  1.00  0.00     0.061 C 
ENDROOT
BRANCH   1   3
ATOM      3  C   UNL     1       5.392  30.086  70.422  1.00  0.00     0.057 C 
BRANCH   3   4
ATOM      4  C   UNL     1       4.976  29.929  71.898  1.00  0.00     0.032 C 
BRANCH   4   5
ATOM      5  C   UNL     1       5.435  28.597  72.439  1.00  0.00    -0.028 C 
ATOM      6  C   UNL     1       3.104  27.744  72.786  1.00  0.00     0.039 C 
ATOM      7  C   UNL     1       4.608  27.616  72.866  1.00  0.00    -0.080 C 
ATOM      8  C   UNL     1       5.217  26.354  73.420  1.00  0.00     0.039 C 
ENDBRANCH   4   5
ENDBRANCH   3   4
ENDBRANCH   1   3
BRANCH   1   9
ATOM      9  C   UNL     1       3.534  29.209  68.832  1.00  0.00     0.013 C 
ATOM     10  C   UNL     1       2.360  28.705  69.233  1.00  0.00     0.008 C 
ENDBRANCH   1   9
BRANCH   1  11
ATOM     11  O   UNL     1       4.694  31.294  68.407  1.00  0.00    -0.455 OA
BRANCH  11  12
ATOM     12  C   UNL     1       3.972  32.317  67.775  1.00  0.00     0.303 C 
ATOM     13  O   UNL     1       4.047  33.512  68.165  1.00  0.00    -0.253 OA
ATOM     14  C   UNL     1       3.138  31.988  66.584  1.00  0.00     0.139 C 
ENDBRANCH  11  12
ENDBRANCH   1  11
TORSDOF 6
ENDMDL
MODEL 8
REMARK VINA RESULT:    -5.331      3.107      5.776
REMARK INTER + INTRA:          -8.055
REMARK INTER:                  -6.923
REMARK INTRA:                  -1.132
REMARK UNBOUND:                -0.854
REMARK SMILES C=C[C@@](C)(CCC=C(C)C)OC(C)=O
REMARK SMILES IDX 3 1 4 2 5 3 6 4 7 5 9 6 8 7 10 8 2 9 1 10 11 11 12 12 14 13
REMARK SMILES IDX 13 14
REMARK H PARENT
REMARK Flexibility Score: inf
ROOT
ATOM      1  C   UNL     1       1.885  33.054  66.986  1.00  0.00     0.127 C 
ATOM      2  C   UNL     1       3.037  33.847  67.633  1.00  0.00     0.061 C 
ENDROOT
BRANCH   1   3
ATOM      3  C   UNL     1       2.419  31.668  66.504  1.00  0.00     0.057 C 
BRANCH   3   4
ATOM      4  C   UNL     1       3.709  31.200  67.205  1.00  0.00     0.032 C 
BRANCH   4   5
ATOM      5  C   UNL     1       3.454  29.945  68.003  1.00  0.00    -0.028 C 
ATOM      6  C   UNL     1       3.301  31.164  70.187  1.00  0.00     0.039 C 
ATOM      7  C   UNL     1       3.294  29.909  69.345  1.00  0.00    -0.080 C 
ATOM      8  C   UNL     1       3.086  28.571  70.007  1.00  0.00     0.039 C 
ENDBRANCH   4   5
ENDBRANCH   3   4
ENDBRANCH   1   3
BRANCH   1   9
ATOM      9  C   UNL     1       0.748  32.974  68.005  1.00  0.00     0.013 C 
ATOM     10  C   UNL     1       0.107  31.850  68.351  1.00  0.00     0.008 C 
ENDBRANCH   1   9
BRANCH   1  11
ATOM     11  O   UNL     1       1.463  33.829  65.854  1.00  0.00    -0.455 OA
BRANCH  11  12
ATOM     12  C   UNL     1       0.181  33.849  65.284  1.00  0.00     0.303 C 
ATOM     13  O   UNL     1      -0.285  32.849  64.678  1.00  0.00    -0.253 OA
ATOM     14  C   UNL     1      -0.665  35.067  65.444  1.00  0.00     0.139 C 
ENDBRANCH  11  12
ENDBRANCH   1  11
TORSDOF 6
ENDMDL
MODEL 9
REMARK VINA RESULT:    -5.288      1.465      2.565
REMARK INTER + INTRA:          -7.997
REMARK INTER:                  -7.072
REMARK INTRA:                  -0.924
REMARK UNBOUND:                -0.854
REMARK SMILES C=C[C@@](C)(CCC=C(C)C)OC(C)=O
REMARK SMILES IDX 3 1 4 2 5 3 6 4 7 5 9 6 8 7 10 8 2 9 1 10 11 11 12 12 14 13
REMARK SMILES IDX 13 14
REMARK H PARENT
REMARK Flexibility Score: inf
ROOT
ATOM      1  C   UNL     1       2.839  29.897  69.621  1.00  0.00     0.127 C 
ATOM      2  C   UNL     1       3.249  31.266  70.196  1.00  0.00     0.061 C 
ENDROOT
BRANCH   1   3
ATOM      3  C   UNL     1       1.292  29.866  69.416  1.00  0.00     0.057 C 
BRANCH   3   4
ATOM      4  C   UNL     1       0.654  31.242  69.141  1.00  0.00     0.032 C 
BRANCH   4   5
ATOM      5  C   UNL     1       0.508  31.472  67.657  1.00  0.00    -0.028 C 
ATOM      6  C   UNL     1       1.917  33.544  67.670  1.00  0.00     0.039 C 
ATOM      7  C   UNL     1       1.047  32.514  66.986  1.00  0.00    -0.080 C 
ATOM      8  C   UNL     1       0.780  32.632  65.507  1.00  0.00     0.039 C 
ENDBRANCH   4   5
ENDBRANCH   3   4
ENDBRANCH   1   3
BRANCH   1   9
ATOM      9  C   UNL     1       3.650  29.668  68.345  1.00  0.00     0.013 C 
ATOM     10  C   UNL     1       4.233  30.635  67.624  1.00  0.00     0.008 C 
ENDBRANCH   1   9
BRANCH   1  11
ATOM     11  O   UNL     1       3.215  28.927  70.610  1.00  0.00    -0.455 OA
BRANCH  11  12
ATOM     12  C   UNL     1       4.357  28.959  71.423  1.00  0.00     0.303 C 
ATOM     13  O   UNL     1       5.510  28.797  70.944  1.00  0.00    -0.253 OA
ATOM     14  C   UNL     1       4.204  29.242  72.879  1.00  0.00     0.139 C 
ENDBRANCH  11  12
ENDBRANCH   1  11
TORSDOF 6
ENDMDL
