MODEL 1
REMARK VINA RESULT:    -7.049      0.000      0.000
REMARK INTER + INTRA:          -8.584
REMARK INTER:                  -8.492
REMARK INTRA:                  -0.092
REMARK UNBOUND:                -0.092
REMARK SMILES O=c1c(O)c(-c2ccc(O)c(O)c2)oc2cc(O)cc(O)c12
REMARK SMILES IDX 5 1 3 2 2 3 1 4 22 5 20 6 19 7 17 8 16 9 15 10 14 11 6 12
REMARK SMILES IDX 7 13 8 14 9 15 13 16 11 17 10 18 12 20 4 22 21 24 18 26
REMARK H PARENT 10 19 12 21 4 23 21 25 18 27
REMARK Flexibility Score: inf
ROOT
ATOM      1  C   UNL     1     141.052 131.150 148.582  1.00  0.00     0.180 A 
ATOM      2  C   UNL     1     139.736 130.730 148.309  1.00  0.00     0.208 A 
ATOM      3  C   UNL     1     138.889 131.581 147.584  1.00  0.00     0.238 A 
ATOM      4  O   UNL     1     137.705 131.221 147.342  1.00  0.00    -0.285 OA
ATOM      5  C   UNL     1     139.374 132.826 147.130  1.00  0.00     0.111 A 
ATOM      6  C   UNL     1     138.586 133.741 146.389  1.00  0.00     0.134 A 
ATOM      7  C   UNL     1     139.145 134.954 145.965  1.00  0.00     0.093 A 
ATOM      8  C   UNL     1     140.475 135.270 146.265  1.00  0.00     0.123 A 
ATOM      9  C   UNL     1     141.256 134.372 146.994  1.00  0.00     0.094 A 
ATOM     10  C   UNL     1     140.716 133.158 147.428  1.00  0.00     0.146 A 
ATOM     11  O   UNL     1     141.479 132.324 148.125  1.00  0.00    -0.452 OA
ENDROOT
BRANCH   1  12
ATOM     12  C   UNL     1     142.000 130.316 149.357  1.00  0.00     0.025 A 
ATOM     13  C   UNL     1     143.203 129.863 148.794  1.00  0.00     0.016 A 
ATOM     14  C   UNL     1     144.070 129.057 149.536  1.00  0.00     0.051 A 
ATOM     15  C   UNL     1     143.750 128.680 150.845  1.00  0.00     0.157 A 
ATOM     16  C   UNL     1     141.666 129.921 150.661  1.00  0.00     0.062 A 
ATOM     17  C   UNL     1     142.529 129.114 151.413  1.00  0.00     0.158 A 
BRANCH  15  18
ATOM     18  O   UNL     1     144.661 127.878 151.534  1.00  0.00    -0.504 OA
ATOM     19  H   UNL     1     145.662 128.001 151.497  1.00  0.00     0.293 HD
ENDBRANCH  15  18
BRANCH  17  20
ATOM     20  O   UNL     1     142.137 128.771 152.709  1.00  0.00    -0.504 OA
ATOM     21  H   UNL     1     141.671 129.401 153.345  1.00  0.00     0.293 HD
ENDBRANCH  17  20
ENDBRANCH   1  12
BRANCH   2  22
ATOM     22  O   UNL     1     139.296 129.471 148.728  1.00  0.00    -0.502 OA
ATOM     23  H   UNL     1     139.925 128.684 148.831  1.00  0.00     0.293 HD
ENDBRANCH   2  22
BRANCH   6  24
ATOM     24  O   UNL     1     137.258 133.453 146.075  1.00  0.00    -0.507 OA
ATOM     25  H   UNL     1     136.551 134.179 146.027  1.00  0.00     0.293 HD
ENDBRANCH   6  24
BRANCH   8  26
ATOM     26  O   UNL     1     141.031 136.476 145.842  1.00  0.00    -0.508 OA
ATOM     27  H   UNL     1     140.540 137.355 145.956  1.00  0.00     0.293 HD
ENDBRANCH   8  26
TORSDOF 6
ENDMDL
MODEL 2
REMARK VINA RESULT:    -6.946      4.731      7.403
REMARK INTER + INTRA:          -8.460
REMARK INTER:                  -8.154
REMARK INTRA:                  -0.306
REMARK UNBOUND:                -0.092
REMARK SMILES O=c1c(O)c(-c2ccc(O)c(O)c2)oc2cc(O)cc(O)c12
REMARK SMILES IDX 5 1 3 2 2 3 1 4 22 5 20 6 19 7 17 8 16 9 15 10 14 11 6 12
REMARK SMILES IDX 7 13 8 14 9 15 13 16 11 17 10 18 12 20 4 22 21 24 18 26
REMARK H PARENT 10 19 12 21 4 23 21 25 18 27
REMARK Flexibility Score: inf
ROOT
ATOM      1  C   UNL     1     143.782 126.599 147.098  1.00  0.00     0.180 A 
ATOM      2  C   UNL     1     142.473 127.077 146.893  1.00  0.00     0.208 A 
ATOM      3  C   UNL     1     141.837 127.780 147.928  1.00  0.00     0.238 A 
ATOM      4  O   UNL     1     140.662 128.203 147.760  1.00  0.00    -0.285 OA
ATOM      5  C   UNL     1     142.524 128.009 149.138  1.00  0.00     0.111 A 
ATOM      6  C   UNL     1     141.957 128.711 150.230  1.00  0.00     0.134 A 
ATOM      7  C   UNL     1     142.708 128.906 151.397  1.00  0.00     0.093 A 
ATOM      8  C   UNL     1     144.015 128.414 151.494  1.00  0.00     0.123 A 
ATOM      9  C   UNL     1     144.578 127.721 150.422  1.00  0.00     0.094 A 
ATOM     10  C   UNL     1     143.845 127.515 149.250  1.00  0.00     0.146 A 
ATOM     11  O   UNL     1     144.403 126.847 148.247  1.00  0.00    -0.452 OA
ENDROOT
BRANCH   1  12
ATOM     12  C   UNL     1     144.512 125.833 146.061  1.00  0.00     0.025 A 
ATOM     13  C   UNL     1     145.175 126.480 145.006  1.00  0.00     0.016 A 
ATOM     14  C   UNL     1     145.836 125.736 144.027  1.00  0.00     0.051 A 
ATOM     15  C   UNL     1     145.839 124.337 144.073  1.00  0.00     0.157 A 
ATOM     16  C   UNL     1     144.494 124.431 146.097  1.00  0.00     0.062 A 
ATOM     17  C   UNL     1     145.154 123.676 145.120  1.00  0.00     0.158 A 
BRANCH  15  18
ATOM     18  O   UNL     1     146.522 123.652 143.067  1.00  0.00    -0.504 OA
ATOM     19  H   UNL     1     146.087 123.000 142.432  1.00  0.00     0.293 HD
ENDBRANCH  15  18
BRANCH  17  20
ATOM     20  O   UNL     1     145.105 122.285 145.227  1.00  0.00    -0.504 OA
ATOM     21  H   UNL     1     144.258 121.741 145.148  1.00  0.00     0.293 HD
ENDBRANCH  17  20
ENDBRANCH   1  12
BRANCH   2  22
ATOM     22  O   UNL     1     141.833 126.880 145.666  1.00  0.00    -0.502 OA
ATOM     23  H   UNL     1     141.679 127.634 145.007  1.00  0.00     0.293 HD
ENDBRANCH   2  22
BRANCH   6  24
ATOM     24  O   UNL     1     140.657 129.214 150.162  1.00  0.00    -0.507 OA
ATOM     25  H   UNL     1     139.953 128.795 149.564  1.00  0.00     0.293 HD
ENDBRANCH   6  24
BRANCH   8  26
ATOM     26  O   UNL     1     144.762 128.609 152.654  1.00  0.00    -0.508 OA
ATOM     27  H   UNL     1     145.459 129.341 152.719  1.00  0.00     0.293 HD
ENDBRANCH   8  26
TORSDOF 6
ENDMDL
MODEL 3
REMARK VINA RESULT:    -6.818      1.531      7.225
REMARK INTER + INTRA:          -8.305
REMARK INTER:                  -8.264
REMARK INTRA:                  -0.041
REMARK UNBOUND:                -0.092
REMARK SMILES O=c1c(O)c(-c2ccc(O)c(O)c2)oc2cc(O)cc(O)c12
REMARK SMILES IDX 5 1 3 2 2 3 1 4 22 5 20 6 19 7 17 8 16 9 15 10 14 11 6 12
REMARK SMILES IDX 7 13 8 14 9 15 13 16 11 17 10 18 12 20 4 22 21 24 18 26
REMARK H PARENT 10 19 12 21 4 23 21 25 18 27
REMARK Flexibility Score: inf
ROOT
ATOM      1  C   UNL     1     141.682 131.957 147.690  1.00  0.00     0.180 A 
ATOM      2  C   UNL     1     142.790 131.480 146.963  1.00  0.00     0.208 A 
ATOM      3  C   UNL     1     143.614 130.505 147.545  1.00  0.00     0.238 A 
ATOM      4  O   UNL     1     144.615 130.077 146.908  1.00  0.00    -0.285 OA
ATOM      5  C   UNL     1     143.309 130.012 148.831  1.00  0.00     0.111 A 
ATOM      6  C   UNL     1     144.087 129.027 149.487  1.00  0.00     0.134 A 
ATOM      7  C   UNL     1     143.712 128.581 150.762  1.00  0.00     0.093 A 
ATOM      8  C   UNL     1     142.575 129.100 151.393  1.00  0.00     0.123 A 
ATOM      9  C   UNL     1     141.806 130.071 150.751  1.00  0.00     0.094 A 
ATOM     10  C   UNL     1     142.164 130.529 149.480  1.00  0.00     0.146 A 
ATOM     11  O   UNL     1     141.417 131.458 148.894  1.00  0.00    -0.452 OA
ENDROOT
BRANCH   1  12
ATOM     12  C   UNL     1     140.776 132.998 147.152  1.00  0.00     0.025 A 
ATOM     13  C   UNL     1     139.397 132.771 147.022  1.00  0.00     0.016 A 
ATOM     14  C   UNL     1     138.566 133.759 146.489  1.00  0.00     0.051 A 
ATOM     15  C   UNL     1     139.094 134.984 146.065  1.00  0.00     0.157 A 
ATOM     16  C   UNL     1     141.311 134.217 146.707  1.00  0.00     0.062 A 
ATOM     17  C   UNL     1     140.486 135.214 146.172  1.00  0.00     0.158 A 
BRANCH  15  18
ATOM     18  O   UNL     1     138.209 135.931 145.547  1.00  0.00    -0.504 OA
ATOM     19  H   UNL     1     137.829 135.896 144.613  1.00  0.00     0.293 HD
ENDBRANCH  15  18
BRANCH  17  20
ATOM     20  O   UNL     1     141.086 136.406 145.761  1.00  0.00    -0.504 OA
ATOM     21  H   UNL     1     142.015 136.694 146.032  1.00  0.00     0.293 HD
ENDBRANCH  17  20
ENDBRANCH   1  12
BRANCH   2  22
ATOM     22  O   UNL     1     143.041 131.949 145.671  1.00  0.00    -0.502 OA
ATOM     23  H   UNL     1     143.914 132.395 145.416  1.00  0.00     0.293 HD
ENDBRANCH   2  22
BRANCH   6  24
ATOM     24  O   UNL     1     145.224 128.491 148.883  1.00  0.00    -0.507 OA
ATOM     25  H   UNL     1     146.085 128.345 149.400  1.00  0.00     0.293 HD
ENDBRANCH   6  24
BRANCH   8  26
ATOM     26  O   UNL     1     142.202 128.656 152.660  1.00  0.00    -0.508 OA
ATOM     27  H   UNL     1     142.385 129.208 153.491  1.00  0.00     0.293 HD
ENDBRANCH   8  26
TORSDOF 6
ENDMDL
MODEL 4
REMARK VINA RESULT:    -6.660      6.474      9.031
REMARK INTER + INTRA:          -8.115
REMARK INTER:                  -7.849
REMARK INTRA:                  -0.265
REMARK UNBOUND:                -0.092
REMARK SMILES O=c1c(O)c(-c2ccc(O)c(O)c2)oc2cc(O)cc(O)c12
REMARK SMILES IDX 5 1 3 2 2 3 1 4 22 5 20 6 19 7 17 8 16 9 15 10 14 11 6 12
REMARK SMILES IDX 7 13 8 14 9 15 13 16 11 17 10 18 12 20 4 22 21 24 18 26
REMARK H PARENT 10 19 12 21 4 23 21 25 18 27
REMARK Flexibility Score: inf
ROOT
ATOM      1  C   UNL     1     142.266 137.480 143.489  1.00  0.00     0.180 A 
ATOM      2  C   UNL     1     142.108 136.514 144.502  1.00  0.00     0.208 A 
ATOM      3  C   UNL     1     140.812 136.165 144.910  1.00  0.00     0.238 A 
ATOM      4  O   UNL     1     140.658 135.310 145.824  1.00  0.00    -0.285 OA
ATOM      5  C   UNL     1     139.699 136.771 144.291  1.00  0.00     0.111 A 
ATOM      6  C   UNL     1     138.360 136.473 144.641  1.00  0.00     0.134 A 
ATOM      7  C   UNL     1     137.307 137.112 143.971  1.00  0.00     0.093 A 
ATOM      8  C   UNL     1     137.567 138.041 142.956  1.00  0.00     0.123 A 
ATOM      9  C   UNL     1     138.885 138.338 142.607  1.00  0.00     0.094 A 
ATOM     10  C   UNL     1     139.949 137.713 143.265  1.00  0.00     0.146 A 
ATOM     11  O   UNL     1     141.193 138.019 142.917  1.00  0.00    -0.452 OA
ENDROOT
BRANCH   1  12
ATOM     12  C   UNL     1     143.601 137.915 143.017  1.00  0.00     0.025 A 
ATOM     13  C   UNL     1     144.135 137.448 141.805  1.00  0.00     0.016 A 
ATOM     14  C   UNL     1     145.406 137.853 141.392  1.00  0.00     0.051 A 
ATOM     15  C   UNL     1     146.172 138.718 142.182  1.00  0.00     0.157 A 
ATOM     16  C   UNL     1     144.376 138.764 143.821  1.00  0.00     0.062 A 
ATOM     17  C   UNL     1     145.652 139.175 143.415  1.00  0.00     0.158 A 
BRANCH  15  18
ATOM     18  O   UNL     1     147.432 139.088 141.710  1.00  0.00    -0.504 OA
ATOM     19  H   UNL     1     148.208 138.450 141.611  1.00  0.00     0.293 HD
ENDBRANCH  15  18
BRANCH  17  20
ATOM     20  O   UNL     1     146.361 140.031 144.261  1.00  0.00    -0.504 OA
ATOM     21  H   UNL     1     146.332 141.039 144.200  1.00  0.00     0.293 HD
ENDBRANCH  17  20
ENDBRANCH   1  12
BRANCH   2  22
ATOM     22  O   UNL     1     143.226 135.893 145.065  1.00  0.00    -0.502 OA
ATOM     23  H   UNL     1     144.084 135.746 144.546  1.00  0.00     0.293 HD
ENDBRANCH   2  22
BRANCH   6  24
ATOM     24  O   UNL     1     138.070 135.551 145.647  1.00  0.00    -0.507 OA
ATOM     25  H   UNL     1     137.859 135.844 146.595  1.00  0.00     0.293 HD
ENDBRANCH   6  24
BRANCH   8  26
ATOM     26  O   UNL     1     136.521 138.674 142.289  1.00  0.00    -0.508 OA
ATOM     27  H   UNL     1     135.557 138.550 142.576  1.00  0.00     0.293 HD
ENDBRANCH   8  26
TORSDOF 6
ENDMDL
MODEL 5
REMARK VINA RESULT:    -6.656      6.206      8.588
REMARK INTER + INTRA:          -8.110
REMARK INTER:                  -7.829
REMARK INTRA:                  -0.282
REMARK UNBOUND:                -0.092
REMARK SMILES O=c1c(O)c(-c2ccc(O)c(O)c2)oc2cc(O)cc(O)c12
REMARK SMILES IDX 5 1 3 2 2 3 1 4 22 5 20 6 19 7 17 8 16 9 15 10 14 11 6 12
REMARK SMILES IDX 7 13 8 14 9 15 13 16 11 17 10 18 12 20 4 22 21 24 18 26
REMARK H PARENT 10 19 12 21 4 23 21 25 18 27
REMARK Flexibility Score: inf
ROOT
ATOM      1  C   UNL     1     144.927 126.996 146.707  1.00  0.00     0.180 A 
ATOM      2  C   UNL     1     145.883 127.945 147.121  1.00  0.00     0.208 A 
ATOM      3  C   UNL     1     145.801 128.466 148.420  1.00  0.00     0.238 A 
ATOM      4  O   UNL     1     146.644 129.324 148.799  1.00  0.00    -0.285 OA
ATOM      5  C   UNL     1     144.782 128.021 149.288  1.00  0.00     0.111 A 
ATOM      6  C   UNL     1     144.632 128.494 150.615  1.00  0.00     0.134 A 
ATOM      7  C   UNL     1     143.598 127.995 151.418  1.00  0.00     0.093 A 
ATOM      8  C   UNL     1     142.712 127.031 150.922  1.00  0.00     0.123 A 
ATOM      9  C   UNL     1     142.856 126.561 149.616  1.00  0.00     0.094 A 
ATOM     10  C   UNL     1     143.879 127.048 148.798  1.00  0.00     0.146 A 
ATOM     11  O   UNL     1     143.989 126.589 147.557  1.00  0.00    -0.452 OA
ENDROOT
BRANCH   1  12
ATOM     12  C   UNL     1     144.935 126.412 145.345  1.00  0.00     0.025 A 
ATOM     13  C   UNL     1     144.019 126.829 144.367  1.00  0.00     0.016 A 
ATOM     14  C   UNL     1     144.030 126.247 143.097  1.00  0.00     0.051 A 
ATOM     15  C   UNL     1     144.944 125.234 142.783  1.00  0.00     0.157 A 
ATOM     16  C   UNL     1     145.837 125.382 145.041  1.00  0.00     0.062 A 
ATOM     17  C   UNL     1     145.857 124.792 143.771  1.00  0.00     0.158 A 
BRANCH  15  18
ATOM     18  O   UNL     1     144.907 124.697 141.496  1.00  0.00    -0.504 OA
ATOM     19  H   UNL     1     145.239 123.775 141.258  1.00  0.00     0.293 HD
ENDBRANCH  15  18
BRANCH  17  20
ATOM     20  O   UNL     1     146.790 123.782 143.535  1.00  0.00    -0.504 OA
ATOM     21  H   UNL     1     147.106 123.128 144.236  1.00  0.00     0.293 HD
ENDBRANCH  17  20
ENDBRANCH   1  12
BRANCH   2  22
ATOM     22  O   UNL     1     146.912 128.332 146.258  1.00  0.00    -0.502 OA
ATOM     23  H   UNL     1     147.193 127.771 145.463  1.00  0.00     0.293 HD
ENDBRANCH   2  22
BRANCH   6  24
ATOM     24  O   UNL     1     145.500 129.454 151.136  1.00  0.00    -0.507 OA
ATOM     25  H   UNL     1     146.506 129.382 151.023  1.00  0.00     0.293 HD
ENDBRANCH   6  24
BRANCH   8  26
ATOM     26  O   UNL     1     141.685 126.533 151.722  1.00  0.00    -0.508 OA
ATOM     27  H   UNL     1     141.780 125.657 152.222  1.00  0.00     0.293 HD
ENDBRANCH   8  26
TORSDOF 6
ENDMDL
MODEL 6
REMARK VINA RESULT:    -6.619      5.826      8.877
REMARK INTER + INTRA:          -8.066
REMARK INTER:                  -7.744
REMARK INTRA:                  -0.321
REMARK UNBOUND:                -0.092
REMARK SMILES O=c1c(O)c(-c2ccc(O)c(O)c2)oc2cc(O)cc(O)c12
REMARK SMILES IDX 5 1 3 2 2 3 1 4 22 5 20 6 19 7 17 8 16 9 15 10 14 11 6 12
REMARK SMILES IDX 7 13 8 14 9 15 13 16 11 17 10 18 12 20 4 22 21 24 18 26
REMARK H PARENT 10 19 12 21 4 23 21 25 18 27
REMARK Flexibility Score: inf
ROOT
ATOM      1  C   UNL     1     141.531 137.005 143.774  1.00  0.00     0.180 A 
ATOM      2  C   UNL     1     141.710 136.188 144.908  1.00  0.00     0.208 A 
ATOM      3  C   UNL     1     140.578 135.732 145.600  1.00  0.00     0.238 A 
ATOM      4  O   UNL     1     140.725 135.009 146.623  1.00  0.00    -0.285 OA
ATOM      5  C   UNL     1     139.291 136.082 145.140  1.00  0.00     0.111 A 
ATOM      6  C   UNL     1     138.099 135.660 145.777  1.00  0.00     0.134 A 
ATOM      7  C   UNL     1     136.857 136.043 145.252  1.00  0.00     0.093 A 
ATOM      8  C   UNL     1     136.783 136.836 144.101  1.00  0.00     0.123 A 
ATOM      9  C   UNL     1     137.955 137.254 143.469  1.00  0.00     0.094 A 
ATOM     10  C   UNL     1     139.203 136.885 143.978  1.00  0.00     0.146 A 
ATOM     11  O   UNL     1     140.303 137.302 143.361  1.00  0.00    -0.452 OA
ENDROOT
BRANCH   1  12
ATOM     12  C   UNL     1     142.676 137.541 143.002  1.00  0.00     0.025 A 
ATOM     13  C   UNL     1     143.356 138.698 143.412  1.00  0.00     0.016 A 
ATOM     14  C   UNL     1     144.418 139.198 142.654  1.00  0.00     0.051 A 
ATOM     15  C   UNL     1     144.812 138.564 141.471  1.00  0.00     0.157 A 
ATOM     16  C   UNL     1     143.055 136.916 141.804  1.00  0.00     0.062 A 
ATOM     17  C   UNL     1     144.118 137.410 141.038  1.00  0.00     0.158 A 
BRANCH  15  18
ATOM     18  O   UNL     1     145.883 139.111 140.763  1.00  0.00    -0.504 OA
ATOM     19  H   UNL     1     146.016 139.004 139.768  1.00  0.00     0.293 HD
ENDBRANCH  15  18
BRANCH  17  20
ATOM     20  O   UNL     1     144.447 136.729 139.864  1.00  0.00    -0.504 OA
ATOM     21  H   UNL     1     143.833 136.646 139.067  1.00  0.00     0.293 HD
ENDBRANCH  17  20
ENDBRANCH   1  12
BRANCH   2  22
ATOM     22  O   UNL     1     142.994 135.816 145.314  1.00  0.00    -0.502 OA
ATOM     23  H   UNL     1     143.801 136.412 145.174  1.00  0.00     0.293 HD
ENDBRANCH   2  22
BRANCH   6  24
ATOM     24  O   UNL     1     138.141 134.868 146.925  1.00  0.00    -0.507 OA
ATOM     25  H   UNL     1     138.677 134.008 146.960  1.00  0.00     0.293 HD
ENDBRANCH   6  24
BRANCH   8  26
ATOM     26  O   UNL     1     135.549 137.215 143.578  1.00  0.00    -0.508 OA
ATOM     27  H   UNL     1     135.196 138.159 143.683  1.00  0.00     0.293 HD
ENDBRANCH   8  26
TORSDOF 6
ENDMDL
MODEL 7
REMARK VINA RESULT:    -6.490      1.706      2.560
REMARK INTER + INTRA:          -7.910
REMARK INTER:                  -7.638
REMARK INTRA:                  -0.272
REMARK UNBOUND:                -0.092
REMARK SMILES O=c1c(O)c(-c2ccc(O)c(O)c2)oc2cc(O)cc(O)c12
REMARK SMILES IDX 5 1 3 2 2 3 1 4 22 5 20 6 19 7 17 8 16 9 15 10 14 11 6 12
REMARK SMILES IDX 7 13 8 14 9 15 13 16 11 17 10 18 12 20 4 22 21 24 18 26
REMARK H PARENT 10 19 12 21 4 23 21 25 18 27
REMARK Flexibility Score: inf
ROOT
ATOM      1  C   UNL     1     142.075 129.718 148.971  1.00  0.00     0.180 A 
ATOM      2  C   UNL     1     141.229 128.854 148.248  1.00  0.00     0.208 A 
ATOM      3  C   UNL     1     140.272 129.408 147.385  1.00  0.00     0.238 A 
ATOM      4  O   UNL     1     139.501 128.646 146.741  1.00  0.00    -0.285 OA
ATOM      5  C   UNL     1     140.187 130.809 147.245  1.00  0.00     0.111 A 
ATOM      6  C   UNL     1     139.253 131.447 146.393  1.00  0.00     0.134 A 
ATOM      7  C   UNL     1     139.238 132.846 146.302  1.00  0.00     0.093 A 
ATOM      8  C   UNL     1     140.140 133.619 147.043  1.00  0.00     0.123 A 
ATOM      9  C   UNL     1     141.063 132.995 147.883  1.00  0.00     0.094 A 
ATOM     10  C   UNL     1     141.092 131.601 147.990  1.00  0.00     0.146 A 
ATOM     11  O   UNL     1     141.977 131.033 148.801  1.00  0.00    -0.452 OA
ENDROOT
BRANCH   1  12
ATOM     12  C   UNL     1     143.099 129.211 149.914  1.00  0.00     0.025 A 
ATOM     13  C   UNL     1     142.741 128.690 151.168  1.00  0.00     0.016 A 
ATOM     14  C   UNL     1     143.726 128.240 152.051  1.00  0.00     0.051 A 
ATOM     15  C   UNL     1     145.081 128.311 151.707  1.00  0.00     0.157 A 
ATOM     16  C   UNL     1     144.457 129.304 149.576  1.00  0.00     0.062 A 
ATOM     17  C   UNL     1     145.451 128.855 150.455  1.00  0.00     0.158 A 
BRANCH  15  18
ATOM     18  O   UNL     1     146.014 127.840 152.632  1.00  0.00    -0.504 OA
ATOM     19  H   UNL     1     146.775 128.392 152.997  1.00  0.00     0.293 HD
ENDBRANCH  15  18
BRANCH  17  20
ATOM     20  O   UNL     1     146.782 128.967 150.046  1.00  0.00    -0.504 OA
ATOM     21  H   UNL     1     147.199 128.405 149.319  1.00  0.00     0.293 HD
ENDBRANCH  17  20
ENDBRANCH   1  12
BRANCH   2  22
ATOM     22  O   UNL     1     141.367 127.469 148.368  1.00  0.00    -0.502 OA
ATOM     23  H   UNL     1     141.774 126.899 147.635  1.00  0.00     0.293 HD
ENDBRANCH   2  22
BRANCH   6  24
ATOM     24  O   UNL     1     138.342 130.704 145.642  1.00  0.00    -0.507 OA
ATOM     25  H   UNL     1     138.637 129.918 145.072  1.00  0.00     0.293 HD
ENDBRANCH   6  24
BRANCH   8  26
ATOM     26  O   UNL     1     140.126 135.009 146.951  1.00  0.00    -0.508 OA
ATOM     27  H   UNL     1     140.408 135.487 146.102  1.00  0.00     0.293 HD
ENDBRANCH   8  26
TORSDOF 6
ENDMDL
MODEL 8
REMARK VINA RESULT:    -6.485      7.169     10.079
REMARK INTER + INTRA:          -7.904
REMARK INTER:                  -7.607
REMARK INTRA:                  -0.296
REMARK UNBOUND:                -0.092
REMARK SMILES O=c1c(O)c(-c2ccc(O)c(O)c2)oc2cc(O)cc(O)c12
REMARK SMILES IDX 5 1 3 2 2 3 1 4 22 5 20 6 19 7 17 8 16 9 15 10 14 11 6 12
REMARK SMILES IDX 7 13 8 14 9 15 13 16 11 17 10 18 12 20 4 22 21 24 18 26
REMARK H PARENT 10 19 12 21 4 23 21 25 18 27
REMARK Flexibility Score: inf
ROOT
ATOM      1  C   UNL     1     142.414 137.465 142.989  1.00  0.00     0.180 A 
ATOM      2  C   UNL     1     142.895 136.746 141.876  1.00  0.00     0.208 A 
ATOM      3  C   UNL     1     144.179 137.031 141.389  1.00  0.00     0.238 A 
ATOM      4  O   UNL     1     144.617 136.402 140.387  1.00  0.00    -0.285 OA
ATOM      5  C   UNL     1     144.966 138.011 142.028  1.00  0.00     0.111 A 
ATOM      6  C   UNL     1     146.272 138.356 141.602  1.00  0.00     0.134 A 
ATOM      7  C   UNL     1     146.995 139.335 142.297  1.00  0.00     0.093 A 
ATOM      8  C   UNL     1     146.438 139.975 143.411  1.00  0.00     0.123 A 
ATOM      9  C   UNL     1     145.152 139.640 143.835  1.00  0.00     0.094 A 
ATOM     10  C   UNL     1     144.415 138.667 143.154  1.00  0.00     0.146 A 
ATOM     11  O   UNL     1     143.190 138.371 143.575  1.00  0.00    -0.452 OA
ENDROOT
BRANCH   1  12
ATOM     12  C   UNL     1     141.063 137.235 143.550  1.00  0.00     0.025 A 
ATOM     13  C   UNL     1     140.802 136.153 144.406  1.00  0.00     0.016 A 
ATOM     14  C   UNL     1     139.514 135.943 144.904  1.00  0.00     0.051 A 
ATOM     15  C   UNL     1     138.462 136.796 144.550  1.00  0.00     0.157 A 
ATOM     16  C   UNL     1     140.006 138.079 143.176  1.00  0.00     0.062 A 
ATOM     17  C   UNL     1     138.712 137.876 143.670  1.00  0.00     0.158 A 
BRANCH  15  18
ATOM     18  O   UNL     1     137.201 136.534 145.086  1.00  0.00    -0.504 OA
ATOM     19  H   UNL     1     136.721 137.148 145.728  1.00  0.00     0.293 HD
ENDBRANCH  15  18
BRANCH  17  20
ATOM     20  O   UNL     1     137.713 138.763 143.265  1.00  0.00    -0.504 OA
ATOM     21  H   UNL     1     137.035 138.561 142.545  1.00  0.00     0.293 HD
ENDBRANCH  17  20
ENDBRANCH   1  12
BRANCH   2  22
ATOM     22  O   UNL     1     142.114 135.745 141.292  1.00  0.00    -0.502 OA
ATOM     23  H   UNL     1     141.421 135.944 140.580  1.00  0.00     0.293 HD
ENDBRANCH   2  22
BRANCH   6  24
ATOM     24  O   UNL     1     146.853 137.734 140.497  1.00  0.00    -0.507 OA
ATOM     25  H   UNL     1     146.718 138.085 139.555  1.00  0.00     0.293 HD
ENDBRANCH   6  24
BRANCH   8  26
ATOM     26  O   UNL     1     147.157 140.948 144.103  1.00  0.00    -0.508 OA
ATOM     27  H   UNL     1     146.694 141.631 144.691  1.00  0.00     0.293 HD
ENDBRANCH   8  26
TORSDOF 6
ENDMDL
MODEL 9
REMARK VINA RESULT:    -6.340      1.904      6.782
REMARK INTER + INTRA:          -7.730
REMARK INTER:                  -7.403
REMARK INTRA:                  -0.327
REMARK UNBOUND:                -0.092
REMARK SMILES O=c1c(O)c(-c2ccc(O)c(O)c2)oc2cc(O)cc(O)c12
REMARK SMILES IDX 5 1 3 2 2 3 1 4 22 5 20 6 19 7 17 8 16 9 15 10 14 11 6 12
REMARK SMILES IDX 7 13 8 14 9 15 13 16 11 17 10 18 12 20 4 22 21 24 18 26
REMARK H PARENT 10 19 12 21 4 23 21 25 18 27
REMARK Flexibility Score: inf
ROOT
ATOM      1  C   UNL     1     141.423 131.217 147.587  1.00  0.00     0.180 A 
ATOM      2  C   UNL     1     141.407 130.078 146.760  1.00  0.00     0.208 A 
ATOM      3  C   UNL     1     141.636 128.819 147.335  1.00  0.00     0.238 A 
ATOM      4  O   UNL     1     141.636 127.792 146.603  1.00  0.00    -0.285 OA
ATOM      5  C   UNL     1     141.857 128.717 148.725  1.00  0.00     0.111 A 
ATOM      6  C   UNL     1     142.092 127.486 149.384  1.00  0.00     0.134 A 
ATOM      7  C   UNL     1     142.294 127.467 150.771  1.00  0.00     0.093 A 
ATOM      8  C   UNL     1     142.264 128.655 151.512  1.00  0.00     0.123 A 
ATOM      9  C   UNL     1     142.033 129.870 150.867  1.00  0.00     0.094 A 
ATOM     10  C   UNL     1     141.831 129.910 149.484  1.00  0.00     0.146 A 
ATOM     11  O   UNL     1     141.620 131.081 148.895  1.00  0.00    -0.452 OA
ENDROOT
BRANCH   1  12
ATOM     12  C   UNL     1     141.208 132.582 147.052  1.00  0.00     0.025 A 
ATOM     13  C   UNL     1     142.261 133.320 146.490  1.00  0.00     0.016 A 
ATOM     14  C   UNL     1     142.040 134.614 146.014  1.00  0.00     0.051 A 
ATOM     15  C   UNL     1     140.771 135.200 146.099  1.00  0.00     0.157 A 
ATOM     16  C   UNL     1     139.941 133.175 147.160  1.00  0.00     0.062 A 
ATOM     17  C   UNL     1     139.709 134.472 146.684  1.00  0.00     0.158 A 
BRANCH  15  18
ATOM     18  O   UNL     1     140.615 136.494 145.600  1.00  0.00    -0.504 OA
ATOM     19  H   UNL     1     140.411 137.299 146.173  1.00  0.00     0.293 HD
ENDBRANCH  15  18
BRANCH  17  20
ATOM     20  O   UNL     1     138.420 134.993 146.813  1.00  0.00    -0.504 OA
ATOM     21  H   UNL     1     138.005 135.643 146.162  1.00  0.00     0.293 HD
ENDBRANCH  17  20
ENDBRANCH   1  12
BRANCH   2  22
ATOM     22  O   UNL     1     141.137 130.201 145.394  1.00  0.00    -0.502 OA
ATOM     23  H   UNL     1     140.277 129.861 144.979  1.00  0.00     0.293 HD
ENDBRANCH   2  22
BRANCH   6  24
ATOM     24  O   UNL     1     142.127 126.286 148.672  1.00  0.00    -0.507 OA
ATOM     25  H   UNL     1     141.739 125.429 149.051  1.00  0.00     0.293 HD
ENDBRANCH   6  24
BRANCH   8  26
ATOM     26  O   UNL     1     142.463 128.636 152.890  1.00  0.00    -0.508 OA
ATOM     27  H   UNL     1     142.039 129.328 153.497  1.00  0.00     0.293 HD
ENDBRANCH   8  26
TORSDOF 6
ENDMDL
