MODEL 1
REMARK VINA RESULT:    -3.161      0.000      0.000
REMARK INTER + INTRA:          -7.983
REMARK INTER:                  -5.748
REMARK INTRA:                  -2.235
REMARK UNBOUND:                -2.235
REMARK SMILES CCCCCCCCCCCCCCCC(=O)[O-]
REMARK SMILES IDX 9 1 10 2 11 3 12 4 13 5 14 6 15 7 16 8 17 9 18 10 8 11 7 12
REMARK SMILES IDX 6 13 5 14 4 15 3 16 2 17 1 18
REMARK H PARENT
REMARK Flexibility Score: inf
ROOT
ATOM      1  C   UNL     1       5.677  11.700  -1.987  1.00  0.00     0.000 C 
ENDROOT
BRANCH   1   2
ATOM      2  C   UNL     1       4.852  10.406  -1.913  1.00  0.00     0.000 C 
BRANCH   2   3
ATOM      3  C   UNL     1       3.540  10.589  -1.130  1.00  0.00     0.000 C 
BRANCH   3   4
ATOM      4  C   UNL     1       3.134   9.326  -0.353  1.00  0.00     0.000 C 
BRANCH   4   5
ATOM      5  C   UNL     1       3.348   9.470   1.162  1.00  0.00     0.000 C 
BRANCH   5   6
ATOM      6  C   UNL     1       3.631   8.106   1.809  1.00  0.00     0.006 C 
BRANCH   6   7
ATOM      7  C   UNL     1       4.065   8.237   3.274  1.00  0.00     0.053 C 
BRANCH   7   8
ATOM      8  C   UNL     1       5.474   7.773   3.482  1.00  0.00     0.041 C 
ATOM      9  O   UNL     1       6.300   8.506   4.087  1.00  0.00    -0.550 OA
ATOM     10  O   UNL     1       5.884   6.545   2.977  1.00  0.00    -0.550 OA
ENDBRANCH   7   8
ENDBRANCH   6   7
ENDBRANCH   5   6
ENDBRANCH   4   5
ENDBRANCH   3   4
ENDBRANCH   2   3
ENDBRANCH   1   2
BRANCH   1  11
ATOM     11  C   UNL     1       6.987  11.610  -1.186  1.00  0.00     0.000 C 
BRANCH  11  12
ATOM     12  C   UNL     1       6.768  11.752   0.331  1.00  0.00    -0.000 C 
BRANCH  12  13
ATOM     13  C   UNL     1       6.848  10.432   1.126  1.00  0.00    -0.000 C 
BRANCH  13  14
ATOM     14  C   UNL     1       8.198   9.697   1.039  1.00  0.00    -0.000 C 
BRANCH  14  15
ATOM     15  C   UNL     1       8.075   8.290   0.438  1.00  0.00    -0.000 C 
BRANCH  15  16
ATOM     16  C   UNL     1       6.639   8.023  -0.041  1.00  0.00    -0.000 C 
BRANCH  16  17
ATOM     17  C   UNL     1       6.452   6.597  -0.581  1.00  0.00    -0.003 C 
ATOM     18  C   UNL     1       7.313   6.314  -1.813  1.00  0.00     0.004 C 
ENDBRANCH  16  17
ENDBRANCH  15  16
ENDBRANCH  14  15
ENDBRANCH  13  14
ENDBRANCH  12  13
ENDBRANCH  11  12
ENDBRANCH   1  11
TORSDOF 14
ENDMDL
MODEL 2
REMARK VINA RESULT:    -3.152      1.372      2.039
REMARK INTER + INTRA:          -7.968
REMARK INTER:                  -5.761
REMARK INTRA:                  -2.206
REMARK UNBOUND:                -2.235
REMARK SMILES CCCCCCCCCCCCCCCC(=O)[O-]
REMARK SMILES IDX 9 1 10 2 11 3 12 4 13 5 14 6 15 7 16 8 17 9 18 10 8 11 7 12
REMARK SMILES IDX 6 13 5 14 4 15 3 16 2 17 1 18
REMARK H PARENT
REMARK Flexibility Score: inf
ROOT
ATOM      1  C   UNL     1       5.727  11.804   1.922  1.00  0.00     0.000 C 
ENDROOT
BRANCH   1   2
ATOM      2  C   UNL     1       4.193  11.771   2.001  1.00  0.00     0.000 C 
BRANCH   2   3
ATOM      3  C   UNL     1       3.562  10.955   0.858  1.00  0.00     0.000 C 
BRANCH   3   4
ATOM      4  C   UNL     1       3.087   9.567   1.315  1.00  0.00     0.000 C 
BRANCH   4   5
ATOM      5  C   UNL     1       3.455   9.268   2.776  1.00  0.00     0.000 C 
BRANCH   5   6
ATOM      6  C   UNL     1       4.131   7.895   2.903  1.00  0.00     0.006 C 
BRANCH   6   7
ATOM      7  C   UNL     1       5.424   7.958   3.725  1.00  0.00     0.053 C 
BRANCH   7   8
ATOM      8  C   UNL     1       6.194   6.676   3.653  1.00  0.00     0.041 C 
ATOM      9  O   UNL     1       6.030   5.890   2.682  1.00  0.00    -0.550 OA
ATOM     10  O   UNL     1       7.068   6.330   4.677  1.00  0.00    -0.550 OA
ENDBRANCH   7   8
ENDBRANCH   6   7
ENDBRANCH   5   6
ENDBRANCH   4   5
ENDBRANCH   3   4
ENDBRANCH   2   3
ENDBRANCH   1   2
BRANCH   1  11
ATOM     11  C   UNL     1       6.235  12.266   0.544  1.00  0.00     0.000 C 
BRANCH  11  12
ATOM     12  C   UNL     1       7.182  11.245  -0.113  1.00  0.00    -0.000 C 
BRANCH  12  13
ATOM     13  C   UNL     1       7.806  10.219   0.856  1.00  0.00    -0.000 C 
BRANCH  13  14
ATOM     14  C   UNL     1       7.246   8.789   0.742  1.00  0.00    -0.000 C 
BRANCH  14  15
ATOM     15  C   UNL     1       6.269   8.622  -0.431  1.00  0.00    -0.000 C 
BRANCH  15  16
ATOM     16  C   UNL     1       5.544   7.269  -0.350  1.00  0.00    -0.000 C 
BRANCH  16  17
ATOM     17  C   UNL     1       6.446   6.091  -0.751  1.00  0.00    -0.003 C 
ATOM     18  C   UNL     1       7.298   6.393  -1.984  1.00  0.00     0.004 C 
ENDBRANCH  16  17
ENDBRANCH  15  16
ENDBRANCH  14  15
ENDBRANCH  13  14
ENDBRANCH  12  13
ENDBRANCH  11  12
ENDBRANCH   1  11
TORSDOF 14
ENDMDL
MODEL 3
REMARK VINA RESULT:    -3.150      1.904      4.633
REMARK INTER + INTRA:          -7.963
REMARK INTER:                  -5.721
REMARK INTRA:                  -2.242
REMARK UNBOUND:                -2.235
REMARK SMILES CCCCCCCCCCCCCCCC(=O)[O-]
REMARK SMILES IDX 9 1 10 2 11 3 12 4 13 5 14 6 15 7 16 8 17 9 18 10 8 11 7 12
REMARK SMILES IDX 6 13 5 14 4 15 3 16 2 17 1 18
REMARK H PARENT
REMARK Flexibility Score: inf
ROOT
ATOM      1  C   UNL     1       2.897   8.424   1.512  1.00  0.00     0.000 C 
ENDROOT
BRANCH   1   2
ATOM      2  C   UNL     1       3.567   9.306   2.577  1.00  0.00     0.000 C 
BRANCH   2   3
ATOM      3  C   UNL     1       4.171   8.482   3.728  1.00  0.00     0.000 C 
BRANCH   3   4
ATOM      4  C   UNL     1       5.700   8.359   3.628  1.00  0.00     0.000 C 
BRANCH   4   5
ATOM      5  C   UNL     1       6.172   6.898   3.574  1.00  0.00     0.000 C 
BRANCH   5   6
ATOM      6  C   UNL     1       6.087   6.345   2.144  1.00  0.00     0.006 C 
BRANCH   6   7
ATOM      7  C   UNL     1       6.554   7.366   1.098  1.00  0.00     0.053 C 
BRANCH   7   8
ATOM      8  C   UNL     1       6.978   6.704  -0.177  1.00  0.00     0.041 C 
ATOM      9  O   UNL     1       6.151   6.029  -0.846  1.00  0.00    -0.550 OA
ATOM     10  O   UNL     1       8.295   6.803  -0.608  1.00  0.00    -0.550 OA
ENDBRANCH   7   8
ENDBRANCH   6   7
ENDBRANCH   5   6
ENDBRANCH   4   5
ENDBRANCH   3   4
ENDBRANCH   2   3
ENDBRANCH   1   2
BRANCH   1  11
ATOM     11  C   UNL     1       3.566   8.556   0.133  1.00  0.00     0.000 C 
BRANCH  11  12
ATOM     12  C   UNL     1       3.162   9.846  -0.604  1.00  0.00    -0.000 C 
BRANCH  12  13
ATOM     13  C   UNL     1       4.303  10.539  -1.377  1.00  0.00    -0.000 C 
BRANCH  13  14
ATOM     14  C   UNL     1       5.724  10.112  -0.965  1.00  0.00    -0.000 C 
BRANCH  14  15
ATOM     15  C   UNL     1       6.529  11.253  -0.328  1.00  0.00    -0.000 C 
BRANCH  15  16
ATOM     16  C   UNL     1       7.051  10.846   1.060  1.00  0.00    -0.000 C 
BRANCH  16  17
ATOM     17  C   UNL     1       6.501  11.741   2.182  1.00  0.00    -0.003 C 
ATOM     18  C   UNL     1       5.196  12.438   1.797  1.00  0.00     0.004 C 
ENDBRANCH  16  17
ENDBRANCH  15  16
ENDBRANCH  14  15
ENDBRANCH  13  14
ENDBRANCH  12  13
ENDBRANCH  11  12
ENDBRANCH   1  11
TORSDOF 14
ENDMDL
MODEL 4
REMARK VINA RESULT:    -3.130      2.338      5.099
REMARK INTER + INTRA:          -7.928
REMARK INTER:                  -5.537
REMARK INTRA:                  -2.390
REMARK UNBOUND:                -2.235
REMARK SMILES CCCCCCCCCCCCCCCC(=O)[O-]
REMARK SMILES IDX 9 1 10 2 11 3 12 4 13 5 14 6 15 7 16 8 17 9 18 10 8 11 7 12
REMARK SMILES IDX 6 13 5 14 4 15 3 16 2 17 1 18
REMARK H PARENT
REMARK Flexibility Score: inf
ROOT
ATOM      1  C   UNL     1       8.116   9.200   1.086  1.00  0.00     0.000 C 
ENDROOT
BRANCH   1   2
ATOM      2  C   UNL     1       7.304  10.489   1.290  1.00  0.00     0.000 C 
BRANCH   2   3
ATOM      3  C   UNL     1       8.070  11.744   0.838  1.00  0.00     0.000 C 
BRANCH   3   4
ATOM      4  C   UNL     1       7.252  12.623  -0.121  1.00  0.00     0.000 C 
BRANCH   4   5
ATOM      5  C   UNL     1       7.468  12.248  -1.595  1.00  0.00     0.000 C 
BRANCH   5   6
ATOM      6  C   UNL     1       6.257  11.486  -2.152  1.00  0.00     0.006 C 
BRANCH   6   7
ATOM      7  C   UNL     1       4.937  12.218  -1.882  1.00  0.00     0.053 C 
BRANCH   7   8
ATOM      8  C   UNL     1       3.949  11.344  -1.172  1.00  0.00     0.041 C 
ATOM      9  O   UNL     1       3.661  11.563   0.035  1.00  0.00    -0.550 OA
ATOM     10  O   UNL     1       3.373  10.265  -1.832  1.00  0.00    -0.550 OA
ENDBRANCH   7   8
ENDBRANCH   6   7
ENDBRANCH   5   6
ENDBRANCH   4   5
ENDBRANCH   3   4
ENDBRANCH   2   3
ENDBRANCH   1   2
BRANCH   1  11
ATOM     11  C   UNL     1       7.345   8.141   0.279  1.00  0.00     0.000 C 
BRANCH  11  12
ATOM     12  C   UNL     1       5.884   8.545   0.009  1.00  0.00    -0.000 C 
BRANCH  12  13
ATOM     13  C   UNL     1       4.833   7.483   0.394  1.00  0.00    -0.000 C 
BRANCH  13  14
ATOM     14  C   UNL     1       3.692   7.990   1.293  1.00  0.00    -0.000 C 
BRANCH  14  15
ATOM     15  C   UNL     1       4.171   8.975   2.369  1.00  0.00    -0.000 C 
BRANCH  15  16
ATOM     16  C   UNL     1       4.493   8.240   3.679  1.00  0.00    -0.000 C 
BRANCH  16  17
ATOM     17  C   UNL     1       5.996   7.967   3.850  1.00  0.00    -0.003 C 
ATOM     18  C   UNL     1       6.335   6.477   3.803  1.00  0.00     0.004 C 
ENDBRANCH  16  17
ENDBRANCH  15  16
ENDBRANCH  14  15
ENDBRANCH  13  14
ENDBRANCH  12  13
ENDBRANCH  11  12
ENDBRANCH   1  11
TORSDOF 14
ENDMDL
MODEL 5
REMARK VINA RESULT:    -3.128      1.236      3.372
REMARK INTER + INTRA:          -7.924
REMARK INTER:                  -5.149
REMARK INTRA:                  -2.775
REMARK UNBOUND:                -2.235
REMARK SMILES CCCCCCCCCCCCCCCC(=O)[O-]
REMARK SMILES IDX 9 1 10 2 11 3 12 4 13 5 14 6 15 7 16 8 17 9 18 10 8 11 7 12
REMARK SMILES IDX 6 13 5 14 4 15 3 16 2 17 1 18
REMARK H PARENT
REMARK Flexibility Score: inf
ROOT
ATOM      1  C   UNL     1       8.207   9.021   0.919  1.00  0.00     0.000 C 
ENDROOT
BRANCH   1   2
ATOM      2  C   UNL     1       7.490   7.760   0.411  1.00  0.00     0.000 C 
BRANCH   2   3
ATOM      3  C   UNL     1       6.271   8.091  -0.468  1.00  0.00     0.000 C 
BRANCH   3   4
ATOM      4  C   UNL     1       4.977   7.440   0.047  1.00  0.00     0.000 C 
BRANCH   4   5
ATOM      5  C   UNL     1       4.096   8.420   0.836  1.00  0.00     0.000 C 
BRANCH   5   6
ATOM      6  C   UNL     1       3.638   7.800   2.165  1.00  0.00     0.006 C 
BRANCH   6   7
ATOM      7  C   UNL     1       4.327   8.445   3.373  1.00  0.00     0.053 C 
BRANCH   7   8
ATOM      8  C   UNL     1       5.641   7.793   3.680  1.00  0.00     0.041 C 
ATOM      9  O   UNL     1       6.551   8.443   4.260  1.00  0.00    -0.550 OA
ATOM     10  O   UNL     1       5.873   6.479   3.293  1.00  0.00    -0.550 OA
ENDBRANCH   7   8
ENDBRANCH   6   7
ENDBRANCH   5   6
ENDBRANCH   4   5
ENDBRANCH   3   4
ENDBRANCH   2   3
ENDBRANCH   1   2
BRANCH   1  11
ATOM     11  C   UNL     1       7.445  10.311   0.572  1.00  0.00     0.000 C 
BRANCH  11  12
ATOM     12  C   UNL     1       6.751  10.940   1.794  1.00  0.00    -0.000 C 
BRANCH  12  13
ATOM     13  C   UNL     1       5.865  12.163   1.481  1.00  0.00    -0.000 C 
BRANCH  13  14
ATOM     14  C   UNL     1       4.363  11.968   1.752  1.00  0.00    -0.000 C 
BRANCH  14  15
ATOM     15  C   UNL     1       3.515  12.001   0.472  1.00  0.00    -0.000 C 
BRANCH  15  16
ATOM     16  C   UNL     1       4.405  12.178  -0.768  1.00  0.00    -0.000 C 
BRANCH  16  17
ATOM     17  C   UNL     1       4.260  11.020  -1.768  1.00  0.00    -0.003 C 
ATOM     18  C   UNL     1       5.509  10.821  -2.626  1.00  0.00     0.004 C 
ENDBRANCH  16  17
ENDBRANCH  15  16
ENDBRANCH  14  15
ENDBRANCH  13  14
ENDBRANCH  12  13
ENDBRANCH  11  12
ENDBRANCH   1  11
TORSDOF 14
ENDMDL
MODEL 6
REMARK VINA RESULT:    -3.106      1.397      3.166
REMARK INTER + INTRA:          -7.882
REMARK INTER:                  -5.884
REMARK INTRA:                  -1.998
REMARK UNBOUND:                -2.235
REMARK SMILES CCCCCCCCCCCCCCCC(=O)[O-]
REMARK SMILES IDX 9 1 10 2 11 3 12 4 13 5 14 6 15 7 16 8 17 9 18 10 8 11 7 12
REMARK SMILES IDX 6 13 5 14 4 15 3 16 2 17 1 18
REMARK H PARENT
REMARK Flexibility Score: inf
ROOT
ATOM      1  C   UNL     1       6.255   8.204  -0.627  1.00  0.00     0.000 C 
ENDROOT
BRANCH   1   2
ATOM      2  C   UNL     1       4.914   8.821  -0.199  1.00  0.00     0.000 C 
BRANCH   2   3
ATOM      3  C   UNL     1       3.990   7.802   0.490  1.00  0.00     0.000 C 
BRANCH   3   4
ATOM      4  C   UNL     1       3.162   8.426   1.624  1.00  0.00     0.000 C 
BRANCH   4   5
ATOM      5  C   UNL     1       4.027   9.204   2.628  1.00  0.00     0.000 C 
BRANCH   5   6
ATOM      6  C   UNL     1       4.440   8.309   3.807  1.00  0.00     0.006 C 
BRANCH   6   7
ATOM      7  C   UNL     1       5.956   8.085   3.862  1.00  0.00     0.053 C 
BRANCH   7   8
ATOM      8  C   UNL     1       6.313   6.639   3.706  1.00  0.00     0.041 C 
ATOM      9  O   UNL     1       6.980   6.051   4.599  1.00  0.00    -0.550 OA
ATOM     10  O   UNL     1       5.941   5.949   2.559  1.00  0.00    -0.550 OA
ENDBRANCH   7   8
ENDBRANCH   6   7
ENDBRANCH   5   6
ENDBRANCH   4   5
ENDBRANCH   3   4
ENDBRANCH   2   3
ENDBRANCH   1   2
BRANCH   1  11
ATOM     11  C   UNL     1       7.261   8.121   0.534  1.00  0.00     0.000 C 
BRANCH  11  12
ATOM     12  C   UNL     1       8.088   9.409   0.699  1.00  0.00    -0.000 C 
BRANCH  12  13
ATOM     13  C   UNL     1       7.367  10.554   1.441  1.00  0.00    -0.000 C 
BRANCH  13  14
ATOM     14  C   UNL     1       7.544  11.950   0.816  1.00  0.00    -0.000 C 
BRANCH  14  15
ATOM     15  C   UNL     1       7.392  11.945  -0.711  1.00  0.00    -0.000 C 
BRANCH  15  16
ATOM     16  C   UNL     1       5.953  12.298  -1.119  1.00  0.00    -0.000 C 
BRANCH  16  17
ATOM     17  C   UNL     1       5.740  12.246  -2.640  1.00  0.00    -0.003 C 
ATOM     18  C   UNL     1       6.002  10.859  -3.226  1.00  0.00     0.004 C 
ENDBRANCH  16  17
ENDBRANCH  15  16
ENDBRANCH  14  15
ENDBRANCH  13  14
ENDBRANCH  12  13
ENDBRANCH  11  12
ENDBRANCH   1  11
TORSDOF 14
ENDMDL
MODEL 7
REMARK VINA RESULT:    -3.068      1.777      4.261
REMARK INTER + INTRA:          -7.814
REMARK INTER:                  -5.701
REMARK INTRA:                  -2.113
REMARK UNBOUND:                -2.235
REMARK SMILES CCCCCCCCCCCCCCCC(=O)[O-]
REMARK SMILES IDX 9 1 10 2 11 3 12 4 13 5 14 6 15 7 16 8 17 9 18 10 8 11 7 12
REMARK SMILES IDX 6 13 5 14 4 15 3 16 2 17 1 18
REMARK H PARENT
REMARK Flexibility Score: inf
ROOT
ATOM      1  C   UNL     1       5.295  11.493  -1.966  1.00  0.00     0.000 C 
ENDROOT
BRANCH   1   2
ATOM      2  C   UNL     1       5.675  12.105  -0.608  1.00  0.00     0.000 C 
BRANCH   2   3
ATOM      3  C   UNL     1       7.190  12.332  -0.469  1.00  0.00     0.000 C 
BRANCH   3   4
ATOM      4  C   UNL     1       7.876  11.244   0.373  1.00  0.00     0.000 C 
BRANCH   4   5
ATOM      5  C   UNL     1       6.871  10.307   1.060  1.00  0.00     0.000 C 
BRANCH   5   6
ATOM      6  C   UNL     1       7.279   8.837   0.883  1.00  0.00     0.006 C 
BRANCH   6   7
ATOM      7  C   UNL     1       6.479   8.143  -0.226  1.00  0.00     0.053 C 
BRANCH   7   8
ATOM      8  C   UNL     1       7.111   6.851  -0.644  1.00  0.00     0.041 C 
ATOM      9  O   UNL     1       8.365   6.740  -0.679  1.00  0.00    -0.550 OA
ATOM     10  O   UNL     1       6.314   5.779  -1.031  1.00  0.00    -0.550 OA
ENDBRANCH   7   8
ENDBRANCH   6   7
ENDBRANCH   5   6
ENDBRANCH   4   5
ENDBRANCH   3   4
ENDBRANCH   2   3
ENDBRANCH   1   2
BRANCH   1  11
ATOM     11  C   UNL     1       4.198  10.421  -1.842  1.00  0.00     0.000 C 
BRANCH  11  12
ATOM     12  C   UNL     1       3.398  10.537  -0.532  1.00  0.00    -0.000 C 
BRANCH  12  13
ATOM     13  C   UNL     1       3.093   9.194   0.165  1.00  0.00    -0.000 C 
BRANCH  13  14
ATOM     14  C   UNL     1       3.115   9.237   1.703  1.00  0.00    -0.000 C 
BRANCH  14  15
ATOM     15  C   UNL     1       3.785   8.004   2.326  1.00  0.00    -0.000 C 
BRANCH  15  16
ATOM     16  C   UNL     1       4.282   8.311   3.747  1.00  0.00    -0.000 C 
BRANCH  16  17
ATOM     17  C   UNL     1       5.803   8.139   3.890  1.00  0.00    -0.003 C 
ATOM     18  C   UNL     1       6.238   6.674   3.859  1.00  0.00     0.004 C 
ENDBRANCH  16  17
ENDBRANCH  15  16
ENDBRANCH  14  15
ENDBRANCH  13  14
ENDBRANCH  12  13
ENDBRANCH  11  12
ENDBRANCH   1  11
TORSDOF 14
ENDMDL
MODEL 8
REMARK VINA RESULT:    -3.036      3.029      4.754
REMARK INTER + INTRA:          -7.756
REMARK INTER:                  -5.300
REMARK INTRA:                  -2.456
REMARK UNBOUND:                -2.235
REMARK SMILES CCCCCCCCCCCCCCCC(=O)[O-]
REMARK SMILES IDX 9 1 10 2 11 3 12 4 13 5 14 6 15 7 16 8 17 9 18 10 8 11 7 12
REMARK SMILES IDX 6 13 5 14 4 15 3 16 2 17 1 18
REMARK H PARENT
REMARK Flexibility Score: inf
ROOT
ATOM      1  C   UNL     1       3.706   8.497   2.659  1.00  0.00     0.000 C 
ENDROOT
BRANCH   1   2
ATOM      2  C   UNL     1       3.280   7.795   1.360  1.00  0.00     0.000 C 
BRANCH   2   3
ATOM      3  C   UNL     1       3.119   8.778   0.187  1.00  0.00     0.000 C 
BRANCH   3   4
ATOM      4  C   UNL     1       3.002  10.238   0.650  1.00  0.00     0.000 C 
BRANCH   4   5
ATOM      5  C   UNL     1       3.667  11.223  -0.325  1.00  0.00     0.000 C 
BRANCH   5   6
ATOM      6  C   UNL     1       4.199  10.491  -1.566  1.00  0.00     0.006 C 
BRANCH   6   7
ATOM      7  C   UNL     1       5.501  11.110  -2.090  1.00  0.00     0.053 C 
BRANCH   7   8
ATOM      8  C   UNL     1       5.509  11.211  -3.584  1.00  0.00     0.041 C 
ATOM      9  O   UNL     1       6.599  11.190  -4.216  1.00  0.00    -0.550 OA
ATOM     10  O   UNL     1       4.315  11.364  -4.278  1.00  0.00    -0.550 OA
ENDBRANCH   7   8
ENDBRANCH   6   7
ENDBRANCH   5   6
ENDBRANCH   4   5
ENDBRANCH   3   4
ENDBRANCH   2   3
ENDBRANCH   1   2
BRANCH   1  11
ATOM     11  C   UNL     1       4.843   7.754   3.383  1.00  0.00     0.000 C 
BRANCH  11  12
ATOM     12  C   UNL     1       6.190   8.492   3.288  1.00  0.00    -0.000 C 
BRANCH  12  13
ATOM     13  C   UNL     1       6.127   9.878   2.613  1.00  0.00    -0.000 C 
BRANCH  13  14
ATOM     14  C   UNL     1       6.861   9.981   1.264  1.00  0.00    -0.000 C 
BRANCH  14  15
ATOM     15  C   UNL     1       7.399   8.630   0.771  1.00  0.00    -0.000 C 
BRANCH  15  16
ATOM     16  C   UNL     1       6.584   8.122  -0.428  1.00  0.00    -0.000 C 
BRANCH  16  17
ATOM     17  C   UNL     1       6.618   6.591  -0.559  1.00  0.00    -0.003 C 
ATOM     18  C   UNL     1       7.336   6.122  -1.824  1.00  0.00     0.004 C 
ENDBRANCH  16  17
ENDBRANCH  15  16
ENDBRANCH  14  15
ENDBRANCH  13  14
ENDBRANCH  12  13
ENDBRANCH  11  12
ENDBRANCH   1  11
TORSDOF 14
ENDMDL
MODEL 9
REMARK VINA RESULT:    -2.984      1.632      4.016
REMARK INTER + INTRA:          -7.662
REMARK INTER:                  -4.986
REMARK INTRA:                  -2.676
REMARK UNBOUND:                -2.235
REMARK SMILES CCCCCCCCCCCCCCCC(=O)[O-]
REMARK SMILES IDX 9 1 10 2 11 3 12 4 13 5 14 6 15 7 16 8 17 9 18 10 8 11 7 12
REMARK SMILES IDX 6 13 5 14 4 15 3 16 2 17 1 18
REMARK H PARENT
REMARK Flexibility Score: inf
ROOT
ATOM      1  C   UNL     1       6.663  11.966   2.300  1.00  0.00     0.000 C 
ENDROOT
BRANCH   1   2
ATOM      2  C   UNL     1       7.784  11.893   1.251  1.00  0.00     0.000 C 
BRANCH   2   3
ATOM      3  C   UNL     1       7.805  10.548   0.504  1.00  0.00     0.000 C 
BRANCH   3   4
ATOM      4  C   UNL     1       7.273   9.388   1.361  1.00  0.00     0.000 C 
BRANCH   4   5
ATOM      5  C   UNL     1       6.979   8.128   0.533  1.00  0.00     0.000 C 
BRANCH   5   6
ATOM      6  C   UNL     1       5.719   7.415   1.045  1.00  0.00     0.006 C 
BRANCH   6   7
ATOM      7  C   UNL     1       5.537   7.576   2.560  1.00  0.00     0.053 C 
BRANCH   7   8
ATOM      8  C   UNL     1       4.140   7.986   2.913  1.00  0.00     0.041 C 
ATOM      9  O   UNL     1       3.192   7.761   2.115  1.00  0.00    -0.550 OA
ATOM     10  O   UNL     1       3.891   8.650   4.108  1.00  0.00    -0.550 OA
ENDBRANCH   7   8
ENDBRANCH   6   7
ENDBRANCH   5   6
ENDBRANCH   4   5
ENDBRANCH   3   4
ENDBRANCH   2   3
ENDBRANCH   1   2
BRANCH   1  11
ATOM     11  C   UNL     1       5.336  12.470   1.708  1.00  0.00     0.000 C 
BRANCH  11  12
ATOM     12  C   UNL     1       4.177  11.478   1.916  1.00  0.00    -0.000 C 
BRANCH  12  13
ATOM     13  C   UNL     1       3.513  10.972   0.618  1.00  0.00    -0.000 C 
BRANCH  13  14
ATOM     14  C   UNL     1       4.234  11.370  -0.682  1.00  0.00    -0.000 C 
BRANCH  14  15
ATOM     15  C   UNL     1       4.674  10.159  -1.517  1.00  0.00    -0.000 C 
BRANCH  15  16
ATOM     16  C   UNL     1       5.735  10.564  -2.552  1.00  0.00    -0.000 C 
BRANCH  16  17
ATOM     17  C   UNL     1       5.973  12.082  -2.591  1.00  0.00    -0.003 C 
ATOM     18  C   UNL     1       7.457  12.448  -2.561  1.00  0.00     0.004 C 
ENDBRANCH  16  17
ENDBRANCH  15  16
ENDBRANCH  14  15
ENDBRANCH  13  14
ENDBRANCH  12  13
ENDBRANCH  11  12
ENDBRANCH   1  11
TORSDOF 14
ENDMDL
