MODEL 1
REMARK VINA RESULT:     0.000      0.000      0.000
REMARK INTER + INTRA:          -0.318
REMARK INTER:                   0.000
REMARK INTRA:                  -0.318
REMARK UNBOUND:                -0.318
REMARK SMILES O=c1cc(-c2ccc(O)c(O)c2)oc2cc(O)cc(O)c12
REMARK SMILES IDX 4 1 3 2 2 3 1 4 21 5 19 6 18 7 16 8 15 9 14 10 13 11 5 12
REMARK SMILES IDX 6 13 7 14 8 15 12 16 10 17 9 18 11 20 20 22 17 24
REMARK H PARENT 9 19 11 21 20 23 17 25
REMARK Flexibility Score: inf
ROOT
ATOM      1  C   UNL     1      17.605  14.046  58.946  1.00  0.00     0.138 A 
ATOM      2  C   UNL     1      16.597  13.086  58.760  1.00  0.00     0.100 A 
ATOM      3  C   UNL     1      16.795  11.785  59.224  1.00  0.00     0.197 A 
ATOM      4  O   UNL     1      15.884  10.929  59.052  1.00  0.00    -0.289 OA
ATOM      5  C   UNL     1      18.003  11.452  59.870  1.00  0.00     0.107 A 
ATOM      6  C   UNL     1      18.282  10.159  60.372  1.00  0.00     0.134 A 
ATOM      7  C   UNL     1      19.512   9.908  60.998  1.00  0.00     0.093 A 
ATOM      8  C   UNL     1      20.464  10.921  61.131  1.00  0.00     0.123 A 
ATOM      9  C   UNL     1      20.193  12.202  60.637  1.00  0.00     0.094 A 
ATOM     10  C   UNL     1      18.973  12.473  60.011  1.00  0.00     0.146 A 
ATOM     11  O   UNL     1      18.738  13.698  59.551  1.00  0.00    -0.456 OA
ENDROOT
BRANCH   1  12
ATOM     12  C   UNL     1      17.451  15.445  58.471  1.00  0.00     0.021 A 
ATOM     13  C   UNL     1      16.270  15.823  57.808  1.00  0.00     0.016 A 
ATOM     14  C   UNL     1      16.103  17.129  57.343  1.00  0.00     0.051 A 
ATOM     15  C   UNL     1      17.113  18.078  57.523  1.00  0.00     0.157 A 
ATOM     16  C   UNL     1      18.471  16.401  58.637  1.00  0.00     0.062 A 
ATOM     17  C   UNL     1      18.305  17.713  58.169  1.00  0.00     0.158 A 
BRANCH  15  18
ATOM     18  O   UNL     1      16.917  19.375  57.050  1.00  0.00    -0.504 OA
ATOM     19  H   UNL     1      16.674  19.566  56.085  1.00  0.00     0.293 HD
ENDBRANCH  15  18
BRANCH  17  20
ATOM     20  O   UNL     1      19.321  18.652  58.341  1.00  0.00    -0.504 OA
ATOM     21  H   UNL     1      20.298  18.383  58.342  1.00  0.00     0.293 HD
ENDBRANCH  17  20
ENDBRANCH   1  12
BRANCH   6  22
ATOM     22  O   UNL     1      17.350   9.127  60.254  1.00  0.00    -0.507 OA
ATOM     23  H   UNL     1      16.485   9.128  60.781  1.00  0.00     0.293 HD
ENDBRANCH   6  22
BRANCH   8  24
ATOM     24  O   UNL     1      21.678  10.645  61.757  1.00  0.00    -0.508 OA
ATOM     25  H   UNL     1      21.890  11.002  62.681  1.00  0.00     0.293 HD
ENDBRANCH   8  24
TORSDOF 5
ENDMDL
MODEL 2
REMARK VINA RESULT:     0.000      5.499     10.439
REMARK INTER + INTRA:          -0.318
REMARK INTER:                   0.000
REMARK INTRA:                  -0.318
REMARK UNBOUND:                -0.318
REMARK SMILES O=c1cc(-c2ccc(O)c(O)c2)oc2cc(O)cc(O)c12
REMARK SMILES IDX 4 1 3 2 2 3 1 4 21 5 19 6 18 7 16 8 15 9 14 10 13 11 5 12
REMARK SMILES IDX 6 13 7 14 8 15 12 16 10 17 9 18 11 20 20 22 17 24
REMARK H PARENT 9 19 11 21 20 23 17 25
REMARK Flexibility Score: inf
ROOT
ATOM      1  C   UNL     1      17.425  18.313  53.040  1.00  0.00     0.138 A 
ATOM      2  C   UNL     1      17.895  19.080  51.960  1.00  0.00     0.100 A 
ATOM      3  C   UNL     1      16.996  19.852  51.224  1.00  0.00     0.197 A 
ATOM      4  O   UNL     1      17.427  20.537  50.257  1.00  0.00    -0.289 OA
ATOM      5  C   UNL     1      15.630  19.850  51.571  1.00  0.00     0.107 A 
ATOM      6  C   UNL     1      14.654  20.606  50.879  1.00  0.00     0.134 A 
ATOM      7  C   UNL     1      13.312  20.544  51.284  1.00  0.00     0.093 A 
ATOM      8  C   UNL     1      12.930  19.744  52.364  1.00  0.00     0.123 A 
ATOM      9  C   UNL     1      13.891  18.996  53.052  1.00  0.00     0.094 A 
ATOM     10  C   UNL     1      15.233  19.044  52.664  1.00  0.00     0.146 A 
ATOM     11  O   UNL     1      16.128  18.325  53.335  1.00  0.00    -0.456 OA
ENDROOT
BRANCH   1  12
ATOM     12  C   UNL     1      18.335  17.471  53.856  1.00  0.00     0.021 A 
ATOM     13  C   UNL     1      19.705  17.428  53.542  1.00  0.00     0.016 A 
ATOM     14  C   UNL     1      20.581  16.637  54.289  1.00  0.00     0.051 A 
ATOM     15  C   UNL     1      20.106  15.869  55.355  1.00  0.00     0.157 A 
ATOM     16  C   UNL     1      17.859  16.684  54.923  1.00  0.00     0.062 A 
ATOM     17  C   UNL     1      18.738  15.889  55.673  1.00  0.00     0.158 A 
BRANCH  15  18
ATOM     18  O   UNL     1      21.005  15.091  56.084  1.00  0.00    -0.504 OA
ATOM     19  H   UNL     1      20.851  14.104  56.250  1.00  0.00     0.293 HD
ENDBRANCH  15  18
BRANCH  17  20
ATOM     20  O   UNL     1      18.256  15.116  56.728  1.00  0.00    -0.504 OA
ATOM     21  H   UNL     1      18.470  15.340  57.693  1.00  0.00     0.293 HD
ENDBRANCH  17  20
ENDBRANCH   1  12
BRANCH   6  22
ATOM     22  O   UNL     1      15.006  21.413  49.796  1.00  0.00    -0.507 OA
ATOM     23  H   UNL     1      15.769  21.168  49.176  1.00  0.00     0.293 HD
ENDBRANCH   6  22
BRANCH   8  24
ATOM     24  O   UNL     1      11.590  19.702  52.745  1.00  0.00    -0.508 OA
ATOM     25  H   UNL     1      10.934  20.418  52.455  1.00  0.00     0.293 HD
ENDBRANCH   8  24
TORSDOF 5
ENDMDL
MODEL 3
REMARK VINA RESULT:     0.000     11.653     14.176
REMARK INTER + INTRA:          -0.318
REMARK INTER:                   0.000
REMARK INTRA:                  -0.318
REMARK UNBOUND:                -0.318
REMARK SMILES O=c1cc(-c2ccc(O)c(O)c2)oc2cc(O)cc(O)c12
REMARK SMILES IDX 4 1 3 2 2 3 1 4 21 5 19 6 18 7 16 8 15 9 14 10 13 11 5 12
REMARK SMILES IDX 6 13 7 14 8 15 12 16 10 17 9 18 11 20 20 22 17 24
REMARK H PARENT 9 19 11 21 20 23 17 25
REMARK Flexibility Score: inf
ROOT
ATOM      1  C   UNL     1       9.888  18.683  49.226  1.00  0.00     0.138 A 
ATOM      2  C   UNL     1      11.142  18.165  49.593  1.00  0.00     0.100 A 
ATOM      3  C   UNL     1      11.215  16.917  50.212  1.00  0.00     0.197 A 
ATOM      4  O   UNL     1      12.344  16.461  50.537  1.00  0.00    -0.289 OA
ATOM      5  C   UNL     1      10.031  16.194  50.463  1.00  0.00     0.107 A 
ATOM      6  C   UNL     1      10.016  14.923  51.083  1.00  0.00     0.134 A 
ATOM      7  C   UNL     1       8.793  14.272  51.304  1.00  0.00     0.093 A 
ATOM      8  C   UNL     1       7.590  14.865  50.917  1.00  0.00     0.123 A 
ATOM      9  C   UNL     1       7.599  16.123  50.303  1.00  0.00     0.094 A 
ATOM     10  C   UNL     1       8.806  16.787  50.074  1.00  0.00     0.146 A 
ATOM     11  O   UNL     1       8.789  17.980  49.487  1.00  0.00    -0.456 OA
ENDROOT
BRANCH   1  12
ATOM     12  C   UNL     1       9.751  20.006  48.568  1.00  0.00     0.021 A 
ATOM     13  C   UNL     1      10.900  20.772  48.308  1.00  0.00     0.016 A 
ATOM     14  C   UNL     1      10.798  22.024  47.697  1.00  0.00     0.051 A 
ATOM     15  C   UNL     1       9.547  22.538  47.344  1.00  0.00     0.157 A 
ATOM     16  C   UNL     1       8.491  20.535  48.223  1.00  0.00     0.062 A 
ATOM     17  C   UNL     1       8.388  21.793  47.610  1.00  0.00     0.158 A 
BRANCH  15  18
ATOM     18  O   UNL     1       9.477  23.789  46.734  1.00  0.00    -0.504 OA
ATOM     19  H   UNL     1       9.646  23.916  45.743  1.00  0.00     0.293 HD
ENDBRANCH  15  18
BRANCH  17  20
ATOM     20  O   UNL     1       7.136  22.305  47.271  1.00  0.00    -0.504 OA
ATOM     21  H   UNL     1       6.770  22.233  46.329  1.00  0.00     0.293 HD
ENDBRANCH  17  20
ENDBRANCH   1  12
BRANCH   6  22
ATOM     22  O   UNL     1      11.203  14.305  51.481  1.00  0.00    -0.507 OA
ATOM     23  H   UNL     1      11.701  13.667  50.871  1.00  0.00     0.293 HD
ENDBRANCH   6  22
BRANCH   8  24
ATOM     24  O   UNL     1       6.390  14.197  51.148  1.00  0.00    -0.508 OA
ATOM     25  H   UNL     1       6.370  13.276  51.571  1.00  0.00     0.293 HD
ENDBRANCH   8  24
TORSDOF 5
ENDMDL
MODEL 4
REMARK VINA RESULT:     0.000      8.667     13.233
REMARK INTER + INTRA:          -0.318
REMARK INTER:                   0.000
REMARK INTRA:                  -0.318
REMARK UNBOUND:                -0.318
REMARK SMILES O=c1cc(-c2ccc(O)c(O)c2)oc2cc(O)cc(O)c12
REMARK SMILES IDX 4 1 3 2 2 3 1 4 21 5 19 6 18 7 16 8 15 9 14 10 13 11 5 12
REMARK SMILES IDX 6 13 7 14 8 15 12 16 10 17 9 18 11 20 20 22 17 24
REMARK H PARENT 9 19 11 21 20 23 17 25
REMARK Flexibility Score: inf
ROOT
ATOM      1  C   UNL     1      12.115  22.056  55.145  1.00  0.00     0.138 A 
ATOM      2  C   UNL     1      11.810  20.997  54.274  1.00  0.00     0.100 A 
ATOM      3  C   UNL     1      11.060  21.247  53.125  1.00  0.00     0.197 A 
ATOM      4  O   UNL     1      10.791  20.290  52.350  1.00  0.00    -0.289 OA
ATOM      5  C   UNL     1      10.616  22.558  52.855  1.00  0.00     0.107 A 
ATOM      6  C   UNL     1       9.853  22.897  51.712  1.00  0.00     0.134 A 
ATOM      7  C   UNL     1       9.445  24.226  51.520  1.00  0.00     0.093 A 
ATOM      8  C   UNL     1       9.783  25.217  52.445  1.00  0.00     0.123 A 
ATOM      9  C   UNL     1      10.537  24.886  53.576  1.00  0.00     0.094 A 
ATOM     10  C   UNL     1      10.955  23.569  53.785  1.00  0.00     0.146 A 
ATOM     11  O   UNL     1      11.672  23.280  54.867  1.00  0.00    -0.456 OA
ENDROOT
BRANCH   1  12
ATOM     12  C   UNL     1      12.907  21.848  56.383  1.00  0.00     0.021 A 
ATOM     13  C   UNL     1      13.361  20.557  56.705  1.00  0.00     0.016 A 
ATOM     14  C   UNL     1      14.101  20.333  57.868  1.00  0.00     0.051 A 
ATOM     15  C   UNL     1      14.392  21.388  58.735  1.00  0.00     0.157 A 
ATOM     16  C   UNL     1      13.191  22.907  57.268  1.00  0.00     0.062 A 
ATOM     17  C   UNL     1      13.933  22.681  58.437  1.00  0.00     0.158 A 
BRANCH  15  18
ATOM     18  O   UNL     1      15.135  21.134  59.888  1.00  0.00    -0.504 OA
ATOM     19  H   UNL     1      14.806  20.507  60.613  1.00  0.00     0.293 HD
ENDBRANCH  15  18
BRANCH  17  20
ATOM     20  O   UNL     1      14.211  23.737  59.304  1.00  0.00    -0.504 OA
ATOM     21  H   UNL     1      13.515  24.091  59.951  1.00  0.00     0.293 HD
ENDBRANCH  17  20
ENDBRANCH   1  12
BRANCH   6  22
ATOM     22  O   UNL     1       9.500  21.929  50.772  1.00  0.00    -0.507 OA
ATOM     23  H   UNL     1       8.551  21.845  50.424  1.00  0.00     0.293 HD
ENDBRANCH   6  22
BRANCH   8  24
ATOM     24  O   UNL     1       9.365  26.528  52.229  1.00  0.00    -0.508 OA
ATOM     25  H   UNL     1       8.385  26.758  52.110  1.00  0.00     0.293 HD
ENDBRANCH   8  24
TORSDOF 5
ENDMDL
MODEL 5
REMARK VINA RESULT:     0.000      8.072     12.166
REMARK INTER + INTRA:          -0.318
REMARK INTER:                   0.000
REMARK INTRA:                  -0.318
REMARK UNBOUND:                -0.318
REMARK SMILES O=c1cc(-c2ccc(O)c(O)c2)oc2cc(O)cc(O)c12
REMARK SMILES IDX 4 1 3 2 2 3 1 4 21 5 19 6 18 7 16 8 15 9 14 10 13 11 5 12
REMARK SMILES IDX 6 13 7 14 8 15 12 16 10 17 9 18 11 20 20 22 17 24
REMARK H PARENT 9 19 11 21 20 23 17 25
REMARK Flexibility Score: inf
ROOT
ATOM      1  C   UNL     1      12.863  21.714  51.836  1.00  0.00     0.138 A 
ATOM      2  C   UNL     1      13.833  22.588  52.357  1.00  0.00     0.100 A 
ATOM      3  C   UNL     1      14.513  22.240  53.525  1.00  0.00     0.197 A 
ATOM      4  O   UNL     1      15.381  23.031  53.984  1.00  0.00    -0.289 OA
ATOM      5  C   UNL     1      14.217  21.020  54.166  1.00  0.00     0.107 A 
ATOM      6  C   UNL     1      14.862  20.592  55.351  1.00  0.00     0.134 A 
ATOM      7  C   UNL     1      14.504  19.366  55.931  1.00  0.00     0.093 A 
ATOM      8  C   UNL     1      13.519  18.563  55.351  1.00  0.00     0.123 A 
ATOM      9  C   UNL     1      12.879  18.982  54.180  1.00  0.00     0.094 A 
ATOM     10  C   UNL     1      13.221  20.200  53.586  1.00  0.00     0.146 A 
ATOM     11  O   UNL     1      12.600  20.575  52.472  1.00  0.00    -0.456 OA
ENDROOT
BRANCH   1  12
ATOM     12  C   UNL     1      12.106  22.033  50.600  1.00  0.00     0.021 A 
ATOM     13  C   UNL     1      12.355  23.244  49.930  1.00  0.00     0.016 A 
ATOM     14  C   UNL     1      11.651  23.572  48.770  1.00  0.00     0.051 A 
ATOM     15  C   UNL     1      10.680  22.704  48.262  1.00  0.00     0.157 A 
ATOM     16  C   UNL     1      11.118  21.168  50.092  1.00  0.00     0.062 A 
ATOM     17  C   UNL     1      10.409  21.498  48.927  1.00  0.00     0.158 A 
BRANCH  15  18
ATOM     18  O   UNL     1       9.995  23.058  47.100  1.00  0.00    -0.504 OA
ATOM     19  H   UNL     1       9.429  22.394  46.585  1.00  0.00     0.293 HD
ENDBRANCH  15  18
BRANCH  17  20
ATOM     20  O   UNL     1       9.434  20.633  48.432  1.00  0.00    -0.504 OA
ATOM     21  H   UNL     1       9.300  19.706  48.819  1.00  0.00     0.293 HD
ENDBRANCH  17  20
ENDBRANCH   1  12
BRANCH   6  22
ATOM     22  O   UNL     1      15.850  21.373  55.953  1.00  0.00    -0.507 OA
ATOM     23  H   UNL     1      15.654  21.942  56.768  1.00  0.00     0.293 HD
ENDBRANCH   6  22
BRANCH   8  24
ATOM     24  O   UNL     1      13.184  17.350  55.948  1.00  0.00    -0.508 OA
ATOM     25  H   UNL     1      12.901  17.298  56.920  1.00  0.00     0.293 HD
ENDBRANCH   8  24
TORSDOF 5
ENDMDL
MODEL 6
REMARK VINA RESULT:     0.000      9.343     11.769
REMARK INTER + INTRA:          -0.318
REMARK INTER:                   0.000
REMARK INTRA:                  -0.318
REMARK UNBOUND:                -0.318
REMARK SMILES O=c1cc(-c2ccc(O)c(O)c2)oc2cc(O)cc(O)c12
REMARK SMILES IDX 4 1 3 2 2 3 1 4 21 5 19 6 18 7 16 8 15 9 14 10 13 11 5 12
REMARK SMILES IDX 6 13 7 14 8 15 12 16 10 17 9 18 11 20 20 22 17 24
REMARK H PARENT 9 19 11 21 20 23 17 25
REMARK Flexibility Score: inf
ROOT
ATOM      1  C   UNL     1      14.410  21.726  52.558  1.00  0.00     0.138 A 
ATOM      2  C   UNL     1      15.071  20.487  52.518  1.00  0.00     0.100 A 
ATOM      3  C   UNL     1      16.295  20.340  53.172  1.00  0.00     0.197 A 
ATOM      4  O   UNL     1      16.880  19.224  53.130  1.00  0.00    -0.289 OA
ATOM      5  C   UNL     1      16.852  21.436  53.861  1.00  0.00     0.107 A 
ATOM      6  C   UNL     1      18.086  21.371  54.551  1.00  0.00     0.134 A 
ATOM      7  C   UNL     1      18.575  22.511  55.207  1.00  0.00     0.093 A 
ATOM      8  C   UNL     1      17.857  23.709  55.186  1.00  0.00     0.123 A 
ATOM      9  C   UNL     1      16.636  23.778  54.506  1.00  0.00     0.094 A 
ATOM     10  C   UNL     1      16.131  22.654  53.846  1.00  0.00     0.146 A 
ATOM     11  O   UNL     1      14.968  22.745  53.208  1.00  0.00    -0.456 OA
ENDROOT
BRANCH   1  12
ATOM     12  C   UNL     1      13.108  21.941  51.879  1.00  0.00     0.021 A 
ATOM     13  C   UNL     1      12.517  20.883  51.166  1.00  0.00     0.016 A 
ATOM     14  C   UNL     1      11.297  21.061  50.511  1.00  0.00     0.051 A 
ATOM     15  C   UNL     1      10.649  22.299  50.546  1.00  0.00     0.157 A 
ATOM     16  C   UNL     1      12.459  23.191  51.899  1.00  0.00     0.062 A 
ATOM     17  C   UNL     1      11.233  23.371  51.240  1.00  0.00     0.158 A 
BRANCH  15  18
ATOM     18  O   UNL     1       9.431  22.446  49.884  1.00  0.00    -0.504 OA
ATOM     19  H   UNL     1       9.294  22.132  48.930  1.00  0.00     0.293 HD
ENDBRANCH  15  18
BRANCH  17  20
ATOM     20  O   UNL     1      10.598  24.612  51.269  1.00  0.00    -0.504 OA
ATOM     21  H   UNL     1      10.520  25.188  50.439  1.00  0.00     0.293 HD
ENDBRANCH  17  20
ENDBRANCH   1  12
BRANCH   6  22
ATOM     22  O   UNL     1      18.825  20.188  54.588  1.00  0.00    -0.507 OA
ATOM     23  H   UNL     1      18.388  19.283  54.462  1.00  0.00     0.293 HD
ENDBRANCH   6  22
BRANCH   8  24
ATOM     24  O   UNL     1      18.366  24.825  55.846  1.00  0.00    -0.508 OA
ATOM     25  H   UNL     1      18.058  25.074  56.779  1.00  0.00     0.293 HD
ENDBRANCH   8  24
TORSDOF 5
ENDMDL
MODEL 7
REMARK VINA RESULT:     0.000     15.223     17.786
REMARK INTER + INTRA:          -0.318
REMARK INTER:                   0.000
REMARK INTRA:                  -0.318
REMARK UNBOUND:                -0.318
REMARK SMILES O=c1cc(-c2ccc(O)c(O)c2)oc2cc(O)cc(O)c12
REMARK SMILES IDX 4 1 3 2 2 3 1 4 21 5 19 6 18 7 16 8 15 9 14 10 13 11 5 12
REMARK SMILES IDX 6 13 7 14 8 15 12 16 10 17 9 18 11 20 20 22 17 24
REMARK H PARENT 9 19 11 21 20 23 17 25
REMARK Flexibility Score: inf
ROOT
ATOM      1  C   UNL     1      10.339  22.603  47.513  1.00  0.00     0.138 A 
ATOM      2  C   UNL     1      10.325  21.859  48.704  1.00  0.00     0.100 A 
ATOM      3  C   UNL     1      10.133  22.514  49.921  1.00  0.00     0.197 A 
ATOM      4  O   UNL     1      10.122  21.838  50.985  1.00  0.00    -0.289 OA
ATOM      5  C   UNL     1       9.958  23.913  49.938  1.00  0.00     0.107 A 
ATOM      6  C   UNL     1       9.755  24.654  51.126  1.00  0.00     0.134 A 
ATOM      7  C   UNL     1       9.596  26.046  51.058  1.00  0.00     0.093 A 
ATOM      8  C   UNL     1       9.635  26.708  49.829  1.00  0.00     0.123 A 
ATOM      9  C   UNL     1       9.835  25.981  48.651  1.00  0.00     0.094 A 
ATOM     10  C   UNL     1       9.995  24.593  48.697  1.00  0.00     0.146 A 
ATOM     11  O   UNL     1      10.182  23.924  47.564  1.00  0.00    -0.456 OA
ENDROOT
BRANCH   1  12
ATOM     12  C   UNL     1      10.543  21.959  46.190  1.00  0.00     0.021 A 
ATOM     13  C   UNL     1      10.736  20.569  46.121  1.00  0.00     0.016 A 
ATOM     14  C   UNL     1      10.938  19.939  44.891  1.00  0.00     0.051 A 
ATOM     15  C   UNL     1      10.961  20.686  43.710  1.00  0.00     0.157 A 
ATOM     16  C   UNL     1      10.581  22.710  44.999  1.00  0.00     0.062 A 
ATOM     17  C   UNL     1      10.785  22.078  43.763  1.00  0.00     0.158 A 
BRANCH  15  18
ATOM     18  O   UNL     1      11.163  20.030  42.496  1.00  0.00    -0.504 OA
ATOM     19  H   UNL     1      11.698  19.172  42.430  1.00  0.00     0.293 HD
ENDBRANCH  15  18
BRANCH  17  20
ATOM     20  O   UNL     1      10.819  22.831  42.590  1.00  0.00    -0.504 OA
ATOM     21  H   UNL     1      11.289  23.727  42.547  1.00  0.00     0.293 HD
ENDBRANCH  17  20
ENDBRANCH   1  12
BRANCH   6  22
ATOM     22  O   UNL     1       9.712  24.019  52.369  1.00  0.00    -0.507 OA
ATOM     23  H   UNL     1      10.531  23.575  52.768  1.00  0.00     0.293 HD
ENDBRANCH   6  22
BRANCH   8  24
ATOM     24  O   UNL     1       9.473  28.092  49.790  1.00  0.00    -0.508 OA
ATOM     25  H   UNL     1       9.189  28.614  50.610  1.00  0.00     0.293 HD
ENDBRANCH   8  24
TORSDOF 5
ENDMDL
MODEL 8
REMARK VINA RESULT:     0.000     14.205     16.136
REMARK INTER + INTRA:          -0.318
REMARK INTER:                   0.000
REMARK INTRA:                  -0.318
REMARK UNBOUND:                -0.318
REMARK SMILES O=c1cc(-c2ccc(O)c(O)c2)oc2cc(O)cc(O)c12
REMARK SMILES IDX 4 1 3 2 2 3 1 4 21 5 19 6 18 7 16 8 15 9 14 10 13 11 5 12
REMARK SMILES IDX 6 13 7 14 8 15 12 16 10 17 9 18 11 20 20 22 17 24
REMARK H PARENT 9 19 11 21 20 23 17 25
REMARK Flexibility Score: inf
ROOT
ATOM      1  C   UNL     1      10.095  22.370  49.138  1.00  0.00     0.138 A 
ATOM      2  C   UNL     1       9.756  21.166  49.778  1.00  0.00     0.100 A 
ATOM      3  C   UNL     1       9.404  21.182  51.128  1.00  0.00     0.197 A 
ATOM      4  O   UNL     1       9.102  20.097  51.694  1.00  0.00    -0.289 OA
ATOM      5  C   UNL     1       9.395  22.404  51.831  1.00  0.00     0.107 A 
ATOM      6  C   UNL     1       9.048  22.508  53.198  1.00  0.00     0.134 A 
ATOM      7  C   UNL     1       9.071  23.763  53.826  1.00  0.00     0.093 A 
ATOM      8  C   UNL     1       9.432  24.910  53.116  1.00  0.00     0.123 A 
ATOM      9  C   UNL     1       9.775  24.812  51.763  1.00  0.00     0.094 A 
ATOM     10  C   UNL     1       9.758  23.572  51.119  1.00  0.00     0.146 A 
ATOM     11  O   UNL     1      10.087  23.505  49.832  1.00  0.00    -0.456 OA
ENDROOT
BRANCH   1  12
ATOM     12  C   UNL     1      10.480  22.412  47.704  1.00  0.00     0.021 A 
ATOM     13  C   UNL     1      10.518  21.219  46.963  1.00  0.00     0.016 A 
ATOM     14  C   UNL     1      10.885  21.230  45.616  1.00  0.00     0.051 A 
ATOM     15  C   UNL     1      11.231  22.429  44.987  1.00  0.00     0.157 A 
ATOM     16  C   UNL     1      10.843  23.617  47.070  1.00  0.00     0.062 A 
ATOM     17  C   UNL     1      11.213  23.628  45.717  1.00  0.00     0.158 A 
BRANCH  15  18
ATOM     18  O   UNL     1      11.591  22.409  43.640  1.00  0.00    -0.504 OA
ATOM     19  H   UNL     1      12.024  21.600  43.210  1.00  0.00     0.293 HD
ENDBRANCH  15  18
BRANCH  17  20
ATOM     20  O   UNL     1      11.568  24.826  45.099  1.00  0.00    -0.504 OA
ATOM     21  H   UNL     1      12.140  25.518  45.569  1.00  0.00     0.293 HD
ENDBRANCH  17  20
ENDBRANCH   1  12
BRANCH   6  22
ATOM     22  O   UNL     1       8.684  21.380  53.934  1.00  0.00    -0.507 OA
ATOM     23  H   UNL     1       9.349  20.644  54.144  1.00  0.00     0.293 HD
ENDBRANCH   6  22
BRANCH   8  24
ATOM     24  O   UNL     1       9.445  26.143  53.764  1.00  0.00    -0.508 OA
ATOM     25  H   UNL     1       9.067  26.254  54.698  1.00  0.00     0.293 HD
ENDBRANCH   8  24
TORSDOF 5
ENDMDL
MODEL 9
REMARK VINA RESULT:     0.000      9.104     12.066
REMARK INTER + INTRA:          -0.318
REMARK INTER:                   0.000
REMARK INTRA:                  -0.318
REMARK UNBOUND:                -0.318
REMARK SMILES O=c1cc(-c2ccc(O)c(O)c2)oc2cc(O)cc(O)c12
REMARK SMILES IDX 4 1 3 2 2 3 1 4 21 5 19 6 18 7 16 8 15 9 14 10 13 11 5 12
REMARK SMILES IDX 6 13 7 14 8 15 12 16 10 17 9 18 11 20 20 22 17 24
REMARK H PARENT 9 19 11 21 20 23 17 25
REMARK Flexibility Score: inf
ROOT
ATOM      1  C   UNL     1      10.212  16.351  53.688  1.00  0.00     0.138 A 
ATOM      2  C   UNL     1      10.786  16.084  54.943  1.00  0.00     0.100 A 
ATOM      3  C   UNL     1      10.923  17.118  55.869  1.00  0.00     0.197 A 
ATOM      4  O   UNL     1      11.440  16.869  56.992  1.00  0.00    -0.289 OA
ATOM      5  C   UNL     1      10.488  18.416  55.533  1.00  0.00     0.107 A 
ATOM      6  C   UNL     1      10.588  19.519  56.414  1.00  0.00     0.134 A 
ATOM      7  C   UNL     1      10.137  20.781  55.999  1.00  0.00     0.093 A 
ATOM      8  C   UNL     1       9.588  20.960  54.727  1.00  0.00     0.123 A 
ATOM      9  C   UNL     1       9.486  19.873  53.853  1.00  0.00     0.094 A 
ATOM     10  C   UNL     1       9.930  18.607  54.246  1.00  0.00     0.146 A 
ATOM     11  O   UNL     1       9.820  17.589  53.398  1.00  0.00    -0.456 OA
ENDROOT
BRANCH   1  12
ATOM     12  C   UNL     1      10.043  15.290  52.663  1.00  0.00     0.021 A 
ATOM     13  C   UNL     1      10.475  13.982  52.944  1.00  0.00     0.016 A 
ATOM     14  C   UNL     1      10.335  12.968  51.994  1.00  0.00     0.051 A 
ATOM     15  C   UNL     1       9.773  13.242  50.745  1.00  0.00     0.157 A 
ATOM     16  C   UNL     1       9.490  15.565  51.397  1.00  0.00     0.062 A 
ATOM     17  C   UNL     1       9.351  14.546  50.442  1.00  0.00     0.158 A 
BRANCH  15  18
ATOM     18  O   UNL     1       9.645  12.209  49.818  1.00  0.00    -0.504 OA
ATOM     19  H   UNL     1      10.285  12.100  49.039  1.00  0.00     0.293 HD
ENDBRANCH  15  18
BRANCH  17  20
ATOM     20  O   UNL     1       8.800  14.829  49.193  1.00  0.00    -0.504 OA
ATOM     21  H   UNL     1       7.836  14.606  48.974  1.00  0.00     0.293 HD
ENDBRANCH  17  20
ENDBRANCH   1  12
BRANCH   6  22
ATOM     22  O   UNL     1      11.132  19.370  57.690  1.00  0.00    -0.507 OA
ATOM     23  H   UNL     1      11.645  20.120  58.141  1.00  0.00     0.293 HD
ENDBRANCH   6  22
BRANCH   8  24
ATOM     24  O   UNL     1       9.147  22.224  54.342  1.00  0.00    -0.508 OA
ATOM     25  H   UNL     1       9.322  23.043  54.914  1.00  0.00     0.293 HD
ENDBRANCH   8  24
TORSDOF 5
ENDMDL
