MODEL 1
REMARK VINA RESULT:    -5.475      0.000      0.000
REMARK INTER + INTRA:          -6.753
REMARK INTER:                  -6.435
REMARK INTRA:                  -0.318
REMARK UNBOUND:                -0.318
REMARK SMILES O=c1cc(-c2ccc(O)c(O)c2)oc2cc(O)cc(O)c12
REMARK SMILES IDX 4 1 3 2 2 3 1 4 21 5 19 6 18 7 16 8 15 9 14 10 13 11 5 12
REMARK SMILES IDX 6 13 7 14 8 15 12 16 10 17 9 18 11 20 20 22 17 24
REMARK H PARENT 9 19 11 21 20 23 17 25
REMARK Flexibility Score: inf
ROOT
ATOM      1  C   UNL     1      14.420  32.074  57.794  1.00  0.00     0.138 A 
ATOM      2  C   UNL     1      15.803  31.834  57.764  1.00  0.00     0.100 A 
ATOM      3  C   UNL     1      16.407  31.160  58.827  1.00  0.00     0.197 A 
ATOM      4  O   UNL     1      17.649  30.948  58.790  1.00  0.00    -0.289 OA
ATOM      5  C   UNL     1      15.621  30.729  59.913  1.00  0.00     0.107 A 
ATOM      6  C   UNL     1      16.152  30.042  61.030  1.00  0.00     0.134 A 
ATOM      7  C   UNL     1      15.300  29.641  62.070  1.00  0.00     0.093 A 
ATOM      8  C   UNL     1      13.930  29.911  62.014  1.00  0.00     0.123 A 
ATOM      9  C   UNL     1      13.399  30.591  60.912  1.00  0.00     0.094 A 
ATOM     10  C   UNL     1      14.231  31.000  59.866  1.00  0.00     0.146 A 
ATOM     11  O   UNL     1      13.704  31.645  58.830  1.00  0.00    -0.456 OA
ENDROOT
BRANCH   1  12
ATOM     12  C   UNL     1      13.724  32.783  56.691  1.00  0.00     0.021 A 
ATOM     13  C   UNL     1      14.461  33.231  55.582  1.00  0.00     0.016 A 
ATOM     14  C   UNL     1      13.828  33.894  54.528  1.00  0.00     0.051 A 
ATOM     15  C   UNL     1      12.445  34.111  54.558  1.00  0.00     0.157 A 
ATOM     16  C   UNL     1      12.330  32.993  56.709  1.00  0.00     0.062 A 
ATOM     17  C   UNL     1      11.693  33.654  55.653  1.00  0.00     0.158 A 
BRANCH  15  18
ATOM     18  O   UNL     1      11.816  34.773  53.505  1.00  0.00    -0.504 OA
ATOM     19  H   UNL     1      10.837  34.624  53.293  1.00  0.00     0.293 HD
ENDBRANCH  15  18
BRANCH  17  20
ATOM     20  O   UNL     1      10.313  33.844  55.708  1.00  0.00    -0.504 OA
ATOM     21  H   UNL     1       9.893  34.763  55.629  1.00  0.00     0.293 HD
ENDBRANCH  17  20
ENDBRANCH   1  12
BRANCH   6  22
ATOM     22  O   UNL     1      17.516  29.757  61.115  1.00  0.00    -0.507 OA
ATOM     23  H   UNL     1      17.871  29.032  61.727  1.00  0.00     0.293 HD
ENDBRANCH   6  22
BRANCH   8  24
ATOM     24  O   UNL     1      13.105  29.501  63.059  1.00  0.00    -0.508 OA
ATOM     25  H   UNL     1      13.267  29.805  64.011  1.00  0.00     0.293 HD
ENDBRANCH   8  24
TORSDOF 5
ENDMDL
MODEL 2
REMARK VINA RESULT:    -5.381      4.132      6.699
REMARK INTER + INTRA:          -6.643
REMARK INTER:                  -6.348
REMARK INTRA:                  -0.295
REMARK UNBOUND:                -0.318
REMARK SMILES O=c1cc(-c2ccc(O)c(O)c2)oc2cc(O)cc(O)c12
REMARK SMILES IDX 4 1 3 2 2 3 1 4 21 5 19 6 18 7 16 8 15 9 14 10 13 11 5 12
REMARK SMILES IDX 6 13 7 14 8 15 12 16 10 17 9 18 11 20 20 22 17 24
REMARK H PARENT 9 19 11 21 20 23 17 25
REMARK Flexibility Score: inf
ROOT
ATOM      1  C   UNL     1      15.307  34.797  52.593  1.00  0.00     0.138 A 
ATOM      2  C   UNL     1      16.375  34.034  53.092  1.00  0.00     0.100 A 
ATOM      3  C   UNL     1      16.186  33.254  54.235  1.00  0.00     0.197 A 
ATOM      4  O   UNL     1      17.151  32.571  54.675  1.00  0.00    -0.289 OA
ATOM      5  C   UNL     1      14.928  33.241  54.868  1.00  0.00     0.107 A 
ATOM      6  C   UNL     1      14.652  32.481  56.029  1.00  0.00     0.134 A 
ATOM      7  C   UNL     1      13.370  32.518  56.597  1.00  0.00     0.093 A 
ATOM      8  C   UNL     1      12.360  33.297  56.027  1.00  0.00     0.123 A 
ATOM      9  C   UNL     1      12.627  34.051  54.879  1.00  0.00     0.094 A 
ATOM     10  C   UNL     1      13.898  34.029  54.298  1.00  0.00     0.146 A 
ATOM     11  O   UNL     1      14.128  34.754  53.208  1.00  0.00    -0.456 OA
ENDROOT
BRANCH   1  12
ATOM     12  C   UNL     1      15.448  35.642  51.380  1.00  0.00     0.021 A 
ATOM     13  C   UNL     1      14.298  36.153  50.756  1.00  0.00     0.016 A 
ATOM     14  C   UNL     1      14.405  36.958  49.619  1.00  0.00     0.051 A 
ATOM     15  C   UNL     1      15.663  37.273  49.091  1.00  0.00     0.157 A 
ATOM     16  C   UNL     1      16.712  35.975  50.853  1.00  0.00     0.062 A 
ATOM     17  C   UNL     1      16.821  36.783  49.715  1.00  0.00     0.158 A 
BRANCH  15  18
ATOM     18  O   UNL     1      15.766  38.076  47.956  1.00  0.00    -0.504 OA
ATOM     19  H   UNL     1      16.540  38.717  47.827  1.00  0.00     0.293 HD
ENDBRANCH  15  18
BRANCH  17  20
ATOM     20  O   UNL     1      18.089  37.088  49.222  1.00  0.00    -0.504 OA
ATOM     21  H   UNL     1      18.303  37.987  48.806  1.00  0.00     0.293 HD
ENDBRANCH  17  20
ENDBRANCH   1  12
BRANCH   6  22
ATOM     22  O   UNL     1      15.640  31.692  56.622  1.00  0.00    -0.507 OA
ATOM     23  H   UNL     1      16.083  31.958  57.493  1.00  0.00     0.293 HD
ENDBRANCH   6  22
BRANCH   8  24
ATOM     24  O   UNL     1      11.095  33.316  56.609  1.00  0.00    -0.508 OA
ATOM     25  H   UNL     1      10.608  32.461  56.845  1.00  0.00     0.293 HD
ENDBRANCH   8  24
TORSDOF 5
ENDMDL
MODEL 3
REMARK VINA RESULT:    -5.326      1.553      2.913
REMARK INTER + INTRA:          -6.579
REMARK INTER:                  -6.286
REMARK INTRA:                  -0.293
REMARK UNBOUND:                -0.318
REMARK SMILES O=c1cc(-c2ccc(O)c(O)c2)oc2cc(O)cc(O)c12
REMARK SMILES IDX 4 1 3 2 2 3 1 4 21 5 19 6 18 7 16 8 15 9 14 10 13 11 5 12
REMARK SMILES IDX 6 13 7 14 8 15 12 16 10 17 9 18 11 20 20 22 17 24
REMARK H PARENT 9 19 11 21 20 23 17 25
REMARK Flexibility Score: inf
ROOT
ATOM      1  C   UNL     1      14.604  31.883  58.315  1.00  0.00     0.138 A 
ATOM      2  C   UNL     1      14.061  30.892  59.147  1.00  0.00     0.100 A 
ATOM      3  C   UNL     1      14.865  30.295  60.120  1.00  0.00     0.197 A 
ATOM      4  O   UNL     1      14.369  29.407  60.864  1.00  0.00    -0.289 OA
ATOM      5  C   UNL     1      16.208  30.699  60.255  1.00  0.00     0.107 A 
ATOM      6  C   UNL     1      17.092  30.146  61.212  1.00  0.00     0.134 A 
ATOM      7  C   UNL     1      18.415  30.606  61.286  1.00  0.00     0.093 A 
ATOM      8  C   UNL     1      18.870  31.607  60.424  1.00  0.00     0.123 A 
ATOM      9  C   UNL     1      18.001  32.157  59.475  1.00  0.00     0.094 A 
ATOM     10  C   UNL     1      16.680  31.712  59.385  1.00  0.00     0.146 A 
ATOM     11  O   UNL     1      15.874  32.249  58.474  1.00  0.00    -0.456 OA
ENDROOT
BRANCH   1  12
ATOM     12  C   UNL     1      13.796  32.554  57.265  1.00  0.00     0.021 A 
ATOM     13  C   UNL     1      14.445  33.185  56.190  1.00  0.00     0.016 A 
ATOM     14  C   UNL     1      13.707  33.815  55.186  1.00  0.00     0.051 A 
ATOM     15  C   UNL     1      12.307  33.819  55.233  1.00  0.00     0.157 A 
ATOM     16  C   UNL     1      12.387  32.549  57.299  1.00  0.00     0.062 A 
ATOM     17  C   UNL     1      11.646  33.179  56.293  1.00  0.00     0.158 A 
BRANCH  15  18
ATOM     18  O   UNL     1      11.574  34.451  54.230  1.00  0.00    -0.504 OA
ATOM     19  H   UNL     1      11.639  34.160  53.261  1.00  0.00     0.293 HD
ENDBRANCH  15  18
BRANCH  17  20
ATOM     20  O   UNL     1      10.253  33.154  56.363  1.00  0.00    -0.504 OA
ATOM     21  H   UNL     1       9.715  32.342  56.087  1.00  0.00     0.293 HD
ENDBRANCH  17  20
ENDBRANCH   1  12
BRANCH   6  22
ATOM     22  O   UNL     1      16.666  29.145  62.087  1.00  0.00    -0.507 OA
ATOM     23  H   UNL     1      15.857  28.570  61.885  1.00  0.00     0.293 HD
ENDBRANCH   6  22
BRANCH   8  24
ATOM     24  O   UNL     1      20.188  32.047  60.518  1.00  0.00    -0.508 OA
ATOM     25  H   UNL     1      20.476  32.942  60.141  1.00  0.00     0.293 HD
ENDBRANCH   8  24
TORSDOF 5
ENDMDL
MODEL 4
REMARK VINA RESULT:    -5.288      4.127      8.704
REMARK INTER + INTRA:          -6.534
REMARK INTER:                  -6.215
REMARK INTRA:                  -0.318
REMARK UNBOUND:                -0.318
REMARK SMILES O=c1cc(-c2ccc(O)c(O)c2)oc2cc(O)cc(O)c12
REMARK SMILES IDX 4 1 3 2 2 3 1 4 21 5 19 6 18 7 16 8 15 9 14 10 13 11 5 12
REMARK SMILES IDX 6 13 7 14 8 15 12 16 10 17 9 18 11 20 20 22 17 24
REMARK H PARENT 9 19 11 21 20 23 17 25
REMARK Flexibility Score: inf
ROOT
ATOM      1  C   UNL     1      14.941  34.174  53.355  1.00  0.00     0.138 A 
ATOM      2  C   UNL     1      16.305  33.841  53.349  1.00  0.00     0.100 A 
ATOM      3  C   UNL     1      17.112  34.270  52.293  1.00  0.00     0.197 A 
ATOM      4  O   UNL     1      18.336  33.967  52.296  1.00  0.00    -0.289 OA
ATOM      5  C   UNL     1      16.547  35.032  51.251  1.00  0.00     0.107 A 
ATOM      6  C   UNL     1      17.292  35.504  50.145  1.00  0.00     0.134 A 
ATOM      7  C   UNL     1      16.656  36.263  49.151  1.00  0.00     0.093 A 
ATOM      8  C   UNL     1      15.294  36.558  49.242  1.00  0.00     0.123 A 
ATOM      9  C   UNL     1      14.552  36.093  50.334  1.00  0.00     0.094 A 
ATOM     10  C   UNL     1      15.166  35.336  51.334  1.00  0.00     0.146 A 
ATOM     11  O   UNL     1      14.441  34.904  52.361  1.00  0.00    -0.456 OA
ENDROOT
BRANCH   1  12
ATOM     12  C   UNL     1      14.036  33.748  54.452  1.00  0.00     0.021 A 
ATOM     13  C   UNL     1      14.559  33.035  55.544  1.00  0.00     0.016 A 
ATOM     14  C   UNL     1      13.730  32.631  56.592  1.00  0.00     0.051 A 
ATOM     15  C   UNL     1      12.364  32.940  56.573  1.00  0.00     0.157 A 
ATOM     16  C   UNL     1      12.663  34.068  54.446  1.00  0.00     0.062 A 
ATOM     17  C   UNL     1      11.830  33.665  55.496  1.00  0.00     0.158 A 
BRANCH  15  18
ATOM     18  O   UNL     1      11.539  32.533  57.621  1.00  0.00    -0.504 OA
ATOM     19  H   UNL     1      11.081  33.204  58.227  1.00  0.00     0.293 HD
ENDBRANCH  15  18
BRANCH  17  20
ATOM     20  O   UNL     1      10.477  33.999  55.453  1.00  0.00    -0.504 OA
ATOM     21  H   UNL     1      10.051  34.414  54.632  1.00  0.00     0.293 HD
ENDBRANCH  17  20
ENDBRANCH   1  12
BRANCH   6  22
ATOM     22  O   UNL     1      18.655  35.226  50.026  1.00  0.00    -0.507 OA
ATOM     23  H   UNL     1      19.354  35.766  50.521  1.00  0.00     0.293 HD
ENDBRANCH   6  22
BRANCH   8  24
ATOM     24  O   UNL     1      14.686  37.314  48.242  1.00  0.00    -0.508 OA
ATOM     25  H   UNL     1      15.076  38.196  47.934  1.00  0.00     0.293 HD
ENDBRANCH   8  24
TORSDOF 5
ENDMDL
MODEL 5
REMARK VINA RESULT:    -5.097      3.245      6.092
REMARK INTER + INTRA:          -6.310
REMARK INTER:                  -5.995
REMARK INTRA:                  -0.315
REMARK UNBOUND:                -0.318
REMARK SMILES O=c1cc(-c2ccc(O)c(O)c2)oc2cc(O)cc(O)c12
REMARK SMILES IDX 4 1 3 2 2 3 1 4 21 5 19 6 18 7 16 8 15 9 14 10 13 11 5 12
REMARK SMILES IDX 6 13 7 14 8 15 12 16 10 17 9 18 11 20 20 22 17 24
REMARK H PARENT 9 19 11 21 20 23 17 25
REMARK Flexibility Score: inf
ROOT
ATOM      1  C   UNL     1      14.164  34.101  53.730  1.00  0.00     0.138 A 
ATOM      2  C   UNL     1      12.770  34.135  53.567  1.00  0.00     0.100 A 
ATOM      3  C   UNL     1      11.948  33.636  54.579  1.00  0.00     0.197 A 
ATOM      4  O   UNL     1      10.697  33.673  54.425  1.00  0.00    -0.289 OA
ATOM      5  C   UNL     1      12.528  33.108  55.749  1.00  0.00     0.107 A 
ATOM      6  C   UNL     1      11.770  32.581  56.821  1.00  0.00     0.134 A 
ATOM      7  C   UNL     1      12.423  32.078  57.956  1.00  0.00     0.093 A 
ATOM      8  C   UNL     1      13.818  32.093  58.039  1.00  0.00     0.123 A 
ATOM      9  C   UNL     1      14.574  32.612  56.982  1.00  0.00     0.094 A 
ATOM     10  C   UNL     1      13.941  33.117  55.843  1.00  0.00     0.146 A 
ATOM     11  O   UNL     1      14.681  33.605  54.852  1.00  0.00    -0.456 OA
ENDROOT
BRANCH   1  12
ATOM     12  C   UNL     1      15.088  34.619  52.689  1.00  0.00     0.021 A 
ATOM     13  C   UNL     1      14.589  35.455  51.676  1.00  0.00     0.016 A 
ATOM     14  C   UNL     1      15.438  35.962  50.690  1.00  0.00     0.051 A 
ATOM     15  C   UNL     1      16.804  35.651  50.704  1.00  0.00     0.157 A 
ATOM     16  C   UNL     1      16.465  34.322  52.706  1.00  0.00     0.062 A 
ATOM     17  C   UNL     1      17.319  34.830  51.720  1.00  0.00     0.158 A 
BRANCH  15  18
ATOM     18  O   UNL     1      17.648  36.158  49.718  1.00  0.00    -0.504 OA
ATOM     19  H   UNL     1      18.385  35.596  49.310  1.00  0.00     0.293 HD
ENDBRANCH  15  18
BRANCH  17  20
ATOM     20  O   UNL     1      18.675  34.511  51.770  1.00  0.00    -0.504 OA
ATOM     21  H   UNL     1      19.001  33.577  51.986  1.00  0.00     0.293 HD
ENDBRANCH  17  20
ENDBRANCH   1  12
BRANCH   6  22
ATOM     22  O   UNL     1      10.375  32.553  56.767  1.00  0.00    -0.507 OA
ATOM     23  H   UNL     1       9.824  32.085  57.476  1.00  0.00     0.293 HD
ENDBRANCH   6  22
BRANCH   8  24
ATOM     24  O   UNL     1      14.443  31.588  59.177  1.00  0.00    -0.508 OA
ATOM     25  H   UNL     1      14.743  30.623  59.233  1.00  0.00     0.293 HD
ENDBRANCH   8  24
TORSDOF 5
ENDMDL
MODEL 6
REMARK VINA RESULT:    -5.089      3.829      9.050
REMARK INTER + INTRA:          -6.300
REMARK INTER:                  -5.983
REMARK INTRA:                  -0.317
REMARK UNBOUND:                -0.318
REMARK SMILES O=c1cc(-c2ccc(O)c(O)c2)oc2cc(O)cc(O)c12
REMARK SMILES IDX 4 1 3 2 2 3 1 4 21 5 19 6 18 7 16 8 15 9 14 10 13 11 5 12
REMARK SMILES IDX 6 13 7 14 8 15 12 16 10 17 9 18 11 20 20 22 17 24
REMARK H PARENT 9 19 11 21 20 23 17 25
REMARK Flexibility Score: inf
ROOT
ATOM      1  C   UNL     1      13.609  34.432  53.273  1.00  0.00     0.138 A 
ATOM      2  C   UNL     1      14.966  34.690  53.021  1.00  0.00     0.100 A 
ATOM      3  C   UNL     1      15.345  35.241  51.795  1.00  0.00     0.197 A 
ATOM      4  O   UNL     1      16.565  35.471  51.578  1.00  0.00    -0.289 OA
ATOM      5  C   UNL     1      14.360  35.534  50.831  1.00  0.00     0.107 A 
ATOM      6  C   UNL     1      14.657  36.091  49.564  1.00  0.00     0.134 A 
ATOM      7  C   UNL     1      13.618  36.358  48.661  1.00  0.00     0.093 A 
ATOM      8  C   UNL     1      12.291  36.080  48.998  1.00  0.00     0.123 A 
ATOM      9  C   UNL     1      11.991  35.528  50.249  1.00  0.00     0.094 A 
ATOM     10  C   UNL     1      13.012  35.254  51.163  1.00  0.00     0.146 A 
ATOM     11  O   UNL     1      12.703  34.729  52.345  1.00  0.00    -0.456 OA
ENDROOT
BRANCH   1  12
ATOM     12  C   UNL     1      13.148  33.850  54.558  1.00  0.00     0.021 A 
ATOM     13  C   UNL     1      14.096  33.401  55.494  1.00  0.00     0.016 A 
ATOM     14  C   UNL     1      13.688  32.856  56.713  1.00  0.00     0.051 A 
ATOM     15  C   UNL     1      12.325  32.759  57.024  1.00  0.00     0.157 A 
ATOM     16  C   UNL     1      11.780  33.762  54.883  1.00  0.00     0.062 A 
ATOM     17  C   UNL     1      11.368  33.219  56.105  1.00  0.00     0.158 A 
BRANCH  15  18
ATOM     18  O   UNL     1      11.921  32.214  58.242  1.00  0.00    -0.504 OA
ATOM     19  H   UNL     1      11.502  32.786  58.966  1.00  0.00     0.293 HD
ENDBRANCH  15  18
BRANCH  17  20
ATOM     20  O   UNL     1      10.005  33.147  56.389  1.00  0.00    -0.504 OA
ATOM     21  H   UNL     1       9.375  32.556  55.860  1.00  0.00     0.293 HD
ENDBRANCH  17  20
ENDBRANCH   1  12
BRANCH   6  22
ATOM     22  O   UNL     1      15.973  36.380  49.198  1.00  0.00    -0.507 OA
ATOM     23  H   UNL     1      16.408  35.949  48.391  1.00  0.00     0.293 HD
ENDBRANCH   6  22
BRANCH   8  24
ATOM     24  O   UNL     1      11.277  36.355  48.083  1.00  0.00    -0.508 OA
ATOM     25  H   UNL     1      10.367  35.917  48.154  1.00  0.00     0.293 HD
ENDBRANCH   8  24
TORSDOF 5
ENDMDL
MODEL 7
REMARK VINA RESULT:    -5.088      3.847      7.274
REMARK INTER + INTRA:          -6.299
REMARK INTER:                  -5.990
REMARK INTRA:                  -0.309
REMARK UNBOUND:                -0.318
REMARK SMILES O=c1cc(-c2ccc(O)c(O)c2)oc2cc(O)cc(O)c12
REMARK SMILES IDX 4 1 3 2 2 3 1 4 21 5 19 6 18 7 16 8 15 9 14 10 13 11 5 12
REMARK SMILES IDX 6 13 7 14 8 15 12 16 10 17 9 18 11 20 20 22 17 24
REMARK H PARENT 9 19 11 21 20 23 17 25
REMARK Flexibility Score: inf
ROOT
ATOM      1  C   UNL     1      13.561  34.867  52.234  1.00  0.00     0.138 A 
ATOM      2  C   UNL     1      12.226  34.450  52.115  1.00  0.00     0.100 A 
ATOM      3  C   UNL     1      11.617  33.782  53.179  1.00  0.00     0.197 A 
ATOM      4  O   UNL     1      10.418  33.411  53.063  1.00  0.00    -0.289 OA
ATOM      5  C   UNL     1      12.349  33.541  54.359  1.00  0.00     0.107 A 
ATOM      6  C   UNL     1      11.810  32.871  55.482  1.00  0.00     0.134 A 
ATOM      7  C   UNL     1      12.603  32.675  56.622  1.00  0.00     0.093 A 
ATOM      8  C   UNL     1      13.922  33.135  56.661  1.00  0.00     0.123 A 
ATOM      9  C   UNL     1      14.461  33.797  55.552  1.00  0.00     0.094 A 
ATOM     10  C   UNL     1      13.687  34.002  54.407  1.00  0.00     0.146 A 
ATOM     11  O   UNL     1      14.222  34.633  53.366  1.00  0.00    -0.456 OA
ENDROOT
BRANCH   1  12
ATOM     12  C   UNL     1      14.259  35.583  51.137  1.00  0.00     0.021 A 
ATOM     13  C   UNL     1      13.510  36.327  50.209  1.00  0.00     0.016 A 
ATOM     14  C   UNL     1      14.144  37.015  49.172  1.00  0.00     0.051 A 
ATOM     15  C   UNL     1      15.539  36.981  49.049  1.00  0.00     0.157 A 
ATOM     16  C   UNL     1      15.663  35.565  51.016  1.00  0.00     0.062 A 
ATOM     17  C   UNL     1      16.301  36.255  49.979  1.00  0.00     0.158 A 
BRANCH  15  18
ATOM     18  O   UNL     1      16.168  37.669  48.013  1.00  0.00    -0.504 OA
ATOM     19  H   UNL     1      15.713  37.814  47.119  1.00  0.00     0.293 HD
ENDBRANCH  15  18
BRANCH  17  20
ATOM     20  O   UNL     1      17.692  36.211  49.891  1.00  0.00    -0.504 OA
ATOM     21  H   UNL     1      18.242  35.536  50.410  1.00  0.00     0.293 HD
ENDBRANCH  17  20
ENDBRANCH   1  12
BRANCH   6  22
ATOM     22  O   UNL     1      10.495  32.400  55.474  1.00  0.00    -0.507 OA
ATOM     23  H   UNL     1      10.284  31.410  55.454  1.00  0.00     0.293 HD
ENDBRANCH   6  22
BRANCH   8  24
ATOM     24  O   UNL     1      14.688  32.928  57.805  1.00  0.00    -0.508 OA
ATOM     25  H   UNL     1      14.282  32.974  58.731  1.00  0.00     0.293 HD
ENDBRANCH   8  24
TORSDOF 5
ENDMDL
MODEL 8
REMARK VINA RESULT:    -5.067      3.715      9.303
REMARK INTER + INTRA:          -6.274
REMARK INTER:                  -5.987
REMARK INTRA:                  -0.287
REMARK UNBOUND:                -0.318
REMARK SMILES O=c1cc(-c2ccc(O)c(O)c2)oc2cc(O)cc(O)c12
REMARK SMILES IDX 4 1 3 2 2 3 1 4 21 5 19 6 18 7 16 8 15 9 14 10 13 11 5 12
REMARK SMILES IDX 6 13 7 14 8 15 12 16 10 17 9 18 11 20 20 22 17 24
REMARK H PARENT 9 19 11 21 20 23 17 25
REMARK Flexibility Score: inf
ROOT
ATOM      1  C   UNL     1      13.695  34.465  53.180  1.00  0.00     0.138 A 
ATOM      2  C   UNL     1      12.601  34.453  52.300  1.00  0.00     0.100 A 
ATOM      3  C   UNL     1      12.685  35.144  51.090  1.00  0.00     0.197 A 
ATOM      4  O   UNL     1      11.698  35.128  50.306  1.00  0.00    -0.289 OA
ATOM      5  C   UNL     1      13.868  35.839  50.767  1.00  0.00     0.107 A 
ATOM      6  C   UNL     1      14.036  36.564  49.564  1.00  0.00     0.134 A 
ATOM      7  C   UNL     1      15.248  37.226  49.314  1.00  0.00     0.093 A 
ATOM      8  C   UNL     1      16.292  37.175  50.241  1.00  0.00     0.123 A 
ATOM      9  C   UNL     1      16.131  36.459  51.433  1.00  0.00     0.094 A 
ATOM     10  C   UNL     1      14.931  35.794  51.701  1.00  0.00     0.146 A 
ATOM     11  O   UNL     1      14.801  35.122  52.841  1.00  0.00    -0.456 OA
ENDROOT
BRANCH   1  12
ATOM     12  C   UNL     1      13.663  33.746  54.479  1.00  0.00     0.021 A 
ATOM     13  C   UNL     1      14.855  33.225  55.011  1.00  0.00     0.016 A 
ATOM     14  C   UNL     1      14.853  32.552  56.235  1.00  0.00     0.051 A 
ATOM     15  C   UNL     1      13.661  32.397  56.954  1.00  0.00     0.157 A 
ATOM     16  C   UNL     1      12.470  33.599  55.215  1.00  0.00     0.062 A 
ATOM     17  C   UNL     1      12.466  32.927  56.443  1.00  0.00     0.158 A 
BRANCH  15  18
ATOM     18  O   UNL     1      13.662  31.724  58.175  1.00  0.00    -0.504 OA
ATOM     19  H   UNL     1      13.602  32.221  59.056  1.00  0.00     0.293 HD
ENDBRANCH  15  18
BRANCH  17  20
ATOM     20  O   UNL     1      11.265  32.800  57.140  1.00  0.00    -0.504 OA
ATOM     21  H   UNL     1      11.236  32.694  58.147  1.00  0.00     0.293 HD
ENDBRANCH  17  20
ENDBRANCH   1  12
BRANCH   6  22
ATOM     22  O   UNL     1      13.012  36.633  48.618  1.00  0.00    -0.507 OA
ATOM     23  H   UNL     1      12.628  35.801  48.187  1.00  0.00     0.293 HD
ENDBRANCH   6  22
BRANCH   8  24
ATOM     24  O   UNL     1      17.485  37.839  49.969  1.00  0.00    -0.508 OA
ATOM     25  H   UNL     1      18.356  37.564  50.405  1.00  0.00     0.293 HD
ENDBRANCH   8  24
TORSDOF 5
ENDMDL
MODEL 9
REMARK VINA RESULT:    -5.008      2.476      4.156
REMARK INTER + INTRA:          -6.205
REMARK INTER:                  -5.903
REMARK INTRA:                  -0.301
REMARK UNBOUND:                -0.318
REMARK SMILES O=c1cc(-c2ccc(O)c(O)c2)oc2cc(O)cc(O)c12
REMARK SMILES IDX 4 1 3 2 2 3 1 4 21 5 19 6 18 7 16 8 15 9 14 10 13 11 5 12
REMARK SMILES IDX 6 13 7 14 8 15 12 16 10 17 9 18 11 20 20 22 17 24
REMARK H PARENT 9 19 11 21 20 23 17 25
REMARK Flexibility Score: inf
ROOT
ATOM      1  C   UNL     1      16.241  31.681  58.893  1.00  0.00     0.138 A 
ATOM      2  C   UNL     1      15.696  30.789  59.831  1.00  0.00     0.100 A 
ATOM      3  C   UNL     1      16.479  30.354  60.901  1.00  0.00     0.197 A 
ATOM      4  O   UNL     1      15.981  29.555  61.739  1.00  0.00    -0.289 OA
ATOM      5  C   UNL     1      17.803  30.819  61.028  1.00  0.00     0.107 A 
ATOM      6  C   UNL     1      18.665  30.428  62.080  1.00  0.00     0.134 A 
ATOM      7  C   UNL     1      19.970  30.940  62.138  1.00  0.00     0.093 A 
ATOM      8  C   UNL     1      20.428  31.834  61.167  1.00  0.00     0.123 A 
ATOM      9  C   UNL     1      19.581  32.224  60.124  1.00  0.00     0.094 A 
ATOM     10  C   UNL     1      18.278  31.724  60.048  1.00  0.00     0.146 A 
ATOM     11  O   UNL     1      17.492  32.109  59.047  1.00  0.00    -0.456 OA
ENDROOT
BRANCH   1  12
ATOM     12  C   UNL     1      15.455  32.179  57.737  1.00  0.00     0.021 A 
ATOM     13  C   UNL     1      14.081  32.431  57.891  1.00  0.00     0.016 A 
ATOM     14  C   UNL     1      13.321  32.907  56.820  1.00  0.00     0.051 A 
ATOM     15  C   UNL     1      13.922  33.149  55.579  1.00  0.00     0.157 A 
ATOM     16  C   UNL     1      16.056  32.438  56.489  1.00  0.00     0.062 A 
ATOM     17  C   UNL     1      15.297  32.917  55.415  1.00  0.00     0.158 A 
BRANCH  15  18
ATOM     18  O   UNL     1      13.160  33.624  54.512  1.00  0.00    -0.504 OA
ATOM     19  H   UNL     1      12.391  33.087  54.128  1.00  0.00     0.293 HD
ENDBRANCH  15  18
BRANCH  17  20
ATOM     20  O   UNL     1      15.928  33.160  54.195  1.00  0.00    -0.504 OA
ATOM     21  H   UNL     1      15.992  32.453  53.473  1.00  0.00     0.293 HD
ENDBRANCH  17  20
ENDBRANCH   1  12
BRANCH   6  22
ATOM     22  O   UNL     1      18.236  29.536  63.065  1.00  0.00    -0.507 OA
ATOM     23  H   UNL     1      17.854  28.628  62.831  1.00  0.00     0.293 HD
ENDBRANCH   6  22
BRANCH   8  24
ATOM     24  O   UNL     1      21.728  32.329  61.248  1.00  0.00    -0.508 OA
ATOM     25  H   UNL     1      22.467  31.804  61.697  1.00  0.00     0.293 HD
ENDBRANCH   8  24
TORSDOF 5
ENDMDL
