MODEL 1
REMARK VINA RESULT:    -5.965      0.000      0.000
REMARK INTER + INTRA:          -5.965
REMARK INTER:                  -5.965
REMARK INTRA:                   0.000
REMARK UNBOUND:                 0.000
REMARK SMILES C=C1CC[C@H]2C[C@@H]1C2(C)C
REMARK SMILES IDX 9 1 8 2 5 3 4 4 3 5 2 6 1 7 7 8 6 9 10 10
REMARK H PARENT
REMARK Flexibility Score: inf
ROOT
ATOM      1  C   UNL     1     154.758 137.810 125.513  1.00  0.00     0.012 C 
ATOM      2  C   UNL     1     154.367 138.304 124.094  1.00  0.00    -0.026 C 
ATOM      3  C   UNL     1     154.977 137.587 122.862  1.00  0.00    -0.004 C 
ATOM      4  C   UNL     1     155.121 136.053 123.120  1.00  0.00     0.008 C 
ATOM      5  C   UNL     1     153.783 135.398 123.634  1.00  0.00     0.031 C 
ATOM      6  C   UNL     1     152.695 136.444 123.925  1.00  0.00    -0.074 C 
ATOM      7  C   UNL     1     151.537 136.102 124.500  1.00  0.00     0.008 C 
ATOM      8  C   UNL     1     152.991 137.885 123.523  1.00  0.00     0.021 C 
ATOM      9  C   UNL     1     153.639 137.785 122.132  1.00  0.00     0.012 C 
ATOM     10  C   UNL     1     154.578 139.837 124.034  1.00  0.00     0.012 C 
ENDROOT
TORSDOF 0
ENDMDL
MODEL 2
REMARK VINA RESULT:    -5.943     14.124     16.441
REMARK INTER + INTRA:          -5.943
REMARK INTER:                  -5.943
REMARK INTRA:                   0.000
REMARK UNBOUND:                 0.000
REMARK SMILES C=C1CC[C@H]2C[C@@H]1C2(C)C
REMARK SMILES IDX 9 1 8 2 5 3 4 4 3 5 2 6 1 7 7 8 6 9 10 10
REMARK H PARENT
REMARK Flexibility Score: inf
ROOT
ATOM      1  C   UNL     1     138.162 135.900 125.324  1.00  0.00     0.012 C 
ATOM      2  C   UNL     1     138.591 136.187 123.860  1.00  0.00    -0.026 C 
ATOM      3  C   UNL     1     137.833 135.475 122.710  1.00  0.00    -0.004 C 
ATOM      4  C   UNL     1     136.313 135.335 123.042  1.00  0.00     0.008 C 
ATOM      5  C   UNL     1     135.661 136.701 123.479  1.00  0.00     0.031 C 
ATOM      6  C   UNL     1     136.702 137.820 123.642  1.00  0.00    -0.074 C 
ATOM      7  C   UNL     1     136.367 139.015 124.140  1.00  0.00     0.008 C 
ATOM      8  C   UNL     1     138.129 137.510 123.204  1.00  0.00     0.021 C 
ATOM      9  C   UNL     1     137.982 136.756 121.872  1.00  0.00     0.012 C 
ATOM     10  C   UNL     1     140.123 135.989 123.752  1.00  0.00     0.012 C 
ENDROOT
TORSDOF 0
ENDMDL
MODEL 3
REMARK VINA RESULT:    -5.779     14.441     16.668
REMARK INTER + INTRA:          -5.779
REMARK INTER:                  -5.779
REMARK INTRA:                   0.000
REMARK UNBOUND:                 0.000
REMARK SMILES C=C1CC[C@H]2C[C@@H]1C2(C)C
REMARK SMILES IDX 9 1 8 2 5 3 4 4 3 5 2 6 1 7 7 8 6 9 10 10
REMARK H PARENT
REMARK Flexibility Score: inf
ROOT
ATOM      1  C   UNL     1     152.579 154.751 125.299  1.00  0.00     0.012 C 
ATOM      2  C   UNL     1     152.172 154.274 123.878  1.00  0.00    -0.026 C 
ATOM      3  C   UNL     1     152.904 154.878 122.652  1.00  0.00    -0.004 C 
ATOM      4  C   UNL     1     154.414 155.125 122.967  1.00  0.00     0.008 C 
ATOM      5  C   UNL     1     155.125 153.850 123.563  1.00  0.00     0.031 C 
ATOM      6  C   UNL     1     154.134 152.713 123.857  1.00  0.00    -0.074 C 
ATOM      7  C   UNL     1     154.519 151.602 124.493  1.00  0.00     0.008 C 
ATOM      8  C   UNL     1     152.696 152.905 123.384  1.00  0.00     0.021 C 
ATOM      9  C   UNL     1     152.818 153.501 121.972  1.00  0.00     0.012 C 
ATOM     10  C   UNL     1     150.633 154.388 123.747  1.00  0.00     0.012 C 
ENDROOT
TORSDOF 0
ENDMDL
MODEL 4
REMARK VINA RESULT:    -5.610     14.023     16.436
REMARK INTER + INTRA:          -5.610
REMARK INTER:                  -5.610
REMARK INTRA:                   0.000
REMARK UNBOUND:                 0.000
REMARK SMILES C=C1CC[C@H]2C[C@@H]1C2(C)C
REMARK SMILES IDX 9 1 8 2 5 3 4 4 3 5 2 6 1 7 7 8 6 9 10 10
REMARK H PARENT
REMARK Flexibility Score: inf
ROOT
ATOM      1  C   UNL     1     137.556 137.964 122.265  1.00  0.00     0.012 C 
ATOM      2  C   UNL     1     136.846 137.092 123.335  1.00  0.00    -0.026 C 
ATOM      3  C   UNL     1     136.469 135.632 122.975  1.00  0.00    -0.004 C 
ATOM      4  C   UNL     1     137.557 134.980 122.065  1.00  0.00     0.008 C 
ATOM      5  C   UNL     1     139.010 135.129 122.656  1.00  0.00     0.031 C 
ATOM      6  C   UNL     1     139.044 136.027 123.903  1.00  0.00    -0.074 C 
ATOM      7  C   UNL     1     140.200 136.390 124.469  1.00  0.00     0.008 C 
ATOM      8  C   UNL     1     137.701 136.479 124.470  1.00  0.00     0.021 C 
ATOM      9  C   UNL     1     136.808 135.229 124.420  1.00  0.00     0.012 C 
ATOM     10  C   UNL     1     135.634 137.884 123.885  1.00  0.00     0.012 C 
ENDROOT
TORSDOF 0
ENDMDL
MODEL 5
REMARK VINA RESULT:    -5.471     22.701     23.766
REMARK INTER + INTRA:          -5.471
REMARK INTER:                  -5.471
REMARK INTRA:                   0.000
REMARK UNBOUND:                 0.000
REMARK SMILES C=C1CC[C@H]2C[C@@H]1C2(C)C
REMARK SMILES IDX 9 1 8 2 5 3 4 4 3 5 2 6 1 7 7 8 6 9 10 10
REMARK H PARENT
REMARK Flexibility Score: inf
ROOT
ATOM      1  C   UNL     1     138.142 152.736 123.371  1.00  0.00     0.012 C 
ATOM      2  C   UNL     1     137.140 153.838 123.810  1.00  0.00    -0.026 C 
ATOM      3  C   UNL     1     135.913 154.130 122.909  1.00  0.00    -0.004 C 
ATOM      4  C   UNL     1     135.363 152.817 122.267  1.00  0.00     0.008 C 
ATOM      5  C   UNL     1     135.110 151.682 123.332  1.00  0.00     0.031 C 
ATOM      6  C   UNL     1     135.620 152.069 124.729  1.00  0.00    -0.074 C 
ATOM      7  C   UNL     1     135.625 151.189 125.737  1.00  0.00     0.008 C 
ATOM      8  C   UNL     1     136.114 153.500 124.917  1.00  0.00     0.021 C 
ATOM      9  C   UNL     1     135.086 154.375 124.182  1.00  0.00     0.012 C 
ATOM     10  C   UNL     1     137.940 155.125 124.133  1.00  0.00     0.012 C 
ENDROOT
TORSDOF 0
ENDMDL
MODEL 6
REMARK VINA RESULT:    -5.419     22.731     23.826
REMARK INTER + INTRA:          -5.419
REMARK INTER:                  -5.419
REMARK INTRA:                   0.000
REMARK UNBOUND:                 0.000
REMARK SMILES C=C1CC[C@H]2C[C@@H]1C2(C)C
REMARK SMILES IDX 9 1 8 2 5 3 4 4 3 5 2 6 1 7 7 8 6 9 10 10
REMARK H PARENT
REMARK Flexibility Score: inf
ROOT
ATOM      1  C   UNL     1     136.208 151.687 124.839  1.00  0.00     0.012 C 
ATOM      2  C   UNL     1     136.186 153.240 124.835  1.00  0.00    -0.026 C 
ATOM      3  C   UNL     1     137.477 154.001 124.437  1.00  0.00    -0.004 C 
ATOM      4  C   UNL     1     138.243 153.249 123.302  1.00  0.00     0.008 C 
ATOM      5  C   UNL     1     137.315 152.893 122.078  1.00  0.00     0.031 C 
ATOM      6  C   UNL     1     135.838 153.214 122.353  1.00  0.00    -0.074 C 
ATOM      7  C   UNL     1     134.877 152.856 121.495  1.00  0.00     0.008 C 
ATOM      8  C   UNL     1     135.517 153.963 123.642  1.00  0.00     0.021 C 
ATOM      9  C   UNL     1     136.595 155.054 123.746  1.00  0.00     0.012 C 
ATOM     10  C   UNL     1     135.626 153.724 126.196  1.00  0.00     0.012 C 
ENDROOT
TORSDOF 0
ENDMDL
MODEL 7
REMARK VINA RESULT:    -5.333     14.774     16.441
REMARK INTER + INTRA:          -5.333
REMARK INTER:                  -5.333
REMARK INTRA:                   0.000
REMARK UNBOUND:                 0.000
REMARK SMILES C=C1CC[C@H]2C[C@@H]1C2(C)C
REMARK SMILES IDX 9 1 8 2 5 3 4 4 3 5 2 6 1 7 7 8 6 9 10 10
REMARK H PARENT
REMARK Flexibility Score: inf
ROOT
ATOM      1  C   UNL     1     137.996 134.893 122.029  1.00  0.00     0.012 C 
ATOM      2  C   UNL     1     137.812 136.393 122.386  1.00  0.00    -0.026 C 
ATOM      3  C   UNL     1     136.467 136.851 123.006  1.00  0.00    -0.004 C 
ATOM      4  C   UNL     1     135.896 135.765 123.972  1.00  0.00     0.008 C 
ATOM      5  C   UNL     1     136.954 135.287 125.039  1.00  0.00     0.031 C 
ATOM      6  C   UNL     1     138.351 135.873 124.779  1.00  0.00    -0.074 C 
ATOM      7  C   UNL     1     139.413 135.479 125.489  1.00  0.00     0.008 C 
ATOM      8  C   UNL     1     138.469 136.926 123.682  1.00  0.00     0.021 C 
ATOM      9  C   UNL     1     137.252 137.844 123.879  1.00  0.00     0.012 C 
ATOM     10  C   UNL     1     138.197 137.241 121.149  1.00  0.00     0.012 C 
ENDROOT
TORSDOF 0
ENDMDL
MODEL 8
REMARK VINA RESULT:    -5.251     22.668     23.809
REMARK INTER + INTRA:          -5.251
REMARK INTER:                  -5.251
REMARK INTRA:                   0.000
REMARK UNBOUND:                 0.000
REMARK SMILES C=C1CC[C@H]2C[C@@H]1C2(C)C
REMARK SMILES IDX 9 1 8 2 5 3 4 4 3 5 2 6 1 7 7 8 6 9 10 10
REMARK H PARENT
REMARK Flexibility Score: inf
ROOT
ATOM      1  C   UNL     1     134.879 152.619 122.113  1.00  0.00     0.012 C 
ATOM      2  C   UNL     1     136.361 152.907 122.473  1.00  0.00    -0.026 C 
ATOM      3  C   UNL     1     136.730 154.295 123.055  1.00  0.00    -0.004 C 
ATOM      4  C   UNL     1     135.604 154.825 123.999  1.00  0.00     0.008 C 
ATOM      5  C   UNL     1     135.186 153.770 125.093  1.00  0.00     0.031 C 
ATOM      6  C   UNL     1     135.859 152.406 124.877  1.00  0.00    -0.074 C 
ATOM      7  C   UNL     1     135.527 151.341 125.616  1.00  0.00     0.008 C 
ATOM      8  C   UNL     1     136.925 152.322 123.790  1.00  0.00     0.021 C 
ATOM      9  C   UNL     1     137.764 153.599 123.956  1.00  0.00     0.012 C 
ATOM     10  C   UNL     1     137.241 152.540 121.251  1.00  0.00     0.012 C 
ENDROOT
TORSDOF 0
ENDMDL
