MODEL 1
REMARK VINA RESULT:    -5.096      0.000      0.000
REMARK INTER + INTRA:          -6.542
REMARK INTER:                  -6.139
REMARK INTRA:                  -0.403
REMARK UNBOUND:                -0.403
REMARK SMILES O=c1c(O)c(-c2ccc(O)cc2O)oc2cc(O)cc(O)c12
REMARK SMILES IDX 5 1 3 2 2 3 1 4 22 5 20 6 19 7 17 8 16 9 15 10 14 11 6 12
REMARK SMILES IDX 8 13 7 14 9 15 11 16 12 17 10 18 13 20 4 22 21 24 18 26
REMARK H PARENT 10 19 13 21 4 23 21 25 18 27
REMARK Flexibility Score: inf
ROOT
ATOM      1  C   UNL     1     110.445 108.420 113.275  1.00  0.00     0.184 A 
ATOM      2  C   UNL     1     109.763 107.295 113.769  1.00  0.00     0.208 A 
ATOM      3  C   UNL     1     108.362 107.325 113.839  1.00  0.00     0.238 A 
ATOM      4  O   UNL     1     107.755 106.293 114.229  1.00  0.00    -0.285 OA
ATOM      5  C   UNL     1     107.660 108.486 113.435  1.00  0.00     0.111 A 
ATOM      6  C   UNL     1     106.243 108.641 113.500  1.00  0.00     0.134 A 
ATOM      7  C   UNL     1     105.647 109.785 112.954  1.00  0.00     0.093 A 
ATOM      8  C   UNL     1     106.424 110.808 112.403  1.00  0.00     0.123 A 
ATOM      9  C   UNL     1     107.811 110.691 112.387  1.00  0.00     0.094 A 
ATOM     10  C   UNL     1     108.432 109.546 112.892  1.00  0.00     0.146 A 
ATOM     11  O   UNL     1     109.757 109.472 112.847  1.00  0.00    -0.451 OA
ENDROOT
BRANCH   1  12
ATOM     12  C   UNL     1     111.924 108.466 113.197  1.00  0.00     0.063 A 
ATOM     13  C   UNL     1     113.985 108.029 111.979  1.00  0.00     0.047 A 
ATOM     14  C   UNL     1     112.590 108.011 112.044  1.00  0.00     0.020 A 
ATOM     15  C   UNL     1     114.735 108.491 113.067  1.00  0.00     0.119 A 
ATOM     16  C   UNL     1     114.083 108.932 114.221  1.00  0.00     0.093 A 
ATOM     17  C   UNL     1     112.682 108.920 114.295  1.00  0.00     0.130 A 
BRANCH  15  18
ATOM     18  O   UNL     1     116.127 108.512 113.013  1.00  0.00    -0.508 OA
ATOM     19  H   UNL     1     116.634 109.357 112.776  1.00  0.00     0.293 HD
ENDBRANCH  15  18
BRANCH  17  20
ATOM     20  O   UNL     1     112.044 109.371 115.452  1.00  0.00    -0.507 OA
ATOM     21  H   UNL     1     112.556 109.544 116.308  1.00  0.00     0.293 HD
ENDBRANCH  17  20
ENDBRANCH   1  12
BRANCH   2  22
ATOM     22  O   UNL     1     110.477 106.155 114.150  1.00  0.00    -0.502 OA
ATOM     23  H   UNL     1     110.237 105.228 113.820  1.00  0.00     0.293 HD
ENDBRANCH   2  22
BRANCH   6  24
ATOM     24  O   UNL     1     105.384 107.722 114.111  1.00  0.00    -0.507 OA
ATOM     25  H   UNL     1     105.369 107.520 115.099  1.00  0.00     0.293 HD
ENDBRANCH   6  24
BRANCH   8  26
ATOM     26  O   UNL     1     105.823 111.949 111.875  1.00  0.00    -0.508 OA
ATOM     27  H   UNL     1     104.949 112.306 112.243  1.00  0.00     0.293 HD
ENDBRANCH   8  26
TORSDOF 6
ENDMDL
MODEL 2
REMARK VINA RESULT:    -4.988      3.035      7.752
REMARK INTER + INTRA:          -6.412
REMARK INTER:                  -6.007
REMARK INTRA:                  -0.405
REMARK UNBOUND:                -0.403
REMARK SMILES O=c1c(O)c(-c2ccc(O)cc2O)oc2cc(O)cc(O)c12
REMARK SMILES IDX 5 1 3 2 2 3 1 4 22 5 20 6 19 7 17 8 16 9 15 10 14 11 6 12
REMARK SMILES IDX 8 13 7 14 9 15 11 16 12 17 10 18 13 20 4 22 21 24 18 26
REMARK H PARENT 10 19 13 21 4 23 21 25 18 27
REMARK Flexibility Score: inf
ROOT
ATOM      1  C   UNL     1     113.108 107.989 114.300  1.00  0.00     0.184 A 
ATOM      2  C   UNL     1     114.112 108.092 113.322  1.00  0.00     0.208 A 
ATOM      3  C   UNL     1     115.205 107.213 113.374  1.00  0.00     0.238 A 
ATOM      4  O   UNL     1     116.072 107.274 112.464  1.00  0.00    -0.285 OA
ATOM      5  C   UNL     1     115.293 106.257 114.414  1.00  0.00     0.111 A 
ATOM      6  C   UNL     1     116.375 105.344 114.587  1.00  0.00     0.134 A 
ATOM      7  C   UNL     1     116.295 104.356 115.576  1.00  0.00     0.093 A 
ATOM      8  C   UNL     1     115.198 104.290 116.441  1.00  0.00     0.123 A 
ATOM      9  C   UNL     1     114.164 105.214 116.318  1.00  0.00     0.094 A 
ATOM     10  C   UNL     1     114.200 106.188 115.317  1.00  0.00     0.146 A 
ATOM     11  O   UNL     1     113.186 107.042 115.228  1.00  0.00    -0.451 OA
ENDROOT
BRANCH   1  12
ATOM     12  C   UNL     1     111.939 108.899 114.320  1.00  0.00     0.063 A 
ATOM     13  C   UNL     1     110.841 110.904 115.155  1.00  0.00     0.047 A 
ATOM     14  C   UNL     1     111.953 110.060 115.114  1.00  0.00     0.020 A 
ATOM     15  C   UNL     1     109.696 110.596 114.411  1.00  0.00     0.119 A 
ATOM     16  C   UNL     1     109.667 109.438 113.630  1.00  0.00     0.093 A 
ATOM     17  C   UNL     1     110.780 108.585 113.581  1.00  0.00     0.130 A 
BRANCH  15  18
ATOM     18  O   UNL     1     108.581 111.432 114.445  1.00  0.00    -0.508 OA
ATOM     19  H   UNL     1     108.545 112.242 115.053  1.00  0.00     0.293 HD
ENDBRANCH  15  18
BRANCH  17  20
ATOM     20  O   UNL     1     110.739 107.436 112.790  1.00  0.00    -0.507 OA
ATOM     21  H   UNL     1     110.947 106.522 113.171  1.00  0.00     0.293 HD
ENDBRANCH  17  20
ENDBRANCH   1  12
BRANCH   2  22
ATOM     22  O   UNL     1     113.997 109.036 112.298  1.00  0.00    -0.502 OA
ATOM     23  H   UNL     1     114.733 109.698 112.085  1.00  0.00     0.293 HD
ENDBRANCH   2  22
BRANCH   6  24
ATOM     24  O   UNL     1     117.555 105.381 113.838  1.00  0.00    -0.507 OA
ATOM     25  H   UNL     1     118.131 104.579 113.633  1.00  0.00     0.293 HD
ENDBRANCH   6  24
BRANCH   8  26
ATOM     26  O   UNL     1     115.134 103.313 117.433  1.00  0.00    -0.508 OA
ATOM     27  H   UNL     1     114.619 102.452 117.295  1.00  0.00     0.293 HD
ENDBRANCH   8  26
TORSDOF 6
ENDMDL
MODEL 3
REMARK VINA RESULT:    -4.982      1.589      6.864
REMARK INTER + INTRA:          -6.405
REMARK INTER:                  -6.001
REMARK INTRA:                  -0.403
REMARK UNBOUND:                -0.403
REMARK SMILES O=c1c(O)c(-c2ccc(O)cc2O)oc2cc(O)cc(O)c12
REMARK SMILES IDX 5 1 3 2 2 3 1 4 22 5 20 6 19 7 17 8 16 9 15 10 14 11 6 12
REMARK SMILES IDX 8 13 7 14 9 15 11 16 12 17 10 18 13 20 4 22 21 24 18 26
REMARK H PARENT 10 19 13 21 4 23 21 25 18 27
REMARK Flexibility Score: inf
ROOT
ATOM      1  C   UNL     1     109.571 108.781 113.710  1.00  0.00     0.184 A 
ATOM      2  C   UNL     1     110.184 109.793 114.468  1.00  0.00     0.208 A 
ATOM      3  C   UNL     1     111.580 109.784 114.612  1.00  0.00     0.238 A 
ATOM      4  O   UNL     1     112.127 110.725 115.245  1.00  0.00    -0.285 OA
ATOM      5  C   UNL     1     112.344 108.753 114.016  1.00  0.00     0.111 A 
ATOM      6  C   UNL     1     113.760 108.623 114.130  1.00  0.00     0.134 A 
ATOM      7  C   UNL     1     114.426 107.636 113.392  1.00  0.00     0.093 A 
ATOM      8  C   UNL     1     113.718 106.733 112.594  1.00  0.00     0.123 A 
ATOM      9  C   UNL     1     112.329 106.816 112.521  1.00  0.00     0.094 A 
ATOM     10  C   UNL     1     111.642 107.812 113.218  1.00  0.00     0.146 A 
ATOM     11  O   UNL     1     110.319 107.861 113.112  1.00  0.00    -0.451 OA
ENDROOT
BRANCH   1  12
ATOM     12  C   UNL     1     108.101 108.715 113.536  1.00  0.00     0.063 A 
ATOM     13  C   UNL     1     106.076 109.455 112.407  1.00  0.00     0.047 A 
ATOM     14  C   UNL     1     107.464 109.495 112.553  1.00  0.00     0.020 A 
ATOM     15  C   UNL     1     105.302 108.644 113.246  1.00  0.00     0.119 A 
ATOM     16  C   UNL     1     105.924 107.876 114.234  1.00  0.00     0.093 A 
ATOM     17  C   UNL     1     107.318 107.909 114.387  1.00  0.00     0.130 A 
BRANCH  15  18
ATOM     18  O   UNL     1     103.917 108.597 113.108  1.00  0.00    -0.508 OA
ATOM     19  H   UNL     1     103.481 108.299 112.243  1.00  0.00     0.293 HD
ENDBRANCH  15  18
BRANCH  17  20
ATOM     20  O   UNL     1     107.926 107.131 115.374  1.00  0.00    -0.507 OA
ATOM     21  H   UNL     1     108.924 107.170 115.541  1.00  0.00     0.293 HD
ENDBRANCH  17  20
ENDBRANCH   1  12
BRANCH   2  22
ATOM     22  O   UNL     1     109.409 110.808 115.036  1.00  0.00    -0.502 OA
ATOM     23  H   UNL     1     109.105 111.618 114.510  1.00  0.00     0.293 HD
ENDBRANCH   2  22
BRANCH   6  24
ATOM     24  O   UNL     1     114.552 109.413 114.970  1.00  0.00    -0.507 OA
ATOM     25  H   UNL     1     114.259 110.285 115.381  1.00  0.00     0.293 HD
ENDBRANCH   6  24
BRANCH   8  26
ATOM     26  O   UNL     1     114.387 105.745 111.875  1.00  0.00    -0.508 OA
ATOM     27  H   UNL     1     114.738 104.908 112.326  1.00  0.00     0.293 HD
ENDBRANCH   8  26
TORSDOF 6
ENDMDL
MODEL 4
REMARK VINA RESULT:    -4.938      2.208      3.659
REMARK INTER + INTRA:          -6.352
REMARK INTER:                  -6.041
REMARK INTRA:                  -0.311
REMARK UNBOUND:                -0.403
REMARK SMILES O=c1c(O)c(-c2ccc(O)cc2O)oc2cc(O)cc(O)c12
REMARK SMILES IDX 5 1 3 2 2 3 1 4 22 5 20 6 19 7 17 8 16 9 15 10 14 11 6 12
REMARK SMILES IDX 8 13 7 14 9 15 11 16 12 17 10 18 13 20 4 22 21 24 18 26
REMARK H PARENT 10 19 13 21 4 23 21 25 18 27
REMARK Flexibility Score: inf
ROOT
ATOM      1  C   UNL     1     112.223 107.589 114.117  1.00  0.00     0.184 A 
ATOM      2  C   UNL     1     112.313 108.958 114.424  1.00  0.00     0.208 A 
ATOM      3  C   UNL     1     111.136 109.676 114.684  1.00  0.00     0.238 A 
ATOM      4  O   UNL     1     111.228 110.888 115.013  1.00  0.00    -0.285 OA
ATOM      5  C   UNL     1     109.882 109.024 114.614  1.00  0.00     0.111 A 
ATOM      6  C   UNL     1     108.623 109.663 114.819  1.00  0.00     0.134 A 
ATOM      7  C   UNL     1     107.453 108.892 114.851  1.00  0.00     0.093 A 
ATOM      8  C   UNL     1     107.493 107.514 114.621  1.00  0.00     0.123 A 
ATOM      9  C   UNL     1     108.711 106.890 114.362  1.00  0.00     0.094 A 
ATOM     10  C   UNL     1     109.897 107.628 114.359  1.00  0.00     0.146 A 
ATOM     11  O   UNL     1     111.038 106.991 114.118  1.00  0.00    -0.451 OA
ENDROOT
BRANCH   1  12
ATOM     12  C   UNL     1     113.423 106.776 113.809  1.00  0.00     0.063 A 
ATOM     13  C   UNL     1     114.740 105.478 112.227  1.00  0.00     0.047 A 
ATOM     14  C   UNL     1     113.624 106.267 112.513  1.00  0.00     0.020 A 
ATOM     15  C   UNL     1     115.665 105.176 113.234  1.00  0.00     0.119 A 
ATOM     16  C   UNL     1     115.467 105.666 114.527  1.00  0.00     0.093 A 
ATOM     17  C   UNL     1     114.350 106.461 114.823  1.00  0.00     0.130 A 
BRANCH  15  18
ATOM     18  O   UNL     1     116.782 104.389 112.960  1.00  0.00    -0.508 OA
ATOM     19  H   UNL     1     117.189 104.352 112.032  1.00  0.00     0.293 HD
ENDBRANCH  15  18
BRANCH  17  20
ATOM     20  O   UNL     1     114.168 106.949 116.118  1.00  0.00    -0.507 OA
ATOM     21  H   UNL     1     113.245 107.108 116.501  1.00  0.00     0.293 HD
ENDBRANCH  17  20
ENDBRANCH   1  12
BRANCH   2  22
ATOM     22  O   UNL     1     113.564 109.577 114.500  1.00  0.00    -0.502 OA
ATOM     23  H   UNL     1     114.360 109.140 114.949  1.00  0.00     0.293 HD
ENDBRANCH   2  22
BRANCH   6  24
ATOM     24  O   UNL     1     108.463 111.044 114.968  1.00  0.00    -0.507 OA
ATOM     25  H   UNL     1     107.978 111.639 114.314  1.00  0.00     0.293 HD
ENDBRANCH   6  24
BRANCH   8  26
ATOM     26  O   UNL     1     106.323 106.757 114.639  1.00  0.00    -0.508 OA
ATOM     27  H   UNL     1     106.187 106.009 115.308  1.00  0.00     0.293 HD
ENDBRANCH   8  26
TORSDOF 6
ENDMDL
MODEL 5
REMARK VINA RESULT:    -4.718      1.793      2.161
REMARK INTER + INTRA:          -6.086
REMARK INTER:                  -5.603
REMARK INTRA:                  -0.483
REMARK UNBOUND:                -0.403
REMARK SMILES O=c1c(O)c(-c2ccc(O)cc2O)oc2cc(O)cc(O)c12
REMARK SMILES IDX 5 1 3 2 2 3 1 4 22 5 20 6 19 7 17 8 16 9 15 10 14 11 6 12
REMARK SMILES IDX 8 13 7 14 9 15 11 16 12 17 10 18 13 20 4 22 21 24 18 26
REMARK H PARENT 10 19 13 21 4 23 21 25 18 27
REMARK Flexibility Score: inf
ROOT
ATOM      1  C   UNL     1     110.765 108.951 114.459  1.00  0.00     0.184 A 
ATOM      2  C   UNL     1     110.151 108.072 115.368  1.00  0.00     0.208 A 
ATOM      3  C   UNL     1     108.837 108.335 115.786  1.00  0.00     0.238 A 
ATOM      4  O   UNL     1     108.273 107.514 116.556  1.00  0.00    -0.285 OA
ATOM      5  C   UNL     1     108.160 109.482 115.307  1.00  0.00     0.111 A 
ATOM      6  C   UNL     1     106.842 109.866 115.694  1.00  0.00     0.134 A 
ATOM      7  C   UNL     1     106.224 110.951 115.059  1.00  0.00     0.093 A 
ATOM      8  C   UNL     1     106.902 111.704 114.097  1.00  0.00     0.123 A 
ATOM      9  C   UNL     1     108.210 111.372 113.754  1.00  0.00     0.094 A 
ATOM     10  C   UNL     1     108.840 110.274 114.345  1.00  0.00     0.146 A 
ATOM     11  O   UNL     1     110.084 109.986 113.981  1.00  0.00    -0.451 OA
ENDROOT
BRANCH   1  12
ATOM     12  C   UNL     1     112.158 108.748 113.995  1.00  0.00     0.063 A 
ATOM     13  C   UNL     1     114.554 108.949 114.366  1.00  0.00     0.047 A 
ATOM     14  C   UNL     1     113.241 109.114 114.813  1.00  0.00     0.020 A 
ATOM     15  C   UNL     1     114.803 108.426 113.091  1.00  0.00     0.119 A 
ATOM     16  C   UNL     1     113.733 108.072 112.266  1.00  0.00     0.093 A 
ATOM     17  C   UNL     1     112.411 108.232 112.708  1.00  0.00     0.130 A 
BRANCH  15  18
ATOM     18  O   UNL     1     116.109 108.257 112.635  1.00  0.00    -0.508 OA
ATOM     19  H   UNL     1     116.851 107.952 113.255  1.00  0.00     0.293 HD
ENDBRANCH  15  18
BRANCH  17  20
ATOM     20  O   UNL     1     111.352 107.868 111.875  1.00  0.00    -0.507 OA
ATOM     21  H   UNL     1     110.435 108.286 111.968  1.00  0.00     0.293 HD
ENDBRANCH  17  20
ENDBRANCH   1  12
BRANCH   2  22
ATOM     22  O   UNL     1     110.835 106.939 115.817  1.00  0.00    -0.502 OA
ATOM     23  H   UNL     1     111.012 106.140 115.221  1.00  0.00     0.293 HD
ENDBRANCH   2  22
BRANCH   6  24
ATOM     24  O   UNL     1     106.112 109.240 116.709  1.00  0.00    -0.507 OA
ATOM     25  H   UNL     1     106.490 108.960 117.600  1.00  0.00     0.293 HD
ENDBRANCH   6  24
BRANCH   8  26
ATOM     26  O   UNL     1     106.285 112.792 113.481  1.00  0.00    -0.508 OA
ATOM     27  H   UNL     1     105.276 112.860 113.414  1.00  0.00     0.293 HD
ENDBRANCH   8  26
TORSDOF 6
ENDMDL
MODEL 6
REMARK VINA RESULT:    -4.697      2.584      7.546
REMARK INTER + INTRA:          -6.061
REMARK INTER:                  -5.664
REMARK INTRA:                  -0.397
REMARK UNBOUND:                -0.403
REMARK SMILES O=c1c(O)c(-c2ccc(O)cc2O)oc2cc(O)cc(O)c12
REMARK SMILES IDX 5 1 3 2 2 3 1 4 22 5 20 6 19 7 17 8 16 9 15 10 14 11 6 12
REMARK SMILES IDX 8 13 7 14 9 15 11 16 12 17 10 18 13 20 4 22 21 24 18 26
REMARK H PARENT 10 19 13 21 4 23 21 25 18 27
REMARK Flexibility Score: inf
ROOT
ATOM      1  C   UNL     1     111.771 106.949 113.351  1.00  0.00     0.184 A 
ATOM      2  C   UNL     1     112.765 107.925 113.535  1.00  0.00     0.208 A 
ATOM      3  C   UNL     1     114.113 107.551 113.432  1.00  0.00     0.238 A 
ATOM      4  O   UNL     1     114.997 108.441 113.542  1.00  0.00    -0.285 OA
ATOM      5  C   UNL     1     114.453 106.203 113.167  1.00  0.00     0.111 A 
ATOM      6  C   UNL     1     115.787 105.705 113.081  1.00  0.00     0.134 A 
ATOM      7  C   UNL     1     116.006 104.378 112.688  1.00  0.00     0.093 A 
ATOM      8  C   UNL     1     114.935 103.515 112.441  1.00  0.00     0.123 A 
ATOM      9  C   UNL     1     113.629 103.976 112.579  1.00  0.00     0.094 A 
ATOM     10  C   UNL     1     113.380 105.304 112.935  1.00  0.00     0.146 A 
ATOM     11  O   UNL     1     112.119 105.704 113.044  1.00  0.00    -0.451 OA
ENDROOT
BRANCH   1  12
ATOM     12  C   UNL     1     110.329 107.268 113.469  1.00  0.00     0.063 A 
ATOM     13  C   UNL     1     108.356 108.444 112.663  1.00  0.00     0.047 A 
ATOM     14  C   UNL     1     109.709 108.120 112.537  1.00  0.00     0.020 A 
ATOM     15  C   UNL     1     107.606 107.931 113.727  1.00  0.00     0.119 A 
ATOM     16  C   UNL     1     108.216 107.095 114.666  1.00  0.00     0.093 A 
ATOM     17  C   UNL     1     109.573 106.762 114.547  1.00  0.00     0.130 A 
BRANCH  15  18
ATOM     18  O   UNL     1     106.256 108.247 113.863  1.00  0.00    -0.508 OA
ATOM     19  H   UNL     1     105.675 108.446 113.056  1.00  0.00     0.293 HD
ENDBRANCH  15  18
BRANCH  17  20
ATOM     20  O   UNL     1     110.167 105.920 115.488  1.00  0.00    -0.507 OA
ATOM     21  H   UNL     1     110.816 106.273 116.181  1.00  0.00     0.293 HD
ENDBRANCH  17  20
ENDBRANCH   1  12
BRANCH   2  22
ATOM     22  O   UNL     1     112.404 109.252 113.782  1.00  0.00    -0.502 OA
ATOM     23  H   UNL     1     112.958 110.036 113.457  1.00  0.00     0.293 HD
ENDBRANCH   2  22
BRANCH   6  24
ATOM     24  O   UNL     1     116.924 106.457 113.396  1.00  0.00    -0.507 OA
ATOM     25  H   UNL     1     117.417 106.412 114.274  1.00  0.00     0.293 HD
ENDBRANCH   6  24
BRANCH   8  26
ATOM     26  O   UNL     1     115.162 102.192 112.065  1.00  0.00    -0.508 OA
ATOM     27  H   UNL     1     116.100 101.828 111.949  1.00  0.00     0.293 HD
ENDBRANCH   8  26
TORSDOF 6
ENDMDL
MODEL 7
REMARK VINA RESULT:    -4.695      1.727      6.385
REMARK INTER + INTRA:          -6.059
REMARK INTER:                  -5.576
REMARK INTRA:                  -0.483
REMARK UNBOUND:                -0.403
REMARK SMILES O=c1c(O)c(-c2ccc(O)cc2O)oc2cc(O)cc(O)c12
REMARK SMILES IDX 5 1 3 2 2 3 1 4 22 5 20 6 19 7 17 8 16 9 15 10 14 11 6 12
REMARK SMILES IDX 8 13 7 14 9 15 11 16 12 17 10 18 13 20 4 22 21 24 18 26
REMARK H PARENT 10 19 13 21 4 23 21 25 18 27
REMARK Flexibility Score: inf
ROOT
ATOM      1  C   UNL     1     110.299 108.600 113.861  1.00  0.00     0.184 A 
ATOM      2  C   UNL     1     110.148 107.599 114.836  1.00  0.00     0.208 A 
ATOM      3  C   UNL     1     111.262 106.821 115.190  1.00  0.00     0.238 A 
ATOM      4  O   UNL     1     111.133 105.964 116.103  1.00  0.00    -0.285 OA
ATOM      5  C   UNL     1     112.506 107.038 114.551  1.00  0.00     0.111 A 
ATOM      6  C   UNL     1     113.690 106.283 114.803  1.00  0.00     0.134 A 
ATOM      7  C   UNL     1     114.897 106.669 114.206  1.00  0.00     0.093 A 
ATOM      8  C   UNL     1     114.947 107.746 113.316  1.00  0.00     0.123 A 
ATOM      9  C   UNL     1     113.786 108.453 113.019  1.00  0.00     0.094 A 
ATOM     10  C   UNL     1     112.574 108.113 113.627  1.00  0.00     0.146 A 
ATOM     11  O   UNL     1     111.493 108.822 113.323  1.00  0.00    -0.451 OA
ENDROOT
BRANCH   1  12
ATOM     12  C   UNL     1     109.162 109.442 113.422  1.00  0.00     0.063 A 
ATOM     13  C   UNL     1     107.173 109.753 112.054  1.00  0.00     0.047 A 
ATOM     14  C   UNL     1     108.230 108.951 112.489  1.00  0.00     0.020 A 
ATOM     15  C   UNL     1     107.036 111.061 112.536  1.00  0.00     0.119 A 
ATOM     16  C   UNL     1     107.964 111.562 113.453  1.00  0.00     0.093 A 
ATOM     17  C   UNL     1     109.028 110.763 113.897  1.00  0.00     0.130 A 
BRANCH  15  18
ATOM     18  O   UNL     1     105.986 111.869 112.108  1.00  0.00    -0.508 OA
ATOM     19  H   UNL     1     105.503 111.692 111.235  1.00  0.00     0.293 HD
ENDBRANCH  15  18
BRANCH  17  20
ATOM     20  O   UNL     1     109.943 111.275 114.818  1.00  0.00    -0.507 OA
ATOM     21  H   UNL     1     110.139 112.267 114.877  1.00  0.00     0.293 HD
ENDBRANCH  17  20
ENDBRANCH   1  12
BRANCH   2  22
ATOM     22  O   UNL     1     108.913 107.412 115.461  1.00  0.00    -0.502 OA
ATOM     23  H   UNL     1     108.517 106.493 115.618  1.00  0.00     0.293 HD
ENDBRANCH   2  22
BRANCH   6  24
ATOM     24  O   UNL     1     113.729 105.136 115.602  1.00  0.00    -0.507 OA
ATOM     25  H   UNL     1     114.222 105.063 116.479  1.00  0.00     0.293 HD
ENDBRANCH   6  24
BRANCH   8  26
ATOM     26  O   UNL     1     116.150 108.113 112.715  1.00  0.00    -0.508 OA
ATOM     27  H   UNL     1     116.968 107.518 112.759  1.00  0.00     0.293 HD
ENDBRANCH   8  26
TORSDOF 6
ENDMDL
MODEL 8
REMARK VINA RESULT:    -4.668      3.218      5.270
REMARK INTER + INTRA:          -6.027
REMARK INTER:                  -5.547
REMARK INTRA:                  -0.481
REMARK UNBOUND:                -0.403
REMARK SMILES O=c1c(O)c(-c2ccc(O)cc2O)oc2cc(O)cc(O)c12
REMARK SMILES IDX 5 1 3 2 2 3 1 4 22 5 20 6 19 7 17 8 16 9 15 10 14 11 6 12
REMARK SMILES IDX 8 13 7 14 9 15 11 16 12 17 10 18 13 20 4 22 21 24 18 26
REMARK H PARENT 10 19 13 21 4 23 21 25 18 27
REMARK Flexibility Score: inf
ROOT
ATOM      1  C   UNL     1     106.093 109.678 114.294  1.00  0.00     0.184 A 
ATOM      2  C   UNL     1     105.316 109.592 113.127  1.00  0.00     0.208 A 
ATOM      3  C   UNL     1     103.917 109.634 113.237  1.00  0.00     0.238 A 
ATOM      4  O   UNL     1     103.228 109.614 112.183  1.00  0.00    -0.285 OA
ATOM      5  C   UNL     1     103.312 109.739 114.512  1.00  0.00     0.111 A 
ATOM      6  C   UNL     1     101.904 109.751 114.744  1.00  0.00     0.134 A 
ATOM      7  C   UNL     1     101.418 109.987 116.036  1.00  0.00     0.093 A 
ATOM      8  C   UNL     1     102.291 110.150 117.115  1.00  0.00     0.123 A 
ATOM      9  C   UNL     1     103.667 110.082 116.909  1.00  0.00     0.094 A 
ATOM     10  C   UNL     1     104.181 109.883 115.625  1.00  0.00     0.146 A 
ATOM     11  O   UNL     1     105.500 109.837 115.472  1.00  0.00    -0.451 OA
ENDROOT
BRANCH   1  12
ATOM     12  C   UNL     1     107.573 109.616 114.255  1.00  0.00     0.063 A 
ATOM     13  C   UNL     1     109.627 108.316 114.129  1.00  0.00     0.047 A 
ATOM     14  C   UNL     1     108.231 108.378 114.139  1.00  0.00     0.020 A 
ATOM     15  C   UNL     1     110.385 109.487 114.244  1.00  0.00     0.119 A 
ATOM     16  C   UNL     1     109.740 110.720 114.373  1.00  0.00     0.093 A 
ATOM     17  C   UNL     1     108.339 110.793 114.382  1.00  0.00     0.130 A 
BRANCH  15  18
ATOM     18  O   UNL     1     111.777 109.437 114.236  1.00  0.00    -0.508 OA
ATOM     19  H   UNL     1     112.283 108.721 114.744  1.00  0.00     0.293 HD
ENDBRANCH  15  18
BRANCH  17  20
ATOM     20  O   UNL     1     107.709 112.032 114.504  1.00  0.00    -0.507 OA
ATOM     21  H   UNL     1     108.236 112.896 114.526  1.00  0.00     0.293 HD
ENDBRANCH  17  20
ENDBRANCH   1  12
BRANCH   2  22
ATOM     22  O   UNL     1     105.936 109.502 111.878  1.00  0.00    -0.502 OA
ATOM     23  H   UNL     1     106.708 108.872 111.699  1.00  0.00     0.293 HD
ENDBRANCH   2  22
BRANCH   6  24
ATOM     24  O   UNL     1     100.948 109.508 113.753  1.00  0.00    -0.507 OA
ATOM     25  H   UNL     1     100.322 108.717 113.740  1.00  0.00     0.293 HD
ENDBRANCH   6  24
BRANCH   8  26
ATOM     26  O   UNL     1     101.799 110.370 118.400  1.00  0.00    -0.508 OA
ATOM     27  H   UNL     1     100.804 110.428 118.583  1.00  0.00     0.293 HD
ENDBRANCH   8  26
TORSDOF 6
ENDMDL
MODEL 9
REMARK VINA RESULT:    -4.647      2.507      7.840
REMARK INTER + INTRA:          -6.002
REMARK INTER:                  -5.521
REMARK INTRA:                  -0.481
REMARK UNBOUND:                -0.403
REMARK SMILES O=c1c(O)c(-c2ccc(O)cc2O)oc2cc(O)cc(O)c12
REMARK SMILES IDX 5 1 3 2 2 3 1 4 22 5 20 6 19 7 17 8 16 9 15 10 14 11 6 12
REMARK SMILES IDX 8 13 7 14 9 15 11 16 12 17 10 18 13 20 4 22 21 24 18 26
REMARK H PARENT 10 19 13 21 4 23 21 25 18 27
REMARK Flexibility Score: inf
ROOT
ATOM      1  C   UNL     1     106.200 109.471 114.323  1.00  0.00     0.184 A 
ATOM      2  C   UNL     1     106.993 110.620 114.164  1.00  0.00     0.208 A 
ATOM      3  C   UNL     1     108.389 110.500 114.248  1.00  0.00     0.238 A 
ATOM      4  O   UNL     1     109.096 111.523 114.049  1.00  0.00    -0.285 OA
ATOM      5  C   UNL     1     108.974 109.239 114.511  1.00  0.00     0.111 A 
ATOM      6  C   UNL     1     110.375 109.009 114.657  1.00  0.00     0.134 A 
ATOM      7  C   UNL     1     110.850 107.698 114.789  1.00  0.00     0.093 A 
ATOM      8  C   UNL     1     109.969 106.615 114.845  1.00  0.00     0.123 A 
ATOM      9  C   UNL     1     108.596 106.834 114.762  1.00  0.00     0.094 A 
ATOM     10  C   UNL     1     108.095 108.128 114.595  1.00  0.00     0.146 A 
ATOM     11  O   UNL     1     106.780 108.290 114.509  1.00  0.00    -0.451 OA
ENDROOT
BRANCH   1  12
ATOM     12  C   UNL     1     104.720 109.528 114.271  1.00  0.00     0.063 A 
ATOM     13  C   UNL     1     102.593 110.078 115.317  1.00  0.00     0.047 A 
ATOM     14  C   UNL     1     103.989 110.048 115.354  1.00  0.00     0.020 A 
ATOM     15  C   UNL     1     101.907 109.579 114.203  1.00  0.00     0.119 A 
ATOM     16  C   UNL     1     102.625 109.049 113.128  1.00  0.00     0.093 A 
ATOM     17  C   UNL     1     104.027 109.016 113.155  1.00  0.00     0.130 A 
BRANCH  15  18
ATOM     18  O   UNL     1     100.515 109.604 114.155  1.00  0.00    -0.508 OA
ATOM     19  H   UNL     1     100.019 110.155 113.464  1.00  0.00     0.293 HD
ENDBRANCH  15  18
BRANCH  17  20
ATOM     20  O   UNL     1     104.730 108.490 112.071  1.00  0.00    -0.507 OA
ATOM     21  H   UNL     1     104.265 108.238 111.208  1.00  0.00     0.293 HD
ENDBRANCH  17  20
ENDBRANCH   1  12
BRANCH   2  22
ATOM     22  O   UNL     1     106.393 111.852 113.893  1.00  0.00    -0.502 OA
ATOM     23  H   UNL     1     106.816 112.539 113.279  1.00  0.00     0.293 HD
ENDBRANCH   2  22
BRANCH   6  24
ATOM     24  O   UNL     1     111.332 110.027 114.707  1.00  0.00    -0.507 OA
ATOM     25  H   UNL     1     112.312 109.885 114.898  1.00  0.00     0.293 HD
ENDBRANCH   6  24
BRANCH   8  26
ATOM     26  O   UNL     1     110.450 105.315 114.992  1.00  0.00    -0.508 OA
ATOM     27  H   UNL     1     110.370 104.633 114.246  1.00  0.00     0.293 HD
ENDBRANCH   8  26
TORSDOF 6
ENDMDL
