MODEL 1
REMARK VINA RESULT:    -6.153      0.000      0.000
REMARK INTER + INTRA:          -7.464
REMARK INTER:                  -7.232
REMARK INTRA:                  -0.232
REMARK UNBOUND:                -0.232
REMARK SMILES O=C([O-])C=Cc1ccc(O)c(O)c1
REMARK SMILES IDX 6 1 13 2 7 3 11 4 8 5 9 6 5 7 4 8 2 9 1 10 3 11 12 12 10 14
REMARK H PARENT 12 13 10 15
REMARK Flexibility Score: inf
ROOT
ATOM      1  C   UNL     1      13.540  51.523  -5.509  1.00  0.00    -0.022 A 
ATOM      2  C   UNL     1      12.812  50.425  -5.996  1.00  0.00     0.058 A 
ATOM      3  C   UNL     1      13.600  51.747  -4.126  1.00  0.00     0.012 A 
ATOM      4  C   UNL     1      12.107  49.591  -5.115  1.00  0.00     0.157 A 
ATOM      5  C   UNL     1      12.898  50.918  -3.246  1.00  0.00     0.051 A 
ATOM      6  C   UNL     1      12.148  49.843  -3.733  1.00  0.00     0.157 A 
ENDROOT
BRANCH   1   7
ATOM      7  C   UNL     1      14.331  52.380  -6.415  1.00  0.00     0.010 C 
ATOM      8  C   UNL     1      13.875  53.475  -7.044  1.00  0.00     0.025 C 
BRANCH   8   9
ATOM      9  C   UNL     1      12.572  54.122  -6.799  1.00  0.00     0.064 C 
ATOM     10  O   UNL     1      11.753  54.234  -7.748  1.00  0.00    -0.545 OA
ATOM     11  O   UNL     1      12.257  54.675  -5.563  1.00  0.00    -0.545 OA
ENDBRANCH   8   9
ENDBRANCH   1   7
BRANCH   4  12
ATOM     12  O   UNL     1      11.372  48.513  -5.608  1.00  0.00    -0.504 OA
ATOM     13  H   UNL     1      11.366  48.282  -6.594  1.00  0.00     0.293 HD
ENDBRANCH   4  12
BRANCH   6  14
ATOM     14  O   UNL     1      11.456  49.036  -2.832  1.00  0.00    -0.504 OA
ATOM     15  H   UNL     1      10.548  48.641  -3.050  1.00  0.00     0.293 HD
ENDBRANCH   6  14
TORSDOF 4
ENDMDL
MODEL 2
REMARK VINA RESULT:    -5.804     10.717     12.300
REMARK INTER + INTRA:          -7.054
REMARK INTER:                  -7.154
REMARK INTRA:                   0.100
REMARK UNBOUND:                -0.232
REMARK SMILES O=C([O-])C=Cc1ccc(O)c(O)c1
REMARK SMILES IDX 6 1 13 2 7 3 11 4 8 5 9 6 5 7 4 8 2 9 1 10 3 11 12 12 10 14
REMARK H PARENT 12 13 10 15
REMARK Flexibility Score: inf
ROOT
ATOM      1  C   UNL     1      10.151  54.758   5.907  1.00  0.00    -0.022 A 
ATOM      2  C   UNL     1      11.385  55.067   5.309  1.00  0.00     0.058 A 
ATOM      3  C   UNL     1       9.907  55.169   7.224  1.00  0.00     0.012 A 
ATOM      4  C   UNL     1      12.382  55.732   6.037  1.00  0.00     0.157 A 
ATOM      5  C   UNL     1      10.899  55.831   7.953  1.00  0.00     0.051 A 
ATOM      6  C   UNL     1      12.138  56.111   7.368  1.00  0.00     0.157 A 
ENDROOT
BRANCH   1   7
ATOM      7  C   UNL     1       9.071  54.105   5.141  1.00  0.00     0.010 C 
ATOM      8  C   UNL     1       8.412  54.651   4.106  1.00  0.00     0.025 C 
BRANCH   8   9
ATOM      9  C   UNL     1       8.774  55.913   3.432  1.00  0.00     0.064 C 
ATOM     10  O   UNL     1       7.996  56.898   3.514  1.00  0.00    -0.545 OA
ATOM     11  O   UNL     1       9.918  56.017   2.649  1.00  0.00    -0.545 OA
ENDBRANCH   8   9
ENDBRANCH   1   7
BRANCH   4  12
ATOM     12  O   UNL     1      13.610  56.020   5.442  1.00  0.00    -0.504 OA
ATOM     13  H   UNL     1      14.452  55.515   5.691  1.00  0.00     0.293 HD
ENDBRANCH   4  12
BRANCH   6  14
ATOM     14  O   UNL     1      13.109  56.771   8.120  1.00  0.00    -0.504 OA
ATOM     15  H   UNL     1      13.426  56.420   9.016  1.00  0.00     0.293 HD
ENDBRANCH   6  14
TORSDOF 4
ENDMDL
MODEL 3
REMARK VINA RESULT:    -5.683      1.188      2.262
REMARK INTER + INTRA:          -6.912
REMARK INTER:                  -6.687
REMARK INTRA:                  -0.224
REMARK UNBOUND:                -0.232
REMARK SMILES O=C([O-])C=Cc1ccc(O)c(O)c1
REMARK SMILES IDX 6 1 13 2 7 3 11 4 8 5 9 6 5 7 4 8 2 9 1 10 3 11 12 12 10 14
REMARK H PARENT 12 13 10 15
REMARK Flexibility Score: inf
ROOT
ATOM      1  C   UNL     1      13.927  51.974  -5.837  1.00  0.00    -0.022 A 
ATOM      2  C   UNL     1      14.060  52.293  -4.475  1.00  0.00     0.058 A 
ATOM      3  C   UNL     1      13.106  50.902  -6.212  1.00  0.00     0.012 A 
ATOM      4  C   UNL     1      13.422  51.517  -3.496  1.00  0.00     0.157 A 
ATOM      5  C   UNL     1      12.469  50.127  -5.239  1.00  0.00     0.051 A 
ATOM      6  C   UNL     1      12.625  50.425  -3.882  1.00  0.00     0.157 A 
ENDROOT
BRANCH   1   7
ATOM      7  C   UNL     1      14.548  52.810  -6.884  1.00  0.00     0.010 C 
ATOM      8  C   UNL     1      14.007  53.915  -7.420  1.00  0.00     0.025 C 
BRANCH   8   9
ATOM      9  C   UNL     1      12.791  54.594  -6.932  1.00  0.00     0.064 C 
ATOM     10  O   UNL     1      12.846  55.261  -5.867  1.00  0.00    -0.545 OA
ATOM     11  O   UNL     1      11.571  54.455  -7.583  1.00  0.00    -0.545 OA
ENDBRANCH   8   9
ENDBRANCH   1   7
BRANCH   4  12
ATOM     12  O   UNL     1      13.572  51.831  -2.146  1.00  0.00    -0.504 OA
ATOM     13  H   UNL     1      12.782  52.099  -1.572  1.00  0.00     0.293 HD
ENDBRANCH   4  12
BRANCH   6  14
ATOM     14  O   UNL     1      11.980  49.632  -2.935  1.00  0.00    -0.504 OA
ATOM     15  H   UNL     1      11.665  50.004  -2.046  1.00  0.00     0.293 HD
ENDBRANCH   6  14
TORSDOF 4
ENDMDL
MODEL 4
REMARK VINA RESULT:    -5.635     10.776     12.420
REMARK INTER + INTRA:          -6.856
REMARK INTER:                  -6.823
REMARK INTRA:                  -0.033
REMARK UNBOUND:                -0.232
REMARK SMILES O=C([O-])C=Cc1ccc(O)c(O)c1
REMARK SMILES IDX 6 1 13 2 7 3 11 4 8 5 9 6 5 7 4 8 2 9 1 10 3 11 12 12 10 14
REMARK H PARENT 12 13 10 15
REMARK Flexibility Score: inf
ROOT
ATOM      1  C   UNL     1      10.673  54.890   5.693  1.00  0.00    -0.022 A 
ATOM      2  C   UNL     1      10.490  55.172   7.058  1.00  0.00     0.058 A 
ATOM      3  C   UNL     1      11.864  55.283   5.066  1.00  0.00     0.012 A 
ATOM      4  C   UNL     1      11.463  55.886   7.774  1.00  0.00     0.157 A 
ATOM      5  C   UNL     1      12.835  55.994   5.777  1.00  0.00     0.051 A 
ATOM      6  C   UNL     1      12.639  56.302   7.127  1.00  0.00     0.157 A 
ENDROOT
BRANCH   1   7
ATOM      7  C   UNL     1       9.686  54.096   4.936  1.00  0.00     0.010 C 
ATOM      8  C   UNL     1       8.925  54.554   3.929  1.00  0.00     0.025 C 
BRANCH   8   9
ATOM      9  C   UNL     1       9.073  55.870   3.278  1.00  0.00     0.064 C 
ATOM     10  O   UNL     1       8.208  56.759   3.485  1.00  0.00    -0.545 OA
ATOM     11  O   UNL     1      10.106  56.125   2.383  1.00  0.00    -0.545 OA
ENDBRANCH   8   9
ENDBRANCH   1   7
BRANCH   4  12
ATOM     12  O   UNL     1      11.266  56.176   9.123  1.00  0.00    -0.504 OA
ATOM     13  H   UNL     1      11.980  55.987   9.817  1.00  0.00     0.293 HD
ENDBRANCH   4  12
BRANCH   6  14
ATOM     14  O   UNL     1      13.624  57.015   7.809  1.00  0.00    -0.504 OA
ATOM     15  H   UNL     1      13.432  57.903   8.258  1.00  0.00     0.293 HD
ENDBRANCH   6  14
TORSDOF 4
ENDMDL
MODEL 5
REMARK VINA RESULT:    -5.549     10.635     11.734
REMARK INTER + INTRA:          -6.754
REMARK INTER:                  -6.489
REMARK INTRA:                  -0.265
REMARK UNBOUND:                -0.232
REMARK SMILES O=C([O-])C=Cc1ccc(O)c(O)c1
REMARK SMILES IDX 6 1 13 2 7 3 11 4 8 5 9 6 5 7 4 8 2 9 1 10 3 11 12 12 10 14
REMARK H PARENT 12 13 10 15
REMARK Flexibility Score: inf
ROOT
ATOM      1  C   UNL     1      10.778  55.366   4.286  1.00  0.00    -0.022 A 
ATOM      2  C   UNL     1       9.983  56.181   3.462  1.00  0.00     0.058 A 
ATOM      3  C   UNL     1      10.157  54.471   5.168  1.00  0.00     0.012 A 
ATOM      4  C   UNL     1       8.584  56.141   3.558  1.00  0.00     0.157 A 
ATOM      5  C   UNL     1       8.763  54.429   5.267  1.00  0.00     0.051 A 
ATOM      6  C   UNL     1       7.973  55.263   4.469  1.00  0.00     0.157 A 
ENDROOT
BRANCH   1   7
ATOM      7  C   UNL     1      12.250  55.355   4.162  1.00  0.00     0.010 C 
ATOM      8  C   UNL     1      13.095  56.120   4.871  1.00  0.00     0.025 C 
BRANCH   8   9
ATOM      9  C   UNL     1      12.723  56.964   6.023  1.00  0.00     0.064 C 
ATOM     10  O   UNL     1      12.791  58.215   5.917  1.00  0.00    -0.545 OA
ATOM     11  O   UNL     1      12.369  56.406   7.247  1.00  0.00    -0.545 OA
ENDBRANCH   8   9
ENDBRANCH   1   7
BRANCH   4  12
ATOM     12  O   UNL     1       7.804  56.966   2.750  1.00  0.00    -0.504 OA
ATOM     13  H   UNL     1       7.041  56.597   2.195  1.00  0.00     0.293 HD
ENDBRANCH   4  12
BRANCH   6  14
ATOM     14  O   UNL     1       6.586  55.201   4.591  1.00  0.00    -0.504 OA
ATOM     15  H   UNL     1       6.000  54.794   3.872  1.00  0.00     0.293 HD
ENDBRANCH   6  14
TORSDOF 4
ENDMDL
MODEL 6
REMARK VINA RESULT:    -5.516      1.535      2.702
REMARK INTER + INTRA:          -6.716
REMARK INTER:                  -6.479
REMARK INTRA:                  -0.237
REMARK UNBOUND:                -0.232
REMARK SMILES O=C([O-])C=Cc1ccc(O)c(O)c1
REMARK SMILES IDX 6 1 13 2 7 3 11 4 8 5 9 6 5 7 4 8 2 9 1 10 3 11 12 12 10 14
REMARK H PARENT 12 13 10 15
REMARK Flexibility Score: inf
ROOT
ATOM      1  C   UNL     1      13.527  51.329  -3.970  1.00  0.00    -0.022 A 
ATOM      2  C   UNL     1      12.879  50.472  -3.064  1.00  0.00     0.058 A 
ATOM      3  C   UNL     1      13.310  51.165  -5.345  1.00  0.00     0.012 A 
ATOM      4  C   UNL     1      12.066  49.429  -3.530  1.00  0.00     0.157 A 
ATOM      5  C   UNL     1      12.500  50.125  -5.811  1.00  0.00     0.051 A 
ATOM      6  C   UNL     1      11.879  49.253  -4.911  1.00  0.00     0.157 A 
ENDROOT
BRANCH   1   7
ATOM      7  C   UNL     1      14.345  52.465  -3.498  1.00  0.00     0.010 C 
ATOM      8  C   UNL     1      13.966  53.752  -3.505  1.00  0.00     0.025 C 
BRANCH   8   9
ATOM      9  C   UNL     1      12.607  54.241  -3.804  1.00  0.00     0.064 C 
ATOM     10  O   UNL     1      11.741  54.250  -2.891  1.00  0.00    -0.545 OA
ATOM     11  O   UNL     1      12.239  54.624  -5.090  1.00  0.00    -0.545 OA
ENDBRANCH   8   9
ENDBRANCH   1   7
BRANCH   4  12
ATOM     12  O   UNL     1      11.440  48.573  -2.625  1.00  0.00    -0.504 OA
ATOM     13  H   UNL     1      10.568  48.108  -2.849  1.00  0.00     0.293 HD
ENDBRANCH   4  12
BRANCH   6  14
ATOM     14  O   UNL     1      11.079  48.224  -5.406  1.00  0.00    -0.504 OA
ATOM     15  H   UNL     1      10.836  48.157  -6.388  1.00  0.00     0.293 HD
ENDBRANCH   6  14
TORSDOF 4
ENDMDL
MODEL 7
REMARK VINA RESULT:    -5.483     10.734     12.183
REMARK INTER + INTRA:          -6.676
REMARK INTER:                  -6.406
REMARK INTRA:                  -0.270
REMARK UNBOUND:                -0.232
REMARK SMILES O=C([O-])C=Cc1ccc(O)c(O)c1
REMARK SMILES IDX 6 1 13 2 7 3 11 4 8 5 9 6 5 7 4 8 2 9 1 10 3 11 12 12 10 14
REMARK H PARENT 12 13 10 15
REMARK Flexibility Score: inf
ROOT
ATOM      1  C   UNL     1      11.736  55.680   5.206  1.00  0.00    -0.022 A 
ATOM      2  C   UNL     1      11.017  56.029   4.050  1.00  0.00     0.058 A 
ATOM      3  C   UNL     1      11.073  55.028   6.255  1.00  0.00     0.012 A 
ATOM      4  C   UNL     1       9.640  55.779   3.966  1.00  0.00     0.157 A 
ATOM      5  C   UNL     1       9.700  54.778   6.174  1.00  0.00     0.051 A 
ATOM      6  C   UNL     1       8.978  55.153   5.037  1.00  0.00     0.157 A 
ENDROOT
BRANCH   1   7
ATOM      7  C   UNL     1      13.196  55.888   5.292  1.00  0.00     0.010 C 
ATOM      8  C   UNL     1      13.798  56.957   5.836  1.00  0.00     0.025 C 
BRANCH   8   9
ATOM      9  C   UNL     1      13.124  58.018   6.608  1.00  0.00     0.064 C 
ATOM     10  O   UNL     1      12.825  59.099   6.037  1.00  0.00    -0.545 OA
ATOM     11  O   UNL     1      12.875  57.880   7.969  1.00  0.00    -0.545 OA
ENDBRANCH   8   9
ENDBRANCH   1   7
BRANCH   4  12
ATOM     12  O   UNL     1       8.930  56.144   2.823  1.00  0.00    -0.504 OA
ATOM     13  H   UNL     1       8.977  55.596   1.972  1.00  0.00     0.293 HD
ENDBRANCH   4  12
BRANCH   6  14
ATOM     14  O   UNL     1       7.610  54.893   4.986  1.00  0.00    -0.504 OA
ATOM     15  H   UNL     1       7.244  53.985   4.722  1.00  0.00     0.293 HD
ENDBRANCH   6  14
TORSDOF 4
ENDMDL
MODEL 8
REMARK VINA RESULT:    -5.444     12.004     13.542
REMARK INTER + INTRA:          -6.631
REMARK INTER:                  -6.407
REMARK INTRA:                  -0.224
REMARK UNBOUND:                -0.232
REMARK SMILES O=C([O-])C=Cc1ccc(O)c(O)c1
REMARK SMILES IDX 6 1 13 2 7 3 11 4 8 5 9 6 5 7 4 8 2 9 1 10 3 11 12 12 10 14
REMARK H PARENT 12 13 10 15
REMARK Flexibility Score: inf
ROOT
ATOM      1  C   UNL     1      12.008  55.752   7.663  1.00  0.00    -0.022 A 
ATOM      2  C   UNL     1      12.054  55.394   6.305  1.00  0.00     0.058 A 
ATOM      3  C   UNL     1      10.780  55.723   8.339  1.00  0.00     0.012 A 
ATOM      4  C   UNL     1      10.877  55.062   5.617  1.00  0.00     0.157 A 
ATOM      5  C   UNL     1       9.606  55.394   7.655  1.00  0.00     0.051 A 
ATOM      6  C   UNL     1       9.647  55.067   6.296  1.00  0.00     0.157 A 
ENDROOT
BRANCH   1   7
ATOM      7  C   UNL     1      13.241  56.054   8.418  1.00  0.00     0.010 C 
ATOM      8  C   UNL     1      13.934  57.201   8.350  1.00  0.00     0.025 C 
BRANCH   8   9
ATOM      9  C   UNL     1      13.490  58.428   7.661  1.00  0.00     0.064 C 
ATOM     10  O   UNL     1      13.673  58.538   6.421  1.00  0.00    -0.545 OA
ATOM     11  O   UNL     1      12.940  59.496   8.362  1.00  0.00    -0.545 OA
ENDBRANCH   8   9
ENDBRANCH   1   7
BRANCH   4  12
ATOM     12  O   UNL     1      10.929  54.724   4.265  1.00  0.00    -0.504 OA
ATOM     13  H   UNL     1      11.358  55.336   3.581  1.00  0.00     0.293 HD
ENDBRANCH   4  12
BRANCH   6  14
ATOM     14  O   UNL     1       8.460  54.745   5.640  1.00  0.00    -0.504 OA
ATOM     15  H   UNL     1       8.447  54.198   4.787  1.00  0.00     0.293 HD
ENDBRANCH   6  14
TORSDOF 4
ENDMDL
MODEL 9
REMARK VINA RESULT:    -5.244     10.705     11.635
REMARK INTER + INTRA:          -6.396
REMARK INTER:                  -6.395
REMARK INTRA:                  -0.001
REMARK UNBOUND:                -0.232
REMARK SMILES O=C([O-])C=Cc1ccc(O)c(O)c1
REMARK SMILES IDX 6 1 13 2 7 3 11 4 8 5 9 6 5 7 4 8 2 9 1 10 3 11 12 12 10 14
REMARK H PARENT 12 13 10 15
REMARK Flexibility Score: inf
ROOT
ATOM      1  C   UNL     1      11.348  55.316   4.039  1.00  0.00    -0.022 A 
ATOM      2  C   UNL     1      10.889  54.994   5.327  1.00  0.00     0.058 A 
ATOM      3  C   UNL     1      10.422  55.685   3.054  1.00  0.00     0.012 A 
ATOM      4  C   UNL     1       9.515  54.989   5.613  1.00  0.00     0.157 A 
ATOM      5  C   UNL     1       9.053  55.681   3.335  1.00  0.00     0.051 A 
ATOM      6  C   UNL     1       8.593  55.330   4.609  1.00  0.00     0.157 A 
ENDROOT
BRANCH   1   7
ATOM      7  C   UNL     1      12.791  55.378   3.733  1.00  0.00     0.010 C 
ATOM      8  C   UNL     1      13.679  56.188   4.331  1.00  0.00     0.025 C 
BRANCH   8   9
ATOM      9  C   UNL     1      13.412  57.018   5.521  1.00  0.00     0.064 C 
ATOM     10  O   UNL     1      12.848  58.134   5.378  1.00  0.00    -0.545 OA
ATOM     11  O   UNL     1      13.834  56.630   6.788  1.00  0.00    -0.545 OA
ENDBRANCH   8   9
ENDBRANCH   1   7
BRANCH   4  12
ATOM     12  O   UNL     1       9.067  54.652   6.889  1.00  0.00    -0.504 OA
ATOM     13  H   UNL     1       8.196  55.014   7.259  1.00  0.00     0.293 HD
ENDBRANCH   4  12
BRANCH   6  14
ATOM     14  O   UNL     1       7.222  55.332   4.859  1.00  0.00    -0.504 OA
ATOM     15  H   UNL     1       6.548  55.028   4.167  1.00  0.00     0.293 HD
ENDBRANCH   6  14
TORSDOF 4
ENDMDL
