MODEL 1
REMARK VINA RESULT:    -3.552      0.000      0.000
REMARK INTER + INTRA:          -9.679
REMARK INTER:                  -6.874
REMARK INTRA:                  -2.805
REMARK UNBOUND:                -2.805
REMARK SMILES CCCCCCCCCCCCCCCCCC(=O)[O-]
REMARK SMILES IDX 10 1 11 2 12 3 13 4 14 5 15 6 16 7 17 8 18 9 19 10 20 11
REMARK SMILES IDX 9 12 8 13 7 14 6 15 5 16 4 17 3 18 2 19 1 20
REMARK H PARENT
REMARK Flexibility Score: inf
ROOT
ATOM      1  C   UNL     1      23.146  34.580  11.187  1.00  0.00     0.000 C 
ENDROOT
BRANCH   1   2
ATOM      2  C   UNL     1      22.709  35.011  12.596  1.00  0.00     0.000 C 
BRANCH   2   3
ATOM      3  C   UNL     1      22.742  33.822  13.567  1.00  0.00     0.000 C 
BRANCH   3   4
ATOM      4  C   UNL     1      21.782  33.991  14.759  1.00  0.00     0.000 C 
BRANCH   4   5
ATOM      5  C   UNL     1      21.317  35.434  15.026  1.00  0.00     0.000 C 
BRANCH   5   6
ATOM      6  C   UNL     1      22.231  36.186  16.009  1.00  0.00     0.000 C 
BRANCH   6   7
ATOM      7  C   UNL     1      22.615  37.591  15.507  1.00  0.00     0.006 C 
BRANCH   7   8
ATOM      8  C   UNL     1      24.108  37.764  15.189  1.00  0.00     0.053 C 
BRANCH   8   9
ATOM      9  C   UNL     1      24.406  39.111  14.601  1.00  0.00     0.041 C 
ATOM     10  O   UNL     1      25.148  39.921  15.217  1.00  0.00    -0.550 OA
ATOM     11  O   UNL     1      23.891  39.456  13.358  1.00  0.00    -0.550 OA
ENDBRANCH   8   9
ENDBRANCH   7   8
ENDBRANCH   6   7
ENDBRANCH   5   6
ENDBRANCH   4   5
ENDBRANCH   3   4
ENDBRANCH   2   3
ENDBRANCH   1   2
BRANCH   1  12
ATOM     12  C   UNL     1      23.538  33.096  11.115  1.00  0.00     0.000 C 
BRANCH  12  13
ATOM     13  C   UNL     1      25.047  32.890  10.920  1.00  0.00    -0.000 C 
BRANCH  13  14
ATOM     14  C   UNL     1      25.652  32.121  12.104  1.00  0.00    -0.000 C 
BRANCH  14  15
ATOM     15  C   UNL     1      26.888  32.818  12.694  1.00  0.00    -0.000 C 
BRANCH  15  16
ATOM     16  C   UNL     1      26.820  34.347  12.575  1.00  0.00    -0.000 C 
BRANCH  16  17
ATOM     17  C   UNL     1      26.147  34.963  13.811  1.00  0.00    -0.000 C 
BRANCH  17  18
ATOM     18  C   UNL     1      26.545  34.258  15.117  1.00  0.00    -0.000 C 
BRANCH  18  19
ATOM     19  C   UNL     1      25.331  33.876  15.977  1.00  0.00    -0.003 C 
ATOM     20  C   UNL     1      25.166  32.361  16.054  1.00  0.00     0.004 C 
ENDBRANCH  18  19
ENDBRANCH  17  18
ENDBRANCH  16  17
ENDBRANCH  15  16
ENDBRANCH  14  15
ENDBRANCH  13  14
ENDBRANCH  12  13
ENDBRANCH   1  12
TORSDOF 16
ENDMDL
MODEL 2
REMARK VINA RESULT:    -3.339      0.907      3.264
REMARK INTER + INTRA:          -9.267
REMARK INTER:                  -6.831
REMARK INTRA:                  -2.437
REMARK UNBOUND:                -2.805
REMARK SMILES CCCCCCCCCCCCCCCCCC(=O)[O-]
REMARK SMILES IDX 10 1 11 2 12 3 13 4 14 5 15 6 16 7 17 8 18 9 19 10 20 11
REMARK SMILES IDX 9 12 8 13 7 14 6 15 5 16 4 17 3 18 2 19 1 20
REMARK H PARENT
REMARK Flexibility Score: inf
ROOT
ATOM      1  C   UNL     1      23.476  32.728  16.125  1.00  0.00     0.000 C 
ENDROOT
BRANCH   1   2
ATOM      2  C   UNL     1      22.525  32.194  15.044  1.00  0.00     0.000 C 
BRANCH   2   3
ATOM      3  C   UNL     1      21.120  32.791  15.206  1.00  0.00     0.000 C 
BRANCH   3   4
ATOM      4  C   UNL     1      21.126  34.163  15.904  1.00  0.00     0.000 C 
BRANCH   4   5
ATOM      5  C   UNL     1      21.272  35.376  14.967  1.00  0.00     0.000 C 
BRANCH   5   6
ATOM      6  C   UNL     1      22.163  36.484  15.555  1.00  0.00     0.000 C 
BRANCH   6   7
ATOM      7  C   UNL     1      23.283  36.919  14.591  1.00  0.00     0.006 C 
BRANCH   7   8
ATOM      8  C   UNL     1      24.397  37.749  15.247  1.00  0.00     0.053 C 
BRANCH   8   9
ATOM      9  C   UNL     1      24.450  39.147  14.708  1.00  0.00     0.041 C 
ATOM     10  O   UNL     1      23.843  39.438  13.643  1.00  0.00    -0.550 OA
ATOM     11  O   UNL     1      25.139  40.134  15.400  1.00  0.00    -0.550 OA
ENDBRANCH   8   9
ENDBRANCH   7   8
ENDBRANCH   6   7
ENDBRANCH   5   6
ENDBRANCH   4   5
ENDBRANCH   3   4
ENDBRANCH   2   3
ENDBRANCH   1   2
BRANCH   1  12
ATOM     12  C   UNL     1      24.948  32.704  15.684  1.00  0.00     0.000 C 
BRANCH  12  13
ATOM     13  C   UNL     1      25.669  34.033  15.950  1.00  0.00    -0.000 C 
BRANCH  13  14
ATOM     14  C   UNL     1      26.703  34.325  14.852  1.00  0.00    -0.000 C 
BRANCH  14  15
ATOM     15  C   UNL     1      26.055  34.777  13.533  1.00  0.00    -0.000 C 
BRANCH  15  16
ATOM     16  C   UNL     1      26.602  34.019  12.314  1.00  0.00    -0.000 C 
BRANCH  16  17
ATOM     17  C   UNL     1      26.049  32.587  12.266  1.00  0.00    -0.000 C 
BRANCH  17  18
ATOM     18  C   UNL     1      24.535  32.543  12.008  1.00  0.00    -0.000 C 
BRANCH  18  19
ATOM     19  C   UNL     1      24.081  33.581  10.970  1.00  0.00    -0.003 C 
ATOM     20  C   UNL     1      22.948  34.445  11.517  1.00  0.00     0.004 C 
ENDBRANCH  18  19
ENDBRANCH  17  18
ENDBRANCH  16  17
ENDBRANCH  15  16
ENDBRANCH  14  15
ENDBRANCH  13  14
ENDBRANCH  12  13
ENDBRANCH   1  12
TORSDOF 16
ENDMDL
MODEL 3
REMARK VINA RESULT:    -3.183      2.511      4.954
REMARK INTER + INTRA:          -8.965
REMARK INTER:                  -6.643
REMARK INTRA:                  -2.322
REMARK UNBOUND:                -2.805
REMARK SMILES CCCCCCCCCCCCCCCCCC(=O)[O-]
REMARK SMILES IDX 10 1 11 2 12 3 13 4 14 5 15 6 16 7 17 8 18 9 19 10 20 11
REMARK SMILES IDX 9 12 8 13 7 14 6 15 5 16 4 17 3 18 2 19 1 20
REMARK H PARENT
REMARK Flexibility Score: inf
ROOT
ATOM      1  C   UNL     1      26.371  32.722  12.224  1.00  0.00     0.000 C 
ENDROOT
BRANCH   1   2
ATOM      2  C   UNL     1      25.496  31.848  11.314  1.00  0.00     0.000 C 
BRANCH   2   3
ATOM      3  C   UNL     1      24.314  32.652  10.753  1.00  0.00     0.000 C 
BRANCH   3   4
ATOM      4  C   UNL     1      24.116  34.005  11.461  1.00  0.00     0.000 C 
BRANCH   4   5
ATOM      5  C   UNL     1      22.650  34.430  11.664  1.00  0.00     0.000 C 
BRANCH   5   6
ATOM      6  C   UNL     1      22.220  34.414  13.141  1.00  0.00     0.000 C 
BRANCH   6   7
ATOM      7  C   UNL     1      22.777  33.199  13.907  1.00  0.00     0.006 C 
BRANCH   7   8
ATOM      8  C   UNL     1      22.401  33.164  15.398  1.00  0.00     0.053 C 
BRANCH   8   9
ATOM      9  C   UNL     1      20.957  33.495  15.622  1.00  0.00     0.041 C 
ATOM     10  O   UNL     1      20.071  32.616  15.452  1.00  0.00    -0.550 OA
ATOM     11  O   UNL     1      20.593  34.764  16.053  1.00  0.00    -0.550 OA
ENDBRANCH   8   9
ENDBRANCH   7   8
ENDBRANCH   6   7
ENDBRANCH   5   6
ENDBRANCH   4   5
ENDBRANCH   3   4
ENDBRANCH   2   3
ENDBRANCH   1   2
BRANCH   1  12
ATOM     12  C   UNL     1      26.577  32.108  13.618  1.00  0.00     0.000 C 
BRANCH  12  13
ATOM     13  C   UNL     1      26.006  32.984  14.742  1.00  0.00    -0.000 C 
BRANCH  13  14
ATOM     14  C   UNL     1      26.597  34.401  14.686  1.00  0.00    -0.000 C 
BRANCH  14  15
ATOM     15  C   UNL     1      25.541  35.471  14.370  1.00  0.00    -0.000 C 
BRANCH  15  16
ATOM     16  C   UNL     1      24.904  36.068  15.634  1.00  0.00    -0.000 C 
BRANCH  16  17
ATOM     17  C   UNL     1      23.564  36.744  15.306  1.00  0.00    -0.000 C 
BRANCH  17  18
ATOM     18  C   UNL     1      23.524  38.220  15.730  1.00  0.00    -0.000 C 
BRANCH  18  19
ATOM     19  C   UNL     1      24.498  39.094  14.924  1.00  0.00    -0.003 C 
ATOM     20  C   UNL     1      24.071  39.187  13.462  1.00  0.00     0.004 C 
ENDBRANCH  18  19
ENDBRANCH  17  18
ENDBRANCH  16  17
ENDBRANCH  15  16
ENDBRANCH  14  15
ENDBRANCH  13  14
ENDBRANCH  12  13
ENDBRANCH   1  12
TORSDOF 16
ENDMDL
MODEL 4
REMARK VINA RESULT:    -3.081      1.877      5.298
REMARK INTER + INTRA:          -8.768
REMARK INTER:                  -6.680
REMARK INTRA:                  -2.088
REMARK UNBOUND:                -2.805
REMARK SMILES CCCCCCCCCCCCCCCCCC(=O)[O-]
REMARK SMILES IDX 10 1 11 2 12 3 13 4 14 5 15 6 16 7 17 8 18 9 19 10 20 11
REMARK SMILES IDX 9 12 8 13 7 14 6 15 5 16 4 17 3 18 2 19 1 20
REMARK H PARENT
REMARK Flexibility Score: inf
ROOT
ATOM      1  C   UNL     1      23.543  34.691  12.205  1.00  0.00     0.000 C 
ENDROOT
BRANCH   1   2
ATOM      2  C   UNL     1      23.629  33.592  11.135  1.00  0.00     0.000 C 
BRANCH   2   3
ATOM      3  C   UNL     1      25.084  33.158  10.910  1.00  0.00     0.000 C 
BRANCH   3   4
ATOM      4  C   UNL     1      25.310  31.655  11.159  1.00  0.00     0.000 C 
BRANCH   4   5
ATOM      5  C   UNL     1      24.946  31.162  12.572  1.00  0.00     0.000 C 
BRANCH   5   6
ATOM      6  C   UNL     1      26.118  31.267  13.563  1.00  0.00     0.000 C 
BRANCH   6   7
ATOM      7  C   UNL     1      25.695  31.853  14.923  1.00  0.00     0.006 C 
BRANCH   7   8
ATOM      8  C   UNL     1      26.583  33.005  15.421  1.00  0.00     0.053 C 
BRANCH   8   9
ATOM      9  C   UNL     1      26.244  34.305  14.756  1.00  0.00     0.041 C 
ATOM     10  O   UNL     1      26.773  34.609  13.655  1.00  0.00    -0.550 OA
ATOM     11  O   UNL     1      25.319  35.163  15.337  1.00  0.00    -0.550 OA
ENDBRANCH   8   9
ENDBRANCH   7   8
ENDBRANCH   6   7
ENDBRANCH   5   6
ENDBRANCH   4   5
ENDBRANCH   3   4
ENDBRANCH   2   3
ENDBRANCH   1   2
BRANCH   1  12
ATOM     12  C   UNL     1      22.269  34.590  13.058  1.00  0.00     0.000 C 
BRANCH  12  13
ATOM     13  C   UNL     1      22.401  33.579  14.205  1.00  0.00    -0.000 C 
BRANCH  13  14
ATOM     14  C   UNL     1      21.853  34.163  15.516  1.00  0.00    -0.000 C 
BRANCH  14  15
ATOM     15  C   UNL     1      21.377  35.616  15.364  1.00  0.00    -0.000 C 
BRANCH  15  16
ATOM     16  C   UNL     1      22.262  36.614  16.125  1.00  0.00    -0.000 C 
BRANCH  16  17
ATOM     17  C   UNL     1      22.806  37.696  15.180  1.00  0.00    -0.000 C 
BRANCH  17  18
ATOM     18  C   UNL     1      23.966  38.493  15.796  1.00  0.00    -0.000 C 
BRANCH  18  19
ATOM     19  C   UNL     1      24.586  39.494  14.809  1.00  0.00    -0.003 C 
ATOM     20  C   UNL     1      24.248  39.126  13.367  1.00  0.00     0.004 C 
ENDBRANCH  18  19
ENDBRANCH  17  18
ENDBRANCH  16  17
ENDBRANCH  15  16
ENDBRANCH  14  15
ENDBRANCH  13  14
ENDBRANCH  12  13
ENDBRANCH   1  12
TORSDOF 16
ENDMDL
MODEL 5
REMARK VINA RESULT:    -2.896      1.094      3.351
REMARK INTER + INTRA:          -8.410
REMARK INTER:                  -6.212
REMARK INTRA:                  -2.198
REMARK UNBOUND:                -2.805
REMARK SMILES CCCCCCCCCCCCCCCCCC(=O)[O-]
REMARK SMILES IDX 10 1 11 2 12 3 13 4 14 5 15 6 16 7 17 8 18 9 19 10 20 11
REMARK SMILES IDX 9 12 8 13 7 14 6 15 5 16 4 17 3 18 2 19 1 20
REMARK H PARENT
REMARK Flexibility Score: inf
ROOT
ATOM      1  C   UNL     1      25.087  34.418  15.894  1.00  0.00     0.000 C 
ENDROOT
BRANCH   1   2
ATOM      2  C   UNL     1      23.784  33.607  15.855  1.00  0.00     0.000 C 
BRANCH   2   3
ATOM      3  C   UNL     1      23.114  33.709  14.477  1.00  0.00     0.000 C 
BRANCH   3   4
ATOM      4  C   UNL     1      22.257  34.979  14.317  1.00  0.00     0.000 C 
BRANCH   4   5
ATOM      5  C   UNL     1      21.816  35.643  15.635  1.00  0.00     0.000 C 
BRANCH   5   6
ATOM      6  C   UNL     1      22.157  37.142  15.694  1.00  0.00     0.000 C 
BRANCH   6   7
ATOM      7  C   UNL     1      23.636  37.400  16.035  1.00  0.00     0.006 C 
BRANCH   7   8
ATOM      8  C   UNL     1      24.507  37.784  14.828  1.00  0.00     0.053 C 
BRANCH   8   9
ATOM      9  C   UNL     1      24.400  39.242  14.497  1.00  0.00     0.041 C 
ATOM     10  O   UNL     1      23.691  39.621  13.527  1.00  0.00    -0.550 OA
ATOM     11  O   UNL     1      25.054  40.184  15.281  1.00  0.00    -0.550 OA
ENDBRANCH   8   9
ENDBRANCH   7   8
ENDBRANCH   6   7
ENDBRANCH   5   6
ENDBRANCH   4   5
ENDBRANCH   3   4
ENDBRANCH   2   3
ENDBRANCH   1   2
BRANCH   1  12
ATOM     12  C   UNL     1      26.261  33.687  15.225  1.00  0.00     0.000 C 
BRANCH  12  13
ATOM     13  C   UNL     1      26.403  32.234  15.700  1.00  0.00    -0.000 C 
BRANCH  13  14
ATOM     14  C   UNL     1      26.570  31.281  14.506  1.00  0.00    -0.000 C 
BRANCH  14  15
ATOM     15  C   UNL     1      25.227  30.875  13.880  1.00  0.00    -0.000 C 
BRANCH  15  16
ATOM     16  C   UNL     1      25.184  31.111  12.363  1.00  0.00    -0.000 C 
BRANCH  16  17
ATOM     17  C   UNL     1      26.175  32.211  11.951  1.00  0.00    -0.000 C 
BRANCH  17  18
ATOM     18  C   UNL     1      25.476  33.513  11.533  1.00  0.00    -0.000 C 
BRANCH  18  19
ATOM     19  C   UNL     1      24.278  33.270  10.602  1.00  0.00    -0.003 C 
ATOM     20  C   UNL     1      23.151  34.259  10.886  1.00  0.00     0.004 C 
ENDBRANCH  18  19
ENDBRANCH  17  18
ENDBRANCH  16  17
ENDBRANCH  15  16
ENDBRANCH  14  15
ENDBRANCH  13  14
ENDBRANCH  12  13
ENDBRANCH   1  12
TORSDOF 16
ENDMDL
MODEL 6
REMARK VINA RESULT:    -2.792      1.346      2.730
REMARK INTER + INTRA:          -8.209
REMARK INTER:                  -6.346
REMARK INTRA:                  -1.863
REMARK UNBOUND:                -2.805
REMARK SMILES CCCCCCCCCCCCCCCCCC(=O)[O-]
REMARK SMILES IDX 10 1 11 2 12 3 13 4 14 5 15 6 16 7 17 8 18 9 19 10 20 11
REMARK SMILES IDX 9 12 8 13 7 14 6 15 5 16 4 17 3 18 2 19 1 20
REMARK H PARENT
REMARK Flexibility Score: inf
ROOT
ATOM      1  C   UNL     1      24.197  33.114  10.600  1.00  0.00     0.000 C 
ENDROOT
BRANCH   1   2
ATOM      2  C   UNL     1      23.202  34.267  10.802  1.00  0.00     0.000 C 
BRANCH   2   3
ATOM      3  C   UNL     1      22.570  34.206  12.200  1.00  0.00     0.000 C 
BRANCH   3   4
ATOM      4  C   UNL     1      23.190  35.214  13.186  1.00  0.00     0.000 C 
BRANCH   4   5
ATOM      5  C   UNL     1      22.273  35.649  14.343  1.00  0.00     0.000 C 
BRANCH   5   6
ATOM      6  C   UNL     1      23.050  36.230  15.537  1.00  0.00     0.000 C 
BRANCH   6   7
ATOM      7  C   UNL     1      24.509  36.575  15.184  1.00  0.00     0.006 C 
BRANCH   7   8
ATOM      8  C   UNL     1      24.661  37.606  14.054  1.00  0.00     0.053 C 
BRANCH   8   9
ATOM      9  C   UNL     1      24.333  38.995  14.511  1.00  0.00     0.041 C 
ATOM     10  O   UNL     1      24.717  39.398  15.640  1.00  0.00    -0.550 OA
ATOM     11  O   UNL     1      23.632  39.855  13.675  1.00  0.00    -0.550 OA
ENDBRANCH   8   9
ENDBRANCH   7   8
ENDBRANCH   6   7
ENDBRANCH   5   6
ENDBRANCH   4   5
ENDBRANCH   3   4
ENDBRANCH   2   3
ENDBRANCH   1   2
BRANCH   1  12
ATOM     12  C   UNL     1      25.569  33.398  11.232  1.00  0.00     0.000 C 
BRANCH  12  13
ATOM     13  C   UNL     1      25.882  32.466  12.412  1.00  0.00    -0.000 C 
BRANCH  13  14
ATOM     14  C   UNL     1      26.288  33.274  13.654  1.00  0.00    -0.000 C 
BRANCH  14  15
ATOM     15  C   UNL     1      26.040  32.509  14.964  1.00  0.00    -0.000 C 
BRANCH  15  16
ATOM     16  C   UNL     1      24.712  32.894  15.634  1.00  0.00    -0.000 C 
BRANCH  16  17
ATOM     17  C   UNL     1      23.562  32.018  15.113  1.00  0.00    -0.000 C 
BRANCH  17  18
ATOM     18  C   UNL     1      22.327  32.057  16.026  1.00  0.00    -0.000 C 
BRANCH  18  19
ATOM     19  C   UNL     1      21.044  32.435  15.269  1.00  0.00    -0.003 C 
ATOM     20  C   UNL     1      19.810  31.857  15.957  1.00  0.00     0.004 C 
ENDBRANCH  18  19
ENDBRANCH  17  18
ENDBRANCH  16  17
ENDBRANCH  15  16
ENDBRANCH  14  15
ENDBRANCH  13  14
ENDBRANCH  12  13
ENDBRANCH   1  12
TORSDOF 16
ENDMDL
MODEL 7
REMARK VINA RESULT:    -2.628      2.803      6.138
REMARK INTER + INTRA:          -7.891
REMARK INTER:                  -6.017
REMARK INTRA:                  -1.874
REMARK UNBOUND:                -2.805
REMARK SMILES CCCCCCCCCCCCCCCCCC(=O)[O-]
REMARK SMILES IDX 10 1 11 2 12 3 13 4 14 5 15 6 16 7 17 8 18 9 19 10 20 11
REMARK SMILES IDX 9 12 8 13 7 14 6 15 5 16 4 17 3 18 2 19 1 20
REMARK H PARENT
REMARK Flexibility Score: inf
ROOT
ATOM      1  C   UNL     1      24.884  36.113  14.873  1.00  0.00     0.000 C 
ENDROOT
BRANCH   1   2
ATOM      2  C   UNL     1      25.498  35.333  16.045  1.00  0.00     0.000 C 
BRANCH   2   3
ATOM      3  C   UNL     1      26.535  34.317  15.544  1.00  0.00     0.000 C 
BRANCH   3   4
ATOM      4  C   UNL     1      26.066  32.857  15.687  1.00  0.00     0.000 C 
BRANCH   4   5
ATOM      5  C   UNL     1      25.493  32.224  14.407  1.00  0.00     0.000 C 
BRANCH   5   6
ATOM      6  C   UNL     1      26.507  32.187  13.251  1.00  0.00     0.000 C 
BRANCH   6   7
ATOM      7  C   UNL     1      26.237  33.269  12.189  1.00  0.00     0.006 C 
BRANCH   7   8
ATOM      8  C   UNL     1      24.797  33.806  12.184  1.00  0.00     0.053 C 
BRANCH   8   9
ATOM      9  C   UNL     1      24.101  33.542  10.883  1.00  0.00     0.041 C 
ATOM     10  O   UNL     1      23.180  34.305  10.490  1.00  0.00    -0.550 OA
ATOM     11  O   UNL     1      24.495  32.472  10.089  1.00  0.00    -0.550 OA
ENDBRANCH   8   9
ENDBRANCH   7   8
ENDBRANCH   6   7
ENDBRANCH   5   6
ENDBRANCH   4   5
ENDBRANCH   3   4
ENDBRANCH   2   3
ENDBRANCH   1   2
BRANCH   1  12
ATOM     12  C   UNL     1      24.027  37.301  15.335  1.00  0.00     0.000 C 
BRANCH  12  13
ATOM     13  C   UNL     1      22.529  37.093  15.067  1.00  0.00    -0.000 C 
BRANCH  13  14
ATOM     14  C   UNL     1      21.924  36.105  16.077  1.00  0.00    -0.000 C 
BRANCH  14  15
ATOM     15  C   UNL     1      21.203  34.931  15.397  1.00  0.00    -0.000 C 
BRANCH  15  16
ATOM     16  C   UNL     1      22.142  33.756  15.089  1.00  0.00    -0.000 C 
BRANCH  16  17
ATOM     17  C   UNL     1      21.469  32.414  15.418  1.00  0.00    -0.000 C 
BRANCH  17  18
ATOM     18  C   UNL     1      19.952  32.547  15.625  1.00  0.00    -0.000 C 
BRANCH  18  19
ATOM     19  C   UNL     1      19.186  31.279  15.217  1.00  0.00    -0.003 C 
ATOM     20  C   UNL     1      17.713  31.585  14.962  1.00  0.00     0.004 C 
ENDBRANCH  18  19
ENDBRANCH  17  18
ENDBRANCH  16  17
ENDBRANCH  15  16
ENDBRANCH  14  15
ENDBRANCH  13  14
ENDBRANCH  12  13
ENDBRANCH   1  12
TORSDOF 16
ENDMDL
MODEL 8
REMARK VINA RESULT:    -2.517      3.069      6.034
REMARK INTER + INTRA:          -7.677
REMARK INTER:                  -5.995
REMARK INTRA:                  -1.682
REMARK UNBOUND:                -2.805
REMARK SMILES CCCCCCCCCCCCCCCCCC(=O)[O-]
REMARK SMILES IDX 10 1 11 2 12 3 13 4 14 5 15 6 16 7 17 8 18 9 19 10 20 11
REMARK SMILES IDX 9 12 8 13 7 14 6 15 5 16 4 17 3 18 2 19 1 20
REMARK H PARENT
REMARK Flexibility Score: inf
ROOT
ATOM      1  C   UNL     1      22.716  35.200  12.523  1.00  0.00     0.000 C 
ENDROOT
BRANCH   1   2
ATOM      2  C   UNL     1      23.245  33.794  12.202  1.00  0.00     0.000 C 
BRANCH   2   3
ATOM      3  C   UNL     1      23.819  33.736  10.779  1.00  0.00     0.000 C 
BRANCH   3   4
ATOM      4  C   UNL     1      24.766  32.542  10.560  1.00  0.00     0.000 C 
BRANCH   4   5
ATOM      5  C   UNL     1      25.920  32.426  11.573  1.00  0.00     0.000 C 
BRANCH   5   6
ATOM      6  C   UNL     1      26.512  33.790  11.966  1.00  0.00     0.000 C 
BRANCH   6   7
ATOM      7  C   UNL     1      26.676  33.949  13.489  1.00  0.00     0.006 C 
BRANCH   7   8
ATOM      8  C   UNL     1      26.314  32.695  14.300  1.00  0.00     0.053 C 
BRANCH   8   9
ATOM      9  C   UNL     1      25.535  33.029  15.536  1.00  0.00     0.041 C 
ATOM     10  O   UNL     1      24.866  32.138  16.123  1.00  0.00    -0.550 OA
ATOM     11  O   UNL     1      25.576  34.315  16.057  1.00  0.00    -0.550 OA
ENDBRANCH   8   9
ENDBRANCH   7   8
ENDBRANCH   6   7
ENDBRANCH   5   6
ENDBRANCH   4   5
ENDBRANCH   3   4
ENDBRANCH   2   3
ENDBRANCH   1   2
BRANCH   1  12
ATOM     12  C   UNL     1      23.538  35.909  13.610  1.00  0.00     0.000 C 
BRANCH  12  13
ATOM     13  C   UNL     1      22.705  36.256  14.852  1.00  0.00    -0.000 C 
BRANCH  13  14
ATOM     14  C   UNL     1      21.575  35.235  15.057  1.00  0.00    -0.000 C 
BRANCH  14  15
ATOM     15  C   UNL     1      21.964  34.109  16.029  1.00  0.00    -0.000 C 
BRANCH  15  16
ATOM     16  C   UNL     1      21.448  32.734  15.580  1.00  0.00    -0.000 C 
BRANCH  16  17
ATOM     17  C   UNL     1      19.926  32.633  15.763  1.00  0.00    -0.000 C 
BRANCH  17  18
ATOM     18  C   UNL     1      19.340  31.345  15.165  1.00  0.00    -0.000 C 
BRANCH  18  19
ATOM     19  C   UNL     1      18.073  30.875  15.896  1.00  0.00    -0.003 C 
ATOM     20  C   UNL     1      16.847  30.978  14.992  1.00  0.00     0.004 C 
ENDBRANCH  18  19
ENDBRANCH  17  18
ENDBRANCH  16  17
ENDBRANCH  15  16
ENDBRANCH  14  15
ENDBRANCH  13  14
ENDBRANCH  12  13
ENDBRANCH   1  12
TORSDOF 16
ENDMDL
MODEL 9
REMARK VINA RESULT:    -2.344      2.835      6.216
REMARK INTER + INTRA:          -7.342
REMARK INTER:                  -5.577
REMARK INTRA:                  -1.765
REMARK UNBOUND:                -2.805
REMARK SMILES CCCCCCCCCCCCCCCCCC(=O)[O-]
REMARK SMILES IDX 10 1 11 2 12 3 13 4 14 5 15 6 16 7 17 8 18 9 19 10 20 11
REMARK SMILES IDX 9 12 8 13 7 14 6 15 5 16 4 17 3 18 2 19 1 20
REMARK H PARENT
REMARK Flexibility Score: inf
ROOT
ATOM      1  C   UNL     1      24.180  36.337  13.870  1.00  0.00     0.000 C 
ENDROOT
BRANCH   1   2
ATOM      2  C   UNL     1      25.409  35.498  14.250  1.00  0.00     0.000 C 
BRANCH   2   3
ATOM      3  C   UNL     1      25.074  34.513  15.379  1.00  0.00     0.000 C 
BRANCH   3   4
ATOM      4  C   UNL     1      26.000  33.284  15.400  1.00  0.00     0.000 C 
BRANCH   4   5
ATOM      5  C   UNL     1      25.283  31.923  15.477  1.00  0.00     0.000 C 
BRANCH   5   6
ATOM      6  C   UNL     1      25.096  31.266  14.098  1.00  0.00     0.000 C 
BRANCH   6   7
ATOM      7  C   UNL     1      26.173  31.696  13.085  1.00  0.00     0.006 C 
BRANCH   7   8
ATOM      8  C   UNL     1      25.875  31.292  11.632  1.00  0.00     0.053 C 
BRANCH   8   9
ATOM      9  C   UNL     1      25.083  32.338  10.908  1.00  0.00     0.041 C 
ATOM     10  O   UNL     1      25.040  33.517  11.348  1.00  0.00    -0.550 OA
ATOM     11  O   UNL     1      24.421  32.018   9.730  1.00  0.00    -0.550 OA
ENDBRANCH   8   9
ENDBRANCH   7   8
ENDBRANCH   6   7
ENDBRANCH   5   6
ENDBRANCH   4   5
ENDBRANCH   3   4
ENDBRANCH   2   3
ENDBRANCH   1   2
BRANCH   1  12
ATOM     12  C   UNL     1      24.052  37.617  14.712  1.00  0.00     0.000 C 
BRANCH  12  13
ATOM     13  C   UNL     1      22.669  37.764  15.362  1.00  0.00    -0.000 C 
BRANCH  13  14
ATOM     14  C   UNL     1      22.281  36.486  16.120  1.00  0.00    -0.000 C 
BRANCH  14  15
ATOM     15  C   UNL     1      21.220  35.657  15.379  1.00  0.00    -0.000 C 
BRANCH  15  16
ATOM     16  C   UNL     1      20.971  34.290  16.034  1.00  0.00    -0.000 C 
BRANCH  16  17
ATOM     17  C   UNL     1      21.742  33.182  15.301  1.00  0.00    -0.000 C 
BRANCH  17  18
ATOM     18  C   UNL     1      21.113  31.794  15.493  1.00  0.00    -0.000 C 
BRANCH  18  19
ATOM     19  C   UNL     1      19.712  31.861  16.121  1.00  0.00    -0.003 C 
ATOM     20  C   UNL     1      18.631  31.565  15.085  1.00  0.00     0.004 C 
ENDBRANCH  18  19
ENDBRANCH  17  18
ENDBRANCH  16  17
ENDBRANCH  15  16
ENDBRANCH  14  15
ENDBRANCH  13  14
ENDBRANCH  12  13
ENDBRANCH   1  12
TORSDOF 16
ENDMDL
