MODEL 1
REMARK VINA RESULT:    -2.876      0.000      0.000
REMARK INTER + INTRA:          -9.231
REMARK INTER:                  -6.239
REMARK INTRA:                  -2.992
REMARK UNBOUND:                -2.992
REMARK SMILES CCCCCCCCCCCCCCCCCCCCCC(=O)[O-]
REMARK SMILES IDX 12 1 11 2 10 3 9 4 8 5 7 6 6 7 5 8 4 9 3 10 2 11 1 12 13 13
REMARK SMILES IDX 14 14 15 15 16 16 17 17 18 18 19 19 20 20 21 21 22 22 23 23
REMARK SMILES IDX 24 24
REMARK H PARENT
REMARK Flexibility Score: inf
ROOT
ATOM      1  C   UNL     1      10.020 -29.017  18.406  1.00  0.00     0.000 C 
ENDROOT
BRANCH   1   2
ATOM      2  C   UNL     1       9.902 -27.984  17.275  1.00  0.00     0.000 C 
BRANCH   2   3
ATOM      3  C   UNL     1      10.052 -28.615  15.881  1.00  0.00     0.000 C 
BRANCH   3   4
ATOM      4  C   UNL     1      11.436 -28.365  15.262  1.00  0.00    -0.000 C 
BRANCH   4   5
ATOM      5  C   UNL     1      11.477 -28.843  13.805  1.00  0.00    -0.000 C 
BRANCH   5   6
ATOM      6  C   UNL     1      10.143 -29.477  13.395  1.00  0.00    -0.000 C 
BRANCH   6   7
ATOM      7  C   UNL     1      10.344 -30.497  12.263  1.00  0.00    -0.000 C 
BRANCH   7   8
ATOM      8  C   UNL     1      11.145 -31.736  12.707  1.00  0.00    -0.000 C 
BRANCH   8   9
ATOM      9  C   UNL     1      10.591 -33.082  12.210  1.00  0.00    -0.000 C 
BRANCH   9  10
ATOM     10  C   UNL     1      10.639 -34.181  13.287  1.00  0.00    -0.000 C 
BRANCH  10  11
ATOM     11  C   UNL     1       9.397 -35.087  13.261  1.00  0.00    -0.003 C 
ATOM     12  C   UNL     1       8.361 -34.646  12.226  1.00  0.00     0.004 C 
ENDBRANCH  10  11
ENDBRANCH   9  10
ENDBRANCH   8   9
ENDBRANCH   7   8
ENDBRANCH   6   7
ENDBRANCH   5   6
ENDBRANCH   4   5
ENDBRANCH   3   4
ENDBRANCH   2   3
ENDBRANCH   1   2
BRANCH   1  13
ATOM     13  C   UNL     1       8.705 -29.116  19.196  1.00  0.00     0.000 C 
BRANCH  13  14
ATOM     14  C   UNL     1       7.664 -30.019  18.513  1.00  0.00     0.000 C 
BRANCH  14  15
ATOM     15  C   UNL     1       6.581 -29.271  17.712  1.00  0.00     0.000 C 
BRANCH  15  16
ATOM     16  C   UNL     1       6.005 -30.082  16.531  1.00  0.00     0.000 C 
BRANCH  16  17
ATOM     17  C   UNL     1       6.806 -29.874  15.232  1.00  0.00     0.000 C 
BRANCH  17  18
ATOM     18  C   UNL     1       7.006 -31.178  14.446  1.00  0.00     0.000 C 
BRANCH  18  19
ATOM     19  C   UNL     1       8.030 -32.114  15.110  1.00  0.00     0.000 C 
BRANCH  19  20
ATOM     20  C   UNL     1       7.367 -33.301  15.828  1.00  0.00     0.006 C 
BRANCH  20  21
ATOM     21  C   UNL     1       7.437 -33.177  17.356  1.00  0.00     0.053 C 
BRANCH  21  22
ATOM     22  C   UNL     1       6.998 -34.450  18.007  1.00  0.00     0.041 C 
ATOM     23  O   UNL     1       6.057 -35.125  17.506  1.00  0.00    -0.550 OA
ATOM     24  O   UNL     1       7.595 -34.871  19.189  1.00  0.00    -0.550 OA
ENDBRANCH  21  22
ENDBRANCH  20  21
ENDBRANCH  19  20
ENDBRANCH  18  19
ENDBRANCH  17  18
ENDBRANCH  16  17
ENDBRANCH  15  16
ENDBRANCH  14  15
ENDBRANCH  13  14
ENDBRANCH   1  13
TORSDOF 20
ENDMDL
MODEL 2
REMARK VINA RESULT:    -2.832      2.277      4.783
REMARK INTER + INTRA:          -9.135
REMARK INTER:                  -6.895
REMARK INTRA:                  -2.239
REMARK UNBOUND:                -2.992
REMARK SMILES CCCCCCCCCCCCCCCCCCCCCC(=O)[O-]
REMARK SMILES IDX 12 1 11 2 10 3 9 4 8 5 7 6 6 7 5 8 4 9 3 10 2 11 1 12 13 13
REMARK SMILES IDX 14 14 15 15 16 16 17 17 18 18 19 19 20 20 21 21 22 22 23 23
REMARK SMILES IDX 24 24
REMARK H PARENT
REMARK Flexibility Score: inf
ROOT
ATOM      1  C   UNL     1       7.081 -29.345  18.086  1.00  0.00     0.000 C 
ENDROOT
BRANCH   1   2
ATOM      2  C   UNL     1       6.660 -30.596  17.299  1.00  0.00     0.000 C 
BRANCH   2   3
ATOM      3  C   UNL     1       7.839 -31.540  17.014  1.00  0.00     0.000 C 
BRANCH   3   4
ATOM      4  C   UNL     1       7.531 -33.001  17.372  1.00  0.00    -0.000 C 
BRANCH   4   5
ATOM      5  C   UNL     1       6.562 -33.620  16.356  1.00  0.00    -0.000 C 
BRANCH   5   6
ATOM      6  C   UNL     1       7.031 -33.363  14.920  1.00  0.00    -0.000 C 
BRANCH   6   7
ATOM      7  C   UNL     1       6.680 -34.548  14.006  1.00  0.00    -0.000 C 
BRANCH   7   8
ATOM      8  C   UNL     1       7.905 -35.125  13.272  1.00  0.00    -0.000 C 
BRANCH   8   9
ATOM      9  C   UNL     1       8.812 -34.080  12.599  1.00  0.00    -0.000 C 
BRANCH   9  10
ATOM     10  C   UNL     1      10.154 -34.670  12.129  1.00  0.00    -0.000 C 
BRANCH  10  11
ATOM     11  C   UNL     1      11.225 -34.649  13.231  1.00  0.00    -0.003 C 
ATOM     12  C   UNL     1      11.736 -33.240  13.537  1.00  0.00     0.004 C 
ENDBRANCH  10  11
ENDBRANCH   9  10
ENDBRANCH   8   9
ENDBRANCH   7   8
ENDBRANCH   6   7
ENDBRANCH   5   6
ENDBRANCH   4   5
ENDBRANCH   3   4
ENDBRANCH   2   3
ENDBRANCH   1   2
BRANCH   1  13
ATOM     13  C   UNL     1       8.542 -29.455  18.548  1.00  0.00     0.000 C 
BRANCH  13  14
ATOM     14  C   UNL     1       9.293 -28.115  18.477  1.00  0.00     0.000 C 
BRANCH  14  15
ATOM     15  C   UNL     1      10.353 -28.022  17.362  1.00  0.00     0.000 C 
BRANCH  15  16
ATOM     16  C   UNL     1       9.960 -28.760  16.065  1.00  0.00     0.000 C 
BRANCH  16  17
ATOM     17  C   UNL     1      10.950 -28.491  14.916  1.00  0.00     0.000 C 
BRANCH  17  18
ATOM     18  C   UNL     1      10.834 -29.523  13.783  1.00  0.00     0.000 C 
BRANCH  18  19
ATOM     19  C   UNL     1       9.375 -29.913  13.490  1.00  0.00     0.000 C 
BRANCH  19  20
ATOM     20  C   UNL     1       8.961 -29.603  12.042  1.00  0.00     0.006 C 
BRANCH  20  21
ATOM     21  C   UNL     1       7.461 -29.303  11.911  1.00  0.00     0.053 C 
BRANCH  21  22
ATOM     22  C   UNL     1       6.650 -30.399  12.525  1.00  0.00     0.041 C 
ATOM     23  O   UNL     1       6.420 -31.456  11.875  1.00  0.00    -0.550 OA
ATOM     24  O   UNL     1       6.112 -30.241  13.796  1.00  0.00    -0.550 OA
ENDBRANCH  21  22
ENDBRANCH  20  21
ENDBRANCH  19  20
ENDBRANCH  18  19
ENDBRANCH  17  18
ENDBRANCH  16  17
ENDBRANCH  15  16
ENDBRANCH  14  15
ENDBRANCH  13  14
ENDBRANCH   1  13
TORSDOF 20
ENDMDL
MODEL 3
REMARK VINA RESULT:    -2.708      1.884      5.776
REMARK INTER + INTRA:          -8.867
REMARK INTER:                  -5.836
REMARK INTRA:                  -3.031
REMARK UNBOUND:                -2.992
REMARK SMILES CCCCCCCCCCCCCCCCCCCCCC(=O)[O-]
REMARK SMILES IDX 12 1 11 2 10 3 9 4 8 5 7 6 6 7 5 8 4 9 3 10 2 11 1 12 13 13
REMARK SMILES IDX 14 14 15 15 16 16 17 17 18 18 19 19 20 20 21 21 22 22 23 23
REMARK SMILES IDX 24 24
REMARK H PARENT
REMARK Flexibility Score: inf
ROOT
ATOM      1  C   UNL     1      10.301 -33.165  13.738  1.00  0.00     0.000 C 
ENDROOT
BRANCH   1   2
ATOM      2  C   UNL     1       9.003 -33.835  13.262  1.00  0.00     0.000 C 
BRANCH   2   3
ATOM      3  C   UNL     1       8.244 -32.988  12.227  1.00  0.00     0.000 C 
BRANCH   3   4
ATOM      4  C   UNL     1       6.758 -33.361  12.129  1.00  0.00    -0.000 C 
BRANCH   4   5
ATOM      5  C   UNL     1       5.886 -32.327  12.851  1.00  0.00    -0.000 C 
BRANCH   5   6
ATOM      6  C   UNL     1       6.699 -31.081  13.220  1.00  0.00    -0.000 C 
BRANCH   6   7
ATOM      7  C   UNL     1       6.482 -30.700  14.694  1.00  0.00    -0.000 C 
BRANCH   7   8
ATOM      8  C   UNL     1       6.103 -31.905  15.576  1.00  0.00    -0.000 C 
BRANCH   8   9
ATOM      9  C   UNL     1       7.293 -32.730  16.098  1.00  0.00    -0.000 C 
BRANCH   9  10
ATOM     10  C   UNL     1       6.910 -33.656  17.266  1.00  0.00    -0.000 C 
BRANCH  10  11
ATOM     11  C   UNL     1       7.919 -33.593  18.424  1.00  0.00    -0.003 C 
ATOM     12  C   UNL     1       7.799 -34.778  19.383  1.00  0.00     0.004 C 
ENDBRANCH  10  11
ENDBRANCH   9  10
ENDBRANCH   8   9
ENDBRANCH   7   8
ENDBRANCH   6   7
ENDBRANCH   5   6
ENDBRANCH   4   5
ENDBRANCH   3   4
ENDBRANCH   2   3
ENDBRANCH   1   2
BRANCH   1  13
ATOM     13  C   UNL     1      11.067 -32.554  12.554  1.00  0.00     0.000 C 
BRANCH  13  14
ATOM     14  C   UNL     1      11.437 -31.078  12.780  1.00  0.00     0.000 C 
BRANCH  14  15
ATOM     15  C   UNL     1      10.242 -30.106  12.811  1.00  0.00     0.000 C 
BRANCH  15  16
ATOM     16  C   UNL     1      10.034 -29.414  14.175  1.00  0.00     0.000 C 
BRANCH  16  17
ATOM     17  C   UNL     1      11.227 -28.519  14.564  1.00  0.00     0.000 C 
BRANCH  17  18
ATOM     18  C   UNL     1      11.328 -28.297  16.080  1.00  0.00     0.000 C 
BRANCH  18  19
ATOM     19  C   UNL     1       9.995 -27.842  16.699  1.00  0.00     0.000 C 
BRANCH  19  20
ATOM     20  C   UNL     1       9.608 -28.665  17.939  1.00  0.00     0.006 C 
BRANCH  20  21
ATOM     21  C   UNL     1       8.708 -29.860  17.593  1.00  0.00     0.053 C 
BRANCH  21  22
ATOM     22  C   UNL     1       7.480 -29.857  18.448  1.00  0.00     0.041 C 
ATOM     23  O   UNL     1       6.444 -29.249  18.064  1.00  0.00    -0.550 OA
ATOM     24  O   UNL     1       7.491 -30.487  19.686  1.00  0.00    -0.550 OA
ENDBRANCH  21  22
ENDBRANCH  20  21
ENDBRANCH  19  20
ENDBRANCH  18  19
ENDBRANCH  17  18
ENDBRANCH  16  17
ENDBRANCH  15  16
ENDBRANCH  14  15
ENDBRANCH  13  14
ENDBRANCH   1  13
TORSDOF 20
ENDMDL
MODEL 4
REMARK VINA RESULT:    -2.601      1.624      3.848
REMARK INTER + INTRA:          -8.635
REMARK INTER:                  -5.866
REMARK INTRA:                  -2.769
REMARK UNBOUND:                -2.992
REMARK SMILES CCCCCCCCCCCCCCCCCCCCCC(=O)[O-]
REMARK SMILES IDX 12 1 11 2 10 3 9 4 8 5 7 6 6 7 5 8 4 9 3 10 2 11 1 12 13 13
REMARK SMILES IDX 14 14 15 15 16 16 17 17 18 18 19 19 20 20 21 21 22 22 23 23
REMARK SMILES IDX 24 24
REMARK H PARENT
REMARK Flexibility Score: inf
ROOT
ATOM      1  C   UNL     1      11.274 -29.160  13.784  1.00  0.00     0.000 C 
ENDROOT
BRANCH   1   2
ATOM      2  C   UNL     1      10.155 -28.969  12.748  1.00  0.00     0.000 C 
BRANCH   2   3
ATOM      3  C   UNL     1       8.772 -29.359  13.294  1.00  0.00     0.000 C 
BRANCH   3   4
ATOM      4  C   UNL     1       7.704 -29.447  12.194  1.00  0.00    -0.000 C 
BRANCH   4   5
ATOM      5  C   UNL     1       7.362 -30.909  11.880  1.00  0.00    -0.000 C 
BRANCH   5   6
ATOM      6  C   UNL     1       6.077 -31.341  12.598  1.00  0.00    -0.000 C 
BRANCH   6   7
ATOM      7  C   UNL     1       5.875 -32.861  12.495  1.00  0.00    -0.000 C 
BRANCH   7   8
ATOM      8  C   UNL     1       7.188 -33.626  12.238  1.00  0.00    -0.000 C 
BRANCH   8   9
ATOM      9  C   UNL     1       7.685 -34.480  13.417  1.00  0.00    -0.000 C 
BRANCH   9  10
ATOM     10  C   UNL     1       9.188 -34.296  13.696  1.00  0.00    -0.000 C 
BRANCH  10  11
ATOM     11  C   UNL     1       9.700 -32.910  13.271  1.00  0.00    -0.003 C 
ATOM     12  C   UNL     1      11.225 -32.804  13.306  1.00  0.00     0.004 C 
ENDBRANCH  10  11
ENDBRANCH   9  10
ENDBRANCH   8   9
ENDBRANCH   7   8
ENDBRANCH   6   7
ENDBRANCH   5   6
ENDBRANCH   4   5
ENDBRANCH   3   4
ENDBRANCH   2   3
ENDBRANCH   1   2
BRANCH   1  13
ATOM     13  C   UNL     1      10.971 -28.372  15.068  1.00  0.00     0.000 C 
BRANCH  13  14
ATOM     14  C   UNL     1       9.991 -29.104  16.001  1.00  0.00     0.000 C 
BRANCH  14  15
ATOM     15  C   UNL     1       9.549 -28.300  17.239  1.00  0.00     0.000 C 
BRANCH  15  16
ATOM     16  C   UNL     1       9.608 -29.102  18.557  1.00  0.00     0.000 C 
BRANCH  16  17
ATOM     17  C   UNL     1       8.217 -29.587  19.010  1.00  0.00     0.000 C 
BRANCH  17  18
ATOM     18  C   UNL     1       7.075 -28.882  18.263  1.00  0.00     0.000 C 
BRANCH  18  19
ATOM     19  C   UNL     1       6.094 -29.874  17.615  1.00  0.00     0.000 C 
BRANCH  19  20
ATOM     20  C   UNL     1       6.533 -30.304  16.206  1.00  0.00     0.006 C 
BRANCH  20  21
ATOM     21  C   UNL     1       6.423 -31.820  15.993  1.00  0.00     0.053 C 
BRANCH  21  22
ATOM     22  C   UNL     1       7.488 -32.537  16.761  1.00  0.00     0.041 C 
ATOM     23  O   UNL     1       8.698 -32.211  16.618  1.00  0.00    -0.550 OA
ATOM     24  O   UNL     1       7.152 -33.592  17.600  1.00  0.00    -0.550 OA
ENDBRANCH  21  22
ENDBRANCH  20  21
ENDBRANCH  19  20
ENDBRANCH  18  19
ENDBRANCH  17  18
ENDBRANCH  16  17
ENDBRANCH  15  16
ENDBRANCH  14  15
ENDBRANCH  13  14
ENDBRANCH   1  13
TORSDOF 20
ENDMDL
MODEL 5
REMARK VINA RESULT:    -2.565      1.984      5.129
REMARK INTER + INTRA:          -8.556
REMARK INTER:                  -6.120
REMARK INTRA:                  -2.436
REMARK UNBOUND:                -2.992
REMARK SMILES CCCCCCCCCCCCCCCCCCCCCC(=O)[O-]
REMARK SMILES IDX 12 1 11 2 10 3 9 4 8 5 7 6 6 7 5 8 4 9 3 10 2 11 1 12 13 13
REMARK SMILES IDX 14 14 15 15 16 16 17 17 18 18 19 19 20 20 21 21 22 22 23 23
REMARK SMILES IDX 24 24
REMARK H PARENT
REMARK Flexibility Score: inf
ROOT
ATOM      1  C   UNL     1       8.826 -30.557  11.875  1.00  0.00     0.000 C 
ENDROOT
BRANCH   1   2
ATOM      2  C   UNL     1       7.800 -29.586  12.478  1.00  0.00     0.000 C 
BRANCH   2   3
ATOM      3  C   UNL     1       6.494 -30.286  12.889  1.00  0.00     0.000 C 
BRANCH   3   4
ATOM      4  C   UNL     1       6.143 -31.471  11.978  1.00  0.00    -0.000 C 
BRANCH   4   5
ATOM      5  C   UNL     1       5.878 -32.736  12.805  1.00  0.00    -0.000 C 
BRANCH   5   6
ATOM      6  C   UNL     1       6.647 -32.699  14.131  1.00  0.00    -0.000 C 
BRANCH   6   7
ATOM      7  C   UNL     1       7.349 -34.040  14.396  1.00  0.00    -0.000 C 
BRANCH   7   8
ATOM      8  C   UNL     1       7.868 -34.710  13.110  1.00  0.00    -0.000 C 
BRANCH   8   9
ATOM      9  C   UNL     1       9.397 -34.683  12.932  1.00  0.00    -0.000 C 
BRANCH   9  10
ATOM     10  C   UNL     1      10.081 -33.619  13.809  1.00  0.00    -0.000 C 
BRANCH  10  11
ATOM     11  C   UNL     1      11.611 -33.635  13.669  1.00  0.00    -0.003 C 
ATOM     12  C   UNL     1      12.074 -33.920  12.240  1.00  0.00     0.004 C 
ENDBRANCH  10  11
ENDBRANCH   9  10
ENDBRANCH   8   9
ENDBRANCH   7   8
ENDBRANCH   6   7
ENDBRANCH   5   6
ENDBRANCH   4   5
ENDBRANCH   3   4
ENDBRANCH   2   3
ENDBRANCH   1   2
BRANCH   1  13
ATOM     13  C   UNL     1      10.206 -30.368  12.525  1.00  0.00     0.000 C 
BRANCH  13  14
ATOM     14  C   UNL     1      10.177 -29.396  13.717  1.00  0.00     0.000 C 
BRANCH  14  15
ATOM     15  C   UNL     1      11.559 -29.023  14.286  1.00  0.00     0.000 C 
BRANCH  15  16
ATOM     16  C   UNL     1      11.499 -28.074  15.502  1.00  0.00     0.000 C 
BRANCH  16  17
ATOM     17  C   UNL     1      10.125 -28.103  16.199  1.00  0.00     0.000 C 
BRANCH  17  18
ATOM     18  C   UNL     1      10.232 -27.909  17.719  1.00  0.00     0.000 C 
BRANCH  18  19
ATOM     19  C   UNL     1       9.663 -29.103  18.506  1.00  0.00     0.000 C 
BRANCH  19  20
ATOM     20  C   UNL     1       8.212 -28.874  18.959  1.00  0.00     0.006 C 
BRANCH  20  21
ATOM     21  C   UNL     1       7.275 -30.012  18.528  1.00  0.00     0.053 C 
BRANCH  21  22
ATOM     22  C   UNL     1       7.453 -30.315  17.074  1.00  0.00     0.041 C 
ATOM     23  O   UNL     1       8.282 -31.191  16.707  1.00  0.00    -0.550 OA
ATOM     24  O   UNL     1       6.736 -29.603  16.121  1.00  0.00    -0.550 OA
ENDBRANCH  21  22
ENDBRANCH  20  21
ENDBRANCH  19  20
ENDBRANCH  18  19
ENDBRANCH  17  18
ENDBRANCH  16  17
ENDBRANCH  15  16
ENDBRANCH  14  15
ENDBRANCH  13  14
ENDBRANCH   1  13
TORSDOF 20
ENDMDL
MODEL 6
REMARK VINA RESULT:    -2.208      1.188      3.747
REMARK INTER + INTRA:          -7.781
REMARK INTER:                  -4.558
REMARK INTRA:                  -3.223
REMARK UNBOUND:                -2.992
REMARK SMILES CCCCCCCCCCCCCCCCCCCCCC(=O)[O-]
REMARK SMILES IDX 12 1 11 2 10 3 9 4 8 5 7 6 6 7 5 8 4 9 3 10 2 11 1 12 13 13
REMARK SMILES IDX 14 14 15 15 16 16 17 17 18 18 19 19 20 20 21 21 22 22 23 23
REMARK SMILES IDX 24 24
REMARK H PARENT
REMARK Flexibility Score: inf
ROOT
ATOM      1  C   UNL     1       9.425 -29.535  14.152  1.00  0.00     0.000 C 
ENDROOT
BRANCH   1   2
ATOM      2  C   UNL     1       8.000 -29.499  14.726  1.00  0.00     0.000 C 
BRANCH   2   3
ATOM      3  C   UNL     1       7.087 -30.570  14.108  1.00  0.00     0.000 C 
BRANCH   3   4
ATOM      4  C   UNL     1       7.816 -31.454  13.085  1.00  0.00    -0.000 C 
BRANCH   4   5
ATOM      5  C   UNL     1       6.886 -32.550  12.550  1.00  0.00    -0.000 C 
BRANCH   5   6
ATOM      6  C   UNL     1       6.909 -33.785  13.458  1.00  0.00    -0.000 C 
BRANCH   6   7
ATOM      7  C   UNL     1       8.333 -34.072  13.960  1.00  0.00    -0.000 C 
BRANCH   7   8
ATOM      8  C   UNL     1       9.069 -35.125  13.110  1.00  0.00    -0.000 C 
BRANCH   8   9
ATOM      9  C   UNL     1      10.571 -34.863  12.906  1.00  0.00    -0.000 C 
BRANCH   9  10
ATOM     10  C   UNL     1      11.090 -33.681  13.743  1.00  0.00    -0.000 C 
BRANCH  10  11
ATOM     11  C   UNL     1      11.892 -32.672  12.905  1.00  0.00    -0.003 C 
ATOM     12  C   UNL     1      11.025 -31.912  11.901  1.00  0.00     0.004 C 
ENDBRANCH  10  11
ENDBRANCH   9  10
ENDBRANCH   8   9
ENDBRANCH   7   8
ENDBRANCH   6   7
ENDBRANCH   5   6
ENDBRANCH   4   5
ENDBRANCH   3   4
ENDBRANCH   2   3
ENDBRANCH   1   2
BRANCH   1  13
ATOM     13  C   UNL     1      10.439 -28.992  15.172  1.00  0.00     0.000 C 
BRANCH  13  14
ATOM     14  C   UNL     1       9.769 -28.283  16.361  1.00  0.00     0.000 C 
BRANCH  14  15
ATOM     15  C   UNL     1      10.224 -28.773  17.749  1.00  0.00     0.000 C 
BRANCH  15  16
ATOM     16  C   UNL     1       9.129 -28.684  18.833  1.00  0.00     0.000 C 
BRANCH  16  17
ATOM     17  C   UNL     1       7.741 -28.378  18.238  1.00  0.00     0.000 C 
BRANCH  17  18
ATOM     18  C   UNL     1       6.652 -29.327  18.761  1.00  0.00     0.000 C 
BRANCH  18  19
ATOM     19  C   UNL     1       7.104 -30.798  18.759  1.00  0.00     0.000 C 
BRANCH  19  20
ATOM     20  C   UNL     1       7.001 -31.446  17.368  1.00  0.00     0.006 C 
BRANCH  20  21
ATOM     21  C   UNL     1       7.923 -32.664  17.218  1.00  0.00     0.053 C 
BRANCH  21  22
ATOM     22  C   UNL     1       7.317 -33.865  17.872  1.00  0.00     0.041 C 
ATOM     23  O   UNL     1       7.739 -34.253  18.996  1.00  0.00    -0.550 OA
ATOM     24  O   UNL     1       6.319 -34.582  17.225  1.00  0.00    -0.550 OA
ENDBRANCH  21  22
ENDBRANCH  20  21
ENDBRANCH  19  20
ENDBRANCH  18  19
ENDBRANCH  17  18
ENDBRANCH  16  17
ENDBRANCH  15  16
ENDBRANCH  14  15
ENDBRANCH  13  14
ENDBRANCH   1  13
TORSDOF 20
ENDMDL
MODEL 7
REMARK VINA RESULT:    -2.147      2.533      5.226
REMARK INTER + INTRA:          -7.649
REMARK INTER:                  -6.089
REMARK INTRA:                  -1.560
REMARK UNBOUND:                -2.992
REMARK SMILES CCCCCCCCCCCCCCCCCCCCCC(=O)[O-]
REMARK SMILES IDX 12 1 11 2 10 3 9 4 8 5 7 6 6 7 5 8 4 9 3 10 2 11 1 12 13 13
REMARK SMILES IDX 14 14 15 15 16 16 17 17 18 18 19 19 20 20 21 21 22 22 23 23
REMARK SMILES IDX 24 24
REMARK H PARENT
REMARK Flexibility Score: inf
ROOT
ATOM      1  C   UNL     1       7.947 -29.204  12.187  1.00  0.00     0.000 C 
ENDROOT
BRANCH   1   2
ATOM      2  C   UNL     1       6.569 -29.880  12.253  1.00  0.00     0.000 C 
BRANCH   2   3
ATOM      3  C   UNL     1       6.665 -31.412  12.332  1.00  0.00     0.000 C 
BRANCH   3   4
ATOM      4  C   UNL     1       6.038 -31.981  13.614  1.00  0.00    -0.000 C 
BRANCH   4   5
ATOM      5  C   UNL     1       6.098 -33.514  13.618  1.00  0.00    -0.000 C 
BRANCH   5   6
ATOM      6  C   UNL     1       5.905 -34.077  12.205  1.00  0.00    -0.000 C 
BRANCH   6   7
ATOM      7  C   UNL     1       6.988 -35.117  11.875  1.00  0.00    -0.000 C 
BRANCH   7   8
ATOM      8  C   UNL     1       8.218 -35.016  12.797  1.00  0.00    -0.000 C 
BRANCH   8   9
ATOM      9  C   UNL     1       9.238 -33.933  12.406  1.00  0.00    -0.000 C 
BRANCH   9  10
ATOM     10  C   UNL     1      10.319 -33.716  13.480  1.00  0.00    -0.000 C 
BRANCH  10  11
ATOM     11  C   UNL     1      11.378 -34.830  13.483  1.00  0.00    -0.003 C 
ATOM     12  C   UNL     1      12.298 -34.780  12.263  1.00  0.00     0.004 C 
ENDBRANCH  10  11
ENDBRANCH   9  10
ENDBRANCH   8   9
ENDBRANCH   7   8
ENDBRANCH   6   7
ENDBRANCH   5   6
ENDBRANCH   4   5
ENDBRANCH   3   4
ENDBRANCH   2   3
ENDBRANCH   1   2
BRANCH   1  13
ATOM     13  C   UNL     1       9.051 -30.236  11.912  1.00  0.00     0.000 C 
BRANCH  13  14
ATOM     14  C   UNL     1      10.066 -30.346  13.062  1.00  0.00     0.000 C 
BRANCH  14  15
ATOM     15  C   UNL     1       9.991 -29.214  14.105  1.00  0.00     0.000 C 
BRANCH  15  16
ATOM     16  C   UNL     1       9.351 -29.641  15.444  1.00  0.00     0.000 C 
BRANCH  16  17
ATOM     17  C   UNL     1       8.011 -30.374  15.245  1.00  0.00     0.000 C 
BRANCH  17  18
ATOM     18  C   UNL     1       6.947 -29.947  16.268  1.00  0.00     0.000 C 
BRANCH  18  19
ATOM     19  C   UNL     1       6.874 -30.900  17.473  1.00  0.00     0.000 C 
BRANCH  19  20
ATOM     20  C   UNL     1       7.454 -30.279  18.754  1.00  0.00     0.006 C 
BRANCH  20  21
ATOM     21  C   UNL     1       7.765 -28.784  18.593  1.00  0.00     0.053 C 
BRANCH  21  22
ATOM     22  C   UNL     1       9.198 -28.507  18.921  1.00  0.00     0.041 C 
ATOM     23  O   UNL     1       9.899 -27.800  18.147  1.00  0.00    -0.550 OA
ATOM     24  O   UNL     1       9.773 -29.065  20.056  1.00  0.00    -0.550 OA
ENDBRANCH  21  22
ENDBRANCH  20  21
ENDBRANCH  19  20
ENDBRANCH  18  19
ENDBRANCH  17  18
ENDBRANCH  16  17
ENDBRANCH  15  16
ENDBRANCH  14  15
ENDBRANCH  13  14
ENDBRANCH   1  13
TORSDOF 20
ENDMDL
MODEL 8
REMARK VINA RESULT:     0.016      1.353      4.771
REMARK INTER + INTRA:          -2.957
REMARK INTER:                   0.151
REMARK INTRA:                  -3.108
REMARK UNBOUND:                -2.992
REMARK SMILES CCCCCCCCCCCCCCCCCCCCCC(=O)[O-]
REMARK SMILES IDX 12 1 11 2 10 3 9 4 8 5 7 6 6 7 5 8 4 9 3 10 2 11 1 12 13 13
REMARK SMILES IDX 14 14 15 15 16 16 17 17 18 18 19 19 20 20 21 21 22 22 23 23
REMARK SMILES IDX 24 24
REMARK H PARENT
REMARK Flexibility Score: inf
ROOT
ATOM      1  C   UNL     1      10.977 -28.772  13.885  1.00  0.00     0.000 C 
ENDROOT
BRANCH   1   2
ATOM      2  C   UNL     1      11.413 -28.477  15.328  1.00  0.00     0.000 C 
BRANCH   2   3
ATOM      3  C   UNL     1      10.270 -27.911  16.187  1.00  0.00     0.000 C 
BRANCH   3   4
ATOM      4  C   UNL     1      10.363 -28.342  17.658  1.00  0.00    -0.000 C 
BRANCH   4   5
ATOM      5  C   UNL     1       8.966 -28.463  18.281  1.00  0.00    -0.000 C 
BRANCH   5   6
ATOM      6  C   UNL     1       8.686 -29.901  18.732  1.00  0.00    -0.000 C 
BRANCH   6   7
ATOM      7  C   UNL     1       7.286 -30.353  18.289  1.00  0.00    -0.000 C 
BRANCH   7   8
ATOM      8  C   UNL     1       6.632 -29.384  17.285  1.00  0.00    -0.000 C 
BRANCH   8   9
ATOM      9  C   UNL     1       6.315 -29.990  15.907  1.00  0.00    -0.000 C 
BRANCH   9  10
ATOM     10  C   UNL     1       7.483 -29.855  14.913  1.00  0.00    -0.000 C 
BRANCH  10  11
ATOM     11  C   UNL     1       7.007 -29.751  13.455  1.00  0.00    -0.003 C 
ATOM     12  C   UNL     1       5.877 -30.729  13.127  1.00  0.00     0.004 C 
ENDBRANCH  10  11
ENDBRANCH   9  10
ENDBRANCH   8   9
ENDBRANCH   7   8
ENDBRANCH   6   7
ENDBRANCH   5   6
ENDBRANCH   4   5
ENDBRANCH   3   4
ENDBRANCH   2   3
ENDBRANCH   1   2
BRANCH   1  13
ATOM     13  C   UNL     1      11.476 -30.154  13.434  1.00  0.00     0.000 C 
BRANCH  13  14
ATOM     14  C   UNL     1      10.329 -31.127  13.110  1.00  0.00     0.000 C 
BRANCH  14  15
ATOM     15  C   UNL     1      10.021 -32.157  14.214  1.00  0.00     0.000 C 
BRANCH  15  16
ATOM     16  C   UNL     1       9.694 -33.567  13.677  1.00  0.00     0.000 C 
BRANCH  16  17
ATOM     17  C   UNL     1       9.003 -33.524  12.301  1.00  0.00     0.000 C 
BRANCH  17  18
ATOM     18  C   UNL     1       7.485 -33.739  12.396  1.00  0.00     0.000 C 
BRANCH  18  19
ATOM     19  C   UNL     1       7.121 -35.125  12.956  1.00  0.00     0.000 C 
BRANCH  19  20
ATOM     20  C   UNL     1       6.080 -35.051  14.085  1.00  0.00     0.006 C 
BRANCH  20  21
ATOM     21  C   UNL     1       6.108 -33.704  14.822  1.00  0.00     0.053 C 
BRANCH  21  22
ATOM     22  C   UNL     1       6.649 -33.875  16.206  1.00  0.00     0.041 C 
ATOM     23  O   UNL     1       7.681 -33.244  16.564  1.00  0.00    -0.550 OA
ATOM     24  O   UNL     1       6.042 -34.761  17.087  1.00  0.00    -0.550 OA
ENDBRANCH  21  22
ENDBRANCH  20  21
ENDBRANCH  19  20
ENDBRANCH  18  19
ENDBRANCH  17  18
ENDBRANCH  16  17
ENDBRANCH  15  16
ENDBRANCH  14  15
ENDBRANCH  13  14
ENDBRANCH   1  13
TORSDOF 20
ENDMDL
