MODEL 1
REMARK VINA RESULT:    -5.324      0.000      0.000
REMARK INTER + INTRA:          -6.235
REMARK INTER:                  -6.102
REMARK INTRA:                  -0.133
REMARK UNBOUND:                -0.133
REMARK SMILES O=C([O-])C=Cc1ccc(O)cc1
REMARK SMILES IDX 6 1 7 2 12 3 8 4 11 5 9 6 5 7 4 8 2 9 1 10 3 11 10 12
REMARK H PARENT 10 13
REMARK Flexibility Score: inf
ROOT
ATOM      1  C   UNL     1     -12.246  48.136  51.472  1.00  0.00    -0.025 A 
ATOM      2  C   UNL     1     -11.231  48.524  52.371  1.00  0.00     0.012 A 
ATOM      3  C   UNL     1     -13.579  48.120  51.920  1.00  0.00     0.012 A 
ATOM      4  C   UNL     1     -11.553  48.908  53.677  1.00  0.00     0.047 A 
ATOM      5  C   UNL     1     -13.895  48.506  53.225  1.00  0.00     0.047 A 
ATOM      6  C   UNL     1     -12.883  48.903  54.107  1.00  0.00     0.115 A 
ENDROOT
BRANCH   1   7
ATOM      7  C   UNL     1     -11.960  47.708  50.080  1.00  0.00     0.010 C 
ATOM      8  C   UNL     1     -11.534  48.539  49.118  1.00  0.00     0.025 C 
BRANCH   8   9
ATOM      9  C   UNL     1     -11.273  48.071  47.748  1.00  0.00     0.064 C 
ATOM     10  O   UNL     1     -10.126  48.218  47.249  1.00  0.00    -0.545 OA
ATOM     11  O   UNL     1     -12.272  47.469  46.992  1.00  0.00    -0.545 OA
ENDBRANCH   8   9
ENDBRANCH   1   7
BRANCH   6  12
ATOM     12  O   UNL     1     -13.186  49.290  55.410  1.00  0.00    -0.508 OA
ATOM     13  H   UNL     1     -13.949  48.865  55.924  1.00  0.00     0.293 HD
ENDBRANCH   6  12
TORSDOF 3
ENDMDL
MODEL 2
REMARK VINA RESULT:    -5.231      1.290      5.716
REMARK INTER + INTRA:          -6.128
REMARK INTER:                  -5.989
REMARK INTRA:                  -0.139
REMARK UNBOUND:                -0.133
REMARK SMILES O=C([O-])C=Cc1ccc(O)cc1
REMARK SMILES IDX 6 1 7 2 12 3 8 4 11 5 9 6 5 7 4 8 2 9 1 10 3 11 10 12
REMARK H PARENT 10 13
REMARK Flexibility Score: inf
ROOT
ATOM      1  C   UNL     1     -12.121  47.779  50.445  1.00  0.00    -0.025 A 
ATOM      2  C   UNL     1     -11.526  48.769  49.636  1.00  0.00     0.012 A 
ATOM      3  C   UNL     1     -12.689  46.651  49.828  1.00  0.00     0.012 A 
ATOM      4  C   UNL     1     -11.482  48.614  48.247  1.00  0.00     0.047 A 
ATOM      5  C   UNL     1     -12.642  46.500  48.439  1.00  0.00     0.047 A 
ATOM      6  C   UNL     1     -12.036  47.481  47.644  1.00  0.00     0.115 A 
ENDROOT
BRANCH   1   7
ATOM      7  C   UNL     1     -12.205  47.898  51.922  1.00  0.00     0.010 C 
ATOM      8  C   UNL     1     -11.301  48.545  52.669  1.00  0.00     0.025 C 
BRANCH   8   9
ATOM      9  C   UNL     1     -11.419  48.629  54.134  1.00  0.00     0.064 C 
ATOM     10  O   UNL     1     -12.246  49.427  54.646  1.00  0.00    -0.545 OA
ATOM     11  O   UNL     1     -10.632  47.838  54.964  1.00  0.00    -0.545 OA
ENDBRANCH   8   9
ENDBRANCH   1   7
BRANCH   6  12
ATOM     12  O   UNL     1     -11.983  47.341  46.260  1.00  0.00    -0.508 OA
ATOM     13  H   UNL     1     -12.646  46.761  45.761  1.00  0.00     0.293 HD
ENDBRANCH   6  12
TORSDOF 3
ENDMDL
MODEL 3
REMARK VINA RESULT:    -4.987      2.612      3.646
REMARK INTER + INTRA:          -5.849
REMARK INTER:                  -5.698
REMARK INTRA:                  -0.151
REMARK UNBOUND:                -0.133
REMARK SMILES O=C([O-])C=Cc1ccc(O)cc1
REMARK SMILES IDX 6 1 7 2 12 3 8 4 11 5 9 6 5 7 4 8 2 9 1 10 3 11 10 12
REMARK H PARENT 10 13
REMARK Flexibility Score: inf
ROOT
ATOM      1  C   UNL     1     -11.618  48.089  48.644  1.00  0.00    -0.025 A 
ATOM      2  C   UNL     1     -12.286  46.848  48.599  1.00  0.00     0.012 A 
ATOM      3  C   UNL     1     -11.692  48.856  49.819  1.00  0.00     0.012 A 
ATOM      4  C   UNL     1     -12.988  46.382  49.715  1.00  0.00     0.047 A 
ATOM      5  C   UNL     1     -12.394  48.386  50.933  1.00  0.00     0.047 A 
ATOM      6  C   UNL     1     -13.043  47.146  50.884  1.00  0.00     0.115 A 
ENDROOT
BRANCH   1   7
ATOM      7  C   UNL     1     -10.868  48.635  47.485  1.00  0.00     0.010 C 
ATOM      8  C   UNL     1     -10.251  49.824  47.491  1.00  0.00     0.025 C 
BRANCH   8   9
ATOM      9  C   UNL     1      -9.527  50.330  46.314  1.00  0.00     0.064 C 
ATOM     10  O   UNL     1     -10.151  50.976  45.431  1.00  0.00    -0.545 OA
ATOM     11  O   UNL     1      -8.164  50.107  46.159  1.00  0.00    -0.545 OA
ENDBRANCH   8   9
ENDBRANCH   1   7
BRANCH   6  12
ATOM     12  O   UNL     1     -13.745  46.668  51.987  1.00  0.00    -0.508 OA
ATOM     13  H   UNL     1     -14.730  46.441  51.930  1.00  0.00     0.293 HD
ENDBRANCH   6  12
TORSDOF 3
ENDMDL
MODEL 4
REMARK VINA RESULT:    -4.982      9.292     10.136
REMARK INTER + INTRA:          -5.843
REMARK INTER:                  -5.694
REMARK INTRA:                  -0.149
REMARK UNBOUND:                -0.133
REMARK SMILES O=C([O-])C=Cc1ccc(O)cc1
REMARK SMILES IDX 6 1 7 2 12 3 8 4 11 5 9 6 5 7 4 8 2 9 1 10 3 11 10 12
REMARK H PARENT 10 13
REMARK Flexibility Score: inf
ROOT
ATOM      1  C   UNL     1     -16.905  40.423  53.197  1.00  0.00    -0.025 A 
ATOM      2  C   UNL     1     -17.500  41.655  52.855  1.00  0.00     0.012 A 
ATOM      3  C   UNL     1     -16.005  40.380  54.276  1.00  0.00     0.012 A 
ATOM      4  C   UNL     1     -17.215  42.806  53.595  1.00  0.00     0.047 A 
ATOM      5  C   UNL     1     -15.725  41.534  55.014  1.00  0.00     0.047 A 
ATOM      6  C   UNL     1     -16.331  42.751  54.676  1.00  0.00     0.115 A 
ENDROOT
BRANCH   1   7
ATOM      7  C   UNL     1     -17.163  39.173  52.438  1.00  0.00     0.010 C 
ATOM      8  C   UNL     1     -16.302  38.148  52.375  1.00  0.00     0.025 C 
BRANCH   8   9
ATOM      9  C   UNL     1     -16.597  36.932  51.601  1.00  0.00     0.064 C 
ATOM     10  O   UNL     1     -17.472  36.128  52.016  1.00  0.00    -0.545 OA
ATOM     11  O   UNL     1     -15.925  36.656  50.416  1.00  0.00    -0.545 OA
ENDBRANCH   8   9
ENDBRANCH   1   7
BRANCH   6  12
ATOM     12  O   UNL     1     -16.060  43.906  55.404  1.00  0.00    -0.508 OA
ATOM     13  H   UNL     1     -15.766  44.762  54.949  1.00  0.00     0.293 HD
ENDBRANCH   6  12
TORSDOF 3
ENDMDL
MODEL 5
REMARK VINA RESULT:    -4.946      1.865      5.671
REMARK INTER + INTRA:          -5.802
REMARK INTER:                  -5.663
REMARK INTRA:                  -0.140
REMARK UNBOUND:                -0.133
REMARK SMILES O=C([O-])C=Cc1ccc(O)cc1
REMARK SMILES IDX 6 1 7 2 12 3 8 4 11 5 9 6 5 7 4 8 2 9 1 10 3 11 10 12
REMARK H PARENT 10 13
REMARK Flexibility Score: inf
ROOT
ATOM      1  C   UNL     1     -11.347  48.776  49.755  1.00  0.00    -0.025 A 
ATOM      2  C   UNL     1     -10.123  49.324  50.193  1.00  0.00     0.012 A 
ATOM      3  C   UNL     1     -11.480  48.407  48.405  1.00  0.00     0.012 A 
ATOM      4  C   UNL     1      -9.056  49.474  49.301  1.00  0.00     0.047 A 
ATOM      5  C   UNL     1     -10.410  48.558  47.518  1.00  0.00     0.047 A 
ATOM      6  C   UNL     1      -9.194  49.090  47.964  1.00  0.00     0.115 A 
ENDROOT
BRANCH   1   7
ATOM      7  C   UNL     1     -12.514  48.605  50.656  1.00  0.00     0.010 C 
ATOM      8  C   UNL     1     -12.412  48.310  51.959  1.00  0.00     0.025 C 
BRANCH   8   9
ATOM      9  C   UNL     1     -13.599  48.140  52.812  1.00  0.00     0.064 C 
ATOM     10  O   UNL     1     -14.476  47.294  52.496  1.00  0.00    -0.545 OA
ATOM     11  O   UNL     1     -13.768  48.898  53.965  1.00  0.00    -0.545 OA
ENDBRANCH   8   9
ENDBRANCH   1   7
BRANCH   6  12
ATOM     12  O   UNL     1      -8.122  49.244  47.089  1.00  0.00    -0.508 OA
ATOM     13  H   UNL     1      -7.464  50.008  47.187  1.00  0.00     0.293 HD
ENDBRANCH   6  12
TORSDOF 3
ENDMDL
MODEL 6
REMARK VINA RESULT:    -4.802      3.289      5.257
REMARK INTER + INTRA:          -5.637
REMARK INTER:                  -5.498
REMARK INTRA:                  -0.138
REMARK UNBOUND:                -0.133
REMARK SMILES O=C([O-])C=Cc1ccc(O)cc1
REMARK SMILES IDX 6 1 7 2 12 3 8 4 11 5 9 6 5 7 4 8 2 9 1 10 3 11 10 12
REMARK H PARENT 10 13
REMARK Flexibility Score: inf
ROOT
ATOM      1  C   UNL     1     -10.581  49.200  50.399  1.00  0.00    -0.025 A 
ATOM      2  C   UNL     1     -11.326  48.414  51.303  1.00  0.00     0.012 A 
ATOM      3  C   UNL     1     -10.781  49.021  49.020  1.00  0.00     0.012 A 
ATOM      4  C   UNL     1     -12.264  47.490  50.829  1.00  0.00     0.047 A 
ATOM      5  C   UNL     1     -11.720  48.098  48.551  1.00  0.00     0.047 A 
ATOM      6  C   UNL     1     -12.466  47.331  49.455  1.00  0.00     0.115 A 
ENDROOT
BRANCH   1   7
ATOM      7  C   UNL     1      -9.566  50.186  50.848  1.00  0.00     0.010 C 
ATOM      8  C   UNL     1      -9.616  50.824  52.025  1.00  0.00     0.025 C 
BRANCH   8   9
ATOM      9  C   UNL     1      -8.592  51.802  52.423  1.00  0.00     0.064 C 
ATOM     10  O   UNL     1      -8.460  52.868  51.765  1.00  0.00    -0.545 OA
ATOM     11  O   UNL     1      -7.765  51.571  53.517  1.00  0.00    -0.545 OA
ENDBRANCH   8   9
ENDBRANCH   1   7
BRANCH   6  12
ATOM     12  O   UNL     1     -13.404  46.409  48.999  1.00  0.00    -0.508 OA
ATOM     13  H   UNL     1     -13.414  45.453  49.336  1.00  0.00     0.293 HD
ENDBRANCH   6  12
TORSDOF 3
ENDMDL
MODEL 7
REMARK VINA RESULT:    -4.733      3.207      5.063
REMARK INTER + INTRA:          -5.557
REMARK INTER:                  -5.415
REMARK INTRA:                  -0.143
REMARK UNBOUND:                -0.133
REMARK SMILES O=C([O-])C=Cc1ccc(O)cc1
REMARK SMILES IDX 6 1 7 2 12 3 8 4 11 5 9 6 5 7 4 8 2 9 1 10 3 11 10 12
REMARK H PARENT 10 13
REMARK Flexibility Score: inf
ROOT
ATOM      1  C   UNL     1     -10.811  49.021  50.547  1.00  0.00    -0.025 A 
ATOM      2  C   UNL     1     -10.939  49.032  49.143  1.00  0.00     0.012 A 
ATOM      3  C   UNL     1     -11.550  48.084  51.289  1.00  0.00     0.012 A 
ATOM      4  C   UNL     1     -11.769  48.107  48.502  1.00  0.00     0.047 A 
ATOM      5  C   UNL     1     -12.378  47.161  50.644  1.00  0.00     0.047 A 
ATOM      6  C   UNL     1     -12.488  47.168  49.247  1.00  0.00     0.115 A 
ENDROOT
BRANCH   1   7
ATOM      7  C   UNL     1      -9.952  49.987  51.278  1.00  0.00     0.010 C 
ATOM      8  C   UNL     1      -9.302  50.999  50.689  1.00  0.00     0.025 C 
BRANCH   8   9
ATOM      9  C   UNL     1      -8.452  51.927  51.454  1.00  0.00     0.064 C 
ATOM     10  O   UNL     1      -7.499  52.515  50.878  1.00  0.00    -0.545 OA
ATOM     11  O   UNL     1      -8.686  52.167  52.803  1.00  0.00    -0.545 OA
ENDBRANCH   8   9
ENDBRANCH   1   7
BRANCH   6  12
ATOM     12  O   UNL     1     -13.310  46.253  48.595  1.00  0.00    -0.508 OA
ATOM     13  H   UNL     1     -14.246  46.053  48.925  1.00  0.00     0.293 HD
ENDBRANCH   6  12
TORSDOF 3
ENDMDL
MODEL 8
REMARK VINA RESULT:    -4.696      3.340      4.898
REMARK INTER + INTRA:          -5.515
REMARK INTER:                  -5.373
REMARK INTRA:                  -0.142
REMARK UNBOUND:                -0.133
REMARK SMILES O=C([O-])C=Cc1ccc(O)cc1
REMARK SMILES IDX 6 1 7 2 12 3 8 4 11 5 9 6 5 7 4 8 2 9 1 10 3 11 10 12
REMARK H PARENT 10 13
REMARK Flexibility Score: inf
ROOT
ATOM      1  C   UNL     1     -11.665  49.350  49.225  1.00  0.00    -0.025 A 
ATOM      2  C   UNL     1     -11.594  48.619  48.021  1.00  0.00     0.012 A 
ATOM      3  C   UNL     1     -12.182  48.722  50.371  1.00  0.00     0.012 A 
ATOM      4  C   UNL     1     -12.010  47.284  47.980  1.00  0.00     0.047 A 
ATOM      5  C   UNL     1     -12.595  47.387  50.325  1.00  0.00     0.047 A 
ATOM      6  C   UNL     1     -12.508  46.664  49.129  1.00  0.00     0.115 A 
ENDROOT
BRANCH   1   7
ATOM      7  C   UNL     1     -11.248  50.772  49.322  1.00  0.00     0.010 C 
ATOM      8  C   UNL     1     -10.772  51.480  48.289  1.00  0.00     0.025 C 
BRANCH   8   9
ATOM      9  C   UNL     1     -10.360  52.885  48.435  1.00  0.00     0.064 C 
ATOM     10  O   UNL     1     -11.197  53.803  48.229  1.00  0.00    -0.545 OA
ATOM     11  O   UNL     1      -9.060  53.218  48.798  1.00  0.00    -0.545 OA
ENDBRANCH   8   9
ENDBRANCH   1   7
BRANCH   6  12
ATOM     12  O   UNL     1     -12.917  45.334  49.072  1.00  0.00    -0.508 OA
ATOM     13  H   UNL     1     -13.388  44.891  49.851  1.00  0.00     0.293 HD
ENDBRANCH   6  12
TORSDOF 3
ENDMDL
MODEL 9
REMARK VINA RESULT:    -4.574      9.630     11.180
REMARK INTER + INTRA:          -5.376
REMARK INTER:                  -5.239
REMARK INTRA:                  -0.137
REMARK UNBOUND:                -0.133
REMARK SMILES O=C([O-])C=Cc1ccc(O)cc1
REMARK SMILES IDX 6 1 7 2 12 3 8 4 11 5 9 6 5 7 4 8 2 9 1 10 3 11 10 12
REMARK H PARENT 10 13
REMARK Flexibility Score: inf
ROOT
ATOM      1  C   UNL     1     -17.372  39.616  53.539  1.00  0.00    -0.025 A 
ATOM      2  C   UNL     1     -18.551  38.868  53.737  1.00  0.00     0.012 A 
ATOM      3  C   UNL     1     -16.358  39.082  52.726  1.00  0.00     0.012 A 
ATOM      4  C   UNL     1     -18.713  37.627  53.113  1.00  0.00     0.047 A 
ATOM      5  C   UNL     1     -16.525  37.842  52.103  1.00  0.00     0.047 A 
ATOM      6  C   UNL     1     -17.705  37.112  52.293  1.00  0.00     0.115 A 
ENDROOT
BRANCH   1   7
ATOM      7  C   UNL     1     -17.144  40.933  54.186  1.00  0.00     0.010 C 
ATOM      8  C   UNL     1     -17.014  42.082  53.511  1.00  0.00     0.025 C 
BRANCH   8   9
ATOM      9  C   UNL     1     -16.778  43.364  54.195  1.00  0.00     0.064 C 
ATOM     10  O   UNL     1     -15.598  43.740  54.420  1.00  0.00    -0.545 OA
ATOM     11  O   UNL     1     -17.838  44.169  54.597  1.00  0.00    -0.545 OA
ENDBRANCH   8   9
ENDBRANCH   1   7
BRANCH   6  12
ATOM     12  O   UNL     1     -17.882  35.875  51.678  1.00  0.00    -0.508 OA
ATOM     13  H   UNL     1     -17.796  35.766  50.675  1.00  0.00     0.293 HD
ENDBRANCH   6  12
TORSDOF 3
ENDMDL
