MODEL 1
REMARK VINA RESULT:    -4.790      0.000      0.000
REMARK INTER + INTRA:          -8.674
REMARK INTER:                  -8.150
REMARK INTRA:                  -0.524
REMARK UNBOUND:                -0.524
REMARK SMILES CCCCCCCCCCCCCC(=O)[O-]
REMARK SMILES IDX 8 1 9 2 10 3 11 4 12 5 13 6 14 7 15 8 16 9 7 10 6 11 5 12
REMARK SMILES IDX 4 13 3 14 2 15 1 16
REMARK H PARENT
REMARK Flexibility Score: inf
ROOT
ATOM      1  C   UNL     1      -1.383   9.628   8.167  1.00  0.00     0.000 C 
ENDROOT
BRANCH   1   2
ATOM      2  C   UNL     1      -2.224   8.649   7.324  1.00  0.00     0.000 C 
BRANCH   2   3
ATOM      3  C   UNL     1      -2.755   9.218   5.993  1.00  0.00     0.000 C 
BRANCH   3   4
ATOM      4  C   UNL     1      -2.941   8.177   4.872  1.00  0.00     0.000 C 
BRANCH   4   5
ATOM      5  C   UNL     1      -2.066   6.928   5.069  1.00  0.00     0.006 C 
BRANCH   5   6
ATOM      6  C   UNL     1      -2.827   5.634   4.750  1.00  0.00     0.053 C 
BRANCH   6   7
ATOM      7  C   UNL     1      -3.414   5.017   5.982  1.00  0.00     0.041 C 
ATOM      8  O   UNL     1      -3.675   3.785   6.013  1.00  0.00    -0.550 OA
ATOM      9  O   UNL     1      -3.639   5.796   7.111  1.00  0.00    -0.550 OA
ENDBRANCH   6   7
ENDBRANCH   5   6
ENDBRANCH   4   5
ENDBRANCH   3   4
ENDBRANCH   2   3
ENDBRANCH   1   2
BRANCH   1  10
ATOM     10  C   UNL     1      -0.205   8.989   8.923  1.00  0.00     0.000 C 
BRANCH  10  11
ATOM     11  C   UNL     1       1.162   9.437   8.387  1.00  0.00    -0.000 C 
BRANCH  11  12
ATOM     12  C   UNL     1       2.257   9.243   9.448  1.00  0.00    -0.000 C 
BRANCH  12  13
ATOM     13  C   UNL     1       3.525   8.589   8.878  1.00  0.00    -0.000 C 
BRANCH  13  14
ATOM     14  C   UNL     1       3.387   8.225   7.393  1.00  0.00    -0.000 C 
BRANCH  14  15
ATOM     15  C   UNL     1       4.710   7.686   6.835  1.00  0.00    -0.003 C 
ATOM     16  C   UNL     1       5.904   8.292   7.566  1.00  0.00     0.004 C 
ENDBRANCH  14  15
ENDBRANCH  13  14
ENDBRANCH  12  13
ENDBRANCH  11  12
ENDBRANCH  10  11
ENDBRANCH   1  10
TORSDOF 12
ENDMDL
MODEL 2
REMARK VINA RESULT:    -4.247      3.612      7.418
REMARK INTER + INTRA:          -7.750
REMARK INTER:                  -7.136
REMARK INTRA:                  -0.614
REMARK UNBOUND:                -0.524
REMARK SMILES CCCCCCCCCCCCCC(=O)[O-]
REMARK SMILES IDX 8 1 9 2 10 3 11 4 12 5 13 6 14 7 15 8 16 9 7 10 6 11 5 12
REMARK SMILES IDX 4 13 3 14 2 15 1 16
REMARK H PARENT
REMARK Flexibility Score: inf
ROOT
ATOM      1  C   UNL     1       0.579   9.876   8.106  1.00  0.00     0.000 C 
ENDROOT
BRANCH   1   2
ATOM      2  C   UNL     1       1.787   8.999   8.491  1.00  0.00     0.000 C 
BRANCH   2   3
ATOM      3  C   UNL     1       2.276   9.157   9.945  1.00  0.00     0.000 C 
BRANCH   3   4
ATOM      4  C   UNL     1       3.804   9.097  10.124  1.00  0.00     0.000 C 
BRANCH   4   5
ATOM      5  C   UNL     1       4.570   9.483   8.847  1.00  0.00     0.006 C 
BRANCH   5   6
ATOM      6  C   UNL     1       5.475   8.347   8.351  1.00  0.00     0.053 C 
BRANCH   6   7
ATOM      7  C   UNL     1       5.742   8.452   6.881  1.00  0.00     0.041 C 
ATOM      8  O   UNL     1       6.667   9.194   6.456  1.00  0.00    -0.550 OA
ATOM      9  O   UNL     1       4.994   7.702   5.982  1.00  0.00    -0.550 OA
ENDBRANCH   6   7
ENDBRANCH   5   6
ENDBRANCH   4   5
ENDBRANCH   3   4
ENDBRANCH   2   3
ENDBRANCH   1   2
BRANCH   1  10
ATOM     10  C   UNL     1      -0.794   9.199   8.271  1.00  0.00     0.000 C 
BRANCH  10  11
ATOM     11  C   UNL     1      -1.956  10.080   7.789  1.00  0.00    -0.000 C 
BRANCH  11  12
ATOM     12  C   UNL     1      -2.766   9.368   6.696  1.00  0.00    -0.000 C 
BRANCH  12  13
ATOM     13  C   UNL     1      -2.227   7.964   6.379  1.00  0.00    -0.000 C 
BRANCH  13  14
ATOM     14  C   UNL     1      -2.458   7.557   4.916  1.00  0.00    -0.000 C 
BRANCH  14  15
ATOM     15  C   UNL     1      -2.232   6.053   4.723  1.00  0.00    -0.003 C 
ATOM     16  C   UNL     1      -3.271   5.238   5.489  1.00  0.00     0.004 C 
ENDBRANCH  14  15
ENDBRANCH  13  14
ENDBRANCH  12  13
ENDBRANCH  11  12
ENDBRANCH  10  11
ENDBRANCH   1  10
TORSDOF 12
ENDMDL
MODEL 3
REMARK VINA RESULT:    -4.072      1.709      2.744
REMARK INTER + INTRA:          -7.453
REMARK INTER:                  -6.518
REMARK INTRA:                  -0.934
REMARK UNBOUND:                -0.524
REMARK SMILES CCCCCCCCCCCCCC(=O)[O-]
REMARK SMILES IDX 8 1 9 2 10 3 11 4 12 5 13 6 14 7 15 8 16 9 7 10 6 11 5 12
REMARK SMILES IDX 4 13 3 14 2 15 1 16
REMARK H PARENT
REMARK Flexibility Score: inf
ROOT
ATOM      1  C   UNL     1       0.492  10.009   8.288  1.00  0.00     0.000 C 
ENDROOT
BRANCH   1   2
ATOM      2  C   UNL     1      -0.283   9.042   9.204  1.00  0.00     0.000 C 
BRANCH   2   3
ATOM      3  C   UNL     1      -1.802   8.973   8.949  1.00  0.00     0.000 C 
BRANCH   3   4
ATOM      4  C   UNL     1      -2.353  10.070   8.020  1.00  0.00     0.000 C 
BRANCH   4   5
ATOM      5  C   UNL     1      -2.770   9.529   6.641  1.00  0.00     0.006 C 
BRANCH   5   6
ATOM      6  C   UNL     1      -2.306   8.083   6.423  1.00  0.00     0.053 C 
BRANCH   6   7
ATOM      7  C   UNL     1      -2.410   7.677   4.985  1.00  0.00     0.041 C 
ATOM      8  O   UNL     1      -1.839   6.631   4.579  1.00  0.00    -0.550 OA
ATOM      9  O   UNL     1      -3.170   8.434   4.102  1.00  0.00    -0.550 OA
ENDBRANCH   6   7
ENDBRANCH   5   6
ENDBRANCH   4   5
ENDBRANCH   3   4
ENDBRANCH   2   3
ENDBRANCH   1   2
BRANCH   1  10
ATOM     10  C   UNL     1       2.024   9.951   8.429  1.00  0.00     0.000 C 
BRANCH  10  11
ATOM     11  C   UNL     1       2.483   9.051   9.586  1.00  0.00    -0.000 C 
BRANCH  11  12
ATOM     12  C   UNL     1       4.016   8.965   9.637  1.00  0.00    -0.000 C 
BRANCH  12  13
ATOM     13  C   UNL     1       4.697   9.948   8.672  1.00  0.00    -0.000 C 
BRANCH  13  14
ATOM     14  C   UNL     1       5.837   9.300   7.873  1.00  0.00    -0.000 C 
BRANCH  14  15
ATOM     15  C   UNL     1       5.458   7.882   7.429  1.00  0.00    -0.003 C 
ATOM     16  C   UNL     1       4.473   7.914   6.264  1.00  0.00     0.004 C 
ENDBRANCH  14  15
ENDBRANCH  13  14
ENDBRANCH  12  13
ENDBRANCH  11  12
ENDBRANCH  10  11
ENDBRANCH   1  10
TORSDOF 12
ENDMDL
MODEL 4
REMARK VINA RESULT:    -3.951      3.982      7.370
REMARK INTER + INTRA:          -7.246
REMARK INTER:                  -6.958
REMARK INTRA:                  -0.288
REMARK UNBOUND:                -0.524
REMARK SMILES CCCCCCCCCCCCCC(=O)[O-]
REMARK SMILES IDX 8 1 9 2 10 3 11 4 12 5 13 6 14 7 15 8 16 9 7 10 6 11 5 12
REMARK SMILES IDX 4 13 3 14 2 15 1 16
REMARK H PARENT
REMARK Flexibility Score: inf
ROOT
ATOM      1  C   UNL     1      -0.173   9.191   8.278  1.00  0.00     0.000 C 
ENDROOT
BRANCH   1   2
ATOM      2  C   UNL     1       1.131   9.408   9.071  1.00  0.00     0.000 C 
BRANCH   2   3
ATOM      3  C   UNL     1       2.329   9.907   8.238  1.00  0.00     0.000 C 
BRANCH   3   4
ATOM      4  C   UNL     1       3.616   9.074   8.390  1.00  0.00     0.000 C 
BRANCH   4   5
ATOM      5  C   UNL     1       3.763   8.000   7.298  1.00  0.00     0.006 C 
BRANCH   5   6
ATOM      6  C   UNL     1       5.215   7.854   6.824  1.00  0.00     0.053 C 
BRANCH   6   7
ATOM      7  C   UNL     1       6.158   8.654   7.670  1.00  0.00     0.041 C 
ATOM      8  O   UNL     1       6.554   9.785   7.283  1.00  0.00    -0.550 OA
ATOM      9  O   UNL     1       6.572   8.166   8.903  1.00  0.00    -0.550 OA
ENDBRANCH   6   7
ENDBRANCH   5   6
ENDBRANCH   4   5
ENDBRANCH   3   4
ENDBRANCH   2   3
ENDBRANCH   1   2
BRANCH   1  10
ATOM     10  C   UNL     1      -1.373  10.027   8.758  1.00  0.00     0.000 C 
BRANCH  10  11
ATOM     11  C   UNL     1      -2.533  10.039   7.752  1.00  0.00    -0.000 C 
BRANCH  11  12
ATOM     12  C   UNL     1      -2.755   8.641   7.155  1.00  0.00    -0.000 C 
BRANCH  12  13
ATOM     13  C   UNL     1      -2.694   8.637   5.619  1.00  0.00    -0.000 C 
BRANCH  13  14
ATOM     14  C   UNL     1      -2.125   7.328   5.053  1.00  0.00    -0.000 C 
BRANCH  14  15
ATOM     15  C   UNL     1      -2.955   6.124   5.515  1.00  0.00    -0.003 C 
ATOM     16  C   UNL     1      -2.567   4.861   4.752  1.00  0.00     0.004 C 
ENDBRANCH  14  15
ENDBRANCH  13  14
ENDBRANCH  12  13
ENDBRANCH  11  12
ENDBRANCH  10  11
ENDBRANCH   1  10
TORSDOF 12
ENDMDL
MODEL 5
REMARK VINA RESULT:    -3.766     12.737     14.480
REMARK INTER + INTRA:          -6.931
REMARK INTER:                  -6.031
REMARK INTRA:                  -0.901
REMARK UNBOUND:                -0.524
REMARK SMILES CCCCCCCCCCCCCC(=O)[O-]
REMARK SMILES IDX 8 1 9 2 10 3 11 4 12 5 13 6 14 7 15 8 16 9 7 10 6 11 5 12
REMARK SMILES IDX 4 13 3 14 2 15 1 16
REMARK H PARENT
REMARK Flexibility Score: inf
ROOT
ATOM      1  C   UNL     1       5.513  -6.131   7.150  1.00  0.00     0.000 C 
ENDROOT
BRANCH   1   2
ATOM      2  C   UNL     1       5.022  -7.494   7.680  1.00  0.00     0.000 C 
BRANCH   2   3
ATOM      3  C   UNL     1       4.297  -7.446   9.040  1.00  0.00     0.000 C 
BRANCH   3   4
ATOM      4  C   UNL     1       4.304  -6.068   9.729  1.00  0.00     0.000 C 
BRANCH   4   5
ATOM      5  C   UNL     1       2.986  -5.299   9.536  1.00  0.00     0.006 C 
BRANCH   5   6
ATOM      6  C   UNL     1       2.031  -6.021   8.575  1.00  0.00     0.053 C 
BRANCH   6   7
ATOM      7  C   UNL     1       1.479  -5.091   7.539  1.00  0.00     0.041 C 
ATOM      8  O   UNL     1       2.222  -4.230   6.999  1.00  0.00    -0.550 OA
ATOM      9  O   UNL     1       0.152  -5.201   7.141  1.00  0.00    -0.550 OA
ENDBRANCH   6   7
ENDBRANCH   5   6
ENDBRANCH   4   5
ENDBRANCH   3   4
ENDBRANCH   2   3
ENDBRANCH   1   2
BRANCH   1  10
ATOM     10  C   UNL     1       6.873  -6.165   6.431  1.00  0.00     0.000 C 
BRANCH  10  11
ATOM     11  C   UNL     1       7.886  -5.173   7.023  1.00  0.00    -0.000 C 
BRANCH  11  12
ATOM     12  C   UNL     1       7.664  -5.001   8.533  1.00  0.00    -0.000 C 
BRANCH  12  13
ATOM     13  C   UNL     1       8.983  -4.905   9.318  1.00  0.00    -0.000 C 
BRANCH  13  14
ATOM     14  C   UNL     1       9.118  -3.584  10.091  1.00  0.00    -0.000 C 
BRANCH  14  15
ATOM     15  C   UNL     1       8.597  -2.407   9.259  1.00  0.00    -0.003 C 
ATOM     16  C   UNL     1       8.729  -1.092  10.021  1.00  0.00     0.004 C 
ENDBRANCH  14  15
ENDBRANCH  13  14
ENDBRANCH  12  13
ENDBRANCH  11  12
ENDBRANCH  10  11
ENDBRANCH   1  10
TORSDOF 12
ENDMDL
MODEL 6
REMARK VINA RESULT:    -3.648     12.629     14.434
REMARK INTER + INTRA:          -6.731
REMARK INTER:                  -6.206
REMARK INTRA:                  -0.525
REMARK UNBOUND:                -0.524
REMARK SMILES CCCCCCCCCCCCCC(=O)[O-]
REMARK SMILES IDX 8 1 9 2 10 3 11 4 12 5 13 6 14 7 15 8 16 9 7 10 6 11 5 12
REMARK SMILES IDX 4 13 3 14 2 15 1 16
REMARK H PARENT
REMARK Flexibility Score: inf
ROOT
ATOM      1  C   UNL     1       7.093  -5.789   9.709  1.00  0.00     0.000 C 
ENDROOT
BRANCH   1   2
ATOM      2  C   UNL     1       5.735  -6.419  10.079  1.00  0.00     0.000 C 
BRANCH   2   3
ATOM      3  C   UNL     1       5.492  -7.833   9.513  1.00  0.00     0.000 C 
BRANCH   3   4
ATOM      4  C   UNL     1       4.433  -7.911   8.398  1.00  0.00     0.000 C 
BRANCH   4   5
ATOM      5  C   UNL     1       3.024  -7.535   8.888  1.00  0.00     0.006 C 
BRANCH   5   6
ATOM      6  C   UNL     1       2.235  -6.751   7.830  1.00  0.00     0.053 C 
BRANCH   6   7
ATOM      7  C   UNL     1       2.239  -5.280   8.111  1.00  0.00     0.041 C 
ATOM      8  O   UNL     1       2.710  -4.843   9.194  1.00  0.00    -0.550 OA
ATOM      9  O   UNL     1       1.757  -4.388   7.161  1.00  0.00    -0.550 OA
ENDBRANCH   6   7
ENDBRANCH   5   6
ENDBRANCH   4   5
ENDBRANCH   3   4
ENDBRANCH   2   3
ENDBRANCH   1   2
BRANCH   1  10
ATOM     10  C   UNL     1       7.202  -5.285   8.258  1.00  0.00     0.000 C 
BRANCH  10  11
ATOM     11  C   UNL     1       8.498  -4.506   7.992  1.00  0.00    -0.000 C 
BRANCH  11  12
ATOM     12  C   UNL     1       9.232  -4.199   9.307  1.00  0.00    -0.000 C 
BRANCH  12  13
ATOM     13  C   UNL     1       8.638  -2.991  10.049  1.00  0.00    -0.000 C 
BRANCH  13  14
ATOM     14  C   UNL     1       8.592  -1.726   9.178  1.00  0.00    -0.000 C 
BRANCH  14  15
ATOM     15  C   UNL     1       8.661  -0.463  10.043  1.00  0.00    -0.003 C 
ATOM     16  C   UNL     1       7.517   0.492   9.718  1.00  0.00     0.004 C 
ENDBRANCH  14  15
ENDBRANCH  13  14
ENDBRANCH  12  13
ENDBRANCH  11  12
ENDBRANCH  10  11
ENDBRANCH   1  10
TORSDOF 12
ENDMDL
MODEL 7
REMARK VINA RESULT:    -3.638     13.037     15.739
REMARK INTER + INTRA:          -6.714
REMARK INTER:                  -5.748
REMARK INTRA:                  -0.966
REMARK UNBOUND:                -0.524
REMARK SMILES CCCCCCCCCCCCCC(=O)[O-]
REMARK SMILES IDX 8 1 9 2 10 3 11 4 12 5 13 6 14 7 15 8 16 9 7 10 6 11 5 12
REMARK SMILES IDX 4 13 3 14 2 15 1 16
REMARK H PARENT
REMARK Flexibility Score: inf
ROOT
ATOM      1  C   UNL     1       6.655  -5.781   9.469  1.00  0.00     0.000 C 
ENDROOT
BRANCH   1   2
ATOM      2  C   UNL     1       7.122  -5.261   8.095  1.00  0.00     0.000 C 
BRANCH   2   3
ATOM      3  C   UNL     1       8.392  -4.387   8.122  1.00  0.00     0.000 C 
BRANCH   3   4
ATOM      4  C   UNL     1       9.045  -4.236   9.509  1.00  0.00     0.000 C 
BRANCH   4   5
ATOM      5  C   UNL     1       8.826  -2.842  10.122  1.00  0.00     0.006 C 
BRANCH   5   6
ATOM      6  C   UNL     1       8.512  -1.784   9.055  1.00  0.00     0.053 C 
BRANCH   6   7
ATOM      7  C   UNL     1       8.537  -0.399   9.622  1.00  0.00     0.041 C 
ATOM      8  O   UNL     1       9.596   0.061  10.125  1.00  0.00    -0.550 OA
ATOM      9  O   UNL     1       7.401   0.399   9.563  1.00  0.00    -0.550 OA
ENDBRANCH   6   7
ENDBRANCH   5   6
ENDBRANCH   4   5
ENDBRANCH   3   4
ENDBRANCH   2   3
ENDBRANCH   1   2
BRANCH   1  10
ATOM     10  C   UNL     1       5.527  -6.827   9.419  1.00  0.00     0.000 C 
BRANCH  10  11
ATOM     11  C   UNL     1       5.493  -7.605   8.095  1.00  0.00    -0.000 C 
BRANCH  11  12
ATOM     12  C   UNL     1       4.055  -8.004   7.731  1.00  0.00    -0.000 C 
BRANCH  12  13
ATOM     13  C   UNL     1       3.009  -7.352   8.650  1.00  0.00    -0.000 C 
BRANCH  13  14
ATOM     14  C   UNL     1       1.694  -7.037   7.922  1.00  0.00    -0.000 C 
BRANCH  14  15
ATOM     15  C   UNL     1       1.487  -5.524   7.794  1.00  0.00    -0.003 C 
ATOM     16  C   UNL     1       2.660  -4.754   8.394  1.00  0.00     0.004 C 
ENDBRANCH  14  15
ENDBRANCH  13  14
ENDBRANCH  12  13
ENDBRANCH  11  12
ENDBRANCH  10  11
ENDBRANCH   1  10
TORSDOF 12
ENDMDL
MODEL 8
REMARK VINA RESULT:    -3.563      3.191      6.875
REMARK INTER + INTRA:          -6.586
REMARK INTER:                  -5.815
REMARK INTRA:                  -0.771
REMARK UNBOUND:                -0.524
REMARK SMILES CCCCCCCCCCCCCC(=O)[O-]
REMARK SMILES IDX 8 1 9 2 10 3 11 4 12 5 13 6 14 7 15 8 16 9 7 10 6 11 5 12
REMARK SMILES IDX 4 13 3 14 2 15 1 16
REMARK H PARENT
REMARK Flexibility Score: inf
ROOT
ATOM      1  C   UNL     1      -1.933   9.015   8.189  1.00  0.00     0.000 C 
ENDROOT
BRANCH   1   2
ATOM      2  C   UNL     1      -1.782   9.424   9.668  1.00  0.00     0.000 C 
BRANCH   2   3
ATOM      3  C   UNL     1      -0.337   9.712  10.124  1.00  0.00     0.000 C 
BRANCH   3   4
ATOM      4  C   UNL     1       0.634  10.098   8.993  1.00  0.00     0.000 C 
BRANCH   4   5
ATOM      5  C   UNL     1       1.664   8.996   8.690  1.00  0.00     0.006 C 
BRANCH   5   6
ATOM      6  C   UNL     1       2.963   9.565   8.105  1.00  0.00     0.053 C 
BRANCH   6   7
ATOM      7  C   UNL     1       4.062   8.546   8.098  1.00  0.00     0.041 C 
ATOM      8  O   UNL     1       4.826   8.432   9.092  1.00  0.00    -0.550 OA
ATOM      9  O   UNL     1       4.218   7.698   7.009  1.00  0.00    -0.550 OA
ENDBRANCH   6   7
ENDBRANCH   5   6
ENDBRANCH   4   5
ENDBRANCH   3   4
ENDBRANCH   2   3
ENDBRANCH   1   2
BRANCH   1  10
ATOM     10  C   UNL     1      -3.019   9.779   7.412  1.00  0.00     0.000 C 
BRANCH  10  11
ATOM     11  C   UNL     1      -3.039   9.433   5.915  1.00  0.00    -0.000 C 
BRANCH  11  12
ATOM     12  C   UNL     1      -2.237   8.151   5.640  1.00  0.00    -0.000 C 
BRANCH  12  13
ATOM     13  C   UNL     1      -2.798   7.344   4.458  1.00  0.00    -0.000 C 
BRANCH  13  14
ATOM     14  C   UNL     1      -2.742   5.828   4.696  1.00  0.00    -0.000 C 
BRANCH  14  15
ATOM     15  C   UNL     1      -3.286   5.471   6.084  1.00  0.00    -0.003 C 
ATOM     16  C   UNL     1      -3.456   3.962   6.238  1.00  0.00     0.004 C 
ENDBRANCH  14  15
ENDBRANCH  13  14
ENDBRANCH  12  13
ENDBRANCH  11  12
ENDBRANCH  10  11
ENDBRANCH   1  10
TORSDOF 12
ENDMDL
