MODEL 1
REMARK VINA RESULT:    -6.445      0.000      0.000
REMARK INTER + INTRA:          -7.057
REMARK INTER:                  -7.010
REMARK INTRA:                  -0.047
REMARK UNBOUND:                -0.047
REMARK SMILES COc1cc2ccc(=O)oc2cc1O
REMARK SMILES IDX 3 1 13 2 12 3 11 4 5 5 4 6 6 7 7 8 8 9 9 10 10 11 2 12 1 13
REMARK SMILES IDX 14 14
REMARK H PARENT 14 15
REMARK Flexibility Score: inf
ROOT
ATOM      1  C   UNL     1      42.939  44.920  40.005  1.00  0.00     0.161 A 
ATOM      2  C   UNL     1      41.723  45.003  40.700  1.00  0.00     0.161 A 
ATOM      3  C   UNL     1      41.710  45.271  42.077  1.00  0.00     0.098 A 
ATOM      4  C   UNL     1      42.910  45.461  42.768  1.00  0.00     0.142 A 
ATOM      5  C   UNL     1      44.136  45.380  42.076  1.00  0.00     0.022 A 
ATOM      6  C   UNL     1      44.150  45.111  40.701  1.00  0.00     0.062 A 
ATOM      7  C   UNL     1      45.320  45.574  42.796  1.00  0.00     0.019 A 
ATOM      8  C   UNL     1      45.255  45.840  44.163  1.00  0.00     0.094 A 
ATOM      9  C   UNL     1      44.001  45.905  44.782  1.00  0.00     0.336 A 
ATOM     10  O   UNL     1      43.922  46.144  46.015  1.00  0.00    -0.246 OA
ATOM     11  O   UNL     1      42.891  45.717  44.074  1.00  0.00    -0.423 OA
ENDROOT
BRANCH   1  12
ATOM     12  O   UNL     1      42.904  44.648  38.628  1.00  0.00    -0.493 OA
ATOM     13  C   UNL     1      43.943  43.995  37.908  1.00  0.00     0.278 C 
ENDBRANCH   1  12
BRANCH   2  14
ATOM     14  O   UNL     1      40.524  44.814  40.014  1.00  0.00    -0.504 OA
ATOM     15  H   UNL     1      40.504  44.639  39.017  1.00  0.00     0.293 HD
ENDBRANCH   2  14
TORSDOF 2
ENDMDL
MODEL 2
REMARK VINA RESULT:    -6.258      1.980      5.857
REMARK INTER + INTRA:          -6.854
REMARK INTER:                  -6.799
REMARK INTRA:                  -0.056
REMARK UNBOUND:                -0.047
REMARK SMILES COc1cc2ccc(=O)oc2cc1O
REMARK SMILES IDX 3 1 13 2 12 3 11 4 5 5 4 6 6 7 7 8 8 9 9 10 10 11 2 12 1 13
REMARK SMILES IDX 14 14
REMARK H PARENT 14 15
REMARK Flexibility Score: inf
ROOT
ATOM      1  C   UNL     1      45.459  45.901  46.594  1.00  0.00     0.161 A 
ATOM      2  C   UNL     1      44.129  46.278  46.833  1.00  0.00     0.161 A 
ATOM      3  C   UNL     1      43.190  46.263  45.791  1.00  0.00     0.098 A 
ATOM      4  C   UNL     1      43.571  45.870  44.506  1.00  0.00     0.142 A 
ATOM      5  C   UNL     1      44.906  45.489  44.257  1.00  0.00     0.022 A 
ATOM      6  C   UNL     1      45.846  45.504  45.297  1.00  0.00     0.062 A 
ATOM      7  C   UNL     1      45.258  45.102  42.960  1.00  0.00     0.019 A 
ATOM      8  C   UNL     1      44.287  45.103  41.958  1.00  0.00     0.094 A 
ATOM      9  C   UNL     1      42.982  45.493  42.280  1.00  0.00     0.336 A 
ATOM     10  O   UNL     1      42.092  45.501  41.390  1.00  0.00    -0.246 OA
ATOM     11  O   UNL     1      42.675  45.857  43.521  1.00  0.00    -0.423 OA
ENDROOT
BRANCH   1  12
ATOM     12  O   UNL     1      46.365  45.931  47.666  1.00  0.00    -0.493 OA
ATOM     13  C   UNL     1      46.689  44.810  48.481  1.00  0.00     0.278 C 
ENDBRANCH   1  12
BRANCH   2  14
ATOM     14  O   UNL     1      43.745  46.670  48.115  1.00  0.00    -0.504 OA
ATOM     15  H   UNL     1      44.077  47.532  48.528  1.00  0.00     0.293 HD
ENDBRANCH   2  14
TORSDOF 2
ENDMDL
MODEL 3
REMARK VINA RESULT:    -6.213      1.332      5.387
REMARK INTER + INTRA:          -6.805
REMARK INTER:                  -6.861
REMARK INTRA:                   0.055
REMARK UNBOUND:                -0.047
REMARK SMILES COc1cc2ccc(=O)oc2cc1O
REMARK SMILES IDX 3 1 13 2 12 3 11 4 5 5 4 6 6 7 7 8 8 9 9 10 10 11 2 12 1 13
REMARK SMILES IDX 14 14
REMARK H PARENT 14 15
REMARK Flexibility Score: inf
ROOT
ATOM      1  C   UNL     1      43.574  45.784  44.070  1.00  0.00     0.161 A 
ATOM      2  C   UNL     1      44.867  45.480  43.618  1.00  0.00     0.161 A 
ATOM      3  C   UNL     1      45.087  45.143  42.274  1.00  0.00     0.098 A 
ATOM      4  C   UNL     1      44.020  45.108  41.373  1.00  0.00     0.142 A 
ATOM      5  C   UNL     1      42.717  45.413  41.819  1.00  0.00     0.022 A 
ATOM      6  C   UNL     1      42.495  45.749  43.162  1.00  0.00     0.062 A 
ATOM      7  C   UNL     1      41.669  45.368  40.894  1.00  0.00     0.019 A 
ATOM      8  C   UNL     1      41.939  45.028  39.569  1.00  0.00     0.094 A 
ATOM      9  C   UNL     1      43.258  44.739  39.199  1.00  0.00     0.336 A 
ATOM     10  O   UNL     1      43.522  44.430  38.008  1.00  0.00    -0.246 OA
ATOM     11  O   UNL     1      44.236  44.788  40.099  1.00  0.00    -0.423 OA
ENDROOT
BRANCH   1  12
ATOM     12  O   UNL     1      43.400  46.115  45.422  1.00  0.00    -0.493 OA
ATOM     13  C   UNL     1      43.733  47.377  45.993  1.00  0.00     0.278 C 
ENDBRANCH   1  12
BRANCH   2  14
ATOM     14  O   UNL     1      45.935  45.514  44.514  1.00  0.00    -0.504 OA
ATOM     15  H   UNL     1      46.659  44.807  44.504  1.00  0.00     0.293 HD
ENDBRANCH   2  14
TORSDOF 2
ENDMDL
MODEL 4
REMARK VINA RESULT:    -5.866      1.248      5.014
REMARK INTER + INTRA:          -6.427
REMARK INTER:                  -6.413
REMARK INTRA:                  -0.014
REMARK UNBOUND:                -0.047
REMARK SMILES COc1cc2ccc(=O)oc2cc1O
REMARK SMILES IDX 3 1 13 2 12 3 11 4 5 5 4 6 6 7 7 8 8 9 9 10 10 11 2 12 1 13
REMARK SMILES IDX 14 14
REMARK H PARENT 14 15
REMARK Flexibility Score: inf
ROOT
ATOM      1  C   UNL     1      45.048  45.769  44.541  1.00  0.00     0.161 A 
ATOM      2  C   UNL     1      43.749  45.940  45.044  1.00  0.00     0.161 A 
ATOM      3  C   UNL     1      42.640  45.839  44.191  1.00  0.00     0.098 A 
ATOM      4  C   UNL     1      42.819  45.565  42.832  1.00  0.00     0.142 A 
ATOM      5  C   UNL     1      44.121  45.392  42.319  1.00  0.00     0.022 A 
ATOM      6  C   UNL     1      45.231  45.493  43.170  1.00  0.00     0.062 A 
ATOM      7  C   UNL     1      44.268  45.120  40.955  1.00  0.00     0.019 A 
ATOM      8  C   UNL     1      43.134  45.029  40.148  1.00  0.00     0.094 A 
ATOM      9  C   UNL     1      41.874  45.213  40.728  1.00  0.00     0.336 A 
ATOM     10  O   UNL     1      40.838  45.134  40.018  1.00  0.00    -0.246 OA
ATOM     11  O   UNL     1      41.762  45.470  42.028  1.00  0.00    -0.423 OA
ENDROOT
BRANCH   1  12
ATOM     12  O   UNL     1      46.128  45.879  45.430  1.00  0.00    -0.493 OA
ATOM     13  C   UNL     1      46.760  47.105  45.784  1.00  0.00     0.278 C 
ENDBRANCH   1  12
BRANCH   2  14
ATOM     14  O   UNL     1      43.567  46.213  46.398  1.00  0.00    -0.504 OA
ATOM     15  H   UNL     1      43.904  47.070  46.818  1.00  0.00     0.293 HD
ENDBRANCH   2  14
TORSDOF 2
ENDMDL
MODEL 5
REMARK VINA RESULT:    -5.821      1.770      5.819
REMARK INTER + INTRA:          -6.379
REMARK INTER:                  -6.314
REMARK INTRA:                  -0.065
REMARK UNBOUND:                -0.047
REMARK SMILES COc1cc2ccc(=O)oc2cc1O
REMARK SMILES IDX 3 1 13 2 12 3 11 4 5 5 4 6 6 7 7 8 8 9 9 10 10 11 2 12 1 13
REMARK SMILES IDX 14 14
REMARK H PARENT 14 15
REMARK Flexibility Score: inf
ROOT
ATOM      1  C   UNL     1      44.066  46.212  45.889  1.00  0.00     0.161 A 
ATOM      2  C   UNL     1      45.375  46.106  45.393  1.00  0.00     0.161 A 
ATOM      3  C   UNL     1      45.597  45.822  44.038  1.00  0.00     0.098 A 
ATOM      4  C   UNL     1      44.517  45.644  43.169  1.00  0.00     0.142 A 
ATOM      5  C   UNL     1      43.199  45.749  43.660  1.00  0.00     0.022 A 
ATOM      6  C   UNL     1      42.975  46.032  45.015  1.00  0.00     0.062 A 
ATOM      7  C   UNL     1      42.139  45.564  42.766  1.00  0.00     0.019 A 
ATOM      8  C   UNL     1      42.413  45.284  41.428  1.00  0.00     0.094 A 
ATOM      9  C   UNL     1      43.746  45.195  41.013  1.00  0.00     0.336 A 
ATOM     10  O   UNL     1      44.014  44.944  39.809  1.00  0.00    -0.246 OA
ATOM     11  O   UNL     1      44.736  45.375  41.883  1.00  0.00    -0.423 OA
ENDROOT
BRANCH   1  12
ATOM     12  O   UNL     1      43.891  46.497  47.252  1.00  0.00    -0.493 OA
ATOM     13  C   UNL     1      43.571  45.527  48.245  1.00  0.00     0.278 C 
ENDBRANCH   1  12
BRANCH   2  14
ATOM     14  O   UNL     1      46.454  46.284  46.256  1.00  0.00    -0.504 OA
ATOM     15  H   UNL     1      47.089  47.067  46.159  1.00  0.00     0.293 HD
ENDBRANCH   2  14
TORSDOF 2
ENDMDL
MODEL 6
REMARK VINA RESULT:    -5.721      2.364      4.156
REMARK INTER + INTRA:          -6.270
REMARK INTER:                  -6.206
REMARK INTRA:                  -0.064
REMARK UNBOUND:                -0.047
REMARK SMILES COc1cc2ccc(=O)oc2cc1O
REMARK SMILES IDX 3 1 13 2 12 3 11 4 5 5 4 6 6 7 7 8 8 9 9 10 10 11 2 12 1 13
REMARK SMILES IDX 14 14
REMARK H PARENT 14 15
REMARK Flexibility Score: inf
ROOT
ATOM      1  C   UNL     1      43.721  45.582  43.356  1.00  0.00     0.161 A 
ATOM      2  C   UNL     1      44.885  44.798  43.344  1.00  0.00     0.161 A 
ATOM      3  C   UNL     1      45.663  44.668  44.504  1.00  0.00     0.098 A 
ATOM      4  C   UNL     1      45.284  45.316  45.683  1.00  0.00     0.142 A 
ATOM      5  C   UNL     1      44.116  46.105  45.703  1.00  0.00     0.022 A 
ATOM      6  C   UNL     1      43.337  46.237  44.545  1.00  0.00     0.062 A 
ATOM      7  C   UNL     1      43.763  46.742  46.897  1.00  0.00     0.019 A 
ATOM      8  C   UNL     1      44.569  46.580  48.024  1.00  0.00     0.094 A 
ATOM      9  C   UNL     1      45.715  45.782  47.928  1.00  0.00     0.336 A 
ATOM     10  O   UNL     1      46.455  45.624  48.934  1.00  0.00    -0.246 OA
ATOM     11  O   UNL     1      46.027  45.187  46.780  1.00  0.00    -0.423 OA
ENDROOT
BRANCH   1  12
ATOM     12  O   UNL     1      42.974  45.684  42.173  1.00  0.00    -0.493 OA
ATOM     13  C   UNL     1      41.693  45.095  41.974  1.00  0.00     0.278 C 
ENDBRANCH   1  12
BRANCH   2  14
ATOM     14  O   UNL     1      45.266  44.150  42.171  1.00  0.00    -0.504 OA
ATOM     15  H   UNL     1      45.873  43.339  42.184  1.00  0.00     0.293 HD
ENDBRANCH   2  14
TORSDOF 2
ENDMDL
MODEL 7
REMARK VINA RESULT:    -5.706      1.722      2.764
REMARK INTER + INTRA:          -6.254
REMARK INTER:                  -6.223
REMARK INTRA:                  -0.031
REMARK UNBOUND:                -0.047
REMARK SMILES COc1cc2ccc(=O)oc2cc1O
REMARK SMILES IDX 3 1 13 2 12 3 11 4 5 5 4 6 6 7 7 8 8 9 9 10 10 11 2 12 1 13
REMARK SMILES IDX 14 14
REMARK H PARENT 14 15
REMARK Flexibility Score: inf
ROOT
ATOM      1  C   UNL     1      42.596  45.478  41.680  1.00  0.00     0.161 A 
ATOM      2  C   UNL     1      43.893  45.130  41.270  1.00  0.00     0.161 A 
ATOM      3  C   UNL     1      44.946  45.110  42.195  1.00  0.00     0.098 A 
ATOM      4  C   UNL     1      44.714  45.434  43.535  1.00  0.00     0.142 A 
ATOM      5  C   UNL     1      43.414  45.784  43.955  1.00  0.00     0.022 A 
ATOM      6  C   UNL     1      42.360  45.806  43.030  1.00  0.00     0.062 A 
ATOM      7  C   UNL     1      43.212  46.105  45.301  1.00  0.00     0.019 A 
ATOM      8  C   UNL     1      44.292  46.068  46.183  1.00  0.00     0.094 A 
ATOM      9  C   UNL     1      45.554  45.711  45.694  1.00  0.00     0.336 A 
ATOM     10  O   UNL     1      46.542  45.672  46.473  1.00  0.00    -0.246 OA
ATOM     11  O   UNL     1      45.718  45.411  44.408  1.00  0.00    -0.423 OA
ENDROOT
BRANCH   1  12
ATOM     12  O   UNL     1      41.573  45.486  40.720  1.00  0.00    -0.493 OA
ATOM     13  C   UNL     1      40.776  44.356  40.380  1.00  0.00     0.278 C 
ENDBRANCH   1  12
BRANCH   2  14
ATOM     14  O   UNL     1      44.128  44.806  39.935  1.00  0.00    -0.504 OA
ATOM     15  H   UNL     1      43.879  43.901  39.556  1.00  0.00     0.293 HD
ENDBRANCH   2  14
TORSDOF 2
ENDMDL
MODEL 8
REMARK VINA RESULT:    -5.622      3.115      5.265
REMARK INTER + INTRA:          -6.163
REMARK INTER:                  -6.117
REMARK INTRA:                  -0.045
REMARK UNBOUND:                -0.047
REMARK SMILES COc1cc2ccc(=O)oc2cc1O
REMARK SMILES IDX 3 1 13 2 12 3 11 4 5 5 4 6 6 7 7 8 8 9 9 10 10 11 2 12 1 13
REMARK SMILES IDX 14 14
REMARK H PARENT 14 15
REMARK Flexibility Score: inf
ROOT
ATOM      1  C   UNL     1      44.452  45.862  44.738  1.00  0.00     0.161 A 
ATOM      2  C   UNL     1      44.056  46.743  45.756  1.00  0.00     0.161 A 
ATOM      3  C   UNL     1      44.548  46.585  47.060  1.00  0.00     0.098 A 
ATOM      4  C   UNL     1      45.438  45.549  47.356  1.00  0.00     0.142 A 
ATOM      5  C   UNL     1      45.841  44.660  46.339  1.00  0.00     0.022 A 
ATOM      6  C   UNL     1      45.350  44.816  45.035  1.00  0.00     0.062 A 
ATOM      7  C   UNL     1      46.732  43.633  46.666  1.00  0.00     0.019 A 
ATOM      8  C   UNL     1      47.194  43.518  47.977  1.00  0.00     0.094 A 
ATOM      9  C   UNL     1      46.750  44.438  48.934  1.00  0.00     0.336 A 
ATOM     10  O   UNL     1      47.155  44.352  50.123  1.00  0.00    -0.246 OA
ATOM     11  O   UNL     1      45.902  45.406  48.596  1.00  0.00    -0.423 OA
ENDROOT
BRANCH   1  12
ATOM     12  O   UNL     1      43.934  46.057  43.448  1.00  0.00    -0.493 OA
ATOM     13  C   UNL     1      44.071  45.131  42.375  1.00  0.00     0.278 C 
ENDBRANCH   1  12
BRANCH   2  14
ATOM     14  O   UNL     1      43.168  47.777  45.464  1.00  0.00    -0.504 OA
ATOM     15  H   UNL     1      43.458  48.747  45.484  1.00  0.00     0.293 HD
ENDBRANCH   2  14
TORSDOF 2
ENDMDL
MODEL 9
REMARK VINA RESULT:    -5.553      4.145      7.175
REMARK INTER + INTRA:          -6.088
REMARK INTER:                  -6.040
REMARK INTRA:                  -0.047
REMARK UNBOUND:                -0.047
REMARK SMILES COc1cc2ccc(=O)oc2cc1O
REMARK SMILES IDX 3 1 13 2 12 3 11 4 5 5 4 6 6 7 7 8 8 9 9 10 10 11 2 12 1 13
REMARK SMILES IDX 14 14
REMARK H PARENT 14 15
REMARK Flexibility Score: inf
ROOT
ATOM      1  C   UNL     1      47.567  43.925  47.696  1.00  0.00     0.161 A 
ATOM      2  C   UNL     1      46.742  44.323  48.760  1.00  0.00     0.161 A 
ATOM      3  C   UNL     1      45.540  45.002  48.509  1.00  0.00     0.098 A 
ATOM      4  C   UNL     1      45.153  45.285  47.196  1.00  0.00     0.142 A 
ATOM      5  C   UNL     1      45.975  44.888  46.122  1.00  0.00     0.022 A 
ATOM      6  C   UNL     1      47.177  44.211  46.372  1.00  0.00     0.062 A 
ATOM      7  C   UNL     1      45.561  45.187  44.820  1.00  0.00     0.019 A 
ATOM      8  C   UNL     1      44.357  45.862  44.622  1.00  0.00     0.094 A 
ATOM      9  C   UNL     1      43.593  46.225  45.737  1.00  0.00     0.336 A 
ATOM     10  O   UNL     1      42.503  46.835  45.580  1.00  0.00    -0.246 OA
ATOM     11  O   UNL     1      44.010  45.928  46.965  1.00  0.00    -0.423 OA
ENDROOT
BRANCH   1  12
ATOM     12  O   UNL     1      48.760  43.250  47.994  1.00  0.00    -0.493 OA
ATOM     13  C   UNL     1      49.390  42.307  47.133  1.00  0.00     0.278 C 
ENDBRANCH   1  12
BRANCH   2  14
ATOM     14  O   UNL     1      47.125  44.042  50.070  1.00  0.00    -0.504 OA
ATOM     15  H   UNL     1      46.451  43.763  50.773  1.00  0.00     0.293 HD
ENDBRANCH   2  14
TORSDOF 2
ENDMDL
