MODEL 1
REMARK VINA RESULT:    -6.409      0.000      0.000
REMARK INTER + INTRA:          -7.800
REMARK INTER:                  -7.533
REMARK INTRA:                  -0.267
REMARK UNBOUND:                -0.267
REMARK SMILES O=c1cc(-c2ccc(O)c(O)c2)oc2cc(O)cc(O)c12
REMARK SMILES IDX 4 1 3 2 2 3 1 4 21 5 19 6 18 7 16 8 15 9 14 10 13 11 5 12
REMARK SMILES IDX 6 13 7 14 8 15 12 16 10 17 9 18 11 20 20 22 17 24
REMARK H PARENT 9 19 11 21 20 23 17 25
REMARK Flexibility Score: inf
ROOT
ATOM      1  C   UNL     1      12.349 -11.081 -44.218  1.00  0.00     0.138 A 
ATOM      2  C   UNL     1      11.767 -12.213 -44.804  1.00  0.00     0.100 A 
ATOM      3  C   UNL     1      12.578 -13.267 -45.225  1.00  0.00     0.197 A 
ATOM      4  O   UNL     1      12.030 -14.244 -45.798  1.00  0.00    -0.289 OA
ATOM      5  C   UNL     1      13.977 -13.202 -45.025  1.00  0.00     0.107 A 
ATOM      6  C   UNL     1      14.900 -14.231 -45.382  1.00  0.00     0.134 A 
ATOM      7  C   UNL     1      16.275 -14.011 -45.225  1.00  0.00     0.093 A 
ATOM      8  C   UNL     1      16.756 -12.826 -44.671  1.00  0.00     0.123 A 
ATOM      9  C   UNL     1      15.860 -11.833 -44.271  1.00  0.00     0.094 A 
ATOM     10  C   UNL     1      14.486 -12.007 -44.447  1.00  0.00     0.146 A 
ATOM     11  O   UNL     1      13.669 -11.030 -44.069  1.00  0.00    -0.456 OA
ENDROOT
BRANCH   1  12
ATOM     12  C   UNL     1      11.534  -9.932 -43.748  1.00  0.00     0.021 A 
ATOM     13  C   UNL     1      11.098  -8.923 -44.630  1.00  0.00     0.016 A 
ATOM     14  C   UNL     1      10.341  -7.848 -44.157  1.00  0.00     0.051 A 
ATOM     15  C   UNL     1      10.012  -7.757 -42.799  1.00  0.00     0.157 A 
ATOM     16  C   UNL     1      11.210  -9.825 -42.384  1.00  0.00     0.062 A 
ATOM     17  C   UNL     1      10.451  -8.751 -41.909  1.00  0.00     0.158 A 
BRANCH  15  18
ATOM     18  O   UNL     1       9.254  -6.683 -42.332  1.00  0.00    -0.504 OA
ATOM     19  H   UNL     1       9.233  -6.436 -41.350  1.00  0.00     0.293 HD
ENDBRANCH  15  18
BRANCH  17  20
ATOM     20  O   UNL     1      10.144  -8.686 -40.550  1.00  0.00    -0.504 OA
ATOM     21  H   UNL     1      10.501  -7.952 -39.951  1.00  0.00     0.293 HD
ENDBRANCH  17  20
ENDBRANCH   1  12
BRANCH   6  22
ATOM     22  O   UNL     1      14.524 -15.485 -45.871  1.00  0.00    -0.507 OA
ATOM     23  H   UNL     1      13.690 -15.674 -46.407  1.00  0.00     0.293 HD
ENDBRANCH   6  22
BRANCH   8  24
ATOM     24  O   UNL     1      18.129 -12.648 -44.514  1.00  0.00    -0.508 OA
ATOM     25  H   UNL     1      18.591 -12.836 -43.633  1.00  0.00     0.293 HD
ENDBRANCH   8  24
TORSDOF 5
ENDMDL
MODEL 2
REMARK VINA RESULT:    -6.335     10.127     12.977
REMARK INTER + INTRA:          -7.712
REMARK INTER:                  -7.449
REMARK INTRA:                  -0.263
REMARK UNBOUND:                -0.267
REMARK SMILES O=c1cc(-c2ccc(O)c(O)c2)oc2cc(O)cc(O)c12
REMARK SMILES IDX 4 1 3 2 2 3 1 4 21 5 19 6 18 7 16 8 15 9 14 10 13 11 5 12
REMARK SMILES IDX 6 13 7 14 8 15 12 16 10 17 9 18 11 20 20 22 17 24
REMARK H PARENT 9 19 11 21 20 23 17 25
REMARK Flexibility Score: inf
ROOT
ATOM      1  C   UNL     1      14.302 -20.956 -39.614  1.00  0.00     0.138 A 
ATOM      2  C   UNL     1      13.713 -19.846 -38.993  1.00  0.00     0.100 A 
ATOM      3  C   UNL     1      12.664 -20.034 -38.092  1.00  0.00     0.197 A 
ATOM      4  O   UNL     1      12.121 -19.015 -37.595  1.00  0.00    -0.289 OA
ATOM      5  C   UNL     1      12.228 -21.345 -37.784  1.00  0.00     0.107 A 
ATOM      6  C   UNL     1      11.190 -21.660 -36.855  1.00  0.00     0.134 A 
ATOM      7  C   UNL     1      10.778 -22.991 -36.707  1.00  0.00     0.093 A 
ATOM      8  C   UNL     1      11.401 -24.021 -37.408  1.00  0.00     0.123 A 
ATOM      9  C   UNL     1      12.450 -23.730 -38.282  1.00  0.00     0.094 A 
ATOM     10  C   UNL     1      12.862 -22.410 -38.478  1.00  0.00     0.146 A 
ATOM     11  O   UNL     1      13.853 -22.175 -39.332  1.00  0.00    -0.456 OA
ENDROOT
BRANCH   1  12
ATOM     12  C   UNL     1      15.423 -20.814 -40.578  1.00  0.00     0.021 A 
ATOM     13  C   UNL     1      15.196 -20.619 -41.954  1.00  0.00     0.016 A 
ATOM     14  C   UNL     1      16.272 -20.500 -42.839  1.00  0.00     0.051 A 
ATOM     15  C   UNL     1      17.588 -20.580 -42.368  1.00  0.00     0.157 A 
ATOM     16  C   UNL     1      16.748 -20.907 -40.116  1.00  0.00     0.062 A 
ATOM     17  C   UNL     1      17.825 -20.786 -41.000  1.00  0.00     0.158 A 
BRANCH  15  18
ATOM     18  O   UNL     1      18.657 -20.458 -43.254  1.00  0.00    -0.504 OA
ATOM     19  H   UNL     1      18.959 -21.233 -43.833  1.00  0.00     0.293 HD
ENDBRANCH  15  18
BRANCH  17  20
ATOM     20  O   UNL     1      19.125 -20.875 -40.500  1.00  0.00    -0.504 OA
ATOM     21  H   UNL     1      19.801 -21.530 -40.872  1.00  0.00     0.293 HD
ENDBRANCH  17  20
ENDBRANCH   1  12
BRANCH   6  22
ATOM     22  O   UNL     1      10.552 -20.719 -36.044  1.00  0.00    -0.507 OA
ATOM     23  H   UNL     1       9.583 -20.754 -35.765  1.00  0.00     0.293 HD
ENDBRANCH   6  22
BRANCH   8  24
ATOM     24  O   UNL     1      10.976 -25.335 -37.224  1.00  0.00    -0.508 OA
ATOM     25  H   UNL     1      10.476 -25.619 -36.389  1.00  0.00     0.293 HD
ENDBRANCH   8  24
TORSDOF 5
ENDMDL
MODEL 3
REMARK VINA RESULT:    -6.327      1.717      6.549
REMARK INTER + INTRA:          -7.704
REMARK INTER:                  -7.401
REMARK INTRA:                  -0.303
REMARK UNBOUND:                -0.267
REMARK SMILES O=c1cc(-c2ccc(O)c(O)c2)oc2cc(O)cc(O)c12
REMARK SMILES IDX 4 1 3 2 2 3 1 4 21 5 19 6 18 7 16 8 15 9 14 10 13 11 5 12
REMARK SMILES IDX 6 13 7 14 8 15 12 16 10 17 9 18 11 20 20 22 17 24
REMARK H PARENT 9 19 11 21 20 23 17 25
REMARK Flexibility Score: inf
ROOT
ATOM      1  C   UNL     1      13.295 -11.883 -44.548  1.00  0.00     0.138 A 
ATOM      2  C   UNL     1      12.330 -12.785 -45.016  1.00  0.00     0.100 A 
ATOM      3  C   UNL     1      10.996 -12.383 -45.110  1.00  0.00     0.197 A 
ATOM      4  O   UNL     1      10.146 -13.232 -45.479  1.00  0.00    -0.289 OA
ATOM      5  C   UNL     1      10.636 -11.057 -44.769  1.00  0.00     0.107 A 
ATOM      6  C   UNL     1       9.314 -10.524 -44.859  1.00  0.00     0.134 A 
ATOM      7  C   UNL     1       9.061  -9.225 -44.398  1.00  0.00     0.093 A 
ATOM      8  C   UNL     1      10.089  -8.421 -43.907  1.00  0.00     0.123 A 
ATOM      9  C   UNL     1      11.394  -8.914 -43.862  1.00  0.00     0.094 A 
ATOM     10  C   UNL     1      11.673 -10.217 -44.281  1.00  0.00     0.146 A 
ATOM     11  O   UNL     1      12.926 -10.653 -44.205  1.00  0.00    -0.456 OA
ENDROOT
BRANCH   1  12
ATOM     12  C   UNL     1      14.728 -12.257 -44.431  1.00  0.00     0.021 A 
ATOM     13  C   UNL     1      15.335 -13.154 -45.331  1.00  0.00     0.016 A 
ATOM     14  C   UNL     1      16.682 -13.496 -45.189  1.00  0.00     0.051 A 
ATOM     15  C   UNL     1      17.444 -12.955 -44.145  1.00  0.00     0.157 A 
ATOM     16  C   UNL     1      15.496 -11.729 -43.378  1.00  0.00     0.062 A 
ATOM     17  C   UNL     1      16.845 -12.069 -43.235  1.00  0.00     0.158 A 
BRANCH  15  18
ATOM     18  O   UNL     1      18.788 -13.297 -44.009  1.00  0.00    -0.504 OA
ATOM     19  H   UNL     1      19.467 -13.083 -44.730  1.00  0.00     0.293 HD
ENDBRANCH  15  18
BRANCH  17  20
ATOM     20  O   UNL     1      17.575 -11.516 -42.183  1.00  0.00    -0.504 OA
ATOM     21  H   UNL     1      18.510 -11.148 -42.310  1.00  0.00     0.293 HD
ENDBRANCH  17  20
ENDBRANCH   1  12
BRANCH   6  22
ATOM     22  O   UNL     1       8.227 -11.211 -45.406  1.00  0.00    -0.507 OA
ATOM     23  H   UNL     1       7.794 -11.001 -46.292  1.00  0.00     0.293 HD
ENDBRANCH   6  22
BRANCH   8  24
ATOM     24  O   UNL     1       9.803  -7.129 -43.473  1.00  0.00    -0.508 OA
ATOM     25  H   UNL     1       9.226  -6.958 -42.658  1.00  0.00     0.293 HD
ENDBRANCH   8  24
TORSDOF 5
ENDMDL
MODEL 4
REMARK VINA RESULT:    -6.315      2.770      6.698
REMARK INTER + INTRA:          -7.689
REMARK INTER:                  -7.402
REMARK INTRA:                  -0.287
REMARK UNBOUND:                -0.267
REMARK SMILES O=c1cc(-c2ccc(O)c(O)c2)oc2cc(O)cc(O)c12
REMARK SMILES IDX 4 1 3 2 2 3 1 4 21 5 19 6 18 7 16 8 15 9 14 10 13 11 5 12
REMARK SMILES IDX 6 13 7 14 8 15 12 16 10 17 9 18 11 20 20 22 17 24
REMARK H PARENT 9 19 11 21 20 23 17 25
REMARK Flexibility Score: inf
ROOT
ATOM      1  C   UNL     1      12.235 -11.984 -44.917  1.00  0.00     0.138 A 
ATOM      2  C   UNL     1      11.600 -10.835 -44.427  1.00  0.00     0.100 A 
ATOM      3  C   UNL     1      10.256 -10.607 -44.729  1.00  0.00     0.197 A 
ATOM      4  O   UNL     1       9.730  -9.540 -44.322  1.00  0.00    -0.289 OA
ATOM      5  C   UNL     1       9.536 -11.555 -45.495  1.00  0.00     0.107 A 
ATOM      6  C   UNL     1       8.154 -11.446 -45.836  1.00  0.00     0.134 A 
ATOM      7  C   UNL     1       7.575 -12.399 -46.683  1.00  0.00     0.093 A 
ATOM      8  C   UNL     1       8.309 -13.486 -47.155  1.00  0.00     0.123 A 
ATOM      9  C   UNL     1       9.648 -13.629 -46.788  1.00  0.00     0.094 A 
ATOM     10  C   UNL     1      10.265 -12.678 -45.972  1.00  0.00     0.146 A 
ATOM     11  O   UNL     1      11.546 -12.843 -45.660  1.00  0.00    -0.456 OA
ENDROOT
BRANCH   1  12
ATOM     12  C   UNL     1      13.661 -12.278 -44.624  1.00  0.00     0.021 A 
ATOM     13  C   UNL     1      14.446 -13.070 -45.484  1.00  0.00     0.016 A 
ATOM     14  C   UNL     1      15.782 -13.339 -45.176  1.00  0.00     0.051 A 
ATOM     15  C   UNL     1      16.356 -12.829 -44.005  1.00  0.00     0.157 A 
ATOM     16  C   UNL     1      14.241 -11.782 -43.443  1.00  0.00     0.062 A 
ATOM     17  C   UNL     1      15.579 -12.048 -43.134  1.00  0.00     0.158 A 
BRANCH  15  18
ATOM     18  O   UNL     1      17.690 -13.098 -43.703  1.00  0.00    -0.504 OA
ATOM     19  H   UNL     1      18.052 -13.001 -42.762  1.00  0.00     0.293 HD
ENDBRANCH  15  18
BRANCH  17  20
ATOM     20  O   UNL     1      16.119 -11.529 -41.957  1.00  0.00    -0.504 OA
ATOM     21  H   UNL     1      16.893 -10.876 -41.962  1.00  0.00     0.293 HD
ENDBRANCH  17  20
ENDBRANCH   1  12
BRANCH   6  22
ATOM     22  O   UNL     1       7.306 -10.444 -45.356  1.00  0.00    -0.507 OA
ATOM     23  H   UNL     1       6.330 -10.346 -45.595  1.00  0.00     0.293 HD
ENDBRANCH   6  22
BRANCH   8  24
ATOM     24  O   UNL     1       7.696 -14.423 -47.983  1.00  0.00    -0.508 OA
ATOM     25  H   UNL     1       7.052 -14.144 -48.714  1.00  0.00     0.293 HD
ENDBRANCH   8  24
TORSDOF 5
ENDMDL
MODEL 5
REMARK VINA RESULT:    -6.303     12.457     14.725
REMARK INTER + INTRA:          -7.675
REMARK INTER:                  -7.383
REMARK INTRA:                  -0.292
REMARK UNBOUND:                -0.267
REMARK SMILES O=c1cc(-c2ccc(O)c(O)c2)oc2cc(O)cc(O)c12
REMARK SMILES IDX 4 1 3 2 2 3 1 4 21 5 19 6 18 7 16 8 15 9 14 10 13 11 5 12
REMARK SMILES IDX 6 13 7 14 8 15 12 16 10 17 9 18 11 20 20 22 17 24
REMARK H PARENT 9 19 11 21 20 23 17 25
REMARK Flexibility Score: inf
ROOT
ATOM      1  C   UNL     1       6.135 -18.852 -36.132  1.00  0.00     0.138 A 
ATOM      2  C   UNL     1       5.538 -18.251 -37.249  1.00  0.00     0.100 A 
ATOM      3  C   UNL     1       4.846 -17.049 -37.100  1.00  0.00     0.197 A 
ATOM      4  O   UNL     1       4.274 -16.564 -38.110  1.00  0.00    -0.289 OA
ATOM      5  C   UNL     1       4.783 -16.426 -35.830  1.00  0.00     0.107 A 
ATOM      6  C   UNL     1       4.135 -15.182 -35.564  1.00  0.00     0.134 A 
ATOM      7  C   UNL     1       4.054 -14.714 -34.247  1.00  0.00     0.093 A 
ATOM      8  C   UNL     1       4.645 -15.412 -33.195  1.00  0.00     0.123 A 
ATOM      9  C   UNL     1       5.325 -16.605 -33.450  1.00  0.00     0.094 A 
ATOM     10  C   UNL     1       5.394 -17.116 -34.748  1.00  0.00     0.146 A 
ATOM     11  O   UNL     1       6.035 -18.263 -34.945  1.00  0.00    -0.456 OA
ENDROOT
BRANCH   1  12
ATOM     12  C   UNL     1       6.886 -20.129 -36.235  1.00  0.00     0.021 A 
ATOM     13  C   UNL     1       6.372 -21.236 -36.937  1.00  0.00     0.016 A 
ATOM     14  C   UNL     1       7.097 -22.429 -37.007  1.00  0.00     0.051 A 
ATOM     15  C   UNL     1       8.340 -22.540 -36.374  1.00  0.00     0.157 A 
ATOM     16  C   UNL     1       8.129 -20.253 -35.591  1.00  0.00     0.062 A 
ATOM     17  C   UNL     1       8.857 -21.446 -35.661  1.00  0.00     0.158 A 
BRANCH  15  18
ATOM     18  O   UNL     1       9.061 -23.731 -36.448  1.00  0.00    -0.504 OA
ATOM     19  H   UNL     1       9.398 -24.201 -35.617  1.00  0.00     0.293 HD
ENDBRANCH  15  18
BRANCH  17  20
ATOM     20  O   UNL     1      10.092 -21.526 -35.015  1.00  0.00    -0.504 OA
ATOM     21  H   UNL     1      10.233 -21.171 -34.077  1.00  0.00     0.293 HD
ENDBRANCH  17  20
ENDBRANCH   1  12
BRANCH   6  22
ATOM     22  O   UNL     1       3.579 -14.362 -36.550  1.00  0.00    -0.507 OA
ATOM     23  H   UNL     1       3.590 -14.555 -37.540  1.00  0.00     0.293 HD
ENDBRANCH   6  22
BRANCH   8  24
ATOM     24  O   UNL     1       4.558 -14.909 -31.900  1.00  0.00    -0.508 OA
ATOM     25  H   UNL     1       4.598 -13.913 -31.713  1.00  0.00     0.293 HD
ENDBRANCH   8  24
TORSDOF 5
ENDMDL
MODEL 6
REMARK VINA RESULT:    -6.207     12.251     14.610
REMARK INTER + INTRA:          -7.562
REMARK INTER:                  -7.252
REMARK INTRA:                  -0.310
REMARK UNBOUND:                -0.267
REMARK SMILES O=c1cc(-c2ccc(O)c(O)c2)oc2cc(O)cc(O)c12
REMARK SMILES IDX 4 1 3 2 2 3 1 4 21 5 19 6 18 7 16 8 15 9 14 10 13 11 5 12
REMARK SMILES IDX 6 13 7 14 8 15 12 16 10 17 9 18 11 20 20 22 17 24
REMARK H PARENT 9 19 11 21 20 23 17 25
REMARK Flexibility Score: inf
ROOT
ATOM      1  C   UNL     1       6.705 -19.809 -36.724  1.00  0.00     0.138 A 
ATOM      2  C   UNL     1       6.326 -19.300 -37.973  1.00  0.00     0.100 A 
ATOM      3  C   UNL     1       5.674 -18.068 -38.048  1.00  0.00     0.197 A 
ATOM      4  O   UNL     1       5.297 -17.664 -39.177  1.00  0.00    -0.289 OA
ATOM      5  C   UNL     1       5.434 -17.326 -36.866  1.00  0.00     0.107 A 
ATOM      6  C   UNL     1       4.809 -16.043 -36.822  1.00  0.00     0.134 A 
ATOM      7  C   UNL     1       4.536 -15.450 -35.583  1.00  0.00     0.093 A 
ATOM      8  C   UNL     1       4.916 -16.064 -34.391  1.00  0.00     0.123 A 
ATOM      9  C   UNL     1       5.573 -17.295 -34.423  1.00  0.00     0.094 A 
ATOM     10  C   UNL     1       5.829 -17.929 -35.641  1.00  0.00     0.146 A 
ATOM     11  O   UNL     1       6.441 -19.108 -35.627  1.00  0.00    -0.456 OA
ENDROOT
BRANCH   1  12
ATOM     12  C   UNL     1       7.404 -21.113 -36.587  1.00  0.00     0.021 A 
ATOM     13  C   UNL     1       7.278 -22.126 -37.557  1.00  0.00     0.016 A 
ATOM     14  C   UNL     1       7.939 -23.347 -37.396  1.00  0.00     0.051 A 
ATOM     15  C   UNL     1       8.729 -23.580 -36.264  1.00  0.00     0.157 A 
ATOM     16  C   UNL     1       8.189 -21.360 -35.447  1.00  0.00     0.062 A 
ATOM     17  C   UNL     1       8.852 -22.581 -35.284  1.00  0.00     0.158 A 
BRANCH  15  18
ATOM     18  O   UNL     1       9.388 -24.798 -36.108  1.00  0.00    -0.504 OA
ATOM     19  H   UNL     1      10.359 -24.844 -35.821  1.00  0.00     0.293 HD
ENDBRANCH  15  18
BRANCH  17  20
ATOM     20  O   UNL     1       9.628 -22.784 -34.143  1.00  0.00    -0.504 OA
ATOM     21  H   UNL     1      10.570 -22.421 -34.061  1.00  0.00     0.293 HD
ENDBRANCH  17  20
ENDBRANCH   1  12
BRANCH   6  22
ATOM     22  O   UNL     1       4.459 -15.303 -37.955  1.00  0.00    -0.507 OA
ATOM     23  H   UNL     1       4.179 -15.696 -38.841  1.00  0.00     0.293 HD
ENDBRANCH   6  22
BRANCH   8  24
ATOM     24  O   UNL     1       4.643 -15.438 -33.177  1.00  0.00    -0.508 OA
ATOM     25  H   UNL     1       5.309 -15.446 -32.413  1.00  0.00     0.293 HD
ENDBRANCH   8  24
TORSDOF 5
ENDMDL
MODEL 7
REMARK VINA RESULT:    -6.140      3.105      4.001
REMARK INTER + INTRA:          -7.484
REMARK INTER:                  -7.207
REMARK INTRA:                  -0.276
REMARK UNBOUND:                -0.267
REMARK SMILES O=c1cc(-c2ccc(O)c(O)c2)oc2cc(O)cc(O)c12
REMARK SMILES IDX 4 1 3 2 2 3 1 4 21 5 19 6 18 7 16 8 15 9 14 10 13 11 5 12
REMARK SMILES IDX 6 13 7 14 8 15 12 16 10 17 9 18 11 20 20 22 17 24
REMARK H PARENT 9 19 11 21 20 23 17 25
REMARK Flexibility Score: inf
ROOT
ATOM      1  C   UNL     1      11.596 -13.212 -45.582  1.00  0.00     0.138 A 
ATOM      2  C   UNL     1      12.302 -13.909 -46.572  1.00  0.00     0.100 A 
ATOM      3  C   UNL     1      13.691 -14.019 -46.482  1.00  0.00     0.197 A 
ATOM      4  O   UNL     1      14.301 -14.602 -47.414  1.00  0.00    -0.289 OA
ATOM      5  C   UNL     1      14.370 -13.459 -45.373  1.00  0.00     0.107 A 
ATOM      6  C   UNL     1      15.779 -13.538 -45.157  1.00  0.00     0.134 A 
ATOM      7  C   UNL     1      16.350 -12.858 -44.073  1.00  0.00     0.093 A 
ATOM      8  C   UNL     1      15.560 -12.153 -43.167  1.00  0.00     0.123 A 
ATOM      9  C   UNL     1      14.176 -12.110 -43.340  1.00  0.00     0.094 A 
ATOM     10  C   UNL     1      13.579 -12.748 -44.430  1.00  0.00     0.146 A 
ATOM     11  O   UNL     1      12.260 -12.669 -44.568  1.00  0.00    -0.456 OA
ENDROOT
BRANCH   1  12
ATOM     12  C   UNL     1      10.118 -13.068 -45.627  1.00  0.00     0.021 A 
ATOM     13  C   UNL     1       9.263 -14.187 -45.596  1.00  0.00     0.016 A 
ATOM     14  C   UNL     1       7.877 -14.020 -45.651  1.00  0.00     0.051 A 
ATOM     15  C   UNL     1       7.321 -12.738 -45.744  1.00  0.00     0.157 A 
ATOM     16  C   UNL     1       9.552 -11.785 -45.735  1.00  0.00     0.062 A 
ATOM     17  C   UNL     1       8.164 -11.616 -45.788  1.00  0.00     0.158 A 
BRANCH  15  18
ATOM     18  O   UNL     1       5.937 -12.577 -45.796  1.00  0.00    -0.504 OA
ATOM     19  H   UNL     1       5.508 -11.841 -46.345  1.00  0.00     0.293 HD
ENDBRANCH  15  18
BRANCH  17  20
ATOM     20  O   UNL     1       7.642 -10.326 -45.885  1.00  0.00    -0.504 OA
ATOM     21  H   UNL     1       6.646 -10.144 -45.847  1.00  0.00     0.293 HD
ENDBRANCH  17  20
ENDBRANCH   1  12
BRANCH   6  22
ATOM     22  O   UNL     1      16.654 -14.280 -45.955  1.00  0.00    -0.507 OA
ATOM     23  H   UNL     1      17.564 -13.972 -46.261  1.00  0.00     0.293 HD
ENDBRANCH   6  22
BRANCH   8  24
ATOM     24  O   UNL     1      16.161 -11.503 -42.092  1.00  0.00    -0.508 OA
ATOM     25  H   UNL     1      17.055 -11.035 -42.186  1.00  0.00     0.293 HD
ENDBRANCH   8  24
TORSDOF 5
ENDMDL
MODEL 8
REMARK VINA RESULT:    -6.034      3.006      6.479
REMARK INTER + INTRA:          -7.359
REMARK INTER:                  -7.088
REMARK INTRA:                  -0.271
REMARK UNBOUND:                -0.267
REMARK SMILES O=c1cc(-c2ccc(O)c(O)c2)oc2cc(O)cc(O)c12
REMARK SMILES IDX 4 1 3 2 2 3 1 4 21 5 19 6 18 7 16 8 15 9 14 10 13 11 5 12
REMARK SMILES IDX 6 13 7 14 8 15 12 16 10 17 9 18 11 20 20 22 17 24
REMARK H PARENT 9 19 11 21 20 23 17 25
REMARK Flexibility Score: inf
ROOT
ATOM      1  C   UNL     1      12.381 -13.272 -44.787  1.00  0.00     0.138 A 
ATOM      2  C   UNL     1      11.807 -14.547 -44.689  1.00  0.00     0.100 A 
ATOM      3  C   UNL     1      10.435 -14.705 -44.894  1.00  0.00     0.197 A 
ATOM      4  O   UNL     1       9.942 -15.852 -44.744  1.00  0.00    -0.289 OA
ATOM      5  C   UNL     1       9.641 -13.584 -45.234  1.00  0.00     0.107 A 
ATOM      6  C   UNL     1       8.239 -13.629 -45.500  1.00  0.00     0.134 A 
ATOM      7  C   UNL     1       7.541 -12.437 -45.730  1.00  0.00     0.093 A 
ATOM      8  C   UNL     1       8.201 -11.210 -45.763  1.00  0.00     0.123 A 
ATOM      9  C   UNL     1       9.580 -11.158 -45.554  1.00  0.00     0.094 A 
ATOM     10  C   UNL     1      10.300 -12.325 -45.287  1.00  0.00     0.146 A 
ATOM     11  O   UNL     1      11.608 -12.231 -45.078  1.00  0.00    -0.456 OA
ENDROOT
BRANCH   1  12
ATOM     12  C   UNL     1      13.835 -13.047 -44.583  1.00  0.00     0.021 A 
ATOM     13  C   UNL     1      14.791 -13.491 -45.517  1.00  0.00     0.016 A 
ATOM     14  C   UNL     1      16.153 -13.275 -45.292  1.00  0.00     0.051 A 
ATOM     15  C   UNL     1      16.585 -12.621 -44.132  1.00  0.00     0.157 A 
ATOM     16  C   UNL     1      14.277 -12.403 -43.414  1.00  0.00     0.062 A 
ATOM     17  C   UNL     1      15.640 -12.185 -43.188  1.00  0.00     0.158 A 
BRANCH  15  18
ATOM     18  O   UNL     1      17.944 -12.406 -43.913  1.00  0.00    -0.504 OA
ATOM     19  H   UNL     1      18.608 -12.380 -44.678  1.00  0.00     0.293 HD
ENDBRANCH  15  18
BRANCH  17  20
ATOM     20  O   UNL     1      16.038 -11.534 -42.020  1.00  0.00    -0.504 OA
ATOM     21  H   UNL     1      15.371 -11.209 -41.331  1.00  0.00     0.293 HD
ENDBRANCH  17  20
ENDBRANCH   1  12
BRANCH   6  22
ATOM     22  O   UNL     1       7.493 -14.809 -45.570  1.00  0.00    -0.507 OA
ATOM     23  H   UNL     1       7.875 -15.741 -45.517  1.00  0.00     0.293 HD
ENDBRANCH   6  22
BRANCH   8  24
ATOM     24  O   UNL     1       7.477 -10.046 -46.010  1.00  0.00    -0.508 OA
ATOM     25  H   UNL     1       7.617  -9.503 -46.855  1.00  0.00     0.293 HD
ENDBRANCH   8  24
TORSDOF 5
ENDMDL
MODEL 9
REMARK VINA RESULT:    -6.000      4.228      6.704
REMARK INTER + INTRA:          -7.319
REMARK INTER:                  -7.002
REMARK INTRA:                  -0.317
REMARK UNBOUND:                -0.267
REMARK SMILES O=c1cc(-c2ccc(O)c(O)c2)oc2cc(O)cc(O)c12
REMARK SMILES IDX 4 1 3 2 2 3 1 4 21 5 19 6 18 7 16 8 15 9 14 10 13 11 5 12
REMARK SMILES IDX 6 13 7 14 8 15 12 16 10 17 9 18 11 20 20 22 17 24
REMARK H PARENT 9 19 11 21 20 23 17 25
REMARK Flexibility Score: inf
ROOT
ATOM      1  C   UNL     1       9.166 -13.367 -45.159  1.00  0.00     0.138 A 
ATOM      2  C   UNL     1      10.461 -13.898 -45.088  1.00  0.00     0.100 A 
ATOM      3  C   UNL     1      11.543 -13.050 -44.843  1.00  0.00     0.197 A 
ATOM      4  O   UNL     1      12.697 -13.548 -44.842  1.00  0.00    -0.289 OA
ATOM      5  C   UNL     1      11.319 -11.669 -44.630  1.00  0.00     0.107 A 
ATOM      6  C   UNL     1      12.341 -10.715 -44.338  1.00  0.00     0.134 A 
ATOM      7  C   UNL     1      12.010  -9.357 -44.245  1.00  0.00     0.093 A 
ATOM      8  C   UNL     1      10.691  -8.925 -44.376  1.00  0.00     0.123 A 
ATOM      9  C   UNL     1       9.677  -9.855 -44.612  1.00  0.00     0.094 A 
ATOM     10  C   UNL     1       9.979 -11.212 -44.744  1.00  0.00     0.146 A 
ATOM     11  O   UNL     1       8.986 -12.062 -44.986  1.00  0.00    -0.456 OA
ENDROOT
BRANCH   1  12
ATOM     12  C   UNL     1       7.979 -14.223 -45.414  1.00  0.00     0.021 A 
ATOM     13  C   UNL     1       8.108 -15.572 -45.801  1.00  0.00     0.016 A 
ATOM     14  C   UNL     1       6.973 -16.350 -46.044  1.00  0.00     0.051 A 
ATOM     15  C   UNL     1       5.694 -15.796 -45.914  1.00  0.00     0.157 A 
ATOM     16  C   UNL     1       6.691 -13.672 -45.298  1.00  0.00     0.062 A 
ATOM     17  C   UNL     1       5.554 -14.449 -45.540  1.00  0.00     0.158 A 
BRANCH  15  18
ATOM     18  O   UNL     1       4.564 -16.577 -46.156  1.00  0.00    -0.504 OA
ATOM     19  H   UNL     1       4.408 -17.451 -45.668  1.00  0.00     0.293 HD
ENDBRANCH  15  18
BRANCH  17  20
ATOM     20  O   UNL     1       4.293 -13.867 -45.406  1.00  0.00    -0.504 OA
ATOM     21  H   UNL     1       3.674 -13.735 -46.196  1.00  0.00     0.293 HD
ENDBRANCH  17  20
ENDBRANCH   1  12
BRANCH   6  22
ATOM     22  O   UNL     1      13.679 -11.045 -44.109  1.00  0.00    -0.507 OA
ATOM     23  H   UNL     1      14.167 -10.919 -43.235  1.00  0.00     0.293 HD
ENDBRANCH   6  22
BRANCH   8  24
ATOM     24  O   UNL     1      10.397  -7.568 -44.261  1.00  0.00    -0.508 OA
ATOM     25  H   UNL     1      10.512  -6.933 -45.042  1.00  0.00     0.293 HD
ENDBRANCH   8  24
TORSDOF 5
ENDMDL
