MODEL 1
REMARK VINA RESULT:    -6.542      0.000      0.000
REMARK INTER + INTRA:          -7.984
REMARK INTER:                  -7.689
REMARK INTRA:                  -0.295
REMARK UNBOUND:                -0.295
REMARK SMILES O=c1cc(-c2ccc(O)c(O)c2)oc2cc(O)cc(O)c12
REMARK SMILES IDX 4 1 3 2 2 3 1 4 21 5 19 6 18 7 16 8 15 9 14 10 13 11 5 12
REMARK SMILES IDX 6 13 7 14 8 15 12 16 10 17 9 18 11 20 20 22 17 24
REMARK H PARENT 9 19 11 21 20 23 17 25
REMARK Flexibility Score: inf
ROOT
ATOM      1  C   UNL     1       8.780  -2.827  19.263  1.00  0.00     0.138 A 
ATOM      2  C   UNL     1       7.481  -2.333  19.074  1.00  0.00     0.100 A 
ATOM      3  C   UNL     1       7.286  -0.968  18.857  1.00  0.00     0.197 A 
ATOM      4  O   UNL     1       6.117  -0.564  18.629  1.00  0.00    -0.289 OA
ATOM      5  C   UNL     1       8.397  -0.090  18.861  1.00  0.00     0.107 A 
ATOM      6  C   UNL     1       8.314   1.324  18.690  1.00  0.00     0.134 A 
ATOM      7  C   UNL     1       9.491   2.077  18.594  1.00  0.00     0.093 A 
ATOM      8  C   UNL     1      10.745   1.475  18.723  1.00  0.00     0.123 A 
ATOM      9  C   UNL     1      10.834   0.103  18.944  1.00  0.00     0.094 A 
ATOM     10  C   UNL     1       9.680  -0.681  19.009  1.00  0.00     0.146 A 
ATOM     11  O   UNL     1       9.810  -1.989  19.207  1.00  0.00    -0.456 OA
ENDROOT
BRANCH   1  12
ATOM     12  C   UNL     1       9.044  -4.269  19.500  1.00  0.00     0.021 A 
ATOM     13  C   UNL     1      10.343  -4.752  19.748  1.00  0.00     0.016 A 
ATOM     14  C   UNL     1      10.564  -6.116  19.957  1.00  0.00     0.051 A 
ATOM     15  C   UNL     1       9.496  -7.020  19.914  1.00  0.00     0.157 A 
ATOM     16  C   UNL     1       7.979  -5.186  19.445  1.00  0.00     0.062 A 
ATOM     17  C   UNL     1       8.197  -6.552  19.655  1.00  0.00     0.158 A 
BRANCH  15  18
ATOM     18  O   UNL     1       9.720  -8.380  20.125  1.00  0.00    -0.504 OA
ATOM     19  H   UNL     1      10.093  -8.727  21.001  1.00  0.00     0.293 HD
ENDBRANCH  15  18
BRANCH  17  20
ATOM     20  O   UNL     1       7.113  -7.426  19.603  1.00  0.00    -0.504 OA
ATOM     21  H   UNL     1       6.232  -7.219  20.059  1.00  0.00     0.293 HD
ENDBRANCH  17  20
ENDBRANCH   1  12
BRANCH   6  22
ATOM     22  O   UNL     1       7.112   2.035  18.634  1.00  0.00    -0.507 OA
ATOM     23  H   UNL     1       6.196   1.616  18.580  1.00  0.00     0.293 HD
ENDBRANCH   6  22
BRANCH   8  24
ATOM     24  O   UNL     1      11.910   2.235  18.642  1.00  0.00    -0.508 OA
ATOM     25  H   UNL     1      12.270   2.560  17.753  1.00  0.00     0.293 HD
ENDBRANCH   8  24
TORSDOF 5
ENDMDL
MODEL 2
REMARK VINA RESULT:    -6.355      1.021      2.660
REMARK INTER + INTRA:          -7.764
REMARK INTER:                  -7.450
REMARK INTRA:                  -0.315
REMARK UNBOUND:                -0.295
REMARK SMILES O=c1cc(-c2ccc(O)c(O)c2)oc2cc(O)cc(O)c12
REMARK SMILES IDX 4 1 3 2 2 3 1 4 21 5 19 6 18 7 16 8 15 9 14 10 13 11 5 12
REMARK SMILES IDX 6 13 7 14 8 15 12 16 10 17 9 18 11 20 20 22 17 24
REMARK H PARENT 9 19 11 21 20 23 17 25
REMARK Flexibility Score: inf
ROOT
ATOM      1  C   UNL     1       9.935  -2.811  19.304  1.00  0.00     0.138 A 
ATOM      2  C   UNL     1      11.157  -2.134  19.178  1.00  0.00     0.100 A 
ATOM      3  C   UNL     1      11.163  -0.755  18.962  1.00  0.00     0.197 A 
ATOM      4  O   UNL     1      12.273  -0.167  18.915  1.00  0.00    -0.289 OA
ATOM      5  C   UNL     1       9.938  -0.057  18.842  1.00  0.00     0.107 A 
ATOM      6  C   UNL     1       9.822   1.341  18.583  1.00  0.00     0.134 A 
ATOM      7  C   UNL     1       8.558   1.944  18.601  1.00  0.00     0.093 A 
ATOM      8  C   UNL     1       7.402   1.189  18.810  1.00  0.00     0.123 A 
ATOM      9  C   UNL     1       7.501  -0.186  19.011  1.00  0.00     0.094 A 
ATOM     10  C   UNL     1       8.749  -0.811  19.033  1.00  0.00     0.146 A 
ATOM     11  O   UNL     1       8.800  -2.123  19.242  1.00  0.00    -0.456 OA
ENDROOT
BRANCH   1  12
ATOM     12  C   UNL     1       9.870  -4.277  19.532  1.00  0.00     0.021 A 
ATOM     13  C   UNL     1      11.003  -5.014  19.928  1.00  0.00     0.016 A 
ATOM     14  C   UNL     1      10.916  -6.395  20.125  1.00  0.00     0.051 A 
ATOM     15  C   UNL     1       9.702  -7.063  19.925  1.00  0.00     0.157 A 
ATOM     16  C   UNL     1       8.659  -4.958  19.320  1.00  0.00     0.062 A 
ATOM     17  C   UNL     1       8.568  -6.341  19.519  1.00  0.00     0.158 A 
BRANCH  15  18
ATOM     18  O   UNL     1       9.619  -8.441  20.125  1.00  0.00    -0.504 OA
ATOM     19  H   UNL     1       9.767  -9.097  19.367  1.00  0.00     0.293 HD
ENDBRANCH  15  18
BRANCH  17  20
ATOM     20  O   UNL     1       7.346  -6.977  19.308  1.00  0.00    -0.504 OA
ATOM     21  H   UNL     1       7.203  -7.629  18.546  1.00  0.00     0.293 HD
ENDBRANCH  17  20
ENDBRANCH   1  12
BRANCH   6  22
ATOM     22  O   UNL     1      10.904   2.171  18.279  1.00  0.00    -0.507 OA
ATOM     23  H   UNL     1      11.572   2.002  17.543  1.00  0.00     0.293 HD
ENDBRANCH   6  22
BRANCH   8  24
ATOM     24  O   UNL     1       6.147   1.794  18.811  1.00  0.00    -0.508 OA
ATOM     25  H   UNL     1       6.041   2.794  18.938  1.00  0.00     0.293 HD
ENDBRANCH   8  24
TORSDOF 5
ENDMDL
MODEL 3
REMARK VINA RESULT:    -6.313      2.334      4.076
REMARK INTER + INTRA:          -7.715
REMARK INTER:                  -7.420
REMARK INTRA:                  -0.295
REMARK UNBOUND:                -0.295
REMARK SMILES O=c1cc(-c2ccc(O)c(O)c2)oc2cc(O)cc(O)c12
REMARK SMILES IDX 4 1 3 2 2 3 1 4 21 5 19 6 18 7 16 8 15 9 14 10 13 11 5 12
REMARK SMILES IDX 6 13 7 14 8 15 12 16 10 17 9 18 11 20 20 22 17 24
REMARK H PARENT 9 19 11 21 20 23 17 25
REMARK Flexibility Score: inf
ROOT
ATOM      1  C   UNL     1      10.686  -3.928  19.682  1.00  0.00     0.138 A 
ATOM      2  C   UNL     1      12.011  -4.342  19.481  1.00  0.00     0.100 A 
ATOM      3  C   UNL     1      13.029  -3.389  19.409  1.00  0.00     0.197 A 
ATOM      4  O   UNL     1      14.214  -3.793  19.290  1.00  0.00    -0.289 OA
ATOM      5  C   UNL     1      12.711  -2.013  19.508  1.00  0.00     0.107 A 
ATOM      6  C   UNL     1      13.660  -0.952  19.409  1.00  0.00     0.134 A 
ATOM      7  C   UNL     1      13.247   0.366  19.640  1.00  0.00     0.093 A 
ATOM      8  C   UNL     1      11.909   0.666  19.906  1.00  0.00     0.123 A 
ATOM      9  C   UNL     1      10.966  -0.358  19.952  1.00  0.00     0.094 A 
ATOM     10  C   UNL     1      11.352  -1.686  19.761  1.00  0.00     0.146 A 
ATOM     11  O   UNL     1      10.423  -2.634  19.827  1.00  0.00    -0.456 OA
ENDROOT
BRANCH   1  12
ATOM     12  C   UNL     1       9.566  -4.900  19.765  1.00  0.00     0.021 A 
ATOM     13  C   UNL     1       8.232  -4.477  19.922  1.00  0.00     0.016 A 
ATOM     14  C   UNL     1       7.198  -5.414  20.007  1.00  0.00     0.051 A 
ATOM     15  C   UNL     1       7.478  -6.784  19.945  1.00  0.00     0.157 A 
ATOM     16  C   UNL     1       9.839  -6.278  19.717  1.00  0.00     0.062 A 
ATOM     17  C   UNL     1       8.806  -7.218  19.801  1.00  0.00     0.158 A 
BRANCH  15  18
ATOM     18  O   UNL     1       6.444  -7.716  20.029  1.00  0.00    -0.504 OA
ATOM     19  H   UNL     1       6.584  -8.628  20.448  1.00  0.00     0.293 HD
ENDBRANCH  15  18
BRANCH  17  20
ATOM     20  O   UNL     1       9.119  -8.575  19.739  1.00  0.00    -0.504 OA
ATOM     21  H   UNL     1       9.147  -9.082  18.862  1.00  0.00     0.293 HD
ENDBRANCH  17  20
ENDBRANCH   1  12
BRANCH   6  22
ATOM     22  O   UNL     1      15.002  -1.134  19.065  1.00  0.00    -0.507 OA
ATOM     23  H   UNL     1      15.444  -2.028  18.919  1.00  0.00     0.293 HD
ENDBRANCH   6  22
BRANCH   8  24
ATOM     24  O   UNL     1      11.504   1.982  20.119  1.00  0.00    -0.508 OA
ATOM     25  H   UNL     1      11.729   2.474  20.976  1.00  0.00     0.293 HD
ENDBRANCH   8  24
TORSDOF 5
ENDMDL
MODEL 4
REMARK VINA RESULT:    -6.116      3.338      4.994
REMARK INTER + INTRA:          -7.483
REMARK INTER:                  -7.190
REMARK INTRA:                  -0.293
REMARK UNBOUND:                -0.295
REMARK SMILES O=c1cc(-c2ccc(O)c(O)c2)oc2cc(O)cc(O)c12
REMARK SMILES IDX 4 1 3 2 2 3 1 4 21 5 19 6 18 7 16 8 15 9 14 10 13 11 5 12
REMARK SMILES IDX 6 13 7 14 8 15 12 16 10 17 9 18 11 20 20 22 17 24
REMARK H PARENT 9 19 11 21 20 23 17 25
REMARK Flexibility Score: inf
ROOT
ATOM      1  C   UNL     1      10.960  -4.285  19.552  1.00  0.00     0.138 A 
ATOM      2  C   UNL     1      10.844  -2.953  19.127  1.00  0.00     0.100 A 
ATOM      3  C   UNL     1      11.990  -2.166  19.003  1.00  0.00     0.197 A 
ATOM      4  O   UNL     1      11.861  -0.995  18.561  1.00  0.00    -0.289 OA
ATOM      5  C   UNL     1      13.254  -2.707  19.336  1.00  0.00     0.107 A 
ATOM      6  C   UNL     1      14.485  -1.987  19.286  1.00  0.00     0.134 A 
ATOM      7  C   UNL     1      15.689  -2.660  19.526  1.00  0.00     0.093 A 
ATOM      8  C   UNL     1      15.701  -4.013  19.873  1.00  0.00     0.123 A 
ATOM      9  C   UNL     1      14.501  -4.712  19.976  1.00  0.00     0.094 A 
ATOM     10  C   UNL     1      13.286  -4.078  19.709  1.00  0.00     0.146 A 
ATOM     11  O   UNL     1      12.165  -4.785  19.805  1.00  0.00    -0.456 OA
ENDROOT
BRANCH   1  12
ATOM     12  C   UNL     1       9.774  -5.166  19.703  1.00  0.00     0.021 A 
ATOM     13  C   UNL     1       9.902  -6.563  19.820  1.00  0.00     0.016 A 
ATOM     14  C   UNL     1       8.767  -7.369  19.951  1.00  0.00     0.051 A 
ATOM     15  C   UNL     1       7.490  -6.797  19.959  1.00  0.00     0.157 A 
ATOM     16  C   UNL     1       8.487  -4.600  19.699  1.00  0.00     0.062 A 
ATOM     17  C   UNL     1       7.349  -5.405  19.831  1.00  0.00     0.158 A 
BRANCH  15  18
ATOM     18  O   UNL     1       6.360  -7.604  20.092  1.00  0.00    -0.504 OA
ATOM     19  H   UNL     1       6.407  -8.514  20.536  1.00  0.00     0.293 HD
ENDBRANCH  15  18
BRANCH  17  20
ATOM     20  O   UNL     1       6.091  -4.804  19.832  1.00  0.00    -0.504 OA
ATOM     21  H   UNL     1       5.785  -4.197  19.081  1.00  0.00     0.293 HD
ENDBRANCH  17  20
ENDBRANCH   1  12
BRANCH   6  22
ATOM     22  O   UNL     1      14.577  -0.615  19.033  1.00  0.00    -0.507 OA
ATOM     23  H   UNL     1      15.027  -0.206  18.228  1.00  0.00     0.293 HD
ENDBRANCH   6  22
BRANCH   8  24
ATOM     24  O   UNL     1      16.903  -4.672  20.125  1.00  0.00    -0.508 OA
ATOM     25  H   UNL     1      17.797  -4.240  19.922  1.00  0.00     0.293 HD
ENDBRANCH   8  24
TORSDOF 5
ENDMDL
MODEL 5
REMARK VINA RESULT:    -5.693      3.718      5.960
REMARK INTER + INTRA:          -6.986
REMARK INTER:                  -6.668
REMARK INTRA:                  -0.318
REMARK UNBOUND:                -0.295
REMARK SMILES O=c1cc(-c2ccc(O)c(O)c2)oc2cc(O)cc(O)c12
REMARK SMILES IDX 4 1 3 2 2 3 1 4 21 5 19 6 18 7 16 8 15 9 14 10 13 11 5 12
REMARK SMILES IDX 6 13 7 14 8 15 12 16 10 17 9 18 11 20 20 22 17 24
REMARK H PARENT 9 19 11 21 20 23 17 25
REMARK Flexibility Score: inf
ROOT
ATOM      1  C   UNL     1      12.260  -3.687  19.311  1.00  0.00     0.138 A 
ATOM      2  C   UNL     1      11.549  -4.807  19.767  1.00  0.00     0.100 A 
ATOM      3  C   UNL     1      10.160  -4.842  19.636  1.00  0.00     0.197 A 
ATOM      4  O   UNL     1       9.556  -5.885  19.996  1.00  0.00    -0.289 OA
ATOM      5  C   UNL     1       9.478  -3.737  19.073  1.00  0.00     0.107 A 
ATOM      6  C   UNL     1       8.062  -3.645  18.926  1.00  0.00     0.134 A 
ATOM      7  C   UNL     1       7.508  -2.552  18.248  1.00  0.00     0.093 A 
ATOM      8  C   UNL     1       8.314  -1.519  17.766  1.00  0.00     0.123 A 
ATOM      9  C   UNL     1       9.694  -1.573  17.952  1.00  0.00     0.094 A 
ATOM     10  C   UNL     1      10.280  -2.667  18.593  1.00  0.00     0.146 A 
ATOM     11  O   UNL     1      11.601  -2.686  18.737  1.00  0.00    -0.456 OA
ENDROOT
BRANCH   1  12
ATOM     12  C   UNL     1      13.738  -3.596  19.428  1.00  0.00     0.021 A 
ATOM     13  C   UNL     1      14.497  -4.623  20.019  1.00  0.00     0.016 A 
ATOM     14  C   UNL     1      15.886  -4.506  20.125  1.00  0.00     0.051 A 
ATOM     15  C   UNL     1      16.538  -3.363  19.650  1.00  0.00     0.157 A 
ATOM     16  C   UNL     1      14.399  -2.444  18.966  1.00  0.00     0.062 A 
ATOM     17  C   UNL     1      15.790  -2.325  19.069  1.00  0.00     0.158 A 
BRANCH  15  18
ATOM     18  O   UNL     1      17.924  -3.250  19.756  1.00  0.00    -0.504 OA
ATOM     19  H   UNL     1      18.415  -2.422  19.438  1.00  0.00     0.293 HD
ENDBRANCH  15  18
BRANCH  17  20
ATOM     20  O   UNL     1      16.408  -1.172  18.589  1.00  0.00    -0.504 OA
ATOM     21  H   UNL     1      16.489  -0.977  17.598  1.00  0.00     0.293 HD
ENDBRANCH  17  20
ENDBRANCH   1  12
BRANCH   6  22
ATOM     22  O   UNL     1       7.161  -4.579  19.445  1.00  0.00    -0.507 OA
ATOM     23  H   UNL     1       7.073  -4.816  20.421  1.00  0.00     0.293 HD
ENDBRANCH   6  22
BRANCH   8  24
ATOM     24  O   UNL     1       7.753  -0.428  17.106  1.00  0.00    -0.508 OA
ATOM     25  H   UNL     1       6.943   0.056  17.476  1.00  0.00     0.293 HD
ENDBRANCH   8  24
TORSDOF 5
ENDMDL
MODEL 6
REMARK VINA RESULT:    -5.489      3.855      6.669
REMARK INTER + INTRA:          -6.746
REMARK INTER:                  -6.452
REMARK INTRA:                  -0.294
REMARK UNBOUND:                -0.295
REMARK SMILES O=c1cc(-c2ccc(O)c(O)c2)oc2cc(O)cc(O)c12
REMARK SMILES IDX 4 1 3 2 2 3 1 4 21 5 19 6 18 7 16 8 15 9 14 10 13 11 5 12
REMARK SMILES IDX 6 13 7 14 8 15 12 16 10 17 9 18 11 20 20 22 17 24
REMARK H PARENT 9 19 11 21 20 23 17 25
REMARK Flexibility Score: inf
ROOT
ATOM      1  C   UNL     1      12.545  -3.422  19.292  1.00  0.00     0.138 A 
ATOM      2  C   UNL     1      11.805  -2.286  18.930  1.00  0.00     0.100 A 
ATOM      3  C   UNL     1      10.416  -2.373  18.825  1.00  0.00     0.197 A 
ATOM      4  O   UNL     1       9.774  -1.324  18.559  1.00  0.00    -0.289 OA
ATOM      5  C   UNL     1       9.769  -3.611  19.053  1.00  0.00     0.107 A 
ATOM      6  C   UNL     1       8.364  -3.827  18.936  1.00  0.00     0.134 A 
ATOM      7  C   UNL     1       7.823  -5.066  19.300  1.00  0.00     0.093 A 
ATOM      8  C   UNL     1       8.644  -6.115  19.720  1.00  0.00     0.123 A 
ATOM      9  C   UNL     1      10.023  -5.931  19.787  1.00  0.00     0.094 A 
ATOM     10  C   UNL     1      10.589  -4.696  19.464  1.00  0.00     0.146 A 
ATOM     11  O   UNL     1      11.908  -4.558  19.555  1.00  0.00    -0.456 OA
ENDROOT
BRANCH   1  12
ATOM     12  C   UNL     1      14.024  -3.386  19.417  1.00  0.00     0.021 A 
ATOM     13  C   UNL     1      14.742  -4.443  20.009  1.00  0.00     0.016 A 
ATOM     14  C   UNL     1      16.133  -4.378  20.123  1.00  0.00     0.051 A 
ATOM     15  C   UNL     1      16.830  -3.257  19.656  1.00  0.00     0.157 A 
ATOM     16  C   UNL     1      14.731  -2.258  18.964  1.00  0.00     0.062 A 
ATOM     17  C   UNL     1      16.124  -2.191  19.075  1.00  0.00     0.158 A 
BRANCH  15  18
ATOM     18  O   UNL     1      18.218  -3.197  19.770  1.00  0.00    -0.504 OA
ATOM     19  H   UNL     1      18.708  -3.643  20.537  1.00  0.00     0.293 HD
ENDBRANCH  15  18
BRANCH  17  20
ATOM     20  O   UNL     1      16.787  -1.059  18.603  1.00  0.00    -0.504 OA
ATOM     21  H   UNL     1      16.538  -0.124  18.906  1.00  0.00     0.293 HD
ENDBRANCH  17  20
ENDBRANCH   1  12
BRANCH   6  22
ATOM     22  O   UNL     1       7.465  -2.874  18.447  1.00  0.00    -0.507 OA
ATOM     23  H   UNL     1       7.662  -1.889  18.356  1.00  0.00     0.293 HD
ENDBRANCH   6  22
BRANCH   8  24
ATOM     24  O   UNL     1       8.099  -7.350  20.066  1.00  0.00    -0.508 OA
ATOM     25  H   UNL     1       8.170  -7.716  21.008  1.00  0.00     0.293 HD
ENDBRANCH   8  24
TORSDOF 5
ENDMDL
MODEL 7
REMARK VINA RESULT:    -5.323      2.745      3.886
REMARK INTER + INTRA:          -6.551
REMARK INTER:                  -6.257
REMARK INTRA:                  -0.294
REMARK UNBOUND:                -0.295
REMARK SMILES O=c1cc(-c2ccc(O)c(O)c2)oc2cc(O)cc(O)c12
REMARK SMILES IDX 4 1 3 2 2 3 1 4 21 5 19 6 18 7 16 8 15 9 14 10 13 11 5 12
REMARK SMILES IDX 6 13 7 14 8 15 12 16 10 17 9 18 11 20 20 22 17 24
REMARK H PARENT 9 19 11 21 20 23 17 25
REMARK Flexibility Score: inf
ROOT
ATOM      1  C   UNL     1      10.562  -2.260  18.993  1.00  0.00     0.138 A 
ATOM      2  C   UNL     1       9.401  -2.827  18.448  1.00  0.00     0.100 A 
ATOM      3  C   UNL     1       8.261  -2.039  18.281  1.00  0.00     0.197 A 
ATOM      4  O   UNL     1       7.255  -2.559  17.733  1.00  0.00    -0.289 OA
ATOM      5  C   UNL     1       8.277  -0.685  18.690  1.00  0.00     0.107 A 
ATOM      6  C   UNL     1       7.163   0.203  18.605  1.00  0.00     0.134 A 
ATOM      7  C   UNL     1       7.329   1.554  18.932  1.00  0.00     0.093 A 
ATOM      8  C   UNL     1       8.555   2.036  19.399  1.00  0.00     0.123 A 
ATOM      9  C   UNL     1       9.634   1.166  19.536  1.00  0.00     0.094 A 
ATOM     10  C   UNL     1       9.509  -0.179  19.185  1.00  0.00     0.146 A 
ATOM     11  O   UNL     1      10.567  -0.972  19.318  1.00  0.00    -0.456 OA
ENDROOT
BRANCH   1  12
ATOM     12  C   UNL     1      11.802  -3.053  19.195  1.00  0.00     0.021 A 
ATOM     13  C   UNL     1      11.772  -4.338  19.770  1.00  0.00     0.016 A 
ATOM     14  C   UNL     1      12.955  -5.058  19.957  1.00  0.00     0.051 A 
ATOM     15  C   UNL     1      14.186  -4.507  19.581  1.00  0.00     0.157 A 
ATOM     16  C   UNL     1      13.043  -2.502  18.832  1.00  0.00     0.062 A 
ATOM     17  C   UNL     1      14.230  -3.221  19.017  1.00  0.00     0.158 A 
BRANCH  15  18
ATOM     18  O   UNL     1      15.364  -5.228  19.768  1.00  0.00    -0.504 OA
ATOM     19  H   UNL     1      15.434  -6.207  19.512  1.00  0.00     0.293 HD
ENDBRANCH  15  18
BRANCH  17  20
ATOM     20  O   UNL     1      15.439  -2.642  18.636  1.00  0.00    -0.504 OA
ATOM     21  H   UNL     1      15.492  -1.696  18.276  1.00  0.00     0.293 HD
ENDBRANCH  17  20
ENDBRANCH   1  12
BRANCH   6  22
ATOM     22  O   UNL     1       5.875  -0.194  18.232  1.00  0.00    -0.507 OA
ATOM     23  H   UNL     1       5.488  -1.113  18.386  1.00  0.00     0.293 HD
ENDBRANCH   6  22
BRANCH   8  24
ATOM     24  O   UNL     1       8.708   3.379  19.737  1.00  0.00    -0.508 OA
ATOM     25  H   UNL     1       9.367   3.675  20.446  1.00  0.00     0.293 HD
ENDBRANCH   8  24
TORSDOF 5
ENDMDL
