MODEL 1
REMARK VINA RESULT:    -3.849      0.000      0.000
REMARK INTER + INTRA:          -8.210
REMARK INTER:                  -6.549
REMARK INTRA:                  -1.661
REMARK UNBOUND:                -1.661
REMARK SMILES CCCCCCCCCCCCCC(=O)[O-]
REMARK SMILES IDX 8 1 9 2 10 3 11 4 12 5 13 6 14 7 15 8 16 9 7 10 6 11 5 12
REMARK SMILES IDX 4 13 3 14 2 15 1 16
REMARK H PARENT
REMARK Flexibility Score: inf
ROOT
ATOM      1  C   UNL     1     -22.232   8.337  19.964  1.00  0.00     0.000 C 
ENDROOT
BRANCH   1   2
ATOM      2  C   UNL     1     -23.716   7.945  20.028  1.00  0.00     0.000 C 
BRANCH   2   3
ATOM      3  C   UNL     1     -23.999   6.863  21.083  1.00  0.00     0.000 C 
BRANCH   3   4
ATOM      4  C   UNL     1     -22.796   5.931  21.310  1.00  0.00     0.000 C 
BRANCH   4   5
ATOM      5  C   UNL     1     -22.804   4.717  20.364  1.00  0.00     0.006 C 
BRANCH   5   6
ATOM      6  C   UNL     1     -21.392   4.241  20.000  1.00  0.00     0.053 C 
BRANCH   6   7
ATOM      7  C   UNL     1     -21.210   2.807  20.383  1.00  0.00     0.041 C 
ATOM      8  O   UNL     1     -20.086   2.255  20.259  1.00  0.00    -0.550 OA
ATOM      9  O   UNL     1     -22.294   2.063  20.832  1.00  0.00    -0.550 OA
ENDBRANCH   6   7
ENDBRANCH   5   6
ENDBRANCH   4   5
ENDBRANCH   3   4
ENDBRANCH   2   3
ENDBRANCH   1   2
BRANCH   1  10
ATOM     10  C   UNL     1     -21.718   8.301  18.519  1.00  0.00     0.000 C 
BRANCH  10  11
ATOM     11  C   UNL     1     -22.470   7.250  17.693  1.00  0.00    -0.000 C 
BRANCH  11  12
ATOM     12  C   UNL     1     -21.491   6.333  16.946  1.00  0.00    -0.000 C 
BRANCH  12  13
ATOM     13  C   UNL     1     -20.421   7.114  16.162  1.00  0.00    -0.000 C 
BRANCH  13  14
ATOM     14  C   UNL     1     -18.988   6.555  16.275  1.00  0.00    -0.000 C 
BRANCH  14  15
ATOM     15  C   UNL     1     -18.587   6.075  17.681  1.00  0.00    -0.003 C 
ATOM     16  C   UNL     1     -18.213   7.223  18.617  1.00  0.00     0.004 C 
ENDBRANCH  14  15
ENDBRANCH  13  14
ENDBRANCH  12  13
ENDBRANCH  11  12
ENDBRANCH  10  11
ENDBRANCH   1  10
TORSDOF 12
ENDMDL
MODEL 2
REMARK VINA RESULT:    -3.759      2.361      4.603
REMARK INTER + INTRA:          -8.058
REMARK INTER:                  -6.303
REMARK INTRA:                  -1.754
REMARK UNBOUND:                -1.661
REMARK SMILES CCCCCCCCCCCCCC(=O)[O-]
REMARK SMILES IDX 8 1 9 2 10 3 11 4 12 5 13 6 14 7 15 8 16 9 7 10 6 11 5 12
REMARK SMILES IDX 4 13 3 14 2 15 1 16
REMARK H PARENT
REMARK Flexibility Score: inf
ROOT
ATOM      1  C   UNL     1     -22.304   8.299  19.939  1.00  0.00     0.000 C 
ENDROOT
BRANCH   1   2
ATOM      2  C   UNL     1     -21.862   8.318  18.467  1.00  0.00     0.000 C 
BRANCH   2   3
ATOM      3  C   UNL     1     -22.483   7.178  17.645  1.00  0.00     0.000 C 
BRANCH   3   4
ATOM      4  C   UNL     1     -21.422   6.291  16.971  1.00  0.00     0.000 C 
BRANCH   4   5
ATOM      5  C   UNL     1     -20.211   7.096  16.471  1.00  0.00     0.006 C 
BRANCH   5   6
ATOM      6  C   UNL     1     -18.899   6.305  16.553  1.00  0.00     0.053 C 
BRANCH   6   7
ATOM      7  C   UNL     1     -18.047   6.821  17.668  1.00  0.00     0.041 C 
ATOM      8  O   UNL     1     -18.517   7.644  18.497  1.00  0.00    -0.550 OA
ATOM      9  O   UNL     1     -16.717   6.431  17.767  1.00  0.00    -0.550 OA
ENDBRANCH   6   7
ENDBRANCH   5   6
ENDBRANCH   4   5
ENDBRANCH   3   4
ENDBRANCH   2   3
ENDBRANCH   1   2
BRANCH   1  10
ATOM     10  C   UNL     1     -23.773   7.875  20.063  1.00  0.00     0.000 C 
BRANCH  10  11
ATOM     11  C   UNL     1     -23.937   6.757  21.101  1.00  0.00    -0.000 C 
BRANCH  11  12
ATOM     12  C   UNL     1     -22.664   5.903  21.197  1.00  0.00    -0.000 C 
BRANCH  12  13
ATOM     13  C   UNL     1     -22.723   4.642  20.316  1.00  0.00    -0.000 C 
BRANCH  13  14
ATOM     14  C   UNL     1     -21.408   3.841  20.232  1.00  0.00    -0.000 C 
BRANCH  14  15
ATOM     15  C   UNL     1     -20.174   4.660  19.817  1.00  0.00    -0.003 C 
ATOM     16  C   UNL     1     -18.896   3.825  19.763  1.00  0.00     0.004 C 
ENDBRANCH  14  15
ENDBRANCH  13  14
ENDBRANCH  12  13
ENDBRANCH  11  12
ENDBRANCH  10  11
ENDBRANCH   1  10
TORSDOF 12
ENDMDL
MODEL 3
REMARK VINA RESULT:    -3.744      1.472      2.918
REMARK INTER + INTRA:          -8.031
REMARK INTER:                  -6.384
REMARK INTRA:                  -1.647
REMARK UNBOUND:                -1.661
REMARK SMILES CCCCCCCCCCCCCC(=O)[O-]
REMARK SMILES IDX 8 1 9 2 10 3 11 4 12 5 13 6 14 7 15 8 16 9 7 10 6 11 5 12
REMARK SMILES IDX 4 13 3 14 2 15 1 16
REMARK H PARENT
REMARK Flexibility Score: inf
ROOT
ATOM      1  C   UNL     1     -22.353   7.478  17.747  1.00  0.00     0.000 C 
ENDROOT
BRANCH   1   2
ATOM      2  C   UNL     1     -21.499   8.193  18.806  1.00  0.00     0.000 C 
BRANCH   2   3
ATOM      3  C   UNL     1     -22.001   7.948  20.238  1.00  0.00     0.000 C 
BRANCH   3   4
ATOM      4  C   UNL     1     -23.531   8.071  20.357  1.00  0.00     0.000 C 
BRANCH   4   5
ATOM      5  C   UNL     1     -24.159   6.899  21.129  1.00  0.00     0.006 C 
BRANCH   5   6
ATOM      6  C   UNL     1     -23.245   5.667  21.182  1.00  0.00     0.053 C 
BRANCH   6   7
ATOM      7  C   UNL     1     -23.841   4.613  22.060  1.00  0.00     0.041 C 
ATOM      8  O   UNL     1     -24.507   4.938  23.077  1.00  0.00    -0.550 OA
ATOM      9  O   UNL     1     -23.619   3.270  21.784  1.00  0.00    -0.550 OA
ENDBRANCH   6   7
ENDBRANCH   5   6
ENDBRANCH   4   5
ENDBRANCH   3   4
ENDBRANCH   2   3
ENDBRANCH   1   2
BRANCH   1  10
ATOM     10  C   UNL     1     -21.523   6.435  16.988  1.00  0.00     0.000 C 
BRANCH  10  11
ATOM     11  C   UNL     1     -20.511   7.111  16.054  1.00  0.00    -0.000 C 
BRANCH  11  12
ATOM     12  C   UNL     1     -19.142   6.420  16.135  1.00  0.00    -0.000 C 
BRANCH  12  13
ATOM     13  C   UNL     1     -18.375   6.763  17.426  1.00  0.00    -0.000 C 
BRANCH  13  14
ATOM     14  C   UNL     1     -18.085   5.564  18.352  1.00  0.00    -0.000 C 
BRANCH  14  15
ATOM     15  C   UNL     1     -18.879   5.555  19.670  1.00  0.00    -0.003 C 
ATOM     16  C   UNL     1     -20.049   4.573  19.653  1.00  0.00     0.004 C 
ENDBRANCH  14  15
ENDBRANCH  13  14
ENDBRANCH  12  13
ENDBRANCH  11  12
ENDBRANCH  10  11
ENDBRANCH   1  10
TORSDOF 12
ENDMDL
MODEL 4
REMARK VINA RESULT:    -3.698      1.147      3.713
REMARK INTER + INTRA:          -7.953
REMARK INTER:                  -5.845
REMARK INTRA:                  -2.108
REMARK UNBOUND:                -1.661
REMARK SMILES CCCCCCCCCCCCCC(=O)[O-]
REMARK SMILES IDX 8 1 9 2 10 3 11 4 12 5 13 6 14 7 15 8 16 9 7 10 6 11 5 12
REMARK SMILES IDX 4 13 3 14 2 15 1 16
REMARK H PARENT
REMARK Flexibility Score: inf
ROOT
ATOM      1  C   UNL     1     -18.835   6.145  17.634  1.00  0.00     0.000 C 
ENDROOT
BRANCH   1   2
ATOM      2  C   UNL     1     -18.325   7.103  18.721  1.00  0.00     0.000 C 
BRANCH   2   3
ATOM      3  C   UNL     1     -18.908   6.791  20.109  1.00  0.00     0.000 C 
BRANCH   3   4
ATOM      4  C   UNL     1     -19.489   5.369  20.200  1.00  0.00     0.000 C 
BRANCH   4   5
ATOM      5  C   UNL     1     -20.961   5.360  20.645  1.00  0.00     0.006 C 
BRANCH   5   6
ATOM      6  C   UNL     1     -21.780   4.258  19.962  1.00  0.00     0.053 C 
BRANCH   6   7
ATOM      7  C   UNL     1     -22.847   3.756  20.881  1.00  0.00     0.041 C 
ATOM      8  O   UNL     1     -23.552   4.567  21.537  1.00  0.00    -0.550 OA
ATOM      9  O   UNL     1     -23.033   2.390  21.053  1.00  0.00    -0.550 OA
ENDBRANCH   6   7
ENDBRANCH   5   6
ENDBRANCH   4   5
ENDBRANCH   3   4
ENDBRANCH   2   3
ENDBRANCH   1   2
BRANCH   1  10
ATOM     10  C   UNL     1     -18.988   6.871  16.292  1.00  0.00     0.000 C 
BRANCH  10  11
ATOM     11  C   UNL     1     -20.464   6.975  15.887  1.00  0.00    -0.000 C 
BRANCH  11  12
ATOM     12  C   UNL     1     -21.360   6.208  16.871  1.00  0.00    -0.000 C 
BRANCH  12  13
ATOM     13  C   UNL     1     -22.399   7.110  17.561  1.00  0.00    -0.000 C 
BRANCH  13  14
ATOM     14  C   UNL     1     -21.817   8.337  18.291  1.00  0.00    -0.000 C 
BRANCH  14  15
ATOM     15  C   UNL     1     -22.469   8.654  19.649  1.00  0.00    -0.003 C 
ATOM     16  C   UNL     1     -23.672   7.763  19.954  1.00  0.00     0.004 C 
ENDBRANCH  14  15
ENDBRANCH  13  14
ENDBRANCH  12  13
ENDBRANCH  11  12
ENDBRANCH  10  11
ENDBRANCH   1  10
TORSDOF 12
ENDMDL
MODEL 5
REMARK VINA RESULT:    -3.682      1.957      4.757
REMARK INTER + INTRA:          -7.926
REMARK INTER:                  -6.221
REMARK INTRA:                  -1.705
REMARK UNBOUND:                -1.661
REMARK SMILES CCCCCCCCCCCCCC(=O)[O-]
REMARK SMILES IDX 8 1 9 2 10 3 11 4 12 5 13 6 14 7 15 8 16 9 7 10 6 11 5 12
REMARK SMILES IDX 4 13 3 14 2 15 1 16
REMARK H PARENT
REMARK Flexibility Score: inf
ROOT
ATOM      1  C   UNL     1     -22.039   8.390  18.519  1.00  0.00     0.000 C 
ENDROOT
BRANCH   1   2
ATOM      2  C   UNL     1     -22.614   7.223  17.701  1.00  0.00     0.000 C 
BRANCH   2   3
ATOM      3  C   UNL     1     -21.524   6.289  17.151  1.00  0.00     0.000 C 
BRANCH   3   4
ATOM      4  C   UNL     1     -20.504   7.028  16.267  1.00  0.00     0.000 C 
BRANCH   4   5
ATOM      5  C   UNL     1     -19.062   6.882  16.782  1.00  0.00     0.006 C 
BRANCH   5   6
ATOM      6  C   UNL     1     -18.975   6.059  18.074  1.00  0.00     0.053 C 
BRANCH   6   7
ATOM      7  C   UNL     1     -18.617   6.938  19.230  1.00  0.00     0.041 C 
ATOM      8  O   UNL     1     -18.575   8.188  19.086  1.00  0.00    -0.550 OA
ATOM      9  O   UNL     1     -18.281   6.376  20.455  1.00  0.00    -0.550 OA
ENDBRANCH   6   7
ENDBRANCH   5   6
ENDBRANCH   4   5
ENDBRANCH   3   4
ENDBRANCH   2   3
ENDBRANCH   1   2
BRANCH   1  10
ATOM     10  C   UNL     1     -22.140   8.105  20.023  1.00  0.00     0.000 C 
BRANCH  10  11
ATOM     11  C   UNL     1     -23.604   8.055  20.477  1.00  0.00    -0.000 C 
BRANCH  11  12
ATOM     12  C   UNL     1     -23.935   6.698  21.115  1.00  0.00    -0.000 C 
BRANCH  12  13
ATOM     13  C   UNL     1     -22.702   5.789  21.262  1.00  0.00    -0.000 C 
BRANCH  13  14
ATOM     14  C   UNL     1     -22.710   4.528  20.375  1.00  0.00    -0.000 C 
BRANCH  14  15
ATOM     15  C   UNL     1     -21.321   3.942  20.066  1.00  0.00    -0.003 C 
ATOM     16  C   UNL     1     -21.161   2.502  20.550  1.00  0.00     0.004 C 
ENDBRANCH  14  15
ENDBRANCH  13  14
ENDBRANCH  12  13
ENDBRANCH  11  12
ENDBRANCH  10  11
ENDBRANCH   1  10
TORSDOF 12
ENDMDL
MODEL 6
REMARK VINA RESULT:    -3.664      1.078      1.959
REMARK INTER + INTRA:          -7.895
REMARK INTER:                  -6.132
REMARK INTRA:                  -1.763
REMARK UNBOUND:                -1.661
REMARK SMILES CCCCCCCCCCCCCC(=O)[O-]
REMARK SMILES IDX 8 1 9 2 10 3 11 4 12 5 13 6 14 7 15 8 16 9 7 10 6 11 5 12
REMARK SMILES IDX 4 13 3 14 2 15 1 16
REMARK H PARENT
REMARK Flexibility Score: inf
ROOT
ATOM      1  C   UNL     1     -23.653   8.015  20.164  1.00  0.00     0.000 C 
ENDROOT
BRANCH   1   2
ATOM      2  C   UNL     1     -24.023   6.822  21.059  1.00  0.00     0.000 C 
BRANCH   2   3
ATOM      3  C   UNL     1     -22.823   5.909  21.357  1.00  0.00     0.000 C 
BRANCH   3   4
ATOM      4  C   UNL     1     -22.995   4.498  20.768  1.00  0.00     0.000 C 
BRANCH   4   5
ATOM      5  C   UNL     1     -21.704   3.968  20.120  1.00  0.00     0.006 C 
BRANCH   5   6
ATOM      6  C   UNL     1     -20.484   4.846  20.428  1.00  0.00     0.053 C 
BRANCH   6   7
ATOM      7  C   UNL     1     -19.237   4.019  20.441  1.00  0.00     0.041 C 
ATOM      8  O   UNL     1     -19.198   2.921  19.826  1.00  0.00    -0.550 OA
ATOM      9  O   UNL     1     -18.132   4.436  21.172  1.00  0.00    -0.550 OA
ENDBRANCH   6   7
ENDBRANCH   5   6
ENDBRANCH   4   5
ENDBRANCH   3   4
ENDBRANCH   2   3
ENDBRANCH   1   2
BRANCH   1  10
ATOM     10  C   UNL     1     -22.131   8.178  20.071  1.00  0.00     0.000 C 
BRANCH  10  11
ATOM     11  C   UNL     1     -21.681   8.321  18.611  1.00  0.00    -0.000 C 
BRANCH  11  12
ATOM     12  C   UNL     1     -22.404   7.309  17.711  1.00  0.00    -0.000 C 
BRANCH  12  13
ATOM     13  C   UNL     1     -21.457   6.243  17.129  1.00  0.00    -0.000 C 
BRANCH  13  14
ATOM     14  C   UNL     1     -20.574   6.721  15.960  1.00  0.00    -0.000 C 
BRANCH  14  15
ATOM     15  C   UNL     1     -19.095   6.956  16.316  1.00  0.00    -0.003 C 
ATOM     16  C   UNL     1     -18.584   6.001  17.394  1.00  0.00     0.004 C 
ENDBRANCH  14  15
ENDBRANCH  13  14
ENDBRANCH  12  13
ENDBRANCH  11  12
ENDBRANCH  10  11
ENDBRANCH   1  10
TORSDOF 12
ENDMDL
MODEL 7
REMARK VINA RESULT:    -3.634      2.438      4.479
REMARK INTER + INTRA:          -7.843
REMARK INTER:                  -5.688
REMARK INTRA:                  -2.156
REMARK UNBOUND:                -1.661
REMARK SMILES CCCCCCCCCCCCCC(=O)[O-]
REMARK SMILES IDX 8 1 9 2 10 3 11 4 12 5 13 6 14 7 15 8 16 9 7 10 6 11 5 12
REMARK SMILES IDX 4 13 3 14 2 15 1 16
REMARK H PARENT
REMARK Flexibility Score: inf
ROOT
ATOM      1  C   UNL     1     -22.557   5.710  21.432  1.00  0.00     0.000 C 
ENDROOT
BRANCH   1   2
ATOM      2  C   UNL     1     -22.339   4.460  20.566  1.00  0.00     0.000 C 
BRANCH   2   3
ATOM      3  C   UNL     1     -20.894   4.336  20.056  1.00  0.00     0.000 C 
BRANCH   3   4
ATOM      4  C   UNL     1     -19.997   5.490  20.536  1.00  0.00     0.000 C 
BRANCH   4   5
ATOM      5  C   UNL     1     -18.614   5.481  19.864  1.00  0.00     0.006 C 
BRANCH   5   6
ATOM      6  C   UNL     1     -18.268   6.821  19.203  1.00  0.00     0.053 C 
BRANCH   6   7
ATOM      7  C   UNL     1     -17.611   6.596  17.878  1.00  0.00     0.041 C 
ATOM      8  O   UNL     1     -16.387   6.851  17.726  1.00  0.00    -0.550 OA
ATOM      9  O   UNL     1     -18.359   6.150  16.796  1.00  0.00    -0.550 OA
ENDBRANCH   6   7
ENDBRANCH   5   6
ENDBRANCH   4   5
ENDBRANCH   3   4
ENDBRANCH   2   3
ENDBRANCH   1   2
BRANCH   1  10
ATOM     10  C   UNL     1     -23.889   6.388  21.089  1.00  0.00     0.000 C 
BRANCH  10  11
ATOM     11  C   UNL     1     -23.680   7.866  20.736  1.00  0.00    -0.000 C 
BRANCH  11  12
ATOM     12  C   UNL     1     -22.229   8.295  21.001  1.00  0.00    -0.000 C 
BRANCH  12  13
ATOM     13  C   UNL     1     -21.509   8.788  19.732  1.00  0.00    -0.000 C 
BRANCH  13  14
ATOM     14  C   UNL     1     -22.219   8.451  18.406  1.00  0.00    -0.000 C 
BRANCH  14  15
ATOM     15  C   UNL     1     -21.529   7.368  17.557  1.00  0.00    -0.003 C 
ATOM     16  C   UNL     1     -22.417   6.149  17.313  1.00  0.00     0.004 C 
ENDBRANCH  14  15
ENDBRANCH  13  14
ENDBRANCH  12  13
ENDBRANCH  11  12
ENDBRANCH  10  11
ENDBRANCH   1  10
TORSDOF 12
ENDMDL
MODEL 8
REMARK VINA RESULT:    -3.631      2.105      4.530
REMARK INTER + INTRA:          -7.839
REMARK INTER:                  -5.977
REMARK INTRA:                  -1.862
REMARK UNBOUND:                -1.661
REMARK SMILES CCCCCCCCCCCCCC(=O)[O-]
REMARK SMILES IDX 8 1 9 2 10 3 11 4 12 5 13 6 14 7 15 8 16 9 7 10 6 11 5 12
REMARK SMILES IDX 4 13 3 14 2 15 1 16
REMARK H PARENT
REMARK Flexibility Score: inf
ROOT
ATOM      1  C   UNL     1     -20.160   6.938  15.908  1.00  0.00     0.000 C 
ENDROOT
BRANCH   1   2
ATOM      2  C   UNL     1     -21.373   6.115  16.368  1.00  0.00     0.000 C 
BRANCH   2   3
ATOM      3  C   UNL     1     -22.249   6.865  17.385  1.00  0.00     0.000 C 
BRANCH   3   4
ATOM      4  C   UNL     1     -21.567   8.131  17.931  1.00  0.00     0.000 C 
BRANCH   4   5
ATOM      5  C   UNL     1     -22.442   8.879  18.951  1.00  0.00     0.006 C 
BRANCH   5   6
ATOM      6  C   UNL     1     -23.533   7.989  19.560  1.00  0.00     0.053 C 
BRANCH   6   7
ATOM      7  C   UNL     1     -23.109   7.490  20.905  1.00  0.00     0.041 C 
ATOM      8  O   UNL     1     -22.123   8.007  21.491  1.00  0.00    -0.550 OA
ATOM      9  O   UNL     1     -23.773   6.420  21.491  1.00  0.00    -0.550 OA
ENDBRANCH   6   7
ENDBRANCH   5   6
ENDBRANCH   4   5
ENDBRANCH   3   4
ENDBRANCH   2   3
ENDBRANCH   1   2
BRANCH   1  10
ATOM     10  C   UNL     1     -18.854   6.178  16.164  1.00  0.00     0.000 C 
BRANCH  10  11
ATOM     11  C   UNL     1     -18.104   6.762  17.368  1.00  0.00    -0.000 C 
BRANCH  11  12
ATOM     12  C   UNL     1     -18.209   5.833  18.586  1.00  0.00    -0.000 C 
BRANCH  12  13
ATOM     13  C   UNL     1     -18.941   6.484  19.774  1.00  0.00    -0.000 C 
BRANCH  13  14
ATOM     14  C   UNL     1     -19.828   5.530  20.598  1.00  0.00    -0.000 C 
BRANCH  14  15
ATOM     15  C   UNL     1     -20.819   4.690  19.774  1.00  0.00    -0.003 C 
ATOM     16  C   UNL     1     -20.901   3.238  20.242  1.00  0.00     0.004 C 
ENDBRANCH  14  15
ENDBRANCH  13  14
ENDBRANCH  12  13
ENDBRANCH  11  12
ENDBRANCH  10  11
ENDBRANCH   1  10
TORSDOF 12
ENDMDL
MODEL 9
REMARK VINA RESULT:    -3.524      1.417      4.698
REMARK INTER + INTRA:          -7.657
REMARK INTER:                  -6.099
REMARK INTRA:                  -1.557
REMARK UNBOUND:                -1.661
REMARK SMILES CCCCCCCCCCCCCC(=O)[O-]
REMARK SMILES IDX 8 1 9 2 10 3 11 4 12 5 13 6 14 7 15 8 16 9 7 10 6 11 5 12
REMARK SMILES IDX 4 13 3 14 2 15 1 16
REMARK H PARENT
REMARK Flexibility Score: inf
ROOT
ATOM      1  C   UNL     1     -21.443   6.123  16.265  1.00  0.00     0.000 C 
ENDROOT
BRANCH   1   2
ATOM      2  C   UNL     1     -20.161   6.923  15.986  1.00  0.00     0.000 C 
BRANCH   2   3
ATOM      3  C   UNL     1     -18.888   6.165  16.394  1.00  0.00     0.000 C 
BRANCH   3   4
ATOM      4  C   UNL     1     -18.145   6.841  17.560  1.00  0.00     0.000 C 
BRANCH   4   5
ATOM      5  C   UNL     1     -17.817   5.860  18.698  1.00  0.00     0.006 C 
BRANCH   5   6
ATOM      6  C   UNL     1     -19.059   5.135  19.232  1.00  0.00     0.053 C 
BRANCH   6   7
ATOM      7  C   UNL     1     -18.710   3.741  19.647  1.00  0.00     0.041 C 
ATOM      8  O   UNL     1     -17.511   3.357  19.636  1.00  0.00    -0.550 OA
ATOM      9  O   UNL     1     -19.714   2.847  19.998  1.00  0.00    -0.550 OA
ENDBRANCH   6   7
ENDBRANCH   5   6
ENDBRANCH   4   5
ENDBRANCH   3   4
ENDBRANCH   2   3
ENDBRANCH   1   2
BRANCH   1  10
ATOM     10  C   UNL     1     -21.959   6.393  17.684  1.00  0.00     0.000 C 
BRANCH  10  11
ATOM     11  C   UNL     1     -21.998   7.898  17.978  1.00  0.00    -0.000 C 
BRANCH  11  12
ATOM     12  C   UNL     1     -21.160   8.238  19.219  1.00  0.00    -0.000 C 
BRANCH  12  13
ATOM     13  C   UNL     1     -21.846   7.827  20.535  1.00  0.00    -0.000 C 
BRANCH  13  14
ATOM     14  C   UNL     1     -23.337   8.206  20.641  1.00  0.00    -0.000 C 
BRANCH  14  15
ATOM     15  C   UNL     1     -24.281   7.039  20.980  1.00  0.00    -0.003 C 
ATOM     16  C   UNL     1     -23.538   5.793  21.462  1.00  0.00     0.004 C 
ENDBRANCH  14  15
ENDBRANCH  13  14
ENDBRANCH  12  13
ENDBRANCH  11  12
ENDBRANCH  10  11
ENDBRANCH   1  10
TORSDOF 12
ENDMDL
