MODEL 1
REMARK VINA RESULT:    -4.080      0.000      0.000
REMARK INTER + INTRA:          -8.743
REMARK INTER:                  -6.941
REMARK INTRA:                  -1.801
REMARK UNBOUND:                -1.801
REMARK SMILES CCCCCCCCCCCCCC(=O)[O-]
REMARK SMILES IDX 8 1 9 2 10 3 11 4 12 5 13 6 14 7 15 8 16 9 7 10 6 11 5 12
REMARK SMILES IDX 4 13 3 14 2 15 1 16
REMARK H PARENT
REMARK Flexibility Score: inf
ROOT
ATOM      1  C   UNL     1      13.752  25.803  51.157  1.00  0.00     0.000 C 
ENDROOT
BRANCH   1   2
ATOM      2  C   UNL     1      14.051  26.140  49.685  1.00  0.00     0.000 C 
BRANCH   2   3
ATOM      3  C   UNL     1      15.172  27.173  49.468  1.00  0.00     0.000 C 
BRANCH   3   4
ATOM      4  C   UNL     1      16.017  27.415  50.728  1.00  0.00     0.000 C 
BRANCH   4   5
ATOM      5  C   UNL     1      16.068  28.906  51.078  1.00  0.00     0.006 C 
BRANCH   5   6
ATOM      6  C   UNL     1      14.670  29.445  51.395  1.00  0.00     0.053 C 
BRANCH   6   7
ATOM      7  C   UNL     1      14.412  30.711  50.641  1.00  0.00     0.041 C 
ATOM      8  O   UNL     1      14.026  31.744  51.250  1.00  0.00    -0.550 OA
ATOM      9  O   UNL     1      14.552  30.739  49.260  1.00  0.00    -0.550 OA
ENDBRANCH   6   7
ENDBRANCH   5   6
ENDBRANCH   4   5
ENDBRANCH   3   4
ENDBRANCH   2   3
ENDBRANCH   1   2
BRANCH   1  10
ATOM     10  C   UNL     1      13.777  24.294  51.444  1.00  0.00     0.000 C 
BRANCH  10  11
ATOM     11  C   UNL     1      15.107  23.876  52.083  1.00  0.00    -0.000 C 
BRANCH  11  12
ATOM     12  C   UNL     1      15.392  24.702  53.346  1.00  0.00    -0.000 C 
BRANCH  12  13
ATOM     13  C   UNL     1      16.840  25.217  53.401  1.00  0.00    -0.000 C 
BRANCH  13  14
ATOM     14  C   UNL     1      16.968  26.537  54.181  1.00  0.00    -0.000 C 
BRANCH  14  15
ATOM     15  C   UNL     1      15.605  27.091  54.627  1.00  0.00    -0.003 C 
ATOM     16  C   UNL     1      15.702  28.504  55.201  1.00  0.00     0.004 C 
ENDBRANCH  14  15
ENDBRANCH  13  14
ENDBRANCH  12  13
ENDBRANCH  11  12
ENDBRANCH  10  11
ENDBRANCH   1  10
TORSDOF 12
ENDMDL
MODEL 2
REMARK VINA RESULT:    -3.993      1.521      2.279
REMARK INTER + INTRA:          -8.596
REMARK INTER:                  -7.146
REMARK INTRA:                  -1.449
REMARK UNBOUND:                -1.801
REMARK SMILES CCCCCCCCCCCCCC(=O)[O-]
REMARK SMILES IDX 8 1 9 2 10 3 11 4 12 5 13 6 14 7 15 8 16 9 7 10 6 11 5 12
REMARK SMILES IDX 4 13 3 14 2 15 1 16
REMARK H PARENT
REMARK Flexibility Score: inf
ROOT
ATOM      1  C   UNL     1      14.068  26.817  51.090  1.00  0.00     0.000 C 
ENDROOT
BRANCH   1   2
ATOM      2  C   UNL     1      15.507  27.169  50.671  1.00  0.00     0.000 C 
BRANCH   2   3
ATOM      3  C   UNL     1      15.930  28.622  50.953  1.00  0.00     0.000 C 
BRANCH   3   4
ATOM      4  C   UNL     1      14.898  29.396  51.787  1.00  0.00     0.000 C 
BRANCH   4   5
ATOM      5  C   UNL     1      14.702  30.814  51.239  1.00  0.00     0.006 C 
BRANCH   5   6
ATOM      6  C   UNL     1      15.649  31.804  51.924  1.00  0.00     0.053 C 
BRANCH   6   7
ATOM      7  C   UNL     1      15.485  33.174  51.344  1.00  0.00     0.041 C 
ATOM      8  O   UNL     1      16.285  33.589  50.465  1.00  0.00    -0.550 OA
ATOM      9  O   UNL     1      14.478  34.010  51.808  1.00  0.00    -0.550 OA
ENDBRANCH   6   7
ENDBRANCH   5   6
ENDBRANCH   4   5
ENDBRANCH   3   4
ENDBRANCH   2   3
ENDBRANCH   1   2
BRANCH   1  10
ATOM     10  C   UNL     1      14.011  25.812  52.251  1.00  0.00     0.000 C 
BRANCH  10  11
ATOM     11  C   UNL     1      15.391  25.194  52.513  1.00  0.00    -0.000 C 
BRANCH  11  12
ATOM     12  C   UNL     1      15.798  25.363  53.984  1.00  0.00    -0.000 C 
BRANCH  12  13
ATOM     13  C   UNL     1      16.579  26.663  54.236  1.00  0.00    -0.000 C 
BRANCH  13  14
ATOM     14  C   UNL     1      15.795  27.664  55.103  1.00  0.00    -0.000 C 
BRANCH  14  15
ATOM     15  C   UNL     1      16.409  29.072  55.074  1.00  0.00    -0.003 C 
ATOM     16  C   UNL     1      15.798  30.003  56.122  1.00  0.00     0.004 C 
ENDBRANCH  14  15
ENDBRANCH  13  14
ENDBRANCH  12  13
ENDBRANCH  11  12
ENDBRANCH  10  11
ENDBRANCH   1  10
TORSDOF 12
ENDMDL
MODEL 3
REMARK VINA RESULT:    -3.991      1.038      1.655
REMARK INTER + INTRA:          -8.592
REMARK INTER:                  -6.815
REMARK INTRA:                  -1.777
REMARK UNBOUND:                -1.801
REMARK SMILES CCCCCCCCCCCCCC(=O)[O-]
REMARK SMILES IDX 8 1 9 2 10 3 11 4 12 5 13 6 14 7 15 8 16 9 7 10 6 11 5 12
REMARK SMILES IDX 4 13 3 14 2 15 1 16
REMARK H PARENT
REMARK Flexibility Score: inf
ROOT
ATOM      1  C   UNL     1      14.746  24.761  51.149  1.00  0.00     0.000 C 
ENDROOT
BRANCH   1   2
ATOM      2  C   UNL     1      13.800  25.760  51.841  1.00  0.00     0.000 C 
BRANCH   2   3
ATOM      3  C   UNL     1      14.075  27.242  51.527  1.00  0.00     0.000 C 
BRANCH   3   4
ATOM      4  C   UNL     1      15.351  27.453  50.698  1.00  0.00     0.000 C 
BRANCH   4   5
ATOM      5  C   UNL     1      15.923  28.858  50.916  1.00  0.00     0.006 C 
BRANCH   5   6
ATOM      6  C   UNL     1      15.085  29.912  50.186  1.00  0.00     0.053 C 
BRANCH   6   7
ATOM      7  C   UNL     1      14.720  31.026  51.116  1.00  0.00     0.041 C 
ATOM      8  O   UNL     1      13.525  31.414  51.201  1.00  0.00    -0.550 OA
ATOM      9  O   UNL     1      15.707  31.670  51.851  1.00  0.00    -0.550 OA
ENDBRANCH   6   7
ENDBRANCH   5   6
ENDBRANCH   4   5
ENDBRANCH   3   4
ENDBRANCH   2   3
ENDBRANCH   1   2
BRANCH   1  10
ATOM     10  C   UNL     1      15.513  23.876  52.143  1.00  0.00     0.000 C 
BRANCH  10  11
ATOM     11  C   UNL     1      15.766  24.619  53.461  1.00  0.00    -0.000 C 
BRANCH  11  12
ATOM     12  C   UNL     1      17.143  25.297  53.454  1.00  0.00    -0.000 C 
BRANCH  12  13
ATOM     13  C   UNL     1      17.066  26.795  53.794  1.00  0.00    -0.000 C 
BRANCH  13  14
ATOM     14  C   UNL     1      16.108  27.087  54.962  1.00  0.00    -0.000 C 
BRANCH  14  15
ATOM     15  C   UNL     1      15.729  28.574  55.054  1.00  0.00    -0.003 C 
ATOM     16  C   UNL     1      16.882  29.501  54.670  1.00  0.00     0.004 C 
ENDBRANCH  14  15
ENDBRANCH  13  14
ENDBRANCH  12  13
ENDBRANCH  11  12
ENDBRANCH  10  11
ENDBRANCH   1  10
TORSDOF 12
ENDMDL
MODEL 4
REMARK VINA RESULT:    -3.971      2.396      3.676
REMARK INTER + INTRA:          -8.559
REMARK INTER:                  -6.679
REMARK INTRA:                  -1.880
REMARK UNBOUND:                -1.801
REMARK SMILES CCCCCCCCCCCCCC(=O)[O-]
REMARK SMILES IDX 8 1 9 2 10 3 11 4 12 5 13 6 14 7 15 8 16 9 7 10 6 11 5 12
REMARK SMILES IDX 4 13 3 14 2 15 1 16
REMARK H PARENT
REMARK Flexibility Score: inf
ROOT
ATOM      1  C   UNL     1      18.523  25.432  52.324  1.00  0.00     0.000 C 
ENDROOT
BRANCH   1   2
ATOM      2  C   UNL     1      18.174  26.515  51.287  1.00  0.00     0.000 C 
BRANCH   2   3
ATOM      3  C   UNL     1      18.031  27.939  51.854  1.00  0.00     0.000 C 
BRANCH   3   4
ATOM      4  C   UNL     1      16.675  28.581  51.528  1.00  0.00     0.000 C 
BRANCH   4   5
ATOM      5  C   UNL     1      15.968  27.828  50.395  1.00  0.00     0.006 C 
BRANCH   5   6
ATOM      6  C   UNL     1      14.582  27.349  50.834  1.00  0.00     0.053 C 
BRANCH   6   7
ATOM      7  C   UNL     1      14.177  26.135  50.059  1.00  0.00     0.041 C 
ATOM      8  O   UNL     1      14.241  24.994  50.589  1.00  0.00    -0.550 OA
ATOM      9  O   UNL     1      13.776  26.256  48.735  1.00  0.00    -0.550 OA
ENDBRANCH   6   7
ENDBRANCH   5   6
ENDBRANCH   4   5
ENDBRANCH   3   4
ENDBRANCH   2   3
ENDBRANCH   1   2
BRANCH   1  10
ATOM     10  C   UNL     1      17.776  25.613  53.654  1.00  0.00     0.000 C 
BRANCH  10  11
ATOM     11  C   UNL     1      16.293  25.249  53.506  1.00  0.00    -0.000 C 
BRANCH  11  12
ATOM     12  C   UNL     1      15.402  26.263  54.236  1.00  0.00    -0.000 C 
BRANCH  12  13
ATOM     13  C   UNL     1      16.195  27.161  55.199  1.00  0.00    -0.000 C 
BRANCH  13  14
ATOM     14  C   UNL     1      15.700  28.618  55.192  1.00  0.00    -0.000 C 
BRANCH  14  15
ATOM     15  C   UNL     1      16.849  29.629  55.048  1.00  0.00    -0.003 C 
ATOM     16  C   UNL     1      16.797  30.734  56.102  1.00  0.00     0.004 C 
ENDBRANCH  14  15
ENDBRANCH  13  14
ENDBRANCH  12  13
ENDBRANCH  11  12
ENDBRANCH  10  11
ENDBRANCH   1  10
TORSDOF 12
ENDMDL
MODEL 5
REMARK VINA RESULT:    -3.947      2.531      4.147
REMARK INTER + INTRA:          -8.517
REMARK INTER:                  -6.373
REMARK INTRA:                  -2.143
REMARK UNBOUND:                -1.801
REMARK SMILES CCCCCCCCCCCCCC(=O)[O-]
REMARK SMILES IDX 8 1 9 2 10 3 11 4 12 5 13 6 14 7 15 8 16 9 7 10 6 11 5 12
REMARK SMILES IDX 4 13 3 14 2 15 1 16
REMARK H PARENT
REMARK Flexibility Score: inf
ROOT
ATOM      1  C   UNL     1      15.745  28.521  55.113  1.00  0.00     0.000 C 
ENDROOT
BRANCH   1   2
ATOM      2  C   UNL     1      16.521  29.368  54.089  1.00  0.00     0.000 C 
BRANCH   2   3
ATOM      3  C   UNL     1      15.759  29.678  52.787  1.00  0.00     0.000 C 
BRANCH   3   4
ATOM      4  C   UNL     1      16.191  28.787  51.613  1.00  0.00     0.000 C 
BRANCH   4   5
ATOM      5  C   UNL     1      14.972  28.233  50.866  1.00  0.00     0.006 C 
BRANCH   5   6
ATOM      6  C   UNL     1      15.311  26.917  50.160  1.00  0.00     0.053 C 
BRANCH   6   7
ATOM      7  C   UNL     1      14.195  25.933  50.322  1.00  0.00     0.041 C 
ATOM      8  O   UNL     1      13.345  26.084  51.238  1.00  0.00    -0.550 OA
ATOM      9  O   UNL     1      14.122  24.823  49.491  1.00  0.00    -0.550 OA
ENDBRANCH   6   7
ENDBRANCH   5   6
ENDBRANCH   4   5
ENDBRANCH   3   4
ENDBRANCH   2   3
ENDBRANCH   1   2
BRANCH   1  10
ATOM     10  C   UNL     1      16.186  27.049  55.132  1.00  0.00     0.000 C 
BRANCH  10  11
ATOM     11  C   UNL     1      15.381  26.220  54.123  1.00  0.00    -0.000 C 
BRANCH  11  12
ATOM     12  C   UNL     1      16.295  25.266  53.342  1.00  0.00    -0.000 C 
BRANCH  12  13
ATOM     13  C   UNL     1      17.782  25.459  53.684  1.00  0.00    -0.000 C 
BRANCH  13  14
ATOM     14  C   UNL     1      18.578  26.082  52.524  1.00  0.00    -0.000 C 
BRANCH  14  15
ATOM     15  C   UNL     1      19.408  27.297  52.967  1.00  0.00    -0.003 C 
ATOM     16  C   UNL     1      19.906  28.133  51.789  1.00  0.00     0.004 C 
ENDBRANCH  14  15
ENDBRANCH  13  14
ENDBRANCH  12  13
ENDBRANCH  11  12
ENDBRANCH  10  11
ENDBRANCH   1  10
TORSDOF 12
ENDMDL
MODEL 6
REMARK VINA RESULT:    -3.876      2.830      5.197
REMARK INTER + INTRA:          -8.397
REMARK INTER:                  -7.176
REMARK INTRA:                  -1.221
REMARK UNBOUND:                -1.801
REMARK SMILES CCCCCCCCCCCCCC(=O)[O-]
REMARK SMILES IDX 8 1 9 2 10 3 11 4 12 5 13 6 14 7 15 8 16 9 7 10 6 11 5 12
REMARK SMILES IDX 4 13 3 14 2 15 1 16
REMARK H PARENT
REMARK Flexibility Score: inf
ROOT
ATOM      1  C   UNL     1      17.005  26.027  53.816  1.00  0.00     0.000 C 
ENDROOT
BRANCH   1   2
ATOM      2  C   UNL     1      16.134  27.028  54.598  1.00  0.00     0.000 C 
BRANCH   2   3
ATOM      3  C   UNL     1      16.689  28.463  54.660  1.00  0.00     0.000 C 
BRANCH   3   4
ATOM      4  C   UNL     1      16.015  29.320  55.742  1.00  0.00     0.000 C 
BRANCH   4   5
ATOM      5  C   UNL     1      16.589  30.741  55.755  1.00  0.00     0.006 C 
BRANCH   5   6
ATOM      6  C   UNL     1      16.489  31.363  57.150  1.00  0.00     0.053 C 
BRANCH   6   7
ATOM      7  C   UNL     1      15.420  32.410  57.182  1.00  0.00     0.041 C 
ATOM      8  O   UNL     1      15.721  33.616  57.384  1.00  0.00    -0.550 OA
ATOM      9  O   UNL     1      14.087  32.048  57.037  1.00  0.00    -0.550 OA
ENDBRANCH   6   7
ENDBRANCH   5   6
ENDBRANCH   4   5
ENDBRANCH   3   4
ENDBRANCH   2   3
ENDBRANCH   1   2
BRANCH   1  10
ATOM     10  C   UNL     1      16.240  25.324  52.684  1.00  0.00     0.000 C 
BRANCH  10  11
ATOM     11  C   UNL     1      14.835  25.915  52.519  1.00  0.00    -0.000 C 
BRANCH  11  12
ATOM     12  C   UNL     1      14.714  26.683  51.195  1.00  0.00    -0.000 C 
BRANCH  12  13
ATOM     13  C   UNL     1      14.530  28.195  51.404  1.00  0.00    -0.000 C 
BRANCH  13  14
ATOM     14  C   UNL     1      15.810  28.993  51.099  1.00  0.00    -0.000 C 
BRANCH  14  15
ATOM     15  C   UNL     1      15.737  30.440  51.612  1.00  0.00    -0.003 C 
ATOM     16  C   UNL     1      14.960  31.361  50.673  1.00  0.00     0.004 C 
ENDBRANCH  14  15
ENDBRANCH  13  14
ENDBRANCH  12  13
ENDBRANCH  11  12
ENDBRANCH  10  11
ENDBRANCH   1  10
TORSDOF 12
ENDMDL
MODEL 7
REMARK VINA RESULT:    -3.844      1.135      3.702
REMARK INTER + INTRA:          -8.342
REMARK INTER:                  -6.582
REMARK INTRA:                  -1.761
REMARK UNBOUND:                -1.801
REMARK SMILES CCCCCCCCCCCCCC(=O)[O-]
REMARK SMILES IDX 8 1 9 2 10 3 11 4 12 5 13 6 14 7 15 8 16 9 7 10 6 11 5 12
REMARK SMILES IDX 4 13 3 14 2 15 1 16
REMARK H PARENT
REMARK Flexibility Score: inf
ROOT
ATOM      1  C   UNL     1      15.908  27.312  55.432  1.00  0.00     0.000 C 
ENDROOT
BRANCH   1   2
ATOM      2  C   UNL     1      15.845  28.757  54.906  1.00  0.00     0.000 C 
BRANCH   2   3
ATOM      3  C   UNL     1      17.152  29.283  54.286  1.00  0.00     0.000 C 
BRANCH   3   4
ATOM      4  C   UNL     1      17.035  29.553  52.778  1.00  0.00     0.000 C 
BRANCH   4   5
ATOM      5  C   UNL     1      15.593  29.360  52.296  1.00  0.00     0.006 C 
BRANCH   5   6
ATOM      6  C   UNL     1      15.518  29.378  50.767  1.00  0.00     0.053 C 
BRANCH   6   7
ATOM      7  C   UNL     1      14.622  30.481  50.299  1.00  0.00     0.041 C 
ATOM      8  O   UNL     1      14.693  30.893  49.111  1.00  0.00    -0.550 OA
ATOM      9  O   UNL     1      13.743  31.087  51.187  1.00  0.00    -0.550 OA
ENDBRANCH   6   7
ENDBRANCH   5   6
ENDBRANCH   4   5
ENDBRANCH   3   4
ENDBRANCH   2   3
ENDBRANCH   1   2
BRANCH   1  10
ATOM     10  C   UNL     1      15.609  26.265  54.347  1.00  0.00     0.000 C 
BRANCH  10  11
ATOM     11  C   UNL     1      16.905  25.645  53.809  1.00  0.00    -0.000 C 
BRANCH  11  12
ATOM     12  C   UNL     1      17.007  25.820  52.287  1.00  0.00    -0.000 C 
BRANCH  12  13
ATOM     13  C   UNL     1      16.025  24.918  51.521  1.00  0.00    -0.000 C 
BRANCH  13  14
ATOM     14  C   UNL     1      15.431  25.611  50.282  1.00  0.00    -0.000 C 
BRANCH  14  15
ATOM     15  C   UNL     1      13.993  26.101  50.516  1.00  0.00    -0.003 C 
ATOM     16  C   UNL     1      13.279  25.328  51.624  1.00  0.00     0.004 C 
ENDBRANCH  14  15
ENDBRANCH  13  14
ENDBRANCH  12  13
ENDBRANCH  11  12
ENDBRANCH  10  11
ENDBRANCH   1  10
TORSDOF 12
ENDMDL
MODEL 8
REMARK VINA RESULT:    -3.820      2.513      4.043
REMARK INTER + INTRA:          -8.302
REMARK INTER:                  -6.260
REMARK INTRA:                  -2.042
REMARK UNBOUND:                -1.801
REMARK SMILES CCCCCCCCCCCCCC(=O)[O-]
REMARK SMILES IDX 8 1 9 2 10 3 11 4 12 5 13 6 14 7 15 8 16 9 7 10 6 11 5 12
REMARK SMILES IDX 4 13 3 14 2 15 1 16
REMARK H PARENT
REMARK Flexibility Score: inf
ROOT
ATOM      1  C   UNL     1      15.730  28.422  50.455  1.00  0.00     0.000 C 
ENDROOT
BRANCH   1   2
ATOM      2  C   UNL     1      14.925  29.494  51.211  1.00  0.00     0.000 C 
BRANCH   2   3
ATOM      3  C   UNL     1      15.697  30.222  52.328  1.00  0.00     0.000 C 
BRANCH   3   4
ATOM      4  C   UNL     1      16.984  29.492  52.741  1.00  0.00     0.000 C 
BRANCH   4   5
ATOM      5  C   UNL     1      17.375  29.840  54.181  1.00  0.00     0.006 C 
BRANCH   5   6
ATOM      6  C   UNL     1      16.212  29.584  55.144  1.00  0.00     0.053 C 
BRANCH   6   7
ATOM      7  C   UNL     1      16.074  30.715  56.113  1.00  0.00     0.041 C 
ATOM      8  O   UNL     1      15.506  31.783  55.763  1.00  0.00    -0.550 OA
ATOM      9  O   UNL     1      16.615  30.610  57.387  1.00  0.00    -0.550 OA
ENDBRANCH   6   7
ENDBRANCH   5   6
ENDBRANCH   4   5
ENDBRANCH   3   4
ENDBRANCH   2   3
ENDBRANCH   1   2
BRANCH   1  10
ATOM     10  C   UNL     1      15.015  27.063  50.399  1.00  0.00     0.000 C 
BRANCH  10  11
ATOM     11  C   UNL     1      14.251  26.790  51.701  1.00  0.00    -0.000 C 
BRANCH  11  12
ATOM     12  C   UNL     1      14.955  25.711  52.535  1.00  0.00    -0.000 C 
BRANCH  12  13
ATOM     13  C   UNL     1      15.322  26.199  53.946  1.00  0.00    -0.000 C 
BRANCH  13  14
ATOM     14  C   UNL     1      16.830  26.101  54.232  1.00  0.00    -0.000 C 
BRANCH  14  15
ATOM     15  C   UNL     1      17.638  25.687  52.991  1.00  0.00    -0.003 C 
ATOM     16  C   UNL     1      18.991  26.392  52.906  1.00  0.00     0.004 C 
ENDBRANCH  14  15
ENDBRANCH  13  14
ENDBRANCH  12  13
ENDBRANCH  11  12
ENDBRANCH  10  11
ENDBRANCH   1  10
TORSDOF 12
ENDMDL
