MODEL 1
REMARK VINA RESULT:    -2.693      0.000      0.000
REMARK INTER + INTRA:          -8.727
REMARK INTER:                  -6.786
REMARK INTRA:                  -1.941
REMARK UNBOUND:                -1.941
REMARK SMILES CCCCCCCCCCCCCCCCCCCCCCCCCCCC(=O)[O-]
REMARK SMILES IDX 15 1 16 2 17 3 18 4 19 5 20 6 21 7 22 8 23 9 24 10 25 11
REMARK SMILES IDX 26 12 27 13 28 14 29 15 30 16 14 17 13 18 12 19 11 20 10 21
REMARK SMILES IDX 9 22 8 23 7 24 6 25 5 26 4 27 3 28 2 29 1 30
REMARK H PARENT
REMARK Flexibility Score: inf
ROOT
ATOM      1  C   UNL     1       3.086  20.740  16.321  1.00  0.00     0.000 C 
ENDROOT
BRANCH   1   2
ATOM      2  C   UNL     1       1.813  19.887  16.448  1.00  0.00     0.000 C 
BRANCH   2   3
ATOM      3  C   UNL     1       0.528  20.709  16.249  1.00  0.00     0.000 C 
BRANCH   3   4
ATOM      4  C   UNL     1      -0.744  19.875  16.470  1.00  0.00     0.000 C 
BRANCH   4   5
ATOM      5  C   UNL     1      -2.005  20.743  16.597  1.00  0.00     0.000 C 
BRANCH   5   6
ATOM      6  C   UNL     1      -3.153  19.946  17.234  1.00  0.00     0.000 C 
BRANCH   6   7
ATOM      7  C   UNL     1      -4.532  20.313  16.657  1.00  0.00     0.000 C 
BRANCH   7   8
ATOM      8  C   UNL     1      -4.432  21.099  15.339  1.00  0.00     0.000 C 
BRANCH   8   9
ATOM      9  C   UNL     1      -5.704  20.994  14.478  1.00  0.00     0.000 C 
BRANCH   9  10
ATOM     10  C   UNL     1      -6.906  20.298  15.155  1.00  0.00     0.000 C 
BRANCH  10  11
ATOM     11  C   UNL     1      -8.027  21.239  15.631  1.00  0.00     0.000 C 
BRANCH  11  12
ATOM     12  C   UNL     1      -8.212  21.224  17.158  1.00  0.00     0.006 C 
BRANCH  12  13
ATOM     13  C   UNL     1      -8.248  22.639  17.750  1.00  0.00     0.053 C 
BRANCH  13  14
ATOM     14  C   UNL     1      -8.373  22.616  19.244  1.00  0.00     0.041 C 
ATOM     15  O   UNL     1      -7.853  23.530  19.939  1.00  0.00    -0.550 OA
ATOM     16  O   UNL     1      -9.106  21.613  19.864  1.00  0.00    -0.550 OA
ENDBRANCH  13  14
ENDBRANCH  12  13
ENDBRANCH  11  12
ENDBRANCH  10  11
ENDBRANCH   9  10
ENDBRANCH   8   9
ENDBRANCH   7   8
ENDBRANCH   6   7
ENDBRANCH   5   6
ENDBRANCH   4   5
ENDBRANCH   3   4
ENDBRANCH   2   3
ENDBRANCH   1   2
BRANCH   1  17
ATOM     17  C   UNL     1       4.298  19.935  15.830  1.00  0.00     0.000 C 
BRANCH  17  18
ATOM     18  C   UNL     1       5.586  20.397  16.529  1.00  0.00     0.000 C 
BRANCH  18  19
ATOM     19  C   UNL     1       5.617  21.917  16.761  1.00  0.00     0.000 C 
BRANCH  19  20
ATOM     20  C   UNL     1       6.756  22.345  17.703  1.00  0.00     0.000 C 
BRANCH  20  21
ATOM     21  C   UNL     1       8.144  22.017  17.126  1.00  0.00     0.000 C 
BRANCH  21  22
ATOM     22  C   UNL     1       9.311  22.517  18.006  1.00  0.00    -0.000 C 
BRANCH  22  23
ATOM     23  C   UNL     1      10.600  22.813  17.217  1.00  0.00    -0.000 C 
BRANCH  23  24
ATOM     24  C   UNL     1      10.672  22.147  15.830  1.00  0.00    -0.000 C 
BRANCH  24  25
ATOM     25  C   UNL     1      10.917  23.123  14.662  1.00  0.00    -0.000 C 
BRANCH  25  26
ATOM     26  C   UNL     1      10.234  22.692  13.343  1.00  0.00    -0.000 C 
BRANCH  26  27
ATOM     27  C   UNL     1      10.839  21.416  12.733  1.00  0.00    -0.000 C 
BRANCH  27  28
ATOM     28  C   UNL     1       9.775  20.338  12.461  1.00  0.00    -0.000 C 
BRANCH  28  29
ATOM     29  C   UNL     1       8.864  20.092  13.675  1.00  0.00    -0.003 C 
ATOM     30  C   UNL     1       7.388  19.971  13.295  1.00  0.00     0.004 C 
ENDBRANCH  28  29
ENDBRANCH  27  28
ENDBRANCH  26  27
ENDBRANCH  25  26
ENDBRANCH  24  25
ENDBRANCH  23  24
ENDBRANCH  22  23
ENDBRANCH  21  22
ENDBRANCH  20  21
ENDBRANCH  19  20
ENDBRANCH  18  19
ENDBRANCH  17  18
ENDBRANCH   1  17
TORSDOF 26
ENDMDL
MODEL 2
REMARK VINA RESULT:    -2.473      1.471      2.019
REMARK INTER + INTRA:          -8.172
REMARK INTER:                  -7.316
REMARK INTRA:                  -0.856
REMARK UNBOUND:                -1.941
REMARK SMILES CCCCCCCCCCCCCCCCCCCCCCCCCCCC(=O)[O-]
REMARK SMILES IDX 15 1 16 2 17 3 18 4 19 5 20 6 21 7 22 8 23 9 24 10 25 11
REMARK SMILES IDX 26 12 27 13 28 14 29 15 30 16 14 17 13 18 12 19 11 20 10 21
REMARK SMILES IDX 9 22 8 23 7 24 6 25 5 26 4 27 3 28 2 29 1 30
REMARK H PARENT
REMARK Flexibility Score: inf
ROOT
ATOM      1  C   UNL     1       3.083  21.155  16.566  1.00  0.00     0.000 C 
ENDROOT
BRANCH   1   2
ATOM      2  C   UNL     1       1.652  20.990  17.101  1.00  0.00     0.000 C 
BRANCH   2   3
ATOM      3  C   UNL     1       0.620  20.785  15.977  1.00  0.00     0.000 C 
BRANCH   3   4
ATOM      4  C   UNL     1      -0.558  19.901  16.415  1.00  0.00     0.000 C 
BRANCH   4   5
ATOM      5  C   UNL     1      -1.914  20.607  16.264  1.00  0.00     0.000 C 
BRANCH   5   6
ATOM      6  C   UNL     1      -2.977  19.939  17.150  1.00  0.00     0.000 C 
BRANCH   6   7
ATOM      7  C   UNL     1      -4.412  20.180  16.651  1.00  0.00     0.000 C 
BRANCH   7   8
ATOM      8  C   UNL     1      -4.456  20.722  15.212  1.00  0.00     0.000 C 
BRANCH   8   9
ATOM      9  C   UNL     1      -5.887  21.000  14.717  1.00  0.00     0.000 C 
BRANCH   9  10
ATOM     10  C   UNL     1      -7.006  20.245  15.470  1.00  0.00     0.000 C 
BRANCH  10  11
ATOM     11  C   UNL     1      -8.220  21.101  15.871  1.00  0.00     0.000 C 
BRANCH  11  12
ATOM     12  C   UNL     1      -7.975  21.926  17.146  1.00  0.00     0.006 C 
BRANCH  12  13
ATOM     13  C   UNL     1      -7.587  21.044  18.340  1.00  0.00     0.053 C 
BRANCH  13  14
ATOM     14  C   UNL     1      -7.687  21.786  19.639  1.00  0.00     0.041 C 
ATOM     15  O   UNL     1      -7.254  21.267  20.703  1.00  0.00    -0.550 OA
ATOM     16  O   UNL     1      -8.213  23.071  19.665  1.00  0.00    -0.550 OA
ENDBRANCH  13  14
ENDBRANCH  12  13
ENDBRANCH  11  12
ENDBRANCH  10  11
ENDBRANCH   9  10
ENDBRANCH   8   9
ENDBRANCH   7   8
ENDBRANCH   6   7
ENDBRANCH   5   6
ENDBRANCH   4   5
ENDBRANCH   3   4
ENDBRANCH   2   3
ENDBRANCH   1   2
BRANCH   1  17
ATOM     17  C   UNL     1       3.560  19.944  15.750  1.00  0.00     0.000 C 
BRANCH  17  18
ATOM     18  C   UNL     1       5.095  19.875  15.713  1.00  0.00     0.000 C 
BRANCH  18  19
ATOM     19  C   UNL     1       5.755  21.093  16.379  1.00  0.00     0.000 C 
BRANCH  19  20
ATOM     20  C   UNL     1       7.284  20.947  16.488  1.00  0.00     0.000 C 
BRANCH  20  21
ATOM     21  C   UNL     1       7.876  20.130  15.326  1.00  0.00     0.000 C 
BRANCH  21  22
ATOM     22  C   UNL     1       9.352  20.469  15.024  1.00  0.00    -0.000 C 
BRANCH  22  23
ATOM     23  C   UNL     1       9.701  21.956  15.227  1.00  0.00    -0.000 C 
BRANCH  23  24
ATOM     24  C   UNL     1      11.044  22.391  14.612  1.00  0.00    -0.000 C 
BRANCH  24  25
ATOM     25  C   UNL     1      11.121  22.258  13.078  1.00  0.00    -0.000 C 
BRANCH  25  26
ATOM     26  C   UNL     1      10.515  20.941  12.541  1.00  0.00    -0.000 C 
BRANCH  26  27
ATOM     27  C   UNL     1       9.968  21.061  11.109  1.00  0.00    -0.000 C 
BRANCH  27  28
ATOM     28  C   UNL     1      11.074  20.916  10.048  1.00  0.00    -0.000 C 
BRANCH  28  29
ATOM     29  C   UNL     1      10.520  20.511   8.672  1.00  0.00    -0.003 C 
ATOM     30  C   UNL     1       9.007  20.702   8.562  1.00  0.00     0.004 C 
ENDBRANCH  28  29
ENDBRANCH  27  28
ENDBRANCH  26  27
ENDBRANCH  25  26
ENDBRANCH  24  25
ENDBRANCH  23  24
ENDBRANCH  22  23
ENDBRANCH  21  22
ENDBRANCH  20  21
ENDBRANCH  19  20
ENDBRANCH  18  19
ENDBRANCH  17  18
ENDBRANCH   1  17
TORSDOF 26
ENDMDL
MODEL 3
REMARK VINA RESULT:    -2.222      1.699      3.186
REMARK INTER + INTRA:          -7.540
REMARK INTER:                  -5.520
REMARK INTRA:                  -2.020
REMARK UNBOUND:                -1.941
REMARK SMILES CCCCCCCCCCCCCCCCCCCCCCCCCCCC(=O)[O-]
REMARK SMILES IDX 15 1 16 2 17 3 18 4 19 5 20 6 21 7 22 8 23 9 24 10 25 11
REMARK SMILES IDX 26 12 27 13 28 14 29 15 30 16 14 17 13 18 12 19 11 20 10 21
REMARK SMILES IDX 9 22 8 23 7 24 6 25 5 26 4 27 3 28 2 29 1 30
REMARK H PARENT
REMARK Flexibility Score: inf
ROOT
ATOM      1  C   UNL     1      -0.285  20.780  16.506  1.00  0.00     0.000 C 
ENDROOT
BRANCH   1   2
ATOM      2  C   UNL     1      -1.103  21.772  15.663  1.00  0.00     0.000 C 
BRANCH   2   3
ATOM      3  C   UNL     1      -2.512  21.249  15.336  1.00  0.00     0.000 C 
BRANCH   3   4
ATOM      4  C   UNL     1      -2.955  20.121  16.282  1.00  0.00     0.000 C 
BRANCH   4   5
ATOM      5  C   UNL     1      -4.451  20.191  16.624  1.00  0.00     0.000 C 
BRANCH   5   6
ATOM      6  C   UNL     1      -5.210  21.025  15.582  1.00  0.00     0.000 C 
BRANCH   6   7
ATOM      7  C   UNL     1      -6.469  20.321  15.049  1.00  0.00     0.000 C 
BRANCH   7   8
ATOM      8  C   UNL     1      -7.688  21.257  14.982  1.00  0.00     0.000 C 
BRANCH   8   9
ATOM      9  C   UNL     1      -8.367  21.460  16.350  1.00  0.00     0.000 C 
BRANCH   9  10
ATOM     10  C   UNL     1      -8.622  20.169  17.158  1.00  0.00     0.000 C 
BRANCH  10  11
ATOM     11  C   UNL     1      -8.391  20.287  18.675  1.00  0.00     0.000 C 
BRANCH  11  12
ATOM     12  C   UNL     1      -7.174  21.160  19.028  1.00  0.00     0.006 C 
BRANCH  12  13
ATOM     13  C   UNL     1      -7.309  21.809  20.412  1.00  0.00     0.053 C 
BRANCH  13  14
ATOM     14  C   UNL     1      -7.744  23.241  20.317  1.00  0.00     0.041 C 
ATOM     15  O   UNL     1      -8.562  23.598  19.427  1.00  0.00    -0.550 OA
ATOM     16  O   UNL     1      -7.284  24.169  21.242  1.00  0.00    -0.550 OA
ENDBRANCH  13  14
ENDBRANCH  12  13
ENDBRANCH  11  12
ENDBRANCH  10  11
ENDBRANCH   9  10
ENDBRANCH   8   9
ENDBRANCH   7   8
ENDBRANCH   6   7
ENDBRANCH   5   6
ENDBRANCH   4   5
ENDBRANCH   3   4
ENDBRANCH   2   3
ENDBRANCH   1   2
BRANCH   1  17
ATOM     17  C   UNL     1       0.954  20.249  15.769  1.00  0.00     0.000 C 
BRANCH  17  18
ATOM     18  C   UNL     1       2.227  20.971  16.241  1.00  0.00     0.000 C 
BRANCH  18  19
ATOM     19  C   UNL     1       3.281  20.000  16.797  1.00  0.00     0.000 C 
BRANCH  19  20
ATOM     20  C   UNL     1       4.671  20.221  16.173  1.00  0.00     0.000 C 
BRANCH  20  21
ATOM     21  C   UNL     1       4.654  20.064  14.643  1.00  0.00     0.000 C 
BRANCH  21  22
ATOM     22  C   UNL     1       6.060  20.100  14.004  1.00  0.00    -0.000 C 
BRANCH  22  23
ATOM     23  C   UNL     1       7.112  20.829  14.862  1.00  0.00    -0.000 C 
BRANCH  23  24
ATOM     24  C   UNL     1       8.443  20.072  15.027  1.00  0.00    -0.000 C 
BRANCH  24  25
ATOM     25  C   UNL     1       9.693  20.876  14.618  1.00  0.00    -0.000 C 
BRANCH  25  26
ATOM     26  C   UNL     1       9.434  21.878  13.470  1.00  0.00    -0.000 C 
BRANCH  26  27
ATOM     27  C   UNL     1      10.095  21.469  12.143  1.00  0.00    -0.000 C 
BRANCH  27  28
ATOM     28  C   UNL     1       9.192  20.552  11.299  1.00  0.00    -0.000 C 
BRANCH  28  29
ATOM     29  C   UNL     1       9.823  20.190   9.945  1.00  0.00    -0.003 C 
ATOM     30  C   UNL     1       8.874  20.422   8.767  1.00  0.00     0.004 C 
ENDBRANCH  28  29
ENDBRANCH  27  28
ENDBRANCH  26  27
ENDBRANCH  25  26
ENDBRANCH  24  25
ENDBRANCH  23  24
ENDBRANCH  22  23
ENDBRANCH  21  22
ENDBRANCH  20  21
ENDBRANCH  19  20
ENDBRANCH  18  19
ENDBRANCH  17  18
ENDBRANCH   1  17
TORSDOF 26
ENDMDL
MODEL 4
REMARK VINA RESULT:    -2.203      1.932      3.344
REMARK INTER + INTRA:          -7.493
REMARK INTER:                  -6.101
REMARK INTRA:                  -1.392
REMARK UNBOUND:                -1.941
REMARK SMILES CCCCCCCCCCCCCCCCCCCCCCCCCCCC(=O)[O-]
REMARK SMILES IDX 15 1 16 2 17 3 18 4 19 5 20 6 21 7 22 8 23 9 24 10 25 11
REMARK SMILES IDX 26 12 27 13 28 14 29 15 30 16 14 17 13 18 12 19 11 20 10 21
REMARK SMILES IDX 9 22 8 23 7 24 6 25 5 26 4 27 3 28 2 29 1 30
REMARK H PARENT
REMARK Flexibility Score: inf
ROOT
ATOM      1  C   UNL     1       1.138  21.317  16.015  1.00  0.00     0.000 C 
ENDROOT
BRANCH   1   2
ATOM      2  C   UNL     1      -0.262  21.366  15.382  1.00  0.00     0.000 C 
BRANCH   2   3
ATOM      3  C   UNL     1      -1.355  20.830  16.323  1.00  0.00     0.000 C 
BRANCH   3   4
ATOM      4  C   UNL     1      -2.771  21.051  15.765  1.00  0.00     0.000 C 
BRANCH   4   5
ATOM      5  C   UNL     1      -3.817  20.146  16.435  1.00  0.00     0.000 C 
BRANCH   5   6
ATOM      6  C   UNL     1      -5.206  20.372  15.820  1.00  0.00     0.000 C 
BRANCH   6   7
ATOM      7  C   UNL     1      -6.354  19.975  16.764  1.00  0.00     0.000 C 
BRANCH   7   8
ATOM      8  C   UNL     1      -5.943  20.020  18.246  1.00  0.00     0.000 C 
BRANCH   8   9
ATOM      9  C   UNL     1      -6.807  20.984  19.081  1.00  0.00     0.000 C 
BRANCH   9  10
ATOM     10  C   UNL     1      -8.333  20.777  18.960  1.00  0.00     0.000 C 
BRANCH  10  11
ATOM     11  C   UNL     1      -9.003  20.109  20.173  1.00  0.00     0.000 C 
BRANCH  11  12
ATOM     12  C   UNL     1      -8.410  20.572  21.515  1.00  0.00     0.006 C 
BRANCH  12  13
ATOM     13  C   UNL     1      -9.124  21.814  22.064  1.00  0.00     0.053 C 
BRANCH  13  14
ATOM     14  C   UNL     1      -8.151  22.862  22.518  1.00  0.00     0.041 C 
ATOM     15  O   UNL     1      -7.527  23.558  21.673  1.00  0.00    -0.550 OA
ATOM     16  O   UNL     1      -7.974  23.103  23.875  1.00  0.00    -0.550 OA
ENDBRANCH  13  14
ENDBRANCH  12  13
ENDBRANCH  11  12
ENDBRANCH  10  11
ENDBRANCH   9  10
ENDBRANCH   8   9
ENDBRANCH   7   8
ENDBRANCH   6   7
ENDBRANCH   5   6
ENDBRANCH   4   5
ENDBRANCH   3   4
ENDBRANCH   2   3
ENDBRANCH   1   2
BRANCH   1  17
ATOM     17  C   UNL     1       1.807  19.941  15.880  1.00  0.00     0.000 C 
BRANCH  17  18
ATOM     18  C   UNL     1       3.141  19.901  16.643  1.00  0.00     0.000 C 
BRANCH  18  19
ATOM     19  C   UNL     1       4.357  19.881  15.701  1.00  0.00     0.000 C 
BRANCH  19  20
ATOM     20  C   UNL     1       5.184  21.177  15.783  1.00  0.00     0.000 C 
BRANCH  20  21
ATOM     21  C   UNL     1       6.615  20.924  16.287  1.00  0.00     0.000 C 
BRANCH  21  22
ATOM     22  C   UNL     1       7.553  20.334  15.211  1.00  0.00    -0.000 C 
BRANCH  22  23
ATOM     23  C   UNL     1       8.968  20.943  15.220  1.00  0.00    -0.000 C 
BRANCH  23  24
ATOM     24  C   UNL     1      10.105  19.930  14.992  1.00  0.00    -0.000 C 
BRANCH  24  25
ATOM     25  C   UNL     1      10.829  20.074  13.638  1.00  0.00    -0.000 C 
BRANCH  25  26
ATOM     26  C   UNL     1       9.873  20.326  12.450  1.00  0.00    -0.000 C 
BRANCH  26  27
ATOM     27  C   UNL     1      10.310  21.498  11.555  1.00  0.00    -0.000 C 
BRANCH  27  28
ATOM     28  C   UNL     1      10.301  22.841  12.306  1.00  0.00    -0.000 C 
BRANCH  28  29
ATOM     29  C   UNL     1      10.858  23.994  11.456  1.00  0.00    -0.003 C 
ATOM     30  C   UNL     1      10.769  25.349  12.160  1.00  0.00     0.004 C 
ENDBRANCH  28  29
ENDBRANCH  27  28
ENDBRANCH  26  27
ENDBRANCH  25  26
ENDBRANCH  24  25
ENDBRANCH  23  24
ENDBRANCH  22  23
ENDBRANCH  21  22
ENDBRANCH  20  21
ENDBRANCH  19  20
ENDBRANCH  18  19
ENDBRANCH  17  18
ENDBRANCH   1  17
TORSDOF 26
ENDMDL
MODEL 5
REMARK VINA RESULT:    -1.757      5.751     14.853
REMARK INTER + INTRA:          -6.369
REMARK INTER:                  -4.854
REMARK INTRA:                  -1.515
REMARK UNBOUND:                -1.941
REMARK SMILES CCCCCCCCCCCCCCCCCCCCCCCCCCCC(=O)[O-]
REMARK SMILES IDX 15 1 16 2 17 3 18 4 19 5 20 6 21 7 22 8 23 9 24 10 25 11
REMARK SMILES IDX 26 12 27 13 28 14 29 15 30 16 14 17 13 18 12 19 11 20 10 21
REMARK SMILES IDX 9 22 8 23 7 24 6 25 5 26 4 27 3 28 2 29 1 30
REMARK H PARENT
REMARK Flexibility Score: inf
ROOT
ATOM      1  C   UNL     1       2.276  21.130  16.757  1.00  0.00     0.000 C 
ENDROOT
BRANCH   1   2
ATOM      2  C   UNL     1       3.750  21.509  16.544  1.00  0.00     0.000 C 
BRANCH   2   3
ATOM      3  C   UNL     1       4.641  20.286  16.265  1.00  0.00     0.000 C 
BRANCH   3   4
ATOM      4  C   UNL     1       5.458  20.436  14.972  1.00  0.00     0.000 C 
BRANCH   4   5
ATOM      5  C   UNL     1       6.876  20.971  15.227  1.00  0.00     0.000 C 
BRANCH   5   6
ATOM      6  C   UNL     1       7.772  19.875  15.825  1.00  0.00     0.000 C 
BRANCH   6   7
ATOM      7  C   UNL     1       9.226  19.952  15.330  1.00  0.00     0.000 C 
BRANCH   7   8
ATOM      8  C   UNL     1       9.626  21.369  14.886  1.00  0.00     0.000 C 
BRANCH   8   9
ATOM      9  C   UNL     1      10.333  21.394  13.518  1.00  0.00     0.000 C 
BRANCH   9  10
ATOM     10  C   UNL     1       9.415  21.174  12.295  1.00  0.00     0.000 C 
BRANCH  10  11
ATOM     11  C   UNL     1      10.144  20.970  10.955  1.00  0.00     0.000 C 
BRANCH  11  12
ATOM     12  C   UNL     1      11.075  22.141  10.596  1.00  0.00     0.006 C 
BRANCH  12  13
ATOM     13  C   UNL     1      10.601  22.894   9.346  1.00  0.00     0.053 C 
BRANCH  13  14
ATOM     14  C   UNL     1      10.656  24.380   9.535  1.00  0.00     0.041 C 
ATOM     15  O   UNL     1      10.678  24.873  10.695  1.00  0.00    -0.550 OA
ATOM     16  O   UNL     1      10.735  25.218   8.430  1.00  0.00    -0.550 OA
ENDBRANCH  13  14
ENDBRANCH  12  13
ENDBRANCH  11  12
ENDBRANCH  10  11
ENDBRANCH   9  10
ENDBRANCH   8   9
ENDBRANCH   7   8
ENDBRANCH   6   7
ENDBRANCH   5   6
ENDBRANCH   4   5
ENDBRANCH   3   4
ENDBRANCH   2   3
ENDBRANCH   1   2
BRANCH   1  17
ATOM     17  C   UNL     1       1.560  20.755  15.451  1.00  0.00     0.000 C 
BRANCH  17  18
ATOM     18  C   UNL     1       0.036  20.726  15.647  1.00  0.00     0.000 C 
BRANCH  18  19
ATOM     19  C   UNL     1      -0.369  20.831  17.127  1.00  0.00     0.000 C 
BRANCH  19  20
ATOM     20  C   UNL     1      -1.519  19.875  17.491  1.00  0.00     0.000 C 
BRANCH  20  21
ATOM     21  C   UNL     1      -2.888  20.577  17.474  1.00  0.00     0.000 C 
BRANCH  21  22
ATOM     22  C   UNL     1      -3.294  21.101  16.079  1.00  0.00    -0.000 C 
BRANCH  22  23
ATOM     23  C   UNL     1      -4.494  20.358  15.462  1.00  0.00    -0.000 C 
BRANCH  23  24
ATOM     24  C   UNL     1      -5.563  21.271  14.833  1.00  0.00    -0.000 C 
BRANCH  24  25
ATOM     25  C   UNL     1      -6.916  20.583  14.563  1.00  0.00    -0.000 C 
BRANCH  25  26
ATOM     26  C   UNL     1      -7.961  20.818  15.677  1.00  0.00    -0.000 C 
BRANCH  26  27
ATOM     27  C   UNL     1      -7.366  21.444  16.949  1.00  0.00    -0.000 C 
BRANCH  27  28
ATOM     28  C   UNL     1      -7.010  20.387  18.009  1.00  0.00    -0.000 C 
BRANCH  28  29
ATOM     29  C   UNL     1      -6.551  21.015  19.335  1.00  0.00    -0.003 C 
ATOM     30  C   UNL     1      -7.454  22.160  19.795  1.00  0.00     0.004 C 
ENDBRANCH  28  29
ENDBRANCH  27  28
ENDBRANCH  26  27
ENDBRANCH  25  26
ENDBRANCH  24  25
ENDBRANCH  23  24
ENDBRANCH  22  23
ENDBRANCH  21  22
ENDBRANCH  20  21
ENDBRANCH  19  20
ENDBRANCH  18  19
ENDBRANCH  17  18
ENDBRANCH   1  17
TORSDOF 26
ENDMDL
MODEL 6
REMARK VINA RESULT:    -1.017      5.705     15.304
REMARK INTER + INTRA:          -4.503
REMARK INTER:                  -3.070
REMARK INTRA:                  -1.433
REMARK UNBOUND:                -1.941
REMARK SMILES CCCCCCCCCCCCCCCCCCCCCCCCCCCC(=O)[O-]
REMARK SMILES IDX 15 1 16 2 17 3 18 4 19 5 20 6 21 7 22 8 23 9 24 10 25 11
REMARK SMILES IDX 26 12 27 13 28 14 29 15 30 16 14 17 13 18 12 19 11 20 10 21
REMARK SMILES IDX 9 22 8 23 7 24 6 25 5 26 4 27 3 28 2 29 1 30
REMARK H PARENT
REMARK Flexibility Score: inf
ROOT
ATOM      1  C   UNL     1      -0.576  21.741  15.043  1.00  0.00     0.000 C 
ENDROOT
BRANCH   1   2
ATOM      2  C   UNL     1       0.826  21.239  15.427  1.00  0.00     0.000 C 
BRANCH   2   3
ATOM      3  C   UNL     1       0.865  20.615  16.833  1.00  0.00     0.000 C 
BRANCH   3   4
ATOM      4  C   UNL     1       2.251  20.054  17.188  1.00  0.00     0.000 C 
BRANCH   4   5
ATOM      5  C   UNL     1       3.150  19.875  15.954  1.00  0.00     0.000 C 
BRANCH   5   6
ATOM      6  C   UNL     1       4.630  20.028  16.332  1.00  0.00     0.000 C 
BRANCH   6   7
ATOM      7  C   UNL     1       5.289  21.264  15.694  1.00  0.00     0.000 C 
BRANCH   7   8
ATOM      8  C   UNL     1       6.313  20.893  14.608  1.00  0.00     0.000 C 
BRANCH   8   9
ATOM      9  C   UNL     1       7.391  19.912  15.107  1.00  0.00     0.000 C 
BRANCH   9  10
ATOM     10  C   UNL     1       8.835  20.462  15.109  1.00  0.00     0.000 C 
BRANCH  10  11
ATOM     11  C   UNL     1       9.743  19.925  13.989  1.00  0.00     0.000 C 
BRANCH  11  12
ATOM     12  C   UNL     1       9.627  20.734  12.685  1.00  0.00     0.006 C 
BRANCH  12  13
ATOM     13  C   UNL     1       8.812  19.993  11.616  1.00  0.00     0.053 C 
BRANCH  13  14
ATOM     14  C   UNL     1       9.285  20.318  10.230  1.00  0.00     0.041 C 
ATOM     15  O   UNL     1       8.453  20.575   9.319  1.00  0.00    -0.550 OA
ATOM     16  O   UNL     1      10.646  20.386   9.959  1.00  0.00    -0.550 OA
ENDBRANCH  13  14
ENDBRANCH  12  13
ENDBRANCH  11  12
ENDBRANCH  10  11
ENDBRANCH   9  10
ENDBRANCH   8   9
ENDBRANCH   7   8
ENDBRANCH   6   7
ENDBRANCH   5   6
ENDBRANCH   4   5
ENDBRANCH   3   4
ENDBRANCH   2   3
ENDBRANCH   1   2
BRANCH   1  17
ATOM     17  C   UNL     1      -1.702  20.939  15.711  1.00  0.00     0.000 C 
BRANCH  17  18
ATOM     18  C   UNL     1      -3.059  21.248  15.059  1.00  0.00     0.000 C 
BRANCH  18  19
ATOM     19  C   UNL     1      -4.212  20.454  15.696  1.00  0.00     0.000 C 
BRANCH  19  20
ATOM     20  C   UNL     1      -5.594  20.993  15.284  1.00  0.00     0.000 C 
BRANCH  20  21
ATOM     21  C   UNL     1      -6.704  20.550  16.253  1.00  0.00     0.000 C 
BRANCH  21  22
ATOM     22  C   UNL     1      -6.174  20.086  17.627  1.00  0.00    -0.000 C 
BRANCH  22  23
ATOM     23  C   UNL     1      -7.273  19.931  18.696  1.00  0.00    -0.000 C 
BRANCH  23  24
ATOM     24  C   UNL     1      -7.525  21.191  19.545  1.00  0.00    -0.000 C 
BRANCH  24  25
ATOM     25  C   UNL     1      -8.977  21.352  20.038  1.00  0.00    -0.000 C 
BRANCH  25  26
ATOM     26  C   UNL     1      -9.103  21.412  21.578  1.00  0.00    -0.000 C 
BRANCH  26  27
ATOM     27  C   UNL     1      -8.548  22.712  22.185  1.00  0.00    -0.000 C 
BRANCH  27  28
ATOM     28  C   UNL     1      -7.908  22.485  23.566  1.00  0.00    -0.000 C 
BRANCH  28  29
ATOM     29  C   UNL     1      -7.989  21.017  24.017  1.00  0.00    -0.003 C 
ATOM     30  C   UNL     1      -6.623  20.329  24.047  1.00  0.00     0.004 C 
ENDBRANCH  28  29
ENDBRANCH  27  28
ENDBRANCH  26  27
ENDBRANCH  25  26
ENDBRANCH  24  25
ENDBRANCH  23  24
ENDBRANCH  22  23
ENDBRANCH  21  22
ENDBRANCH  20  21
ENDBRANCH  19  20
ENDBRANCH  18  19
ENDBRANCH  17  18
ENDBRANCH   1  17
TORSDOF 26
ENDMDL
MODEL 7
REMARK VINA RESULT:    -0.770      2.131      5.110
REMARK INTER + INTRA:          -3.882
REMARK INTER:                  -2.543
REMARK INTRA:                  -1.339
REMARK UNBOUND:                -1.941
REMARK SMILES CCCCCCCCCCCCCCCCCCCCCCCCCCCC(=O)[O-]
REMARK SMILES IDX 15 1 16 2 17 3 18 4 19 5 20 6 21 7 22 8 23 9 24 10 25 11
REMARK SMILES IDX 26 12 27 13 28 14 29 15 30 16 14 17 13 18 12 19 11 20 10 21
REMARK SMILES IDX 9 22 8 23 7 24 6 25 5 26 4 27 3 28 2 29 1 30
REMARK H PARENT
REMARK Flexibility Score: inf
ROOT
ATOM      1  C   UNL     1       5.295  21.264  13.665  1.00  0.00     0.000 C 
ENDROOT
BRANCH   1   2
ATOM      2  C   UNL     1       6.064  21.296  14.996  1.00  0.00     0.000 C 
BRANCH   2   3
ATOM      3  C   UNL     1       5.130  21.296  16.218  1.00  0.00     0.000 C 
BRANCH   3   4
ATOM      4  C   UNL     1       4.433  19.942  16.426  1.00  0.00     0.000 C 
BRANCH   4   5
ATOM      5  C   UNL     1       3.057  19.875  15.744  1.00  0.00     0.000 C 
BRANCH   5   6
ATOM      6  C   UNL     1       2.127  20.969  16.287  1.00  0.00     0.000 C 
BRANCH   6   7
ATOM      7  C   UNL     1       0.831  20.408  16.897  1.00  0.00     0.000 C 
BRANCH   7   8
ATOM      8  C   UNL     1      -0.300  20.273  15.862  1.00  0.00     0.000 C 
BRANCH   8   9
ATOM      9  C   UNL     1      -1.671  19.989  16.503  1.00  0.00     0.000 C 
BRANCH   9  10
ATOM     10  C   UNL     1      -2.838  20.854  15.978  1.00  0.00     0.000 C 
BRANCH  10  11
ATOM     11  C   UNL     1      -4.224  20.187  16.029  1.00  0.00     0.000 C 
BRANCH  11  12
ATOM     12  C   UNL     1      -5.339  21.081  15.459  1.00  0.00     0.006 C 
BRANCH  12  13
ATOM     13  C   UNL     1      -6.609  21.040  16.320  1.00  0.00     0.053 C 
BRANCH  13  14
ATOM     14  C   UNL     1      -7.828  20.733  15.501  1.00  0.00     0.041 C 
ATOM     15  O   UNL     1      -7.713  20.176  14.376  1.00  0.00    -0.550 OA
ATOM     16  O   UNL     1      -9.091  21.014  16.005  1.00  0.00    -0.550 OA
ENDBRANCH  13  14
ENDBRANCH  12  13
ENDBRANCH  11  12
ENDBRANCH  10  11
ENDBRANCH   9  10
ENDBRANCH   8   9
ENDBRANCH   7   8
ENDBRANCH   6   7
ENDBRANCH   5   6
ENDBRANCH   4   5
ENDBRANCH   3   4
ENDBRANCH   2   3
ENDBRANCH   1   2
BRANCH   1  17
ATOM     17  C   UNL     1       5.613  20.021  12.820  1.00  0.00     0.000 C 
BRANCH  17  18
ATOM     18  C   UNL     1       6.146  20.418  11.435  1.00  0.00     0.000 C 
BRANCH  18  19
ATOM     19  C   UNL     1       7.644  20.113  11.271  1.00  0.00     0.000 C 
BRANCH  19  20
ATOM     20  C   UNL     1       8.038  19.875   9.802  1.00  0.00     0.000 C 
BRANCH  20  21
ATOM     21  C   UNL     1       8.432  21.178   9.085  1.00  0.00     0.000 C 
BRANCH  21  22
ATOM     22  C   UNL     1       9.946  21.479   9.140  1.00  0.00    -0.000 C 
BRANCH  22  23
ATOM     23  C   UNL     1      10.784  20.332   9.735  1.00  0.00    -0.000 C 
BRANCH  23  24
ATOM     24  C   UNL     1      11.051  20.448  11.248  1.00  0.00    -0.000 C 
BRANCH  24  25
ATOM     25  C   UNL     1      10.596  21.780  11.878  1.00  0.00    -0.000 C 
BRANCH  25  26
ATOM     26  C   UNL     1       9.640  21.599  13.080  1.00  0.00    -0.000 C 
BRANCH  26  27
ATOM     27  C   UNL     1      10.104  20.517  14.070  1.00  0.00    -0.000 C 
BRANCH  27  28
ATOM     28  C   UNL     1      10.137  21.029  15.521  1.00  0.00    -0.000 C 
BRANCH  28  29
ATOM     29  C   UNL     1      10.947  22.328  15.668  1.00  0.00    -0.003 C 
ATOM     30  C   UNL     1      10.757  22.995  17.031  1.00  0.00     0.004 C 
ENDBRANCH  28  29
ENDBRANCH  27  28
ENDBRANCH  26  27
ENDBRANCH  25  26
ENDBRANCH  24  25
ENDBRANCH  23  24
ENDBRANCH  22  23
ENDBRANCH  21  22
ENDBRANCH  20  21
ENDBRANCH  19  20
ENDBRANCH  18  19
ENDBRANCH  17  18
ENDBRANCH   1  17
TORSDOF 26
ENDMDL
MODEL 8
REMARK VINA RESULT:    -0.616      1.595      4.278
REMARK INTER + INTRA:          -3.493
REMARK INTER:                  -2.863
REMARK INTRA:                  -0.630
REMARK UNBOUND:                -1.941
REMARK SMILES CCCCCCCCCCCCCCCCCCCCCCCCCCCC(=O)[O-]
REMARK SMILES IDX 15 1 16 2 17 3 18 4 19 5 20 6 21 7 22 8 23 9 24 10 25 11
REMARK SMILES IDX 26 12 27 13 28 14 29 15 30 16 14 17 13 18 12 19 11 20 10 21
REMARK SMILES IDX 9 22 8 23 7 24 6 25 5 26 4 27 3 28 2 29 1 30
REMARK H PARENT
REMARK Flexibility Score: inf
ROOT
ATOM      1  C   UNL     1      -2.293  20.910  17.652  1.00  0.00     0.000 C 
ENDROOT
BRANCH   1   2
ATOM      2  C   UNL     1      -2.402  20.964  16.120  1.00  0.00     0.000 C 
BRANCH   2   3
ATOM      3  C   UNL     1      -3.361  19.900  15.558  1.00  0.00     0.000 C 
BRANCH   3   4
ATOM      4  C   UNL     1      -4.736  19.928  16.243  1.00  0.00     0.000 C 
BRANCH   4   5
ATOM      5  C   UNL     1      -5.317  21.347  16.344  1.00  0.00     0.000 C 
BRANCH   5   6
ATOM      6  C   UNL     1      -6.265  21.632  15.169  1.00  0.00     0.000 C 
BRANCH   6   7
ATOM      7  C   UNL     1      -6.958  20.367  14.635  1.00  0.00     0.000 C 
BRANCH   7   8
ATOM      8  C   UNL     1      -8.470  20.357  14.917  1.00  0.00     0.000 C 
BRANCH   8   9
ATOM      9  C   UNL     1      -8.805  20.068  16.393  1.00  0.00     0.000 C 
BRANCH   9  10
ATOM     10  C   UNL     1      -9.124  21.310  17.254  1.00  0.00     0.000 C 
BRANCH  10  11
ATOM     11  C   UNL     1      -8.985  21.109  18.773  1.00  0.00     0.000 C 
BRANCH  11  12
ATOM     12  C   UNL     1      -7.593  21.495  19.303  1.00  0.00     0.006 C 
BRANCH  12  13
ATOM     13  C   UNL     1      -7.546  21.524  20.836  1.00  0.00     0.053 C 
BRANCH  13  14
ATOM     14  C   UNL     1      -8.003  22.844  21.383  1.00  0.00     0.041 C 
ATOM     15  O   UNL     1      -8.930  22.891  22.236  1.00  0.00    -0.550 OA
ATOM     16  O   UNL     1      -7.369  24.015  20.989  1.00  0.00    -0.550 OA
ENDBRANCH  13  14
ENDBRANCH  12  13
ENDBRANCH  11  12
ENDBRANCH  10  11
ENDBRANCH   9  10
ENDBRANCH   8   9
ENDBRANCH   7   8
ENDBRANCH   6   7
ENDBRANCH   5   6
ENDBRANCH   4   5
ENDBRANCH   3   4
ENDBRANCH   2   3
ENDBRANCH   1   2
BRANCH   1  17
ATOM     17  C   UNL     1      -1.270  19.875  18.143  1.00  0.00     0.000 C 
BRANCH  17  18
ATOM     18  C   UNL     1       0.121  20.153  17.553  1.00  0.00     0.000 C 
BRANCH  18  19
ATOM     19  C   UNL     1       0.111  20.192  16.016  1.00  0.00     0.000 C 
BRANCH  19  20
ATOM     20  C   UNL     1       1.525  20.086  15.416  1.00  0.00     0.000 C 
BRANCH  20  21
ATOM     21  C   UNL     1       2.529  21.014  16.120  1.00  0.00     0.000 C 
BRANCH  21  22
ATOM     22  C   UNL     1       3.591  20.258  16.948  1.00  0.00    -0.000 C 
BRANCH  22  23
ATOM     23  C   UNL     1       4.916  20.029  16.196  1.00  0.00    -0.000 C 
BRANCH  23  24
ATOM     24  C   UNL     1       5.980  21.119  16.422  1.00  0.00    -0.000 C 
BRANCH  24  25
ATOM     25  C   UNL     1       7.418  20.697  16.058  1.00  0.00    -0.000 C 
BRANCH  25  26
ATOM     26  C   UNL     1       7.668  20.603  14.536  1.00  0.00    -0.000 C 
BRANCH  26  27
ATOM     27  C   UNL     1       8.859  21.452  14.060  1.00  0.00    -0.000 C 
BRANCH  27  28
ATOM     28  C   UNL     1      10.211  20.851  14.485  1.00  0.00    -0.000 C 
BRANCH  28  29
ATOM     29  C   UNL     1      11.023  20.328  13.289  1.00  0.00    -0.003 C 
ATOM     30  C   UNL     1      10.844  21.180  12.031  1.00  0.00     0.004 C 
ENDBRANCH  28  29
ENDBRANCH  27  28
ENDBRANCH  26  27
ENDBRANCH  25  26
ENDBRANCH  24  25
ENDBRANCH  23  24
ENDBRANCH  22  23
ENDBRANCH  21  22
ENDBRANCH  20  21
ENDBRANCH  19  20
ENDBRANCH  18  19
ENDBRANCH  17  18
ENDBRANCH   1  17
TORSDOF 26
ENDMDL
