MODEL 1
REMARK VINA RESULT:    -4.023      0.000      0.000
REMARK INTER + INTRA:         -13.241
REMARK INTER:                  -9.198
REMARK INTRA:                  -4.044
REMARK UNBOUND:                -4.044
REMARK SMILES CCCCCCCCCCCCCCCCCCCCCCCC(=O)[O-]
REMARK SMILES IDX 13 1 14 2 15 3 16 4 17 5 18 6 19 7 20 8 21 9 22 10 23 11
REMARK SMILES IDX 24 12 25 13 26 14 12 15 11 16 10 17 9 18 8 19 7 20 6 21 5 22
REMARK SMILES IDX 4 23 3 24 2 25 1 26
REMARK H PARENT
REMARK Flexibility Score: inf
ROOT
ATOM      1  C   UNL     1     -30.007  16.745  25.074  1.00  0.00     0.000 C 
ENDROOT
BRANCH   1   2
ATOM      2  C   UNL     1     -29.893  18.067  25.850  1.00  0.00     0.000 C 
BRANCH   2   3
ATOM      3  C   UNL     1     -31.230  18.507  26.474  1.00  0.00     0.000 C 
BRANCH   3   4
ATOM      4  C   UNL     1     -31.798  19.779  25.808  1.00  0.00     0.000 C 
BRANCH   4   5
ATOM      5  C   UNL     1     -32.972  19.508  24.847  1.00  0.00     0.000 C 
BRANCH   5   6
ATOM      6  C   UNL     1     -33.893  18.349  25.263  1.00  0.00     0.000 C 
BRANCH   6   7
ATOM      7  C   UNL     1     -33.870  17.183  24.256  1.00  0.00     0.000 C 
BRANCH   7   8
ATOM      8  C   UNL     1     -33.586  15.831  24.929  1.00  0.00     0.000 C 
BRANCH   8   9
ATOM      9  C   UNL     1     -33.963  15.823  26.419  1.00  0.00     0.000 C 
BRANCH   9  10
ATOM     10  C   UNL     1     -32.842  15.206  27.267  1.00  0.00     0.006 C 
BRANCH  10  11
ATOM     11  C   UNL     1     -33.141  13.753  27.659  1.00  0.00     0.053 C 
BRANCH  11  12
ATOM     12  C   UNL     1     -33.294  13.598  29.142  1.00  0.00     0.041 C 
ATOM     13  O   UNL     1     -34.162  12.816  29.613  1.00  0.00    -0.550 OA
ATOM     14  O   UNL     1     -32.486  14.330  30.005  1.00  0.00    -0.550 OA
ENDBRANCH  11  12
ENDBRANCH  10  11
ENDBRANCH   9  10
ENDBRANCH   8   9
ENDBRANCH   7   8
ENDBRANCH   6   7
ENDBRANCH   5   6
ENDBRANCH   4   5
ENDBRANCH   3   4
ENDBRANCH   2   3
ENDBRANCH   1   2
BRANCH   1  15
ATOM     15  C   UNL     1     -30.190  16.958  23.564  1.00  0.00     0.000 C 
BRANCH  15  16
ATOM     16  C   UNL     1     -29.369  18.161  23.072  1.00  0.00     0.000 C 
BRANCH  16  17
ATOM     17  C   UNL     1     -30.241  19.252  22.428  1.00  0.00     0.000 C 
BRANCH  17  18
ATOM     18  C   UNL     1     -29.920  20.659  22.960  1.00  0.00    -0.000 C 
BRANCH  18  19
ATOM     19  C   UNL     1     -28.496  20.757  23.541  1.00  0.00    -0.000 C 
BRANCH  19  20
ATOM     20  C   UNL     1     -28.286  21.924  24.526  1.00  0.00    -0.000 C 
BRANCH  20  21
ATOM     21  C   UNL     1     -28.432  21.495  25.994  1.00  0.00    -0.000 C 
BRANCH  21  22
ATOM     22  C   UNL     1     -29.353  22.459  26.758  1.00  0.00    -0.000 C 
BRANCH  22  23
ATOM     23  C   UNL     1     -29.304  22.248  28.280  1.00  0.00    -0.000 C 
BRANCH  23  24
ATOM     24  C   UNL     1     -30.578  21.578  28.825  1.00  0.00    -0.000 C 
BRANCH  24  25
ATOM     25  C   UNL     1     -31.710  22.586  29.077  1.00  0.00    -0.003 C 
ATOM     26  C   UNL     1     -31.198  23.962  29.503  1.00  0.00     0.004 C 
ENDBRANCH  24  25
ENDBRANCH  23  24
ENDBRANCH  22  23
ENDBRANCH  21  22
ENDBRANCH  20  21
ENDBRANCH  19  20
ENDBRANCH  18  19
ENDBRANCH  17  18
ENDBRANCH  16  17
ENDBRANCH  15  16
ENDBRANCH   1  15
TORSDOF 22
ENDMDL
MODEL 2
REMARK VINA RESULT:    -3.974      3.345      6.931
REMARK INTER + INTRA:         -13.129
REMARK INTER:                 -10.145
REMARK INTRA:                  -2.985
REMARK UNBOUND:                -4.044
REMARK SMILES CCCCCCCCCCCCCCCCCCCCCCCC(=O)[O-]
REMARK SMILES IDX 13 1 14 2 15 3 16 4 17 5 18 6 19 7 20 8 21 9 22 10 23 11
REMARK SMILES IDX 24 12 25 13 26 14 12 15 11 16 10 17 9 18 8 19 7 20 6 21 5 22
REMARK SMILES IDX 4 23 3 24 2 25 1 26
REMARK H PARENT
REMARK Flexibility Score: inf
ROOT
ATOM      1  C   UNL     1     -27.295  19.173  22.595  1.00  0.00     0.000 C 
ENDROOT
BRANCH   1   2
ATOM      2  C   UNL     1     -27.238  20.136  23.792  1.00  0.00     0.000 C 
BRANCH   2   3
ATOM      3  C   UNL     1     -27.695  19.477  25.107  1.00  0.00     0.000 C 
BRANCH   3   4
ATOM      4  C   UNL     1     -28.067  20.517  26.185  1.00  0.00     0.000 C 
BRANCH   4   5
ATOM      5  C   UNL     1     -28.353  21.923  25.623  1.00  0.00     0.000 C 
BRANCH   5   6
ATOM      6  C   UNL     1     -29.201  22.823  26.536  1.00  0.00     0.000 C 
BRANCH   6   7
ATOM      7  C   UNL     1     -29.433  22.206  27.928  1.00  0.00     0.000 C 
BRANCH   7   8
ATOM      8  C   UNL     1     -30.914  21.884  28.188  1.00  0.00     0.000 C 
BRANCH   8   9
ATOM      9  C   UNL     1     -31.422  22.474  29.512  1.00  0.00     0.000 C 
BRANCH   9  10
ATOM     10  C   UNL     1     -32.073  23.846  29.289  1.00  0.00     0.006 C 
BRANCH  10  11
ATOM     11  C   UNL     1     -31.648  24.871  30.350  1.00  0.00     0.053 C 
BRANCH  11  12
ATOM     12  C   UNL     1     -32.142  24.495  31.714  1.00  0.00     0.041 C 
ATOM     13  O   UNL     1     -31.324  24.258  32.643  1.00  0.00    -0.550 OA
ATOM     14  O   UNL     1     -33.507  24.390  31.956  1.00  0.00    -0.550 OA
ENDBRANCH  11  12
ENDBRANCH  10  11
ENDBRANCH   9  10
ENDBRANCH   8   9
ENDBRANCH   7   8
ENDBRANCH   6   7
ENDBRANCH   5   6
ENDBRANCH   4   5
ENDBRANCH   3   4
ENDBRANCH   2   3
ENDBRANCH   1   2
BRANCH   1  15
ATOM     15  C   UNL     1     -28.009  17.855  22.928  1.00  0.00     0.000 C 
BRANCH  15  16
ATOM     16  C   UNL     1     -29.275  17.681  22.073  1.00  0.00     0.000 C 
BRANCH  16  17
ATOM     17  C   UNL     1     -30.561  18.047  22.834  1.00  0.00     0.000 C 
BRANCH  17  18
ATOM     18  C   UNL     1     -30.856  19.556  22.807  1.00  0.00    -0.000 C 
BRANCH  18  19
ATOM     19  C   UNL     1     -31.201  20.114  24.202  1.00  0.00    -0.000 C 
BRANCH  19  20
ATOM     20  C   UNL     1     -31.801  19.080  25.174  1.00  0.00    -0.000 C 
BRANCH  20  21
ATOM     21  C   UNL     1     -33.336  19.031  25.115  1.00  0.00    -0.000 C 
BRANCH  21  22
ATOM     22  C   UNL     1     -33.818  17.730  24.453  1.00  0.00    -0.000 C 
BRANCH  22  23
ATOM     23  C   UNL     1     -33.586  16.493  25.337  1.00  0.00    -0.000 C 
BRANCH  23  24
ATOM     24  C   UNL     1     -34.682  16.315  26.402  1.00  0.00    -0.000 C 
BRANCH  24  25
ATOM     25  C   UNL     1     -34.105  16.021  27.796  1.00  0.00    -0.003 C 
ATOM     26  C   UNL     1     -32.578  16.076  27.831  1.00  0.00     0.004 C 
ENDBRANCH  24  25
ENDBRANCH  23  24
ENDBRANCH  22  23
ENDBRANCH  21  22
ENDBRANCH  20  21
ENDBRANCH  19  20
ENDBRANCH  18  19
ENDBRANCH  17  18
ENDBRANCH  16  17
ENDBRANCH  15  16
ENDBRANCH   1  15
TORSDOF 22
ENDMDL
MODEL 3
REMARK VINA RESULT:    -3.966      3.096      7.103
REMARK INTER + INTRA:         -13.109
REMARK INTER:                  -9.529
REMARK INTRA:                  -3.581
REMARK UNBOUND:                -4.044
REMARK SMILES CCCCCCCCCCCCCCCCCCCCCCCC(=O)[O-]
REMARK SMILES IDX 13 1 14 2 15 3 16 4 17 5 18 6 19 7 20 8 21 9 22 10 23 11
REMARK SMILES IDX 24 12 25 13 26 14 12 15 11 16 10 17 9 18 8 19 7 20 6 21 5 22
REMARK SMILES IDX 4 23 3 24 2 25 1 26
REMARK H PARENT
REMARK Flexibility Score: inf
ROOT
ATOM      1  C   UNL     1     -30.696  16.342  26.547  1.00  0.00     0.000 C 
ENDROOT
BRANCH   1   2
ATOM      2  C   UNL     1     -30.711  17.718  27.232  1.00  0.00     0.000 C 
BRANCH   2   3
ATOM      3  C   UNL     1     -29.353  18.086  27.857  1.00  0.00     0.000 C 
BRANCH   3   4
ATOM      4  C   UNL     1     -28.610  19.172  27.049  1.00  0.00     0.000 C 
BRANCH   4   5
ATOM      5  C   UNL     1     -28.584  20.551  27.735  1.00  0.00     0.000 C 
BRANCH   5   6
ATOM      6  C   UNL     1     -29.497  21.609  27.094  1.00  0.00     0.000 C 
BRANCH   6   7
ATOM      7  C   UNL     1     -30.903  21.639  27.723  1.00  0.00     0.000 C 
BRANCH   7   8
ATOM      8  C   UNL     1     -30.859  21.773  29.254  1.00  0.00     0.000 C 
BRANCH   8   9
ATOM      9  C   UNL     1     -30.545  23.206  29.712  1.00  0.00     0.000 C 
BRANCH   9  10
ATOM     10  C   UNL     1     -31.764  24.121  29.529  1.00  0.00     0.006 C 
BRANCH  10  11
ATOM     11  C   UNL     1     -31.953  25.079  30.713  1.00  0.00     0.053 C 
BRANCH  11  12
ATOM     12  C   UNL     1     -32.565  24.391  31.894  1.00  0.00     0.041 C 
ATOM     13  O   UNL     1     -32.254  24.739  33.064  1.00  0.00    -0.550 OA
ATOM     14  O   UNL     1     -33.469  23.352  31.702  1.00  0.00    -0.550 OA
ENDBRANCH  11  12
ENDBRANCH  10  11
ENDBRANCH   9  10
ENDBRANCH   8   9
ENDBRANCH   7   8
ENDBRANCH   6   7
ENDBRANCH   5   6
ENDBRANCH   4   5
ENDBRANCH   3   4
ENDBRANCH   2   3
ENDBRANCH   1   2
BRANCH   1  15
ATOM     15  C   UNL     1     -31.596  15.318  27.254  1.00  0.00     0.000 C 
BRANCH  15  16
ATOM     16  C   UNL     1     -32.763  16.013  27.974  1.00  0.00     0.000 C 
BRANCH  16  17
ATOM     17  C   UNL     1     -34.117  15.768  27.286  1.00  0.00     0.000 C 
BRANCH  17  18
ATOM     18  C   UNL     1     -34.560  16.954  26.412  1.00  0.00    -0.000 C 
BRANCH  18  19
ATOM     19  C   UNL     1     -34.237  16.739  24.920  1.00  0.00    -0.000 C 
BRANCH  19  20
ATOM     20  C   UNL     1     -33.267  17.776  24.320  1.00  0.00    -0.000 C 
BRANCH  20  21
ATOM     21  C   UNL     1     -33.318  19.128  25.049  1.00  0.00    -0.000 C 
BRANCH  21  22
ATOM     22  C   UNL     1     -32.145  20.024  24.624  1.00  0.00    -0.000 C 
BRANCH  22  23
ATOM     23  C   UNL     1     -31.270  19.380  23.535  1.00  0.00    -0.000 C 
BRANCH  23  24
ATOM     24  C   UNL     1     -29.787  19.772  23.661  1.00  0.00    -0.000 C 
BRANCH  24  25
ATOM     25  C   UNL     1     -29.508  21.192  23.143  1.00  0.00    -0.003 C 
ATOM     26  C   UNL     1     -28.130  21.714  23.553  1.00  0.00     0.004 C 
ENDBRANCH  24  25
ENDBRANCH  23  24
ENDBRANCH  22  23
ENDBRANCH  21  22
ENDBRANCH  20  21
ENDBRANCH  19  20
ENDBRANCH  18  19
ENDBRANCH  17  18
ENDBRANCH  16  17
ENDBRANCH  15  16
ENDBRANCH   1  15
TORSDOF 22
ENDMDL
MODEL 4
REMARK VINA RESULT:    -3.865      1.759      3.367
REMARK INTER + INTRA:         -12.881
REMARK INTER:                  -9.448
REMARK INTRA:                  -3.433
REMARK UNBOUND:                -4.044
REMARK SMILES CCCCCCCCCCCCCCCCCCCCCCCC(=O)[O-]
REMARK SMILES IDX 13 1 14 2 15 3 16 4 17 5 18 6 19 7 20 8 21 9 22 10 23 11
REMARK SMILES IDX 24 12 25 13 26 14 12 15 11 16 10 17 9 18 8 19 7 20 6 21 5 22
REMARK SMILES IDX 4 23 3 24 2 25 1 26
REMARK H PARENT
REMARK Flexibility Score: inf
ROOT
ATOM      1  C   UNL     1     -28.107  17.131  22.865  1.00  0.00     0.000 C 
ENDROOT
BRANCH   1   2
ATOM      2  C   UNL     1     -28.660  17.161  21.432  1.00  0.00     0.000 C 
BRANCH   2   3
ATOM      3  C   UNL     1     -30.185  17.373  21.387  1.00  0.00     0.000 C 
BRANCH   3   4
ATOM      4  C   UNL     1     -30.950  16.066  21.091  1.00  0.00     0.000 C 
BRANCH   4   5
ATOM      5  C   UNL     1     -31.230  15.210  22.341  1.00  0.00     0.000 C 
BRANCH   5   6
ATOM      6  C   UNL     1     -32.558  15.520  23.052  1.00  0.00     0.000 C 
BRANCH   6   7
ATOM      7  C   UNL     1     -32.394  16.539  24.195  1.00  0.00     0.000 C 
BRANCH   7   8
ATOM      8  C   UNL     1     -33.613  17.466  24.334  1.00  0.00     0.000 C 
BRANCH   8   9
ATOM      9  C   UNL     1     -34.054  17.644  25.795  1.00  0.00     0.000 C 
BRANCH   9  10
ATOM     10  C   UNL     1     -34.732  16.373  26.324  1.00  0.00     0.006 C 
BRANCH  10  11
ATOM     11  C   UNL     1     -34.226  15.982  27.720  1.00  0.00     0.053 C 
BRANCH  11  12
ATOM     12  C   UNL     1     -33.669  14.591  27.740  1.00  0.00     0.041 C 
ATOM     13  O   UNL     1     -33.263  14.054  26.675  1.00  0.00    -0.550 OA
ATOM     14  O   UNL     1     -33.614  13.881  28.934  1.00  0.00    -0.550 OA
ENDBRANCH  11  12
ENDBRANCH  10  11
ENDBRANCH   9  10
ENDBRANCH   8   9
ENDBRANCH   7   8
ENDBRANCH   6   7
ENDBRANCH   5   6
ENDBRANCH   4   5
ENDBRANCH   3   4
ENDBRANCH   2   3
ENDBRANCH   1   2
BRANCH   1  15
ATOM     15  C   UNL     1     -26.718  17.777  22.977  1.00  0.00     0.000 C 
BRANCH  15  16
ATOM     16  C   UNL     1     -26.735  19.221  22.450  1.00  0.00     0.000 C 
BRANCH  16  17
ATOM     17  C   UNL     1     -27.253  20.227  23.492  1.00  0.00     0.000 C 
BRANCH  17  18
ATOM     18  C   UNL     1     -27.840  21.496  22.850  1.00  0.00    -0.000 C 
BRANCH  18  19
ATOM     19  C   UNL     1     -29.350  21.646  23.115  1.00  0.00    -0.000 C 
BRANCH  19  20
ATOM     20  C   UNL     1     -30.123  20.315  23.184  1.00  0.00    -0.000 C 
BRANCH  20  21
ATOM     21  C   UNL     1     -31.093  20.252  24.374  1.00  0.00    -0.000 C 
BRANCH  21  22
ATOM     22  C   UNL     1     -30.591  19.263  25.438  1.00  0.00    -0.000 C 
BRANCH  22  23
ATOM     23  C   UNL     1     -29.489  19.859  26.331  1.00  0.00    -0.000 C 
BRANCH  23  24
ATOM     24  C   UNL     1     -29.882  21.225  26.920  1.00  0.00    -0.000 C 
BRANCH  24  25
ATOM     25  C   UNL     1     -28.660  22.052  27.353  1.00  0.00    -0.003 C 
ATOM     26  C   UNL     1     -28.158  22.990  26.255  1.00  0.00     0.004 C 
ENDBRANCH  24  25
ENDBRANCH  23  24
ENDBRANCH  22  23
ENDBRANCH  21  22
ENDBRANCH  20  21
ENDBRANCH  19  20
ENDBRANCH  18  19
ENDBRANCH  17  18
ENDBRANCH  16  17
ENDBRANCH  15  16
ENDBRANCH   1  15
TORSDOF 22
ENDMDL
MODEL 5
REMARK VINA RESULT:    -3.860      3.255      7.365
REMARK INTER + INTRA:         -12.869
REMARK INTER:                  -9.863
REMARK INTRA:                  -3.005
REMARK UNBOUND:                -4.044
REMARK SMILES CCCCCCCCCCCCCCCCCCCCCCCC(=O)[O-]
REMARK SMILES IDX 13 1 14 2 15 3 16 4 17 5 18 6 19 7 20 8 21 9 22 10 23 11
REMARK SMILES IDX 24 12 25 13 26 14 12 15 11 16 10 17 9 18 8 19 7 20 6 21 5 22
REMARK SMILES IDX 4 23 3 24 2 25 1 26
REMARK H PARENT
REMARK Flexibility Score: inf
ROOT
ATOM      1  C   UNL     1     -29.568  18.280  24.760  1.00  0.00     0.000 C 
ENDROOT
BRANCH   1   2
ATOM      2  C   UNL     1     -28.221  18.978  24.508  1.00  0.00     0.000 C 
BRANCH   2   3
ATOM      3  C   UNL     1     -28.210  19.795  23.203  1.00  0.00     0.000 C 
BRANCH   3   4
ATOM      4  C   UNL     1     -27.901  21.287  23.448  1.00  0.00     0.000 C 
BRANCH   4   5
ATOM      5  C   UNL     1     -28.888  21.978  24.409  1.00  0.00     0.000 C 
BRANCH   5   6
ATOM      6  C   UNL     1     -28.260  22.507  25.709  1.00  0.00     0.000 C 
BRANCH   6   7
ATOM      7  C   UNL     1     -29.295  22.686  26.836  1.00  0.00     0.000 C 
BRANCH   7   8
ATOM      8  C   UNL     1     -29.086  21.691  27.989  1.00  0.00     0.000 C 
BRANCH   8   9
ATOM      9  C   UNL     1     -29.842  22.097  29.263  1.00  0.00     0.000 C 
BRANCH   9  10
ATOM     10  C   UNL     1     -30.803  23.262  28.985  1.00  0.00     0.006 C 
BRANCH  10  11
ATOM     11  C   UNL     1     -31.976  23.296  29.974  1.00  0.00     0.053 C 
BRANCH  11  12
ATOM     12  C   UNL     1     -31.819  24.390  30.985  1.00  0.00     0.041 C 
ATOM     13  O   UNL     1     -32.142  25.573  30.697  1.00  0.00    -0.550 OA
ATOM     14  O   UNL     1     -31.300  24.106  32.243  1.00  0.00    -0.550 OA
ENDBRANCH  11  12
ENDBRANCH  10  11
ENDBRANCH   9  10
ENDBRANCH   8   9
ENDBRANCH   7   8
ENDBRANCH   6   7
ENDBRANCH   5   6
ENDBRANCH   4   5
ENDBRANCH   3   4
ENDBRANCH   2   3
ENDBRANCH   1   2
BRANCH   1  15
ATOM     15  C   UNL     1     -30.180  18.647  26.120  1.00  0.00     0.000 C 
BRANCH  15  16
ATOM     16  C   UNL     1     -31.292  19.697  25.959  1.00  0.00     0.000 C 
BRANCH  16  17
ATOM     17  C   UNL     1     -31.791  19.817  24.509  1.00  0.00     0.000 C 
BRANCH  17  18
ATOM     18  C   UNL     1     -33.298  19.541  24.376  1.00  0.00    -0.000 C 
BRANCH  18  19
ATOM     19  C   UNL     1     -33.823  18.597  25.475  1.00  0.00    -0.000 C 
BRANCH  19  20
ATOM     20  C   UNL     1     -34.177  17.179  24.985  1.00  0.00    -0.000 C 
BRANCH  20  21
ATOM     21  C   UNL     1     -32.933  16.337  24.659  1.00  0.00    -0.000 C 
BRANCH  21  22
ATOM     22  C   UNL     1     -32.809  15.147  25.623  1.00  0.00    -0.000 C 
BRANCH  22  23
ATOM     23  C   UNL     1     -33.646  15.328  26.901  1.00  0.00    -0.000 C 
BRANCH  23  24
ATOM     24  C   UNL     1     -32.812  15.850  28.084  1.00  0.00    -0.000 C 
BRANCH  24  25
ATOM     25  C   UNL     1     -32.671  14.811  29.208  1.00  0.00    -0.003 C 
ATOM     26  C   UNL     1     -33.501  13.551  28.960  1.00  0.00     0.004 C 
ENDBRANCH  24  25
ENDBRANCH  23  24
ENDBRANCH  22  23
ENDBRANCH  21  22
ENDBRANCH  20  21
ENDBRANCH  19  20
ENDBRANCH  18  19
ENDBRANCH  17  18
ENDBRANCH  16  17
ENDBRANCH  15  16
ENDBRANCH   1  15
TORSDOF 22
ENDMDL
MODEL 6
REMARK VINA RESULT:    -3.857      2.824      6.184
REMARK INTER + INTRA:         -12.860
REMARK INTER:                  -9.227
REMARK INTRA:                  -3.633
REMARK UNBOUND:                -4.044
REMARK SMILES CCCCCCCCCCCCCCCCCCCCCCCC(=O)[O-]
REMARK SMILES IDX 13 1 14 2 15 3 16 4 17 5 18 6 19 7 20 8 21 9 22 10 23 11
REMARK SMILES IDX 24 12 25 13 26 14 12 15 11 16 10 17 9 18 8 19 7 20 6 21 5 22
REMARK SMILES IDX 4 23 3 24 2 25 1 26
REMARK H PARENT
REMARK Flexibility Score: inf
ROOT
ATOM      1  C   UNL     1     -34.348  16.643  26.663  1.00  0.00     0.000 C 
ENDROOT
BRANCH   1   2
ATOM      2  C   UNL     1     -34.362  15.465  27.651  1.00  0.00     0.000 C 
BRANCH   2   3
ATOM      3  C   UNL     1     -32.959  14.881  27.898  1.00  0.00     0.000 C 
BRANCH   3   4
ATOM      4  C   UNL     1     -32.034  15.871  28.638  1.00  0.00     0.000 C 
BRANCH   4   5
ATOM      5  C   UNL     1     -30.923  16.466  27.752  1.00  0.00     0.000 C 
BRANCH   5   6
ATOM      6  C   UNL     1     -30.514  17.905  28.108  1.00  0.00     0.000 C 
BRANCH   6   7
ATOM      7  C   UNL     1     -29.854  18.643  26.928  1.00  0.00     0.000 C 
BRANCH   7   8
ATOM      8  C   UNL     1     -29.428  20.073  27.294  1.00  0.00     0.000 C 
BRANCH   8   9
ATOM      9  C   UNL     1     -30.603  21.063  27.272  1.00  0.00     0.000 C 
BRANCH   9  10
ATOM     10  C   UNL     1     -30.246  22.358  28.015  1.00  0.00     0.006 C 
BRANCH  10  11
ATOM     11  C   UNL     1     -29.807  22.096  29.462  1.00  0.00     0.053 C 
BRANCH  11  12
ATOM     12  C   UNL     1     -30.841  22.548  30.447  1.00  0.00     0.041 C 
ATOM     13  O   UNL     1     -30.496  23.145  31.502  1.00  0.00    -0.550 OA
ATOM     14  O   UNL     1     -32.188  22.297  30.208  1.00  0.00    -0.550 OA
ENDBRANCH  11  12
ENDBRANCH  10  11
ENDBRANCH   9  10
ENDBRANCH   8   9
ENDBRANCH   7   8
ENDBRANCH   6   7
ENDBRANCH   5   6
ENDBRANCH   4   5
ENDBRANCH   3   4
ENDBRANCH   2   3
ENDBRANCH   1   2
BRANCH   1  15
ATOM     15  C   UNL     1     -33.841  16.243  25.270  1.00  0.00     0.000 C 
BRANCH  15  16
ATOM     16  C   UNL     1     -33.586  17.482  24.397  1.00  0.00     0.000 C 
BRANCH  16  17
ATOM     17  C   UNL     1     -33.243  18.732  25.226  1.00  0.00     0.000 C 
BRANCH  17  18
ATOM     18  C   UNL     1     -32.542  19.820  24.395  1.00  0.00    -0.000 C 
BRANCH  18  19
ATOM     19  C   UNL     1     -31.330  19.276  23.615  1.00  0.00    -0.000 C 
BRANCH  19  20
ATOM     20  C   UNL     1     -30.511  20.351  22.875  1.00  0.00    -0.000 C 
BRANCH  20  21
ATOM     21  C   UNL     1     -29.759  21.289  23.833  1.00  0.00    -0.000 C 
BRANCH  21  22
ATOM     22  C   UNL     1     -28.360  21.619  23.289  1.00  0.00    -0.000 C 
BRANCH  22  23
ATOM     23  C   UNL     1     -27.536  20.362  22.965  1.00  0.00    -0.000 C 
BRANCH  23  24
ATOM     24  C   UNL     1     -27.265  19.496  24.208  1.00  0.00    -0.000 C 
BRANCH  24  25
ATOM     25  C   UNL     1     -27.725  18.041  24.023  1.00  0.00    -0.003 C 
ATOM     26  C   UNL     1     -27.915  17.660  22.555  1.00  0.00     0.004 C 
ENDBRANCH  24  25
ENDBRANCH  23  24
ENDBRANCH  22  23
ENDBRANCH  21  22
ENDBRANCH  20  21
ENDBRANCH  19  20
ENDBRANCH  18  19
ENDBRANCH  17  18
ENDBRANCH  16  17
ENDBRANCH  15  16
ENDBRANCH   1  15
TORSDOF 22
ENDMDL
MODEL 7
REMARK VINA RESULT:    -3.840      2.271      6.363
REMARK INTER + INTRA:         -12.822
REMARK INTER:                  -8.427
REMARK INTRA:                  -4.395
REMARK UNBOUND:                -4.044
REMARK SMILES CCCCCCCCCCCCCCCCCCCCCCCC(=O)[O-]
REMARK SMILES IDX 13 1 14 2 15 3 16 4 17 5 18 6 19 7 20 8 21 9 22 10 23 11
REMARK SMILES IDX 24 12 25 13 26 14 12 15 11 16 10 17 9 18 8 19 7 20 6 21 5 22
REMARK SMILES IDX 4 23 3 24 2 25 1 26
REMARK H PARENT
REMARK Flexibility Score: inf
ROOT
ATOM      1  C   UNL     1     -30.638  18.073  27.848  1.00  0.00     0.000 C 
ENDROOT
BRANCH   1   2
ATOM      2  C   UNL     1     -29.188  18.578  27.924  1.00  0.00     0.000 C 
BRANCH   2   3
ATOM      3  C   UNL     1     -28.473  18.539  26.561  1.00  0.00     0.000 C 
BRANCH   3   4
ATOM      4  C   UNL     1     -27.680  19.833  26.279  1.00  0.00     0.000 C 
BRANCH   4   5
ATOM      5  C   UNL     1     -27.674  20.830  27.454  1.00  0.00     0.000 C 
BRANCH   5   6
ATOM      6  C   UNL     1     -27.968  22.288  27.067  1.00  0.00     0.000 C 
BRANCH   6   7
ATOM      7  C   UNL     1     -29.469  22.551  26.845  1.00  0.00     0.000 C 
BRANCH   7   8
ATOM      8  C   UNL     1     -30.335  22.023  27.999  1.00  0.00     0.000 C 
BRANCH   8   9
ATOM      9  C   UNL     1     -30.796  23.139  28.949  1.00  0.00     0.000 C 
BRANCH   9  10
ATOM     10  C   UNL     1     -30.496  22.777  30.410  1.00  0.00     0.006 C 
BRANCH  10  11
ATOM     11  C   UNL     1     -29.793  21.419  30.540  1.00  0.00     0.053 C 
BRANCH  11  12
ATOM     12  C   UNL     1     -30.628  20.430  31.294  1.00  0.00     0.041 C 
ATOM     13  O   UNL     1     -31.610  20.820  31.980  1.00  0.00    -0.550 OA
ATOM     14  O   UNL     1     -30.311  19.077  31.252  1.00  0.00    -0.550 OA
ENDBRANCH  11  12
ENDBRANCH  10  11
ENDBRANCH   9  10
ENDBRANCH   8   9
ENDBRANCH   7   8
ENDBRANCH   6   7
ENDBRANCH   5   6
ENDBRANCH   4   5
ENDBRANCH   3   4
ENDBRANCH   2   3
ENDBRANCH   1   2
BRANCH   1  15
ATOM     15  C   UNL     1     -30.781  16.810  26.986  1.00  0.00     0.000 C 
BRANCH  15  16
ATOM     16  C   UNL     1     -31.741  15.802  27.638  1.00  0.00     0.000 C 
BRANCH  16  17
ATOM     17  C   UNL     1     -33.214  16.065  27.278  1.00  0.00     0.000 C 
BRANCH  17  18
ATOM     18  C   UNL     1     -33.481  15.964  25.767  1.00  0.00    -0.000 C 
BRANCH  18  19
ATOM     19  C   UNL     1     -34.202  17.208  25.212  1.00  0.00    -0.000 C 
BRANCH  19  20
ATOM     20  C   UNL     1     -33.324  18.117  24.331  1.00  0.00    -0.000 C 
BRANCH  20  21
ATOM     21  C   UNL     1     -33.015  19.468  24.995  1.00  0.00    -0.000 C 
BRANCH  21  22
ATOM     22  C   UNL     1     -31.556  19.881  24.744  1.00  0.00    -0.000 C 
BRANCH  22  23
ATOM     23  C   UNL     1     -30.848  18.973  23.724  1.00  0.00    -0.000 C 
BRANCH  23  24
ATOM     24  C   UNL     1     -29.606  19.637  23.105  1.00  0.00    -0.000 C 
BRANCH  24  25
ATOM     25  C   UNL     1     -29.559  21.151  23.362  1.00  0.00    -0.003 C 
ATOM     26  C   UNL     1     -28.192  21.764  23.054  1.00  0.00     0.004 C 
ENDBRANCH  24  25
ENDBRANCH  23  24
ENDBRANCH  22  23
ENDBRANCH  21  22
ENDBRANCH  20  21
ENDBRANCH  19  20
ENDBRANCH  18  19
ENDBRANCH  17  18
ENDBRANCH  16  17
ENDBRANCH  15  16
ENDBRANCH   1  15
TORSDOF 22
ENDMDL
MODEL 8
REMARK VINA RESULT:    -3.837      3.765      7.803
REMARK INTER + INTRA:         -12.817
REMARK INTER:                  -9.977
REMARK INTRA:                  -2.840
REMARK UNBOUND:                -4.044
REMARK SMILES CCCCCCCCCCCCCCCCCCCCCCCC(=O)[O-]
REMARK SMILES IDX 13 1 14 2 15 3 16 4 17 5 18 6 19 7 20 8 21 9 22 10 23 11
REMARK SMILES IDX 24 12 25 13 26 14 12 15 11 16 10 17 9 18 8 19 7 20 6 21 5 22
REMARK SMILES IDX 4 23 3 24 2 25 1 26
REMARK H PARENT
REMARK Flexibility Score: inf
ROOT
ATOM      1  C   UNL     1     -31.017  20.090  24.410  1.00  0.00     0.000 C 
ENDROOT
BRANCH   1   2
ATOM      2  C   UNL     1     -30.127  20.436  23.205  1.00  0.00     0.000 C 
BRANCH   2   3
ATOM      3  C   UNL     1     -29.105  21.544  23.521  1.00  0.00     0.000 C 
BRANCH   3   4
ATOM      4  C   UNL     1     -28.461  21.368  24.913  1.00  0.00     0.000 C 
BRANCH   4   5
ATOM      5  C   UNL     1     -28.533  22.628  25.796  1.00  0.00     0.000 C 
BRANCH   5   6
ATOM      6  C   UNL     1     -28.631  22.354  27.306  1.00  0.00     0.000 C 
BRANCH   6   7
ATOM      7  C   UNL     1     -30.078  22.115  27.773  1.00  0.00     0.000 C 
BRANCH   7   8
ATOM      8  C   UNL     1     -30.338  22.663  29.186  1.00  0.00     0.000 C 
BRANCH   8   9
ATOM      9  C   UNL     1     -31.489  23.680  29.222  1.00  0.00     0.000 C 
BRANCH   9  10
ATOM     10  C   UNL     1     -31.530  24.418  30.567  1.00  0.00     0.006 C 
BRANCH  10  11
ATOM     11  C   UNL     1     -32.678  23.932  31.462  1.00  0.00     0.053 C 
BRANCH  11  12
ATOM     12  C   UNL     1     -33.812  24.910  31.491  1.00  0.00     0.041 C 
ATOM     13  O   UNL     1     -33.788  25.934  30.757  1.00  0.00    -0.550 OA
ATOM     14  O   UNL     1     -34.892  24.700  32.342  1.00  0.00    -0.550 OA
ENDBRANCH  11  12
ENDBRANCH  10  11
ENDBRANCH   9  10
ENDBRANCH   8   9
ENDBRANCH   7   8
ENDBRANCH   6   7
ENDBRANCH   5   6
ENDBRANCH   4   5
ENDBRANCH   3   4
ENDBRANCH   2   3
ENDBRANCH   1   2
BRANCH   1  15
ATOM     15  C   UNL     1     -32.443  19.697  23.999  1.00  0.00     0.000 C 
BRANCH  15  16
ATOM     16  C   UNL     1     -33.291  19.330  25.228  1.00  0.00     0.000 C 
BRANCH  16  17
ATOM     17  C   UNL     1     -33.459  17.810  25.401  1.00  0.00     0.000 C 
BRANCH  17  18
ATOM     18  C   UNL     1     -33.959  17.120  24.120  1.00  0.00    -0.000 C 
BRANCH  18  19
ATOM     19  C   UNL     1     -32.992  16.027  23.625  1.00  0.00    -0.000 C 
BRANCH  19  20
ATOM     20  C   UNL     1     -31.643  15.980  24.369  1.00  0.00    -0.000 C 
BRANCH  20  21
ATOM     21  C   UNL     1     -30.491  16.578  23.546  1.00  0.00    -0.000 C 
BRANCH  21  22
ATOM     22  C   UNL     1     -30.888  16.716  22.068  1.00  0.00    -0.000 C 
BRANCH  22  23
ATOM     23  C   UNL     1     -29.780  17.355  21.213  1.00  0.00    -0.000 C 
BRANCH  23  24
ATOM     24  C   UNL     1     -28.375  16.872  21.611  1.00  0.00    -0.000 C 
BRANCH  24  25
ATOM     25  C   UNL     1     -27.400  18.035  21.856  1.00  0.00    -0.003 C 
ATOM     26  C   UNL     1     -27.097  18.254  23.339  1.00  0.00     0.004 C 
ENDBRANCH  24  25
ENDBRANCH  23  24
ENDBRANCH  22  23
ENDBRANCH  21  22
ENDBRANCH  20  21
ENDBRANCH  19  20
ENDBRANCH  18  19
ENDBRANCH  17  18
ENDBRANCH  16  17
ENDBRANCH  15  16
ENDBRANCH   1  15
TORSDOF 22
ENDMDL
MODEL 9
REMARK VINA RESULT:    -3.802      2.491      5.157
REMARK INTER + INTRA:         -12.735
REMARK INTER:                 -10.140
REMARK INTRA:                  -2.595
REMARK UNBOUND:                -4.044
REMARK SMILES CCCCCCCCCCCCCCCCCCCCCCCC(=O)[O-]
REMARK SMILES IDX 13 1 14 2 15 3 16 4 17 5 18 6 19 7 20 8 21 9 22 10 23 11
REMARK SMILES IDX 24 12 25 13 26 14 12 15 11 16 10 17 9 18 8 19 7 20 6 21 5 22
REMARK SMILES IDX 4 23 3 24 2 25 1 26
REMARK H PARENT
REMARK Flexibility Score: inf
ROOT
ATOM      1  C   UNL     1     -27.717  19.094  26.351  1.00  0.00     0.000 C 
ENDROOT
BRANCH   1   2
ATOM      2  C   UNL     1     -26.714  18.785  25.228  1.00  0.00     0.000 C 
BRANCH   2   3
ATOM      3  C   UNL     1     -27.387  18.652  23.850  1.00  0.00     0.000 C 
BRANCH   3   4
ATOM      4  C   UNL     1     -26.994  19.797  22.892  1.00  0.00     0.000 C 
BRANCH   4   5
ATOM      5  C   UNL     1     -27.530  21.177  23.318  1.00  0.00     0.000 C 
BRANCH   5   6
ATOM      6  C   UNL     1     -28.990  21.454  22.921  1.00  0.00     0.000 C 
BRANCH   6   7
ATOM      7  C   UNL     1     -29.968  21.267  24.095  1.00  0.00     0.000 C 
BRANCH   7   8
ATOM      8  C   UNL     1     -30.768  19.958  23.992  1.00  0.00     0.000 C 
BRANCH   8   9
ATOM      9  C   UNL     1     -31.647  19.704  25.226  1.00  0.00     0.000 C 
BRANCH   9  10
ATOM     10  C   UNL     1     -33.112  19.486  24.822  1.00  0.00     0.006 C 
BRANCH  10  11
ATOM     11  C   UNL     1     -33.362  18.070  24.285  1.00  0.00     0.053 C 
BRANCH  11  12
ATOM     12  C   UNL     1     -33.761  17.124  25.376  1.00  0.00     0.041 C 
ATOM     13  O   UNL     1     -34.340  17.553  26.409  1.00  0.00    -0.550 OA
ATOM     14  O   UNL     1     -33.478  15.768  25.260  1.00  0.00    -0.550 OA
ENDBRANCH  11  12
ENDBRANCH  10  11
ENDBRANCH   9  10
ENDBRANCH   8   9
ENDBRANCH   7   8
ENDBRANCH   6   7
ENDBRANCH   5   6
ENDBRANCH   4   5
ENDBRANCH   3   4
ENDBRANCH   2   3
ENDBRANCH   1   2
BRANCH   1  15
ATOM     15  C   UNL     1     -27.033  19.554  27.647  1.00  0.00     0.000 C 
BRANCH  15  16
ATOM     16  C   UNL     1     -27.483  20.971  28.036  1.00  0.00     0.000 C 
BRANCH  16  17
ATOM     17  C   UNL     1     -28.268  21.674  26.916  1.00  0.00     0.000 C 
BRANCH  17  18
ATOM     18  C   UNL     1     -29.373  22.598  27.456  1.00  0.00    -0.000 C 
BRANCH  18  19
ATOM     19  C   UNL     1     -30.555  21.814  28.057  1.00  0.00    -0.000 C 
BRANCH  19  20
ATOM     20  C   UNL     1     -30.602  21.808  29.597  1.00  0.00    -0.000 C 
BRANCH  20  21
ATOM     21  C   UNL     1     -31.887  22.442  30.154  1.00  0.00    -0.000 C 
BRANCH  21  22
ATOM     22  C   UNL     1     -32.092  23.854  29.584  1.00  0.00    -0.000 C 
BRANCH  22  23
ATOM     23  C   UNL     1     -32.172  24.931  30.679  1.00  0.00    -0.000 C 
BRANCH  23  24
ATOM     24  C   UNL     1     -33.565  25.576  30.772  1.00  0.00    -0.000 C 
BRANCH  24  25
ATOM     25  C   UNL     1     -34.245  25.317  32.127  1.00  0.00    -0.003 C 
ATOM     26  C   UNL     1     -34.801  23.898  32.250  1.00  0.00     0.004 C 
ENDBRANCH  24  25
ENDBRANCH  23  24
ENDBRANCH  22  23
ENDBRANCH  21  22
ENDBRANCH  20  21
ENDBRANCH  19  20
ENDBRANCH  18  19
ENDBRANCH  17  18
ENDBRANCH  16  17
ENDBRANCH  15  16
ENDBRANCH   1  15
TORSDOF 22
ENDMDL
