MODEL 1
REMARK VINA RESULT:    -4.408      0.000      0.000
REMARK INTER + INTRA:          -7.723
REMARK INTER:                  -6.984
REMARK INTRA:                  -0.738
REMARK UNBOUND:                -0.738
REMARK SMILES CCCCCCCCCCCC(=O)[O-]
REMARK SMILES IDX 7 1 8 2 9 3 10 4 11 5 12 6 13 7 14 8 6 9 5 10 4 11 3 12 2 13
REMARK SMILES IDX 1 14
REMARK H PARENT
REMARK Flexibility Score: inf
ROOT
ATOM      1  C   UNL     1      97.814  85.425  80.904  1.00  0.00     0.000 C 
ENDROOT
BRANCH   1   2
ATOM      2  C   UNL     1      96.608  85.850  80.054  1.00  0.00     0.000 C 
BRANCH   2   3
ATOM      3  C   UNL     1      95.336  85.118  80.500  1.00  0.00     0.000 C 
BRANCH   3   4
ATOM      4  C   UNL     1      94.664  84.408  79.316  1.00  0.00     0.006 C 
BRANCH   4   5
ATOM      5  C   UNL     1      93.231  83.968  79.639  1.00  0.00     0.053 C 
BRANCH   5   6
ATOM      6  C   UNL     1      92.216  84.903  79.055  1.00  0.00     0.041 C 
ATOM      7  O   UNL     1      90.987  84.668  79.190  1.00  0.00    -0.550 OA
ATOM      8  O   UNL     1      92.628  86.051  78.389  1.00  0.00    -0.550 OA
ENDBRANCH   5   6
ENDBRANCH   4   5
ENDBRANCH   3   4
ENDBRANCH   2   3
ENDBRANCH   1   2
BRANCH   1   9
ATOM      9  C   UNL     1      97.474  84.302  81.897  1.00  0.00     0.000 C 
BRANCH   9  10
ATOM     10  C   UNL     1      98.587  83.249  82.005  1.00  0.00    -0.000 C 
BRANCH  10  11
ATOM     11  C   UNL     1      99.963  83.877  81.752  1.00  0.00    -0.000 C 
BRANCH  11  12
ATOM     12  C   UNL     1     100.835  83.819  83.016  1.00  0.00    -0.000 C 
BRANCH  12  13
ATOM     13  C   UNL     1     101.592  85.132  83.272  1.00  0.00    -0.003 C 
ATOM     14  C   UNL     1     100.684  86.360  83.204  1.00  0.00     0.004 C 
ENDBRANCH  12  13
ENDBRANCH  11  12
ENDBRANCH  10  11
ENDBRANCH   9  10
ENDBRANCH   1   9
TORSDOF 10
ENDMDL
MODEL 2
REMARK VINA RESULT:    -4.372      4.014      7.561
REMARK INTER + INTRA:          -7.666
REMARK INTER:                  -7.126
REMARK INTRA:                  -0.540
REMARK UNBOUND:                -0.738
REMARK SMILES CCCCCCCCCCCC(=O)[O-]
REMARK SMILES IDX 7 1 8 2 9 3 10 4 11 5 12 6 13 7 14 8 6 9 5 10 4 11 3 12 2 13
REMARK SMILES IDX 1 14
REMARK H PARENT
REMARK Flexibility Score: inf
ROOT
ATOM      1  C   UNL     1      96.820  86.005  80.285  1.00  0.00     0.000 C 
ENDROOT
BRANCH   1   2
ATOM      2  C   UNL     1      98.082  85.451  80.963  1.00  0.00     0.000 C 
BRANCH   2   3
ATOM      3  C   UNL     1      97.721  84.400  82.020  1.00  0.00     0.000 C 
BRANCH   3   4
ATOM      4  C   UNL     1      98.812  83.324  82.122  1.00  0.00     0.006 C 
BRANCH   4   5
ATOM      5  C   UNL     1     100.200  83.866  81.758  1.00  0.00     0.053 C 
BRANCH   5   6
ATOM      6  C   UNL     1     101.030  84.135  82.976  1.00  0.00     0.041 C 
ATOM      7  O   UNL     1     102.213  84.548  82.858  1.00  0.00    -0.550 OA
ATOM      8  O   UNL     1     100.486  83.960  84.242  1.00  0.00    -0.550 OA
ENDBRANCH   5   6
ENDBRANCH   4   5
ENDBRANCH   3   4
ENDBRANCH   2   3
ENDBRANCH   1   2
BRANCH   1   9
ATOM      9  C   UNL     1      95.595  85.098  80.481  1.00  0.00     0.000 C 
BRANCH   9  10
ATOM     10  C   UNL     1      94.816  84.864  79.178  1.00  0.00    -0.000 C 
BRANCH  10  11
ATOM     11  C   UNL     1      93.920  83.625  79.289  1.00  0.00    -0.000 C 
BRANCH  11  12
ATOM     12  C   UNL     1      92.795  83.848  80.311  1.00  0.00    -0.000 C 
BRANCH  12  13
ATOM     13  C   UNL     1      91.573  84.554  79.700  1.00  0.00    -0.003 C 
ATOM     14  C   UNL     1      90.399  84.651  80.675  1.00  0.00     0.004 C 
ENDBRANCH  12  13
ENDBRANCH  11  12
ENDBRANCH  10  11
ENDBRANCH   9  10
ENDBRANCH   1   9
TORSDOF 10
ENDMDL
MODEL 3
REMARK VINA RESULT:    -4.361     13.339     14.774
REMARK INTER + INTRA:          -7.650
REMARK INTER:                  -6.821
REMARK INTRA:                  -0.829
REMARK UNBOUND:                -0.738
REMARK SMILES CCCCCCCCCCCC(=O)[O-]
REMARK SMILES IDX 7 1 8 2 9 3 10 4 11 5 12 6 13 7 14 8 6 9 5 10 4 11 3 12 2 13
REMARK SMILES IDX 1 14
REMARK H PARENT
REMARK Flexibility Score: inf
ROOT
ATOM      1  C   UNL     1      85.221  77.278  72.942  1.00  0.00     0.000 C 
ENDROOT
BRANCH   1   2
ATOM      2  C   UNL     1      86.055  78.333  72.200  1.00  0.00     0.000 C 
BRANCH   2   3
ATOM      3  C   UNL     1      87.410  77.759  71.770  1.00  0.00     0.000 C 
BRANCH   3   4
ATOM      4  C   UNL     1      88.258  78.822  71.057  1.00  0.00     0.006 C 
BRANCH   4   5
ATOM      5  C   UNL     1      89.085  78.232  69.909  1.00  0.00     0.053 C 
BRANCH   5   6
ATOM      6  C   UNL     1      90.414  77.728  70.381  1.00  0.00     0.041 C 
ATOM      7  O   UNL     1      90.502  76.605  70.943  1.00  0.00    -0.550 OA
ATOM      8  O   UNL     1      91.561  78.484  70.172  1.00  0.00    -0.550 OA
ENDBRANCH   5   6
ENDBRANCH   4   5
ENDBRANCH   3   4
ENDBRANCH   2   3
ENDBRANCH   1   2
BRANCH   1   9
ATOM      9  C   UNL     1      85.020  77.618  74.427  1.00  0.00     0.000 C 
BRANCH   9  10
ATOM     10  C   UNL     1      85.686  76.598  75.364  1.00  0.00    -0.000 C 
BRANCH  10  11
ATOM     11  C   UNL     1      87.201  76.822  75.430  1.00  0.00    -0.000 C 
BRANCH  11  12
ATOM     12  C   UNL     1      87.959  75.658  74.772  1.00  0.00    -0.000 C 
BRANCH  12  13
ATOM     13  C   UNL     1      89.368  76.058  74.307  1.00  0.00    -0.003 C 
ATOM     14  C   UNL     1      90.468  75.253  75.000  1.00  0.00     0.004 C 
ENDBRANCH  12  13
ENDBRANCH  11  12
ENDBRANCH  10  11
ENDBRANCH   9  10
ENDBRANCH   1   9
TORSDOF 10
ENDMDL
MODEL 4
REMARK VINA RESULT:    -4.281     13.874     15.364
REMARK INTER + INTRA:          -7.523
REMARK INTER:                  -6.599
REMARK INTRA:                  -0.923
REMARK UNBOUND:                -0.738
REMARK SMILES CCCCCCCCCCCC(=O)[O-]
REMARK SMILES IDX 7 1 8 2 9 3 10 4 11 5 12 6 13 7 14 8 6 9 5 10 4 11 3 12 2 13
REMARK SMILES IDX 1 14
REMARK H PARENT
REMARK Flexibility Score: inf
ROOT
ATOM      1  C   UNL     1      86.953  77.901  71.755  1.00  0.00     0.000 C 
ENDROOT
BRANCH   1   2
ATOM      2  C   UNL     1      87.580  79.253  71.384  1.00  0.00     0.000 C 
BRANCH   2   3
ATOM      3  C   UNL     1      89.087  79.112  71.142  1.00  0.00     0.000 C 
BRANCH   3   4
ATOM      4  C   UNL     1      89.370  78.217  69.927  1.00  0.00     0.006 C 
BRANCH   4   5
ATOM      5  C   UNL     1      90.750  77.553  70.002  1.00  0.00     0.053 C 
BRANCH   5   6
ATOM      6  C   UNL     1      90.667  76.156  70.538  1.00  0.00     0.041 C 
ATOM      7  O   UNL     1      89.557  75.679  70.893  1.00  0.00    -0.550 OA
ATOM      8  O   UNL     1      91.809  75.370  70.615  1.00  0.00    -0.550 OA
ENDBRANCH   5   6
ENDBRANCH   4   5
ENDBRANCH   3   4
ENDBRANCH   2   3
ENDBRANCH   1   2
BRANCH   1   9
ATOM      9  C   UNL     1      85.531  78.043  72.321  1.00  0.00     0.000 C 
BRANCH   9  10
ATOM     10  C   UNL     1      85.286  77.140  73.540  1.00  0.00    -0.000 C 
BRANCH  10  11
ATOM     11  C   UNL     1      85.721  75.698  73.252  1.00  0.00    -0.000 C 
BRANCH  11  12
ATOM     12  C   UNL     1      86.667  75.179  74.345  1.00  0.00    -0.000 C 
BRANCH  12  13
ATOM     13  C   UNL     1      87.442  76.309  75.041  1.00  0.00    -0.003 C 
ATOM     14  C   UNL     1      88.877  76.442  74.531  1.00  0.00     0.004 C 
ENDBRANCH  12  13
ENDBRANCH  11  12
ENDBRANCH  10  11
ENDBRANCH   9  10
ENDBRANCH   1   9
TORSDOF 10
ENDMDL
MODEL 5
REMARK VINA RESULT:    -4.261      1.319      2.365
REMARK INTER + INTRA:          -7.490
REMARK INTER:                  -6.677
REMARK INTRA:                  -0.813
REMARK UNBOUND:                -0.738
REMARK SMILES CCCCCCCCCCCC(=O)[O-]
REMARK SMILES IDX 7 1 8 2 9 3 10 4 11 5 12 6 13 7 14 8 6 9 5 10 4 11 3 12 2 13
REMARK SMILES IDX 1 14
REMARK H PARENT
REMARK Flexibility Score: inf
ROOT
ATOM      1  C   UNL     1      95.570  86.443  80.994  1.00  0.00     0.000 C 
ENDROOT
BRANCH   1   2
ATOM      2  C   UNL     1      94.341  85.537  80.824  1.00  0.00     0.000 C 
BRANCH   2   3
ATOM      3  C   UNL     1      94.685  84.296  79.992  1.00  0.00     0.000 C 
BRANCH   3   4
ATOM      4  C   UNL     1      93.442  83.756  79.269  1.00  0.00     0.006 C 
BRANCH   4   5
ATOM      5  C   UNL     1      92.334  84.810  79.152  1.00  0.00     0.053 C 
BRANCH   5   6
ATOM      6  C   UNL     1      91.090  84.392  79.875  1.00  0.00     0.041 C 
ATOM      7  O   UNL     1      91.156  83.981  81.063  1.00  0.00    -0.550 OA
ATOM      8  O   UNL     1      89.854  84.488  79.248  1.00  0.00    -0.550 OA
ENDBRANCH   5   6
ENDBRANCH   4   5
ENDBRANCH   3   4
ENDBRANCH   2   3
ENDBRANCH   1   2
BRANCH   1   9
ATOM      9  C   UNL     1      96.685  86.124  79.985  1.00  0.00     0.000 C 
BRANCH   9  10
ATOM     10  C   UNL     1      98.050  85.915  80.656  1.00  0.00    -0.000 C 
BRANCH  10  11
ATOM     11  C   UNL     1      97.887  85.322  82.060  1.00  0.00    -0.000 C 
BRANCH  11  12
ATOM     12  C   UNL     1      98.294  83.841  82.083  1.00  0.00    -0.000 C 
BRANCH  12  13
ATOM     13  C   UNL     1      99.786  83.634  81.776  1.00  0.00    -0.003 C 
ATOM     14  C   UNL     1     100.684  83.940  82.974  1.00  0.00     0.004 C 
ENDBRANCH  12  13
ENDBRANCH  11  12
ENDBRANCH  10  11
ENDBRANCH   9  10
ENDBRANCH   1   9
TORSDOF 10
ENDMDL
MODEL 6
REMARK VINA RESULT:    -4.231      3.361      7.056
REMARK INTER + INTRA:          -7.442
REMARK INTER:                  -6.738
REMARK INTRA:                  -0.704
REMARK UNBOUND:                -0.738
REMARK SMILES CCCCCCCCCCCC(=O)[O-]
REMARK SMILES IDX 7 1 8 2 9 3 10 4 11 5 12 6 13 7 14 8 6 9 5 10 4 11 3 12 2 13
REMARK SMILES IDX 1 14
REMARK H PARENT
REMARK Flexibility Score: inf
ROOT
ATOM      1  C   UNL     1      95.399  85.926  79.344  1.00  0.00     0.000 C 
ENDROOT
BRANCH   1   2
ATOM      2  C   UNL     1      96.566  86.650  80.032  1.00  0.00     0.000 C 
BRANCH   2   3
ATOM      3  C   UNL     1      96.498  86.478  81.555  1.00  0.00     0.000 C 
BRANCH   3   4
ATOM      4  C   UNL     1      97.865  86.076  82.126  1.00  0.00     0.006 C 
BRANCH   4   5
ATOM      5  C   UNL     1      98.623  85.117  81.200  1.00  0.00     0.053 C 
BRANCH   5   6
ATOM      6  C   UNL     1      98.940  83.820  81.880  1.00  0.00     0.041 C 
ATOM      7  O   UNL     1      98.063  82.922  81.969  1.00  0.00    -0.550 OA
ATOM      8  O   UNL     1     100.213  83.592  82.385  1.00  0.00    -0.550 OA
ENDBRANCH   5   6
ENDBRANCH   4   5
ENDBRANCH   3   4
ENDBRANCH   2   3
ENDBRANCH   1   2
BRANCH   1   9
ATOM      9  C   UNL     1      95.063  84.581  80.008  1.00  0.00     0.000 C 
BRANCH   9  10
ATOM     10  C   UNL     1      94.020  83.775  79.219  1.00  0.00    -0.000 C 
BRANCH  10  11
ATOM     11  C   UNL     1      92.621  84.382  79.379  1.00  0.00    -0.000 C 
BRANCH  11  12
ATOM     12  C   UNL     1      92.191  84.392  80.854  1.00  0.00    -0.000 C 
BRANCH  12  13
ATOM     13  C   UNL     1      90.697  84.080  81.036  1.00  0.00    -0.003 C 
ATOM     14  C   UNL     1      89.871  84.403  79.791  1.00  0.00     0.004 C 
ENDBRANCH  12  13
ENDBRANCH  11  12
ENDBRANCH  10  11
ENDBRANCH   9  10
ENDBRANCH   1   9
TORSDOF 10
ENDMDL
MODEL 7
REMARK VINA RESULT:    -4.206      4.248      7.425
REMARK INTER + INTRA:          -7.403
REMARK INTER:                  -6.670
REMARK INTRA:                  -0.733
REMARK UNBOUND:                -0.738
REMARK SMILES CCCCCCCCCCCC(=O)[O-]
REMARK SMILES IDX 7 1 8 2 9 3 10 4 11 5 12 6 13 7 14 8 6 9 5 10 4 11 3 12 2 13
REMARK SMILES IDX 1 14
REMARK H PARENT
REMARK Flexibility Score: inf
ROOT
ATOM      1  C   UNL     1      98.397  83.601  82.346  1.00  0.00     0.000 C 
ENDROOT
BRANCH   1   2
ATOM      2  C   UNL     1      99.714  83.751  81.571  1.00  0.00     0.000 C 
BRANCH   2   3
ATOM      3  C   UNL     1     100.898  83.927  82.528  1.00  0.00     0.000 C 
BRANCH   3   4
ATOM      4  C   UNL     1     100.760  85.220  83.345  1.00  0.00     0.006 C 
BRANCH   4   5
ATOM      5  C   UNL     1     101.420  85.110  84.724  1.00  0.00     0.053 C 
BRANCH   5   6
ATOM      6  C   UNL     1     100.439  84.702  85.780  1.00  0.00     0.041 C 
ATOM      7  O   UNL     1      99.447  85.433  86.039  1.00  0.00    -0.550 OA
ATOM      8  O   UNL     1     100.601  83.499  86.455  1.00  0.00    -0.550 OA
ENDBRANCH   5   6
ENDBRANCH   4   5
ENDBRANCH   3   4
ENDBRANCH   2   3
ENDBRANCH   1   2
BRANCH   1   9
ATOM      9  C   UNL     1      97.318  84.591  81.879  1.00  0.00     0.000 C 
BRANCH   9  10
ATOM     10  C   UNL     1      97.816  85.531  80.771  1.00  0.00    -0.000 C 
BRANCH  10  11
ATOM     11  C   UNL     1      96.640  86.157  80.011  1.00  0.00    -0.000 C 
BRANCH  11  12
ATOM     12  C   UNL     1      95.316  85.476  80.388  1.00  0.00    -0.000 C 
BRANCH  12  13
ATOM     13  C   UNL     1      94.780  84.568  79.271  1.00  0.00    -0.003 C 
ATOM     14  C   UNL     1      93.685  83.617  79.756  1.00  0.00     0.004 C 
ENDBRANCH  12  13
ENDBRANCH  11  12
ENDBRANCH  10  11
ENDBRANCH   9  10
ENDBRANCH   1   9
TORSDOF 10
ENDMDL
MODEL 8
REMARK VINA RESULT:    -4.203      3.779      8.842
REMARK INTER + INTRA:          -7.399
REMARK INTER:                  -6.944
REMARK INTRA:                  -0.455
REMARK UNBOUND:                -0.738
REMARK SMILES CCCCCCCCCCCC(=O)[O-]
REMARK SMILES IDX 7 1 8 2 9 3 10 4 11 5 12 6 13 7 14 8 6 9 5 10 4 11 3 12 2 13
REMARK SMILES IDX 1 14
REMARK H PARENT
REMARK Flexibility Score: inf
ROOT
ATOM      1  C   UNL     1      91.396  84.825  81.678  1.00  0.00     0.000 C 
ENDROOT
BRANCH   1   2
ATOM      2  C   UNL     1      92.623  85.078  80.789  1.00  0.00     0.000 C 
BRANCH   2   3
ATOM      3  C   UNL     1      93.009  83.812  80.014  1.00  0.00     0.000 C 
BRANCH   3   4
ATOM      4  C   UNL     1      94.431  83.927  79.444  1.00  0.00     0.006 C 
BRANCH   4   5
ATOM      5  C   UNL     1      95.376  84.680  80.388  1.00  0.00     0.053 C 
BRANCH   5   6
ATOM      6  C   UNL     1      96.101  85.786  79.684  1.00  0.00     0.041 C 
ATOM      7  O   UNL     1      97.267  86.104  80.037  1.00  0.00    -0.550 OA
ATOM      8  O   UNL     1      95.503  86.443  78.616  1.00  0.00    -0.550 OA
ENDBRANCH   5   6
ENDBRANCH   4   5
ENDBRANCH   3   4
ENDBRANCH   2   3
ENDBRANCH   1   2
BRANCH   1   9
ATOM      9  C   UNL     1      90.452  83.760  81.097  1.00  0.00     0.000 C 
BRANCH   9  10
ATOM     10  C   UNL     1      89.550  84.313  79.983  1.00  0.00    -0.000 C 
BRANCH  10  11
ATOM     11  C   UNL     1      88.076  84.281  80.404  1.00  0.00    -0.000 C 
BRANCH  11  12
ATOM     12  C   UNL     1      87.295  83.234  79.596  1.00  0.00    -0.000 C 
BRANCH  12  13
ATOM     13  C   UNL     1      87.234  81.869  80.300  1.00  0.00    -0.003 C 
ATOM     14  C   UNL     1      85.803  81.373  80.505  1.00  0.00     0.004 C 
ENDBRANCH  12  13
ENDBRANCH  11  12
ENDBRANCH  10  11
ENDBRANCH   9  10
ENDBRANCH   1   9
TORSDOF 10
ENDMDL
MODEL 9
REMARK VINA RESULT:    -4.123      3.458      6.857
REMARK INTER + INTRA:          -7.271
REMARK INTER:                  -6.025
REMARK INTRA:                  -1.247
REMARK UNBOUND:                -0.738
REMARK SMILES CCCCCCCCCCCC(=O)[O-]
REMARK SMILES IDX 7 1 8 2 9 3 10 4 11 5 12 6 13 7 14 8 6 9 5 10 4 11 3 12 2 13
REMARK SMILES IDX 1 14
REMARK H PARENT
REMARK Flexibility Score: inf
ROOT
ATOM      1  C   UNL     1      93.186  83.699  79.267  1.00  0.00     0.000 C 
ENDROOT
BRANCH   1   2
ATOM      2  C   UNL     1      94.646  84.146  79.434  1.00  0.00     0.000 C 
BRANCH   2   3
ATOM      3  C   UNL     1      94.776  85.666  79.273  1.00  0.00     0.000 C 
BRANCH   3   4
ATOM      4  C   UNL     1      95.971  86.204  80.074  1.00  0.00     0.006 C 
BRANCH   4   5
ATOM      5  C   UNL     1      96.481  85.193  81.108  1.00  0.00     0.053 C 
BRANCH   5   6
ATOM      6  C   UNL     1      97.879  85.504  81.548  1.00  0.00     0.041 C 
ATOM      7  O   UNL     1      98.804  85.600  80.699  1.00  0.00    -0.550 OA
ATOM      8  O   UNL     1      98.154  85.720  82.892  1.00  0.00    -0.550 OA
ENDBRANCH   5   6
ENDBRANCH   4   5
ENDBRANCH   3   4
ENDBRANCH   2   3
ENDBRANCH   1   2
BRANCH   1   9
ATOM      9  C   UNL     1      92.249  84.860  78.899  1.00  0.00     0.000 C 
BRANCH   9  10
ATOM     10  C   UNL     1      90.918  84.813  79.664  1.00  0.00    -0.000 C 
BRANCH  10  11
ATOM     11  C   UNL     1      91.033  83.930  80.913  1.00  0.00    -0.000 C 
BRANCH  11  12
ATOM     12  C   UNL     1      90.768  84.744  82.189  1.00  0.00    -0.000 C 
BRANCH  12  13
ATOM     13  C   UNL     1      91.565  86.058  82.228  1.00  0.00    -0.003 C 
ATOM     14  C   UNL     1      93.033  85.847  82.599  1.00  0.00     0.004 C 
ENDBRANCH  12  13
ENDBRANCH  11  12
ENDBRANCH  10  11
ENDBRANCH   9  10
ENDBRANCH   1   9
TORSDOF 10
ENDMDL
