MODEL 1
REMARK VINA RESULT:     9.837      0.000      0.000
REMARK INTER + INTRA:          19.212
REMARK INTER:                  19.038
REMARK INTRA:                   0.174
REMARK UNBOUND:                 0.174
REMARK SMILES CCCCCCCCCCCCCCCCCC(=O)[O-]
REMARK SMILES IDX 10 1 11 2 12 3 13 4 14 5 15 6 16 7 17 8 18 9 19 10 20 11
REMARK SMILES IDX 9 12 8 13 7 14 6 15 5 16 4 17 3 18 2 19 1 20
REMARK H PARENT
REMARK Flexibility Score: inf
ROOT
ATOM      1  C   UNL     1     -31.059  16.332 -11.070  1.00  0.00     0.000 C 
ENDROOT
BRANCH   1   2
ATOM      2  C   UNL     1     -29.520  16.368 -11.014  1.00  0.00     0.000 C 
BRANCH   2   3
ATOM      3  C   UNL     1     -28.888  17.666 -11.551  1.00  0.00     0.000 C 
BRANCH   3   4
ATOM      4  C   UNL     1     -28.774  17.707 -13.090  1.00  0.00     0.000 C 
BRANCH   4   5
ATOM      5  C   UNL     1     -28.907  16.312 -13.724  1.00  0.00     0.000 C 
BRANCH   5   6
ATOM      6  C   UNL     1     -29.301  16.368 -15.208  1.00  0.00     0.000 C 
BRANCH   6   7
ATOM      7  C   UNL     1     -29.580  17.798 -15.696  1.00  0.00     0.006 C 
BRANCH   7   8
ATOM      8  C   UNL     1     -30.273  17.786 -17.062  1.00  0.00     0.053 C 
BRANCH   8   9
ATOM      9  C   UNL     1     -30.483  19.182 -17.555  1.00  0.00     0.041 C 
ATOM     10  O   UNL     1     -29.505  19.867 -17.955  1.00  0.00    -0.550 OA
ATOM     11  O   UNL     1     -31.765  19.715 -17.613  1.00  0.00    -0.550 OA
ENDBRANCH   8   9
ENDBRANCH   7   8
ENDBRANCH   6   7
ENDBRANCH   5   6
ENDBRANCH   4   5
ENDBRANCH   3   4
ENDBRANCH   2   3
ENDBRANCH   1   2
BRANCH   1  12
ATOM     12  C   UNL     1     -31.775  17.137  -9.964  1.00  0.00     0.000 C 
BRANCH  12  13
ATOM     13  C   UNL     1     -32.764  18.203 -10.470  1.00  0.00    -0.000 C 
BRANCH  13  14
ATOM     14  C   UNL     1     -32.217  19.634 -10.343  1.00  0.00    -0.000 C 
BRANCH  14  15
ATOM     15  C   UNL     1     -30.701  19.709 -10.588  1.00  0.00    -0.000 C 
BRANCH  15  16
ATOM     16  C   UNL     1     -30.103  21.058 -10.158  1.00  0.00    -0.000 C 
BRANCH  16  17
ATOM     17  C   UNL     1     -30.798  22.223 -10.876  1.00  0.00    -0.000 C 
BRANCH  17  18
ATOM     18  C   UNL     1     -32.220  22.486 -10.351  1.00  0.00    -0.000 C 
BRANCH  18  19
ATOM     19  C   UNL     1     -32.450  23.940  -9.890  1.00  0.00    -0.003 C 
ATOM     20  C   UNL     1     -33.802  24.125  -9.200  1.00  0.00     0.004 C 
ENDBRANCH  18  19
ENDBRANCH  17  18
ENDBRANCH  16  17
ENDBRANCH  15  16
ENDBRANCH  14  15
ENDBRANCH  13  14
ENDBRANCH  12  13
ENDBRANCH   1  12
TORSDOF 16
ENDMDL
MODEL 2
REMARK VINA RESULT:     9.853      3.178      7.199
REMARK INTER + INTRA:          19.244
REMARK INTER:                  19.995
REMARK INTRA:                  -0.752
REMARK UNBOUND:                 0.174
REMARK SMILES CCCCCCCCCCCCCCCCCC(=O)[O-]
REMARK SMILES IDX 10 1 11 2 12 3 13 4 14 5 15 6 16 7 17 8 18 9 19 10 20 11
REMARK SMILES IDX 9 12 8 13 7 14 6 15 5 16 4 17 3 18 2 19 1 20
REMARK H PARENT
REMARK Flexibility Score: inf
ROOT
ATOM      1  C   UNL     1     -29.123  18.014 -11.412  1.00  0.00     0.000 C 
ENDROOT
BRANCH   1   2
ATOM      2  C   UNL     1     -30.044  16.997 -10.712  1.00  0.00     0.000 C 
BRANCH   2   3
ATOM      3  C   UNL     1     -31.439  17.537 -10.348  1.00  0.00     0.000 C 
BRANCH   3   4
ATOM      4  C   UNL     1     -31.658  19.010 -10.758  1.00  0.00     0.000 C 
BRANCH   4   5
ATOM      5  C   UNL     1     -32.763  19.689  -9.931  1.00  0.00     0.000 C 
BRANCH   5   6
ATOM      6  C   UNL     1     -32.524  21.195  -9.743  1.00  0.00     0.000 C 
BRANCH   6   7
ATOM      7  C   UNL     1     -31.418  21.741 -10.659  1.00  0.00     0.006 C 
BRANCH   7   8
ATOM      8  C   UNL     1     -31.585  23.246 -10.887  1.00  0.00     0.053 C 
BRANCH   8   9
ATOM      9  C   UNL     1     -32.477  23.838  -9.843  1.00  0.00     0.041 C 
ATOM     10  O   UNL     1     -33.694  24.046 -10.092  1.00  0.00    -0.550 OA
ATOM     11  O   UNL     1     -31.976  24.125  -8.579  1.00  0.00    -0.550 OA
ENDBRANCH   8   9
ENDBRANCH   7   8
ENDBRANCH   6   7
ENDBRANCH   5   6
ENDBRANCH   4   5
ENDBRANCH   3   4
ENDBRANCH   2   3
ENDBRANCH   1   2
BRANCH   1  12
ATOM     12  C   UNL     1     -28.722  17.650 -12.857  1.00  0.00     0.000 C 
BRANCH  12  13
ATOM     13  C   UNL     1     -28.896  16.166 -13.228  1.00  0.00    -0.000 C 
BRANCH  13  14
ATOM     14  C   UNL     1     -29.368  15.964 -14.678  1.00  0.00    -0.000 C 
BRANCH  14  15
ATOM     15  C   UNL     1     -29.215  17.235 -15.530  1.00  0.00    -0.000 C 
BRANCH  15  16
ATOM     16  C   UNL     1     -30.472  17.539 -16.359  1.00  0.00    -0.000 C 
BRANCH  16  17
ATOM     17  C   UNL     1     -30.101  18.131 -17.726  1.00  0.00    -0.000 C 
BRANCH  17  18
ATOM     18  C   UNL     1     -30.429  19.630 -17.837  1.00  0.00    -0.000 C 
BRANCH  18  19
ATOM     19  C   UNL     1     -29.254  20.551 -17.449  1.00  0.00    -0.003 C 
ATOM     20  C   UNL     1     -28.602  21.208 -18.667  1.00  0.00     0.004 C 
ENDBRANCH  18  19
ENDBRANCH  17  18
ENDBRANCH  16  17
ENDBRANCH  15  16
ENDBRANCH  14  15
ENDBRANCH  13  14
ENDBRANCH  12  13
ENDBRANCH   1  12
TORSDOF 16
ENDMDL
MODEL 3
REMARK VINA RESULT:    10.651      0.928      1.478
REMARK INTER + INTRA:          20.787
REMARK INTER:                  21.962
REMARK INTRA:                  -1.175
REMARK UNBOUND:                 0.174
REMARK SMILES CCCCCCCCCCCCCCCCCC(=O)[O-]
REMARK SMILES IDX 10 1 11 2 12 3 13 4 14 5 15 6 16 7 17 8 18 9 19 10 20 11
REMARK SMILES IDX 9 12 8 13 7 14 6 15 5 16 4 17 3 18 2 19 1 20
REMARK H PARENT
REMARK Flexibility Score: inf
ROOT
ATOM      1  C   UNL     1     -29.529  17.936 -10.802  1.00  0.00     0.000 C 
ENDROOT
BRANCH   1   2
ATOM      2  C   UNL     1     -28.872  17.711 -12.177  1.00  0.00     0.000 C 
BRANCH   2   3
ATOM      3  C   UNL     1     -29.195  16.354 -12.830  1.00  0.00     0.000 C 
BRANCH   3   4
ATOM      4  C   UNL     1     -28.760  16.261 -14.308  1.00  0.00     0.000 C 
BRANCH   4   5
ATOM      5  C   UNL     1     -29.315  17.418 -15.155  1.00  0.00     0.000 C 
BRANCH   5   6
ATOM      6  C   UNL     1     -30.514  17.000 -16.021  1.00  0.00     0.000 C 
BRANCH   6   7
ATOM      7  C   UNL     1     -30.481  17.624 -17.425  1.00  0.00     0.006 C 
BRANCH   7   8
ATOM      8  C   UNL     1     -29.319  18.612 -17.559  1.00  0.00     0.053 C 
BRANCH   8   9
ATOM      9  C   UNL     1     -29.832  19.991 -17.832  1.00  0.00     0.041 C 
ATOM     10  O   UNL     1     -29.063  20.872 -18.300  1.00  0.00    -0.550 OA
ATOM     11  O   UNL     1     -31.169  20.294 -17.606  1.00  0.00    -0.550 OA
ENDBRANCH   8   9
ENDBRANCH   7   8
ENDBRANCH   6   7
ENDBRANCH   5   6
ENDBRANCH   4   5
ENDBRANCH   3   4
ENDBRANCH   2   3
ENDBRANCH   1   2
BRANCH   1  12
ATOM     12  C   UNL     1     -30.624  16.915 -10.424  1.00  0.00     0.000 C 
BRANCH  12  13
ATOM     13  C   UNL     1     -31.951  17.531  -9.944  1.00  0.00    -0.000 C 
BRANCH  13  14
ATOM     14  C   UNL     1     -32.471  18.634 -10.880  1.00  0.00    -0.000 C 
BRANCH  14  15
ATOM     15  C   UNL     1     -32.366  20.035 -10.256  1.00  0.00    -0.000 C 
BRANCH  15  16
ATOM     16  C   UNL     1     -31.371  20.937 -11.003  1.00  0.00    -0.000 C 
BRANCH  16  17
ATOM     17  C   UNL     1     -31.829  22.401 -10.977  1.00  0.00    -0.000 C 
BRANCH  17  18
ATOM     18  C   UNL     1     -31.324  23.164  -9.740  1.00  0.00    -0.000 C 
BRANCH  18  19
ATOM     19  C   UNL     1     -32.369  24.125  -9.137  1.00  0.00    -0.003 C 
ATOM     20  C   UNL     1     -33.782  23.846  -9.651  1.00  0.00     0.004 C 
ENDBRANCH  18  19
ENDBRANCH  17  18
ENDBRANCH  16  17
ENDBRANCH  15  16
ENDBRANCH  14  15
ENDBRANCH  13  14
ENDBRANCH  12  13
ENDBRANCH   1  12
TORSDOF 16
ENDMDL
MODEL 4
REMARK VINA RESULT:    10.933      5.701      8.649
REMARK INTER + INTRA:          21.334
REMARK INTER:                  21.782
REMARK INTRA:                  -0.448
REMARK UNBOUND:                 0.174
REMARK SMILES CCCCCCCCCCCCCCCCCC(=O)[O-]
REMARK SMILES IDX 10 1 11 2 12 3 13 4 14 5 15 6 16 7 17 8 18 9 19 10 20 11
REMARK SMILES IDX 9 12 8 13 7 14 6 15 5 16 4 17 3 18 2 19 1 20
REMARK H PARENT
REMARK Flexibility Score: inf
ROOT
ATOM      1  C   UNL     1     -30.701  22.318 -10.492  1.00  0.00     0.000 C 
ENDROOT
BRANCH   1   2
ATOM      2  C   UNL     1     -29.629  21.225 -10.663  1.00  0.00     0.000 C 
BRANCH   2   3
ATOM      3  C   UNL     1     -28.185  21.695 -10.403  1.00  0.00     0.000 C 
BRANCH   3   4
ATOM      4  C   UNL     1     -27.757  21.586  -8.924  1.00  0.00     0.000 C 
BRANCH   4   5
ATOM      5  C   UNL     1     -26.276  21.946  -8.716  1.00  0.00     0.000 C 
BRANCH   5   6
ATOM      6  C   UNL     1     -25.666  21.265  -7.481  1.00  0.00     0.000 C 
BRANCH   6   7
ATOM      7  C   UNL     1     -24.130  21.266  -7.497  1.00  0.00     0.006 C 
BRANCH   7   8
ATOM      8  C   UNL     1     -23.566  21.656  -6.128  1.00  0.00     0.053 C 
BRANCH   8   9
ATOM      9  C   UNL     1     -22.354  22.519  -6.285  1.00  0.00     0.041 C 
ATOM     10  O   UNL     1     -21.346  22.089  -6.905  1.00  0.00    -0.550 OA
ATOM     11  O   UNL     1     -22.352  23.815  -5.783  1.00  0.00    -0.550 OA
ENDBRANCH   8   9
ENDBRANCH   7   8
ENDBRANCH   6   7
ENDBRANCH   5   6
ENDBRANCH   4   5
ENDBRANCH   3   4
ENDBRANCH   2   3
ENDBRANCH   1   2
BRANCH   1  12
ATOM     12  C   UNL     1     -32.123  21.801 -10.190  1.00  0.00     0.000 C 
BRANCH  12  13
ATOM     13  C   UNL     1     -32.525  20.520 -10.945  1.00  0.00    -0.000 C 
BRANCH  13  14
ATOM     14  C   UNL     1     -32.417  19.256 -10.077  1.00  0.00    -0.000 C 
BRANCH  14  15
ATOM     15  C   UNL     1     -31.179  18.410 -10.417  1.00  0.00    -0.000 C 
BRANCH  15  16
ATOM     16  C   UNL     1     -31.469  16.902 -10.374  1.00  0.00    -0.000 C 
BRANCH  16  17
ATOM     17  C   UNL     1     -30.350  16.107 -11.059  1.00  0.00    -0.000 C 
BRANCH  17  18
ATOM     18  C   UNL     1     -29.059  16.925 -11.239  1.00  0.00    -0.000 C 
BRANCH  18  19
ATOM     19  C   UNL     1     -28.912  17.548 -12.642  1.00  0.00    -0.003 C 
ATOM     20  C   UNL     1     -28.905  16.493 -13.749  1.00  0.00     0.004 C 
ENDBRANCH  18  19
ENDBRANCH  17  18
ENDBRANCH  16  17
ENDBRANCH  15  16
ENDBRANCH  14  15
ENDBRANCH  13  14
ENDBRANCH  12  13
ENDBRANCH   1  12
TORSDOF 16
ENDMDL
MODEL 5
REMARK VINA RESULT:    10.937      4.040      6.408
REMARK INTER + INTRA:          21.342
REMARK INTER:                  22.189
REMARK INTRA:                  -0.848
REMARK UNBOUND:                 0.174
REMARK SMILES CCCCCCCCCCCCCCCCCC(=O)[O-]
REMARK SMILES IDX 10 1 11 2 12 3 13 4 14 5 15 6 16 7 17 8 18 9 19 10 20 11
REMARK SMILES IDX 9 12 8 13 7 14 6 15 5 16 4 17 3 18 2 19 1 20
REMARK H PARENT
REMARK Flexibility Score: inf
ROOT
ATOM      1  C   UNL     1     -31.178  22.763 -10.038  1.00  0.00     0.000 C 
ENDROOT
BRANCH   1   2
ATOM      2  C   UNL     1     -32.306  21.799  -9.619  1.00  0.00     0.000 C 
BRANCH   2   3
ATOM      3  C   UNL     1     -32.597  20.674 -10.630  1.00  0.00     0.000 C 
BRANCH   3   4
ATOM      4  C   UNL     1     -32.466  19.257 -10.032  1.00  0.00     0.000 C 
BRANCH   4   5
ATOM      5  C   UNL     1     -31.397  18.416 -10.750  1.00  0.00     0.000 C 
BRANCH   5   6
ATOM      6  C   UNL     1     -31.481  16.922 -10.399  1.00  0.00     0.000 C 
BRANCH   6   7
ATOM      7  C   UNL     1     -30.301  16.112 -10.957  1.00  0.00     0.006 C 
BRANCH   7   8
ATOM      8  C   UNL     1     -29.054  16.989 -11.104  1.00  0.00     0.053 C 
BRANCH   8   9
ATOM      9  C   UNL     1     -28.834  17.354 -12.538  1.00  0.00     0.041 C 
ATOM     10  O   UNL     1     -28.477  18.521 -12.847  1.00  0.00    -0.550 OA
ATOM     11  O   UNL     1     -28.985  16.395 -13.531  1.00  0.00    -0.550 OA
ENDBRANCH   8   9
ENDBRANCH   7   8
ENDBRANCH   6   7
ENDBRANCH   5   6
ENDBRANCH   4   5
ENDBRANCH   3   4
ENDBRANCH   2   3
ENDBRANCH   1   2
BRANCH   1  12
ATOM     12  C   UNL     1     -30.258  22.245 -11.164  1.00  0.00     0.000 C 
BRANCH  12  13
ATOM     13  C   UNL     1     -29.172  21.251 -10.713  1.00  0.00    -0.000 C 
BRANCH  13  14
ATOM     14  C   UNL     1     -27.904  21.947 -10.193  1.00  0.00    -0.000 C 
BRANCH  14  15
ATOM     15  C   UNL     1     -27.335  21.273  -8.934  1.00  0.00    -0.000 C 
BRANCH  15  16
ATOM     16  C   UNL     1     -25.964  21.839  -8.533  1.00  0.00    -0.000 C 
BRANCH  16  17
ATOM     17  C   UNL     1     -25.389  21.087  -7.325  1.00  0.00    -0.000 C 
BRANCH  17  18
ATOM     18  C   UNL     1     -23.852  21.116  -7.280  1.00  0.00    -0.000 C 
BRANCH  18  19
ATOM     19  C   UNL     1     -23.282  21.848  -6.048  1.00  0.00    -0.003 C 
ATOM     20  C   UNL     1     -22.227  22.888  -6.425  1.00  0.00     0.004 C 
ENDBRANCH  18  19
ENDBRANCH  17  18
ENDBRANCH  16  17
ENDBRANCH  15  16
ENDBRANCH  14  15
ENDBRANCH  13  14
ENDBRANCH  12  13
ENDBRANCH   1  12
TORSDOF 16
ENDMDL
MODEL 6
REMARK VINA RESULT:    11.195      5.099      6.965
REMARK INTER + INTRA:          21.841
REMARK INTER:                  22.381
REMARK INTRA:                  -0.540
REMARK UNBOUND:                 0.174
REMARK SMILES CCCCCCCCCCCCCCCCCC(=O)[O-]
REMARK SMILES IDX 10 1 11 2 12 3 13 4 14 5 15 6 16 7 17 8 18 9 19 10 20 11
REMARK SMILES IDX 9 12 8 13 7 14 6 15 5 16 4 17 3 18 2 19 1 20
REMARK H PARENT
REMARK Flexibility Score: inf
ROOT
ATOM      1  C   UNL     1     -29.314  17.550 -11.568  1.00  0.00     0.000 C 
ENDROOT
BRANCH   1   2
ATOM      2  C   UNL     1     -28.892  18.732 -10.674  1.00  0.00     0.000 C 
BRANCH   2   3
ATOM      3  C   UNL     1     -28.549  20.025 -11.437  1.00  0.00     0.000 C 
BRANCH   3   4
ATOM      4  C   UNL     1     -28.470  21.274 -10.533  1.00  0.00     0.000 C 
BRANCH   4   5
ATOM      5  C   UNL     1     -27.782  20.980  -9.189  1.00  0.00     0.000 C 
BRANCH   5   6
ATOM      6  C   UNL     1     -26.577  21.897  -8.925  1.00  0.00     0.000 C 
BRANCH   6   7
ATOM      7  C   UNL     1     -25.761  21.468  -7.696  1.00  0.00     0.006 C 
BRANCH   7   8
ATOM      8  C   UNL     1     -24.270  21.374  -8.031  1.00  0.00     0.053 C 
BRANCH   8   9
ATOM      9  C   UNL     1     -23.440  21.750  -6.845  1.00  0.00     0.041 C 
ATOM     10  O   UNL     1     -23.707  21.275  -5.709  1.00  0.00    -0.550 OA
ATOM     11  O   UNL     1     -22.347  22.593  -6.998  1.00  0.00    -0.550 OA
ENDBRANCH   8   9
ENDBRANCH   7   8
ENDBRANCH   6   7
ENDBRANCH   5   6
ENDBRANCH   4   5
ENDBRANCH   3   4
ENDBRANCH   2   3
ENDBRANCH   1   2
BRANCH   1  12
ATOM     12  C   UNL     1     -30.049  16.406 -10.838  1.00  0.00     0.000 C 
BRANCH  12  13
ATOM     13  C   UNL     1     -31.584  16.527 -10.815  1.00  0.00    -0.000 C 
BRANCH  13  14
ATOM     14  C   UNL     1     -32.082  17.623  -9.859  1.00  0.00    -0.000 C 
BRANCH  14  15
ATOM     15  C   UNL     1     -32.449  18.923 -10.592  1.00  0.00    -0.000 C 
BRANCH  15  16
ATOM     16  C   UNL     1     -31.661  20.134 -10.069  1.00  0.00    -0.000 C 
BRANCH  16  17
ATOM     17  C   UNL     1     -32.276  21.449 -10.569  1.00  0.00    -0.000 C 
BRANCH  17  18
ATOM     18  C   UNL     1     -31.346  22.658 -10.368  1.00  0.00    -0.000 C 
BRANCH  18  19
ATOM     19  C   UNL     1     -32.008  23.830  -9.617  1.00  0.00    -0.003 C 
ATOM     20  C   UNL     1     -33.486  23.992  -9.977  1.00  0.00     0.004 C 
ENDBRANCH  18  19
ENDBRANCH  17  18
ENDBRANCH  16  17
ENDBRANCH  15  16
ENDBRANCH  14  15
ENDBRANCH  13  14
ENDBRANCH  12  13
ENDBRANCH   1  12
TORSDOF 16
ENDMDL
MODEL 7
REMARK VINA RESULT:    11.667      3.932      6.471
REMARK INTER + INTRA:          22.755
REMARK INTER:                  21.873
REMARK INTRA:                   0.881
REMARK UNBOUND:                 0.174
REMARK SMILES CCCCCCCCCCCCCCCCCC(=O)[O-]
REMARK SMILES IDX 10 1 11 2 12 3 13 4 14 5 15 6 16 7 17 8 18 9 19 10 20 11
REMARK SMILES IDX 9 12 8 13 7 14 6 15 5 16 4 17 3 18 2 19 1 20
REMARK H PARENT
REMARK Flexibility Score: inf
ROOT
ATOM      1  C   UNL     1     -30.164  16.675 -10.960  1.00  0.00     0.000 C 
ENDROOT
BRANCH   1   2
ATOM      2  C   UNL     1     -31.597  17.201 -10.752  1.00  0.00     0.000 C 
BRANCH   2   3
ATOM      3  C   UNL     1     -31.699  18.448  -9.853  1.00  0.00     0.000 C 
BRANCH   3   4
ATOM      4  C   UNL     1     -32.833  19.413 -10.262  1.00  0.00     0.000 C 
BRANCH   4   5
ATOM      5  C   UNL     1     -32.629  20.828  -9.695  1.00  0.00     0.000 C 
BRANCH   5   6
ATOM      6  C   UNL     1     -31.849  21.744 -10.650  1.00  0.00     0.000 C 
BRANCH   6   7
ATOM      7  C   UNL     1     -30.957  22.754  -9.911  1.00  0.00     0.006 C 
BRANCH   7   8
ATOM      8  C   UNL     1     -31.635  24.125  -9.825  1.00  0.00     0.053 C 
BRANCH   8   9
ATOM      9  C   UNL     1     -33.123  23.978  -9.854  1.00  0.00     0.041 C 
ATOM     10  O   UNL     1     -33.711  23.699 -10.932  1.00  0.00    -0.550 OA
ATOM     11  O   UNL     1     -33.859  24.109  -8.683  1.00  0.00    -0.550 OA
ENDBRANCH   8   9
ENDBRANCH   7   8
ENDBRANCH   6   7
ENDBRANCH   5   6
ENDBRANCH   4   5
ENDBRANCH   3   4
ENDBRANCH   2   3
ENDBRANCH   1   2
BRANCH   1  12
ATOM     12  C   UNL     1     -29.128  17.741 -11.377  1.00  0.00     0.000 C 
BRANCH  12  13
ATOM     13  C   UNL     1     -29.432  19.170 -10.893  1.00  0.00    -0.000 C 
BRANCH  13  14
ATOM     14  C   UNL     1     -28.459  20.214 -11.465  1.00  0.00    -0.000 C 
BRANCH  14  15
ATOM     15  C   UNL     1     -28.262  20.068 -12.983  1.00  0.00    -0.000 C 
BRANCH  15  16
ATOM     16  C   UNL     1     -27.265  21.091 -13.547  1.00  0.00    -0.000 C 
BRANCH  16  17
ATOM     17  C   UNL     1     -27.158  22.319 -12.632  1.00  0.00    -0.000 C 
BRANCH  17  18
ATOM     18  C   UNL     1     -25.792  22.427 -11.933  1.00  0.00    -0.000 C 
BRANCH  18  19
ATOM     19  C   UNL     1     -25.366  23.877 -11.627  1.00  0.00    -0.003 C 
ATOM     20  C   UNL     1     -25.178  24.125 -10.129  1.00  0.00     0.004 C 
ENDBRANCH  18  19
ENDBRANCH  17  18
ENDBRANCH  16  17
ENDBRANCH  15  16
ENDBRANCH  14  15
ENDBRANCH  13  14
ENDBRANCH  12  13
ENDBRANCH   1  12
TORSDOF 16
ENDMDL
