MODEL 1
REMARK VINA RESULT:    37.852      0.000      0.000
REMARK INTER + INTRA:          45.450
REMARK INTER:                  45.597
REMARK INTRA:                  -0.148
REMARK UNBOUND:                -0.148
REMARK SMILES O=c1c(O)c(-c2ccc(O)c(O)c2)oc2cc(O)cc(O)c12
REMARK SMILES IDX 5 1 3 2 2 3 1 4 22 5 20 6 19 7 17 8 16 9 15 10 14 11 6 12
REMARK SMILES IDX 7 13 8 14 9 15 13 16 11 17 10 18 12 20 4 22 21 24 18 26
REMARK H PARENT 10 19 12 21 4 23 21 25 18 27
REMARK Flexibility Score: inf
ROOT
ATOM      1  C   UNL     1       9.361  67.772   6.736  1.00  0.00     0.180 A 
ATOM      2  C   UNL     1       9.327  68.957   7.497  1.00  0.00     0.208 A 
ATOM      3  C   UNL     1       9.334  70.192   6.830  1.00  0.00     0.238 A 
ATOM      4  O   UNL     1       9.294  71.259   7.500  1.00  0.00    -0.285 OA
ATOM      5  C   UNL     1       9.396  70.223   5.422  1.00  0.00     0.111 A 
ATOM      6  C   UNL     1       9.412  71.426   4.673  1.00  0.00     0.134 A 
ATOM      7  C   UNL     1       9.485  71.372   3.273  1.00  0.00     0.093 A 
ATOM      8  C   UNL     1       9.542  70.145   2.608  1.00  0.00     0.123 A 
ATOM      9  C   UNL     1       9.526  68.955   3.342  1.00  0.00     0.094 A 
ATOM     10  C   UNL     1       9.453  68.986   4.737  1.00  0.00     0.146 A 
ATOM     11  O   UNL     1       9.434  67.841   5.410  1.00  0.00    -0.452 OA
ENDROOT
BRANCH   1  12
ATOM     12  C   UNL     1       9.336  66.433   7.365  1.00  0.00     0.025 A 
ATOM     13  C   UNL     1      10.371  66.004   8.215  1.00  0.00     0.016 A 
ATOM     14  C   UNL     1      10.316  64.744   8.817  1.00  0.00     0.051 A 
ATOM     15  C   UNL     1       9.220  63.901   8.590  1.00  0.00     0.157 A 
ATOM     16  C   UNL     1       8.231  65.591   7.159  1.00  0.00     0.062 A 
ATOM     17  C   UNL     1       8.174  64.327   7.762  1.00  0.00     0.158 A 
BRANCH  15  18
ATOM     18  O   UNL     1       9.160  62.643   9.189  1.00  0.00    -0.504 OA
ATOM     19  H   UNL     1       8.603  62.477  10.017  1.00  0.00     0.293 HD
ENDBRANCH  15  18
BRANCH  17  20
ATOM     20  O   UNL     1       7.081  63.489   7.544  1.00  0.00    -0.504 OA
ATOM     21  H   UNL     1       7.188  62.581   7.106  1.00  0.00     0.293 HD
ENDBRANCH  17  20
ENDBRANCH   1  12
BRANCH   2  22
ATOM     22  O   UNL     1       9.316  68.899   8.892  1.00  0.00    -0.502 OA
ATOM     23  H   UNL     1       9.025  68.071   9.399  1.00  0.00     0.293 HD
ENDBRANCH   2  22
BRANCH   6  24
ATOM     24  O   UNL     1       9.358  72.667   5.308  1.00  0.00    -0.507 OA
ATOM     25  H   UNL     1       9.919  72.872   6.127  1.00  0.00     0.293 HD
ENDBRANCH   6  24
BRANCH   8  26
ATOM     26  O   UNL     1       9.614  70.121   1.217  1.00  0.00    -0.508 OA
ATOM     27  H   UNL     1       8.944  69.603   0.661  1.00  0.00     0.293 HD
ENDBRANCH   8  26
TORSDOF 6
ENDMDL
