MODEL 1
REMARK VINA RESULT:    -4.988      0.000      0.000
REMARK INTER + INTRA:         -13.996
REMARK INTER:                 -11.403
REMARK INTRA:                  -2.593
REMARK UNBOUND:                -2.593
REMARK SMILES CCCCCCCCCCCCCCCCCCCCCCCC(=O)[O-]
REMARK SMILES IDX 13 1 14 2 15 3 16 4 17 5 18 6 19 7 20 8 21 9 22 10 23 11
REMARK SMILES IDX 24 12 25 13 26 14 12 15 11 16 10 17 9 18 8 19 7 20 6 21 5 22
REMARK SMILES IDX 4 23 3 24 2 25 1 26
REMARK H PARENT
REMARK Flexibility Score: inf
ROOT
ATOM      1  C   UNL     1     -15.064 -12.806  16.701  1.00  0.00     0.000 C 
ENDROOT
BRANCH   1   2
ATOM      2  C   UNL     1     -15.988 -13.933  16.210  1.00  0.00     0.000 C 
BRANCH   2   3
ATOM      3  C   UNL     1     -16.706 -13.584  14.894  1.00  0.00     0.000 C 
BRANCH   3   4
ATOM      4  C   UNL     1     -16.062 -12.392  14.163  1.00  0.00     0.000 C 
BRANCH   4   5
ATOM      5  C   UNL     1     -15.279 -12.760  12.888  1.00  0.00     0.000 C 
BRANCH   5   6
ATOM      6  C   UNL     1     -14.090 -11.823  12.625  1.00  0.00     0.000 C 
BRANCH   6   7
ATOM      7  C   UNL     1     -13.149 -11.777  13.839  1.00  0.00     0.000 C 
BRANCH   7   8
ATOM      8  C   UNL     1     -12.122 -12.921  13.831  1.00  0.00     0.000 C 
BRANCH   8   9
ATOM      9  C   UNL     1     -11.873 -13.500  15.235  1.00  0.00     0.000 C 
BRANCH   9  10
ATOM     10  C   UNL     1     -10.840 -12.689  16.039  1.00  0.00     0.006 C 
BRANCH  10  11
ATOM     11  C   UNL     1      -9.378 -13.065  15.745  1.00  0.00     0.053 C 
BRANCH  11  12
ATOM     12  C   UNL     1      -8.767 -12.174  14.708  1.00  0.00     0.041 C 
ATOM     13  O   UNL     1      -9.201 -11.004  14.542  1.00  0.00    -0.550 OA
ATOM     14  O   UNL     1      -7.743 -12.650  13.899  1.00  0.00    -0.550 OA
ENDBRANCH  11  12
ENDBRANCH  10  11
ENDBRANCH   9  10
ENDBRANCH   8   9
ENDBRANCH   7   8
ENDBRANCH   6   7
ENDBRANCH   5   6
ENDBRANCH   4   5
ENDBRANCH   3   4
ENDBRANCH   2   3
ENDBRANCH   1   2
BRANCH   1  15
ATOM     15  C   UNL     1     -15.094 -12.632  18.230  1.00  0.00     0.000 C 
BRANCH  15  16
ATOM     16  C   UNL     1     -16.522 -12.705  18.797  1.00  0.00     0.000 C 
BRANCH  16  17
ATOM     17  C   UNL     1     -16.617 -12.101  20.209  1.00  0.00     0.000 C 
BRANCH  17  18
ATOM     18  C   UNL     1     -17.989 -11.469  20.490  1.00  0.00    -0.000 C 
BRANCH  18  19
ATOM     19  C   UNL     1     -18.064 -10.805  21.877  1.00  0.00    -0.000 C 
BRANCH  19  20
ATOM     20  C   UNL     1     -16.715 -10.866  22.626  1.00  0.00    -0.000 C 
BRANCH  20  21
ATOM     21  C   UNL     1     -16.196  -9.489  23.078  1.00  0.00    -0.000 C 
BRANCH  21  22
ATOM     22  C   UNL     1     -14.843  -9.126  22.451  1.00  0.00    -0.000 C 
BRANCH  22  23
ATOM     23  C   UNL     1     -13.880 -10.322  22.482  1.00  0.00    -0.000 C 
BRANCH  23  24
ATOM     24  C   UNL     1     -12.913 -10.332  21.287  1.00  0.00    -0.000 C 
BRANCH  24  25
ATOM     25  C   UNL     1     -12.294 -11.716  21.039  1.00  0.00    -0.003 C 
ATOM     26  C   UNL     1     -13.259 -12.828  21.441  1.00  0.00     0.004 C 
ENDBRANCH  24  25
ENDBRANCH  23  24
ENDBRANCH  22  23
ENDBRANCH  21  22
ENDBRANCH  20  21
ENDBRANCH  19  20
ENDBRANCH  18  19
ENDBRANCH  17  18
ENDBRANCH  16  17
ENDBRANCH  15  16
ENDBRANCH   1  15
TORSDOF 22
ENDMDL
MODEL 2
REMARK VINA RESULT:    -4.909      1.187      2.496
REMARK INTER + INTRA:         -13.816
REMARK INTER:                 -11.574
REMARK INTRA:                  -2.242
REMARK UNBOUND:                -2.593
REMARK SMILES CCCCCCCCCCCCCCCCCCCCCCCC(=O)[O-]
REMARK SMILES IDX 13 1 14 2 15 3 16 4 17 5 18 6 19 7 20 8 21 9 22 10 23 11
REMARK SMILES IDX 24 12 25 13 26 14 12 15 11 16 10 17 9 18 8 19 7 20 6 21 5 22
REMARK SMILES IDX 4 23 3 24 2 25 1 26
REMARK H PARENT
REMARK Flexibility Score: inf
ROOT
ATOM      1  C   UNL     1     -16.200 -12.911  14.925  1.00  0.00     0.000 C 
ENDROOT
BRANCH   1   2
ATOM      2  C   UNL     1     -15.994 -13.686  13.613  1.00  0.00     0.000 C 
BRANCH   2   3
ATOM      3  C   UNL     1     -14.591 -13.486  13.015  1.00  0.00     0.000 C 
BRANCH   3   4
ATOM      4  C   UNL     1     -14.085 -12.038  13.157  1.00  0.00     0.000 C 
BRANCH   4   5
ATOM      5  C   UNL     1     -12.671 -11.902  13.753  1.00  0.00     0.000 C 
BRANCH   5   6
ATOM      6  C   UNL     1     -12.500 -12.675  15.070  1.00  0.00     0.000 C 
BRANCH   6   7
ATOM      7  C   UNL     1     -11.119 -13.345  15.137  1.00  0.00     0.000 C 
BRANCH   7   8
ATOM      8  C   UNL     1     -10.126 -12.560  16.009  1.00  0.00     0.000 C 
BRANCH   8   9
ATOM      9  C   UNL     1      -8.660 -12.851  15.642  1.00  0.00     0.000 C 
BRANCH   9  10
ATOM     10  C   UNL     1      -8.375 -12.663  14.141  1.00  0.00     0.006 C 
BRANCH  10  11
ATOM     11  C   UNL     1      -7.048 -11.948  13.837  1.00  0.00     0.053 C 
BRANCH  11  12
ATOM     12  C   UNL     1      -7.198 -10.458  13.847  1.00  0.00     0.041 C 
ATOM     13  O   UNL     1      -6.194  -9.718  13.674  1.00  0.00    -0.550 OA
ATOM     14  O   UNL     1      -8.442  -9.886  14.086  1.00  0.00    -0.550 OA
ENDBRANCH  11  12
ENDBRANCH  10  11
ENDBRANCH   9  10
ENDBRANCH   8   9
ENDBRANCH   7   8
ENDBRANCH   6   7
ENDBRANCH   5   6
ENDBRANCH   4   5
ENDBRANCH   3   4
ENDBRANCH   2   3
ENDBRANCH   1   2
BRANCH   1  15
ATOM     15  C   UNL     1     -16.234 -13.827  16.162  1.00  0.00     0.000 C 
BRANCH  15  16
ATOM     16  C   UNL     1     -15.146 -13.463  17.186  1.00  0.00     0.000 C 
BRANCH  16  17
ATOM     17  C   UNL     1     -15.608 -12.365  18.159  1.00  0.00     0.000 C 
BRANCH  17  18
ATOM     18  C   UNL     1     -16.881 -12.753  18.927  1.00  0.00    -0.000 C 
BRANCH  18  19
ATOM     19  C   UNL     1     -16.802 -12.404  20.424  1.00  0.00    -0.000 C 
BRANCH  19  20
ATOM     20  C   UNL     1     -17.609 -11.133  20.769  1.00  0.00    -0.000 C 
BRANCH  20  21
ATOM     21  C   UNL     1     -17.394 -10.636  22.209  1.00  0.00    -0.000 C 
BRANCH  21  22
ATOM     22  C   UNL     1     -15.950 -10.820  22.695  1.00  0.00    -0.000 C 
BRANCH  22  23
ATOM     23  C   UNL     1     -15.007  -9.815  22.019  1.00  0.00    -0.000 C 
BRANCH  23  24
ATOM     24  C   UNL     1     -13.707 -10.467  21.521  1.00  0.00    -0.000 C 
BRANCH  24  25
ATOM     25  C   UNL     1     -13.609 -11.954  21.898  1.00  0.00    -0.003 C 
ATOM     26  C   UNL     1     -12.980 -12.765  20.769  1.00  0.00     0.004 C 
ENDBRANCH  24  25
ENDBRANCH  23  24
ENDBRANCH  22  23
ENDBRANCH  21  22
ENDBRANCH  20  21
ENDBRANCH  19  20
ENDBRANCH  18  19
ENDBRANCH  17  18
ENDBRANCH  16  17
ENDBRANCH  15  16
ENDBRANCH   1  15
TORSDOF 22
ENDMDL
MODEL 3
REMARK VINA RESULT:    -4.842      1.824      3.795
REMARK INTER + INTRA:         -13.663
REMARK INTER:                 -11.700
REMARK INTRA:                  -1.962
REMARK UNBOUND:                -2.593
REMARK SMILES CCCCCCCCCCCCCCCCCCCCCCCC(=O)[O-]
REMARK SMILES IDX 13 1 14 2 15 3 16 4 17 5 18 6 19 7 20 8 21 9 22 10 23 11
REMARK SMILES IDX 24 12 25 13 26 14 12 15 11 16 10 17 9 18 8 19 7 20 6 21 5 22
REMARK SMILES IDX 4 23 3 24 2 25 1 26
REMARK H PARENT
REMARK Flexibility Score: inf
ROOT
ATOM      1  C   UNL     1     -16.091 -12.738  15.445  1.00  0.00     0.000 C 
ENDROOT
BRANCH   1   2
ATOM      2  C   UNL     1     -15.713 -13.377  14.099  1.00  0.00     0.000 C 
BRANCH   2   3
ATOM      3  C   UNL     1     -14.878 -12.441  13.207  1.00  0.00     0.000 C 
BRANCH   3   4
ATOM      4  C   UNL     1     -13.478 -12.163  13.785  1.00  0.00     0.000 C 
BRANCH   4   5
ATOM      5  C   UNL     1     -12.542 -13.386  13.835  1.00  0.00     0.000 C 
BRANCH   5   6
ATOM      6  C   UNL     1     -12.113 -13.752  15.264  1.00  0.00     0.000 C 
BRANCH   6   7
ATOM      7  C   UNL     1     -11.065 -12.760  15.793  1.00  0.00     0.000 C 
BRANCH   7   8
ATOM      8  C   UNL     1      -9.720 -12.878  15.058  1.00  0.00     0.000 C 
BRANCH   8   9
ATOM      9  C   UNL     1      -9.420 -11.652  14.177  1.00  0.00     0.000 C 
BRANCH   9  10
ATOM     10  C   UNL     1      -8.586 -10.584  14.909  1.00  0.00     0.006 C 
BRANCH  10  11
ATOM     11  C   UNL     1      -7.151 -11.026  15.242  1.00  0.00     0.053 C 
BRANCH  11  12
ATOM     12  C   UNL     1      -6.196 -10.718  14.130  1.00  0.00     0.041 C 
ATOM     13  O   UNL     1      -6.289  -9.635  13.496  1.00  0.00    -0.550 OA
ATOM     14  O   UNL     1      -5.229 -11.648  13.768  1.00  0.00    -0.550 OA
ENDBRANCH  11  12
ENDBRANCH  10  11
ENDBRANCH   9  10
ENDBRANCH   8   9
ENDBRANCH   7   8
ENDBRANCH   6   7
ENDBRANCH   5   6
ENDBRANCH   4   5
ENDBRANCH   3   4
ENDBRANCH   2   3
ENDBRANCH   1   2
BRANCH   1  15
ATOM     15  C   UNL     1     -15.852 -13.677  16.641  1.00  0.00     0.000 C 
BRANCH  15  16
ATOM     16  C   UNL     1     -14.794 -13.127  17.612  1.00  0.00     0.000 C 
BRANCH  16  17
ATOM     17  C   UNL     1     -15.415 -12.249  18.712  1.00  0.00     0.000 C 
BRANCH  17  18
ATOM     18  C   UNL     1     -16.892 -12.584  18.973  1.00  0.00    -0.000 C 
BRANCH  18  19
ATOM     19  C   UNL     1     -17.407 -12.004  20.302  1.00  0.00    -0.000 C 
BRANCH  19  20
ATOM     20  C   UNL     1     -16.423 -10.982  20.912  1.00  0.00    -0.000 C 
BRANCH  20  21
ATOM     21  C   UNL     1     -16.347 -11.038  22.448  1.00  0.00    -0.000 C 
BRANCH  21  22
ATOM     22  C   UNL     1     -17.326 -10.072  23.130  1.00  0.00    -0.000 C 
BRANCH  22  23
ATOM     23  C   UNL     1     -18.623 -10.791  23.529  1.00  0.00    -0.000 C 
BRANCH  23  24
ATOM     24  C   UNL     1     -19.880 -10.043  23.056  1.00  0.00    -0.000 C 
BRANCH  24  25
ATOM     25  C   UNL     1     -20.559 -10.726  21.858  1.00  0.00    -0.003 C 
ATOM     26  C   UNL     1     -21.724 -11.600  22.314  1.00  0.00     0.004 C 
ENDBRANCH  24  25
ENDBRANCH  23  24
ENDBRANCH  22  23
ENDBRANCH  21  22
ENDBRANCH  20  21
ENDBRANCH  19  20
ENDBRANCH  18  19
ENDBRANCH  17  18
ENDBRANCH  16  17
ENDBRANCH  15  16
ENDBRANCH   1  15
TORSDOF 22
ENDMDL
MODEL 4
REMARK VINA RESULT:    -4.825      1.425      2.334
REMARK INTER + INTRA:         -13.624
REMARK INTER:                 -11.238
REMARK INTRA:                  -2.386
REMARK UNBOUND:                -2.593
REMARK SMILES CCCCCCCCCCCCCCCCCCCCCCCC(=O)[O-]
REMARK SMILES IDX 13 1 14 2 15 3 16 4 17 5 18 6 19 7 20 8 21 9 22 10 23 11
REMARK SMILES IDX 24 12 25 13 26 14 12 15 11 16 10 17 9 18 8 19 7 20 6 21 5 22
REMARK SMILES IDX 4 23 3 24 2 25 1 26
REMARK H PARENT
REMARK Flexibility Score: inf
ROOT
ATOM      1  C   UNL     1     -15.031 -12.790  17.995  1.00  0.00     0.000 C 
ENDROOT
BRANCH   1   2
ATOM      2  C   UNL     1     -16.052 -13.589  17.168  1.00  0.00     0.000 C 
BRANCH   2   3
ATOM      3  C   UNL     1     -16.000 -13.251  15.668  1.00  0.00     0.000 C 
BRANCH   3   4
ATOM      4  C   UNL     1     -14.628 -12.706  15.229  1.00  0.00     0.000 C 
BRANCH   4   5
ATOM      5  C   UNL     1     -13.801 -13.664  14.350  1.00  0.00     0.000 C 
BRANCH   5   6
ATOM      6  C   UNL     1     -12.437 -14.012  14.966  1.00  0.00     0.000 C 
BRANCH   6   7
ATOM      7  C   UNL     1     -12.053 -13.001  16.058  1.00  0.00     0.000 C 
BRANCH   7   8
ATOM      8  C   UNL     1     -10.574 -12.591  15.986  1.00  0.00     0.000 C 
BRANCH   8   9
ATOM      9  C   UNL     1      -9.756 -13.495  15.046  1.00  0.00     0.000 C 
BRANCH   9  10
ATOM     10  C   UNL     1      -8.846 -12.695  14.095  1.00  0.00     0.006 C 
BRANCH  10  11
ATOM     11  C   UNL     1      -7.786 -11.841  14.808  1.00  0.00     0.053 C 
BRANCH  11  12
ATOM     12  C   UNL     1      -7.539 -10.545  14.099  1.00  0.00     0.041 C 
ATOM     13  O   UNL     1      -6.374 -10.075  14.024  1.00  0.00    -0.550 OA
ATOM     14  O   UNL     1      -8.604  -9.837  13.555  1.00  0.00    -0.550 OA
ENDBRANCH  11  12
ENDBRANCH  10  11
ENDBRANCH   9  10
ENDBRANCH   8   9
ENDBRANCH   7   8
ENDBRANCH   6   7
ENDBRANCH   5   6
ENDBRANCH   4   5
ENDBRANCH   3   4
ENDBRANCH   2   3
ENDBRANCH   1   2
BRANCH   1  15
ATOM     15  C   UNL     1     -15.693 -11.885  19.050  1.00  0.00     0.000 C 
BRANCH  15  16
ATOM     16  C   UNL     1     -16.925 -12.543  19.692  1.00  0.00     0.000 C 
BRANCH  16  17
ATOM     17  C   UNL     1     -17.450 -11.742  20.896  1.00  0.00     0.000 C 
BRANCH  17  18
ATOM     18  C   UNL     1     -17.013 -10.269  20.862  1.00  0.00    -0.000 C 
BRANCH  18  19
ATOM     19  C   UNL     1     -16.464  -9.781  22.214  1.00  0.00    -0.000 C 
BRANCH  19  20
ATOM     20  C   UNL     1     -15.604 -10.855  22.916  1.00  0.00    -0.000 C 
BRANCH  20  21
ATOM     21  C   UNL     1     -14.115 -10.805  22.530  1.00  0.00    -0.000 C 
BRANCH  21  22
ATOM     22  C   UNL     1     -13.495 -12.199  22.360  1.00  0.00    -0.000 C 
BRANCH  22  23
ATOM     23  C   UNL     1     -12.906 -12.373  20.953  1.00  0.00    -0.000 C 
BRANCH  23  24
ATOM     24  C   UNL     1     -11.625 -11.549  20.743  1.00  0.00    -0.000 C 
BRANCH  24  25
ATOM     25  C   UNL     1     -10.526 -11.894  21.760  1.00  0.00    -0.003 C 
ATOM     26  C   UNL     1      -9.140 -11.766  21.133  1.00  0.00     0.004 C 
ENDBRANCH  24  25
ENDBRANCH  23  24
ENDBRANCH  22  23
ENDBRANCH  21  22
ENDBRANCH  20  21
ENDBRANCH  19  20
ENDBRANCH  18  19
ENDBRANCH  17  18
ENDBRANCH  16  17
ENDBRANCH  15  16
ENDBRANCH   1  15
TORSDOF 22
ENDMDL
MODEL 5
REMARK VINA RESULT:    -4.815      2.193      7.297
REMARK INTER + INTRA:         -13.601
REMARK INTER:                 -11.093
REMARK INTRA:                  -2.508
REMARK UNBOUND:                -2.593
REMARK SMILES CCCCCCCCCCCCCCCCCCCCCCCC(=O)[O-]
REMARK SMILES IDX 13 1 14 2 15 3 16 4 17 5 18 6 19 7 20 8 21 9 22 10 23 11
REMARK SMILES IDX 24 12 25 13 26 14 12 15 11 16 10 17 9 18 8 19 7 20 6 21 5 22
REMARK SMILES IDX 4 23 3 24 2 25 1 26
REMARK H PARENT
REMARK Flexibility Score: inf
ROOT
ATOM      1  C   UNL     1     -15.412 -12.310  18.593  1.00  0.00     0.000 C 
ENDROOT
BRANCH   1   2
ATOM      2  C   UNL     1     -16.802 -12.737  19.093  1.00  0.00     0.000 C 
BRANCH   2   3
ATOM      3  C   UNL     1     -17.065 -12.322  20.551  1.00  0.00     0.000 C 
BRANCH   3   4
ATOM      4  C   UNL     1     -17.583 -10.876  20.674  1.00  0.00     0.000 C 
BRANCH   4   5
ATOM      5  C   UNL     1     -16.916 -10.042  21.784  1.00  0.00     0.000 C 
BRANCH   5   6
ATOM      6  C   UNL     1     -15.677 -10.726  22.383  1.00  0.00     0.000 C 
BRANCH   6   7
ATOM      7  C   UNL     1     -14.391  -9.996  21.964  1.00  0.00     0.000 C 
BRANCH   7   8
ATOM      8  C   UNL     1     -13.403 -10.918  21.232  1.00  0.00     0.000 C 
BRANCH   8   9
ATOM      9  C   UNL     1     -13.374 -12.339  21.823  1.00  0.00     0.000 C 
BRANCH   9  10
ATOM     10  C   UNL     1     -12.004 -13.023  21.661  1.00  0.00     0.006 C 
BRANCH  10  11
ATOM     11  C   UNL     1     -10.882 -12.390  22.500  1.00  0.00     0.053 C 
BRANCH  11  12
ATOM     12  C   UNL     1      -9.685 -12.048  21.668  1.00  0.00     0.041 C 
ATOM     13  O   UNL     1      -9.810 -11.331  20.641  1.00  0.00    -0.550 OA
ATOM     14  O   UNL     1      -8.435 -12.555  22.006  1.00  0.00    -0.550 OA
ENDBRANCH  11  12
ENDBRANCH  10  11
ENDBRANCH   9  10
ENDBRANCH   8   9
ENDBRANCH   7   8
ENDBRANCH   6   7
ENDBRANCH   5   6
ENDBRANCH   4   5
ENDBRANCH   3   4
ENDBRANCH   2   3
ENDBRANCH   1   2
BRANCH   1  15
ATOM     15  C   UNL     1     -15.133 -12.757  17.147  1.00  0.00     0.000 C 
BRANCH  15  16
ATOM     16  C   UNL     1     -16.115 -13.841  16.672  1.00  0.00     0.000 C 
BRANCH  16  17
ATOM     17  C   UNL     1     -16.496 -13.672  15.191  1.00  0.00     0.000 C 
BRANCH  17  18
ATOM     18  C   UNL     1     -15.808 -12.462  14.539  1.00  0.00    -0.000 C 
BRANCH  18  19
ATOM     19  C   UNL     1     -14.913 -12.857  13.351  1.00  0.00    -0.000 C 
BRANCH  19  20
ATOM     20  C   UNL     1     -13.741 -13.766  13.781  1.00  0.00    -0.000 C 
BRANCH  20  21
ATOM     21  C   UNL     1     -12.461 -12.993  14.147  1.00  0.00    -0.000 C 
BRANCH  21  22
ATOM     22  C   UNL     1     -12.035 -13.200  15.607  1.00  0.00    -0.000 C 
BRANCH  22  23
ATOM     23  C   UNL     1     -10.610 -12.682  15.845  1.00  0.00    -0.000 C 
BRANCH  23  24
ATOM     24  C   UNL     1      -9.965 -12.120  14.567  1.00  0.00    -0.000 C 
BRANCH  24  25
ATOM     25  C   UNL     1      -8.430 -12.184  14.601  1.00  0.00    -0.003 C 
ATOM     26  C   UNL     1      -7.826 -10.788  14.721  1.00  0.00     0.004 C 
ENDBRANCH  24  25
ENDBRANCH  23  24
ENDBRANCH  22  23
ENDBRANCH  21  22
ENDBRANCH  20  21
ENDBRANCH  19  20
ENDBRANCH  18  19
ENDBRANCH  17  18
ENDBRANCH  16  17
ENDBRANCH  15  16
ENDBRANCH   1  15
TORSDOF 22
ENDMDL
MODEL 6
REMARK VINA RESULT:    -4.797      4.485      9.462
REMARK INTER + INTRA:         -13.559
REMARK INTER:                 -11.746
REMARK INTRA:                  -1.813
REMARK UNBOUND:                -2.593
REMARK SMILES CCCCCCCCCCCCCCCCCCCCCCCC(=O)[O-]
REMARK SMILES IDX 13 1 14 2 15 3 16 4 17 5 18 6 19 7 20 8 21 9 22 10 23 11
REMARK SMILES IDX 24 12 25 13 26 14 12 15 11 16 10 17 9 18 8 19 7 20 6 21 5 22
REMARK SMILES IDX 4 23 3 24 2 25 1 26
REMARK H PARENT
REMARK Flexibility Score: inf
ROOT
ATOM      1  C   UNL     1     -15.891 -13.863  16.963  1.00  0.00     0.000 C 
ENDROOT
BRANCH   1   2
ATOM      2  C   UNL     1     -15.021 -12.713  17.499  1.00  0.00     0.000 C 
BRANCH   2   3
ATOM      3  C   UNL     1     -15.301 -12.393  18.978  1.00  0.00     0.000 C 
BRANCH   3   4
ATOM      4  C   UNL     1     -14.017 -12.098  19.775  1.00  0.00     0.000 C 
BRANCH   4   5
ATOM      5  C   UNL     1     -14.213 -11.985  21.299  1.00  0.00     0.000 C 
BRANCH   5   6
ATOM      6  C   UNL     1     -15.597 -12.468  21.761  1.00  0.00     0.000 C 
BRANCH   6   7
ATOM      7  C   UNL     1     -16.231 -11.462  22.735  1.00  0.00     0.000 C 
BRANCH   7   8
ATOM      8  C   UNL     1     -16.954 -10.317  22.009  1.00  0.00     0.000 C 
BRANCH   8   9
ATOM      9  C   UNL     1     -17.814 -10.813  20.833  1.00  0.00     0.000 C 
BRANCH   9  10
ATOM     10  C   UNL     1     -19.316 -10.853  21.170  1.00  0.00     0.006 C 
BRANCH  10  11
ATOM     11  C   UNL     1     -19.646 -10.473  22.623  1.00  0.00     0.053 C 
BRANCH  11  12
ATOM     12  C   UNL     1     -21.028 -10.896  23.015  1.00  0.00     0.041 C 
ATOM     13  O   UNL     1     -21.702 -11.640  22.255  1.00  0.00    -0.550 OA
ATOM     14  O   UNL     1     -21.586 -10.436  24.201  1.00  0.00    -0.550 OA
ENDBRANCH  11  12
ENDBRANCH  10  11
ENDBRANCH   9  10
ENDBRANCH   8   9
ENDBRANCH   7   8
ENDBRANCH   6   7
ENDBRANCH   5   6
ENDBRANCH   4   5
ENDBRANCH   3   4
ENDBRANCH   2   3
ENDBRANCH   1   2
BRANCH   1  15
ATOM     15  C   UNL     1     -16.398 -13.612  15.531  1.00  0.00     0.000 C 
BRANCH  15  16
ATOM     16  C   UNL     1     -15.698 -12.415  14.867  1.00  0.00     0.000 C 
BRANCH  16  17
ATOM     17  C   UNL     1     -14.941 -12.821  13.590  1.00  0.00     0.000 C 
BRANCH  17  18
ATOM     18  C   UNL     1     -14.054 -14.059  13.796  1.00  0.00    -0.000 C 
BRANCH  18  19
ATOM     19  C   UNL     1     -12.761 -13.741  14.568  1.00  0.00    -0.000 C 
BRANCH  19  20
ATOM     20  C   UNL     1     -12.148 -12.388  14.145  1.00  0.00    -0.000 C 
BRANCH  20  21
ATOM     21  C   UNL     1     -10.627 -12.302  14.365  1.00  0.00    -0.000 C 
BRANCH  21  22
ATOM     22  C   UNL     1     -10.223 -12.507  15.832  1.00  0.00    -0.000 C 
BRANCH  22  23
ATOM     23  C   UNL     1      -8.716 -12.777  15.956  1.00  0.00    -0.000 C 
BRANCH  23  24
ATOM     24  C   UNL     1      -7.944 -12.416  14.677  1.00  0.00    -0.000 C 
BRANCH  24  25
ATOM     25  C   UNL     1      -6.928 -11.285  14.898  1.00  0.00    -0.003 C 
ATOM     26  C   UNL     1      -5.842 -11.306  13.825  1.00  0.00     0.004 C 
ENDBRANCH  24  25
ENDBRANCH  23  24
ENDBRANCH  22  23
ENDBRANCH  21  22
ENDBRANCH  20  21
ENDBRANCH  19  20
ENDBRANCH  18  19
ENDBRANCH  17  18
ENDBRANCH  16  17
ENDBRANCH  15  16
ENDBRANCH   1  15
TORSDOF 22
ENDMDL
MODEL 7
REMARK VINA RESULT:    -4.784      1.606      3.188
REMARK INTER + INTRA:         -13.530
REMARK INTER:                 -11.322
REMARK INTRA:                  -2.208
REMARK UNBOUND:                -2.593
REMARK SMILES CCCCCCCCCCCCCCCCCCCCCCCC(=O)[O-]
REMARK SMILES IDX 13 1 14 2 15 3 16 4 17 5 18 6 19 7 20 8 21 9 22 10 23 11
REMARK SMILES IDX 24 12 25 13 26 14 12 15 11 16 10 17 9 18 8 19 7 20 6 21 5 22
REMARK SMILES IDX 4 23 3 24 2 25 1 26
REMARK H PARENT
REMARK Flexibility Score: inf
ROOT
ATOM      1  C   UNL     1     -14.912 -13.156  17.382  1.00  0.00     0.000 C 
ENDROOT
BRANCH   1   2
ATOM      2  C   UNL     1     -16.127 -13.841  16.734  1.00  0.00     0.000 C 
BRANCH   2   3
ATOM      3  C   UNL     1     -16.269 -13.514  15.237  1.00  0.00     0.000 C 
BRANCH   3   4
ATOM      4  C   UNL     1     -14.927 -13.580  14.485  1.00  0.00     0.000 C 
BRANCH   4   5
ATOM      5  C   UNL     1     -14.602 -12.341  13.629  1.00  0.00     0.000 C 
BRANCH   5   6
ATOM      6  C   UNL     1     -13.115 -11.956  13.674  1.00  0.00     0.000 C 
BRANCH   6   7
ATOM      7  C   UNL     1     -12.369 -12.772  14.741  1.00  0.00     0.000 C 
BRANCH   7   8
ATOM      8  C   UNL     1     -11.137 -13.495  14.174  1.00  0.00     0.000 C 
BRANCH   8   9
ATOM      9  C   UNL     1     -10.040 -13.710  15.231  1.00  0.00     0.000 C 
BRANCH   9  10
ATOM     10  C   UNL     1      -9.532 -12.389  15.838  1.00  0.00     0.006 C 
BRANCH  10  11
ATOM     11  C   UNL     1      -8.074 -12.054  15.485  1.00  0.00     0.053 C 
BRANCH  11  12
ATOM     12  C   UNL     1      -7.977 -10.919  14.513  1.00  0.00     0.041 C 
ATOM     13  O   UNL     1      -8.946 -10.648  13.756  1.00  0.00    -0.550 OA
ATOM     14  O   UNL     1      -6.802 -10.184  14.416  1.00  0.00    -0.550 OA
ENDBRANCH  11  12
ENDBRANCH  10  11
ENDBRANCH   9  10
ENDBRANCH   8   9
ENDBRANCH   7   8
ENDBRANCH   6   7
ENDBRANCH   5   6
ENDBRANCH   4   5
ENDBRANCH   3   4
ENDBRANCH   2   3
ENDBRANCH   1   2
BRANCH   1  15
ATOM     15  C   UNL     1     -15.292 -12.289  18.596  1.00  0.00     0.000 C 
BRANCH  15  16
ATOM     16  C   UNL     1     -16.765 -12.466  19.001  1.00  0.00     0.000 C 
BRANCH  16  17
ATOM     17  C   UNL     1     -16.959 -12.406  20.526  1.00  0.00     0.000 C 
BRANCH  17  18
ATOM     18  C   UNL     1     -15.940 -11.485  21.216  1.00  0.00    -0.000 C 
BRANCH  18  19
ATOM     19  C   UNL     1     -16.485 -10.064  21.448  1.00  0.00    -0.000 C 
BRANCH  19  20
ATOM     20  C   UNL     1     -16.160  -9.540  22.864  1.00  0.00    -0.000 C 
BRANCH  20  21
ATOM     21  C   UNL     1     -16.972 -10.223  23.978  1.00  0.00    -0.000 C 
BRANCH  21  22
ATOM     22  C   UNL     1     -18.002  -9.288  24.627  1.00  0.00    -0.000 C 
BRANCH  22  23
ATOM     23  C   UNL     1     -19.433  -9.780  24.372  1.00  0.00    -0.000 C 
BRANCH  23  24
ATOM     24  C   UNL     1     -19.498 -10.873  23.292  1.00  0.00    -0.000 C 
BRANCH  24  25
ATOM     25  C   UNL     1     -20.634 -10.641  22.283  1.00  0.00    -0.003 C 
ATOM     26  C   UNL     1     -20.081 -10.427  20.876  1.00  0.00     0.004 C 
ENDBRANCH  24  25
ENDBRANCH  23  24
ENDBRANCH  22  23
ENDBRANCH  21  22
ENDBRANCH  20  21
ENDBRANCH  19  20
ENDBRANCH  18  19
ENDBRANCH  17  18
ENDBRANCH  16  17
ENDBRANCH  15  16
ENDBRANCH   1  15
TORSDOF 22
ENDMDL
MODEL 8
REMARK VINA RESULT:    -4.729      3.017      8.053
REMARK INTER + INTRA:         -13.404
REMARK INTER:                 -11.167
REMARK INTRA:                  -2.237
REMARK UNBOUND:                -2.593
REMARK SMILES CCCCCCCCCCCCCCCCCCCCCCCC(=O)[O-]
REMARK SMILES IDX 13 1 14 2 15 3 16 4 17 5 18 6 19 7 20 8 21 9 22 10 23 11
REMARK SMILES IDX 24 12 25 13 26 14 12 15 11 16 10 17 9 18 8 19 7 20 6 21 5 22
REMARK SMILES IDX 4 23 3 24 2 25 1 26
REMARK H PARENT
REMARK Flexibility Score: inf
ROOT
ATOM      1  C   UNL     1     -14.928 -13.412  17.098  1.00  0.00     0.000 C 
ENDROOT
BRANCH   1   2
ATOM      2  C   UNL     1     -15.363 -12.415  18.185  1.00  0.00     0.000 C 
BRANCH   2   3
ATOM      3  C   UNL     1     -16.742 -12.748  18.781  1.00  0.00     0.000 C 
BRANCH   3   4
ATOM      4  C   UNL     1     -16.825 -12.454  20.291  1.00  0.00     0.000 C 
BRANCH   4   5
ATOM      5  C   UNL     1     -17.907 -11.434  20.694  1.00  0.00     0.000 C 
BRANCH   5   6
ATOM      6  C   UNL     1     -17.319 -10.110  21.207  1.00  0.00     0.000 C 
BRANCH   6   7
ATOM      7  C   UNL     1     -16.369 -10.354  22.391  1.00  0.00     0.000 C 
BRANCH   7   8
ATOM      8  C   UNL     1     -15.063  -9.554  22.271  1.00  0.00     0.000 C 
BRANCH   8   9
ATOM      9  C   UNL     1     -14.179 -10.038  21.108  1.00  0.00     0.000 C 
BRANCH   9  10
ATOM     10  C   UNL     1     -12.936 -10.811  21.588  1.00  0.00     0.006 C 
BRANCH  10  11
ATOM     11  C   UNL     1     -13.235 -12.234  22.088  1.00  0.00     0.053 C 
BRANCH  11  12
ATOM     12  C   UNL     1     -12.697 -12.469  23.466  1.00  0.00     0.041 C 
ATOM     13  O   UNL     1     -13.192 -11.862  24.452  1.00  0.00    -0.550 OA
ATOM     14  O   UNL     1     -11.622 -13.328  23.656  1.00  0.00    -0.550 OA
ENDBRANCH  11  12
ENDBRANCH  10  11
ENDBRANCH   9  10
ENDBRANCH   8   9
ENDBRANCH   7   8
ENDBRANCH   6   7
ENDBRANCH   5   6
ENDBRANCH   4   5
ENDBRANCH   3   4
ENDBRANCH   2   3
ENDBRANCH   1   2
BRANCH   1  15
ATOM     15  C   UNL     1     -15.938 -13.514  15.941  1.00  0.00     0.000 C 
BRANCH  15  16
ATOM     16  C   UNL     1     -15.729 -12.414  14.887  1.00  0.00     0.000 C 
BRANCH  16  17
ATOM     17  C   UNL     1     -15.264 -12.985  13.536  1.00  0.00     0.000 C 
BRANCH  17  18
ATOM     18  C   UNL     1     -14.107 -12.183  12.921  1.00  0.00    -0.000 C 
BRANCH  18  19
ATOM     19  C   UNL     1     -13.094 -11.697  13.974  1.00  0.00    -0.000 C 
BRANCH  19  20
ATOM     20  C   UNL     1     -11.909 -12.674  14.136  1.00  0.00    -0.000 C 
BRANCH  20  21
ATOM     21  C   UNL     1     -11.538 -12.959  15.602  1.00  0.00    -0.000 C 
BRANCH  21  22
ATOM     22  C   UNL     1     -10.110 -12.518  15.954  1.00  0.00    -0.000 C 
BRANCH  22  23
ATOM     23  C   UNL     1      -9.177 -12.652  14.742  1.00  0.00    -0.000 C 
BRANCH  23  24
ATOM     24  C   UNL     1      -8.483 -11.328  14.383  1.00  0.00    -0.000 C 
BRANCH  24  25
ATOM     25  C   UNL     1      -7.054 -11.239  14.941  1.00  0.00    -0.003 C 
ATOM     26  C   UNL     1      -6.020 -11.432  13.835  1.00  0.00     0.004 C 
ENDBRANCH  24  25
ENDBRANCH  23  24
ENDBRANCH  22  23
ENDBRANCH  21  22
ENDBRANCH  20  21
ENDBRANCH  19  20
ENDBRANCH  18  19
ENDBRANCH  17  18
ENDBRANCH  16  17
ENDBRANCH  15  16
ENDBRANCH   1  15
TORSDOF 22
ENDMDL
MODEL 9
REMARK VINA RESULT:    -4.726      1.654      3.084
REMARK INTER + INTRA:         -13.398
REMARK INTER:                 -10.975
REMARK INTRA:                  -2.422
REMARK UNBOUND:                -2.593
REMARK SMILES CCCCCCCCCCCCCCCCCCCCCCCC(=O)[O-]
REMARK SMILES IDX 13 1 14 2 15 3 16 4 17 5 18 6 19 7 20 8 21 9 22 10 23 11
REMARK SMILES IDX 24 12 25 13 26 14 12 15 11 16 10 17 9 18 8 19 7 20 6 21 5 22
REMARK SMILES IDX 4 23 3 24 2 25 1 26
REMARK H PARENT
REMARK Flexibility Score: inf
ROOT
ATOM      1  C   UNL     1     -16.885 -12.438  19.376  1.00  0.00     0.000 C 
ENDROOT
BRANCH   1   2
ATOM      2  C   UNL     1     -15.504 -12.009  18.852  1.00  0.00     0.000 C 
BRANCH   2   3
ATOM      3  C   UNL     1     -15.022 -12.868  17.670  1.00  0.00     0.000 C 
BRANCH   3   4
ATOM      4  C   UNL     1     -16.123 -13.793  17.118  1.00  0.00     0.000 C 
BRANCH   4   5
ATOM      5  C   UNL     1     -16.539 -13.508  15.662  1.00  0.00     0.000 C 
BRANCH   5   6
ATOM      6  C   UNL     1     -15.446 -12.786  14.859  1.00  0.00     0.000 C 
BRANCH   6   7
ATOM      7  C   UNL     1     -14.733 -13.758  13.905  1.00  0.00     0.000 C 
BRANCH   7   8
ATOM      8  C   UNL     1     -13.225 -13.482  13.803  1.00  0.00     0.000 C 
BRANCH   8   9
ATOM      9  C   UNL     1     -12.480 -13.779  15.117  1.00  0.00     0.000 C 
BRANCH   9  10
ATOM     10  C   UNL     1     -11.020 -14.210  14.888  1.00  0.00     0.006 C 
BRANCH  10  11
ATOM     11  C   UNL     1     -10.208 -13.241  14.013  1.00  0.00     0.053 C 
BRANCH  11  12
ATOM     12  C   UNL     1      -9.536 -12.178  14.826  1.00  0.00     0.041 C 
ATOM     13  O   UNL     1      -9.235 -12.396  16.029  1.00  0.00    -0.550 OA
ATOM     14  O   UNL     1      -9.278 -10.933  14.266  1.00  0.00    -0.550 OA
ENDBRANCH  11  12
ENDBRANCH  10  11
ENDBRANCH   9  10
ENDBRANCH   8   9
ENDBRANCH   7   8
ENDBRANCH   6   7
ENDBRANCH   5   6
ENDBRANCH   4   5
ENDBRANCH   3   4
ENDBRANCH   2   3
ENDBRANCH   1   2
BRANCH   1  15
ATOM     15  C   UNL     1     -17.148 -11.972  20.819  1.00  0.00     0.000 C 
BRANCH  15  16
ATOM     16  C   UNL     1     -17.985 -10.683  20.871  1.00  0.00     0.000 C 
BRANCH  16  17
ATOM     17  C   UNL     1     -19.468 -10.941  20.555  1.00  0.00     0.000 C 
BRANCH  17  18
ATOM     18  C   UNL     1     -20.415 -10.220  21.527  1.00  0.00    -0.000 C 
BRANCH  18  19
ATOM     19  C   UNL     1     -20.663 -11.020  22.819  1.00  0.00    -0.000 C 
BRANCH  19  20
ATOM     20  C   UNL     1     -20.480 -10.155  24.085  1.00  0.00    -0.000 C 
BRANCH  20  21
ATOM     21  C   UNL     1     -19.021  -9.741  24.346  1.00  0.00    -0.000 C 
BRANCH  21  22
ATOM     22  C   UNL     1     -18.097 -10.939  24.601  1.00  0.00    -0.000 C 
BRANCH  22  23
ATOM     23  C   UNL     1     -16.663 -10.477  24.899  1.00  0.00    -0.000 C 
BRANCH  23  24
ATOM     24  C   UNL     1     -15.628 -11.125  23.965  1.00  0.00    -0.000 C 
BRANCH  24  25
ATOM     25  C   UNL     1     -14.936 -10.103  23.050  1.00  0.00    -0.003 C 
ATOM     26  C   UNL     1     -15.576  -8.724  23.186  1.00  0.00     0.004 C 
ENDBRANCH  24  25
ENDBRANCH  23  24
ENDBRANCH  22  23
ENDBRANCH  21  22
ENDBRANCH  20  21
ENDBRANCH  19  20
ENDBRANCH  18  19
ENDBRANCH  17  18
ENDBRANCH  16  17
ENDBRANCH  15  16
ENDBRANCH   1  15
TORSDOF 22
ENDMDL
