MODEL 1
REMARK VINA RESULT:    -4.999      0.000      0.000
REMARK INTER + INTRA:         -17.267
REMARK INTER:                 -12.597
REMARK INTRA:                  -4.670
REMARK UNBOUND:                -4.670
REMARK SMILES CCCCCCCCCCCCCCCCCCCCCCCCCCCC(=O)[O-]
REMARK SMILES IDX 15 1 16 2 17 3 18 4 19 5 20 6 21 7 22 8 23 9 24 10 25 11
REMARK SMILES IDX 26 12 27 13 28 14 29 15 30 16 14 17 13 18 12 19 11 20 10 21
REMARK SMILES IDX 9 22 8 23 7 24 6 25 5 26 4 27 3 28 2 29 1 30
REMARK H PARENT
REMARK Flexibility Score: inf
ROOT
ATOM      1  C   UNL     1     -17.550 -11.372  -0.713  1.00  0.00     0.000 C 
ENDROOT
BRANCH   1   2
ATOM      2  C   UNL     1     -18.362 -12.602  -0.282  1.00  0.00     0.000 C 
BRANCH   2   3
ATOM      3  C   UNL     1     -19.805 -12.518  -0.801  1.00  0.00     0.000 C 
BRANCH   3   4
ATOM      4  C   UNL     1     -20.141 -13.638  -1.800  1.00  0.00     0.000 C 
BRANCH   4   5
ATOM      5  C   UNL     1     -19.090 -13.860  -2.908  1.00  0.00     0.000 C 
BRANCH   5   6
ATOM      6  C   UNL     1     -18.206 -15.108  -2.727  1.00  0.00     0.000 C 
BRANCH   6   7
ATOM      7  C   UNL     1     -16.711 -14.810  -2.919  1.00  0.00     0.000 C 
BRANCH   7   8
ATOM      8  C   UNL     1     -16.495 -13.404  -3.493  1.00  0.00     0.000 C 
BRANCH   8   9
ATOM      9  C   UNL     1     -15.204 -12.782  -2.937  1.00  0.00     0.000 C 
BRANCH   9  10
ATOM     10  C   UNL     1     -14.144 -13.833  -2.575  1.00  0.00     0.000 C 
BRANCH  10  11
ATOM     11  C   UNL     1     -13.726 -13.768  -1.094  1.00  0.00     0.000 C 
BRANCH  11  12
ATOM     12  C   UNL     1     -14.512 -12.709  -0.305  1.00  0.00     0.006 C 
BRANCH  12  13
ATOM     13  C   UNL     1     -14.480 -12.954   1.209  1.00  0.00     0.053 C 
BRANCH  13  14
ATOM     14  C   UNL     1     -15.479 -14.002   1.589  1.00  0.00     0.041 C 
ATOM     15  O   UNL     1     -15.579 -14.375   2.787  1.00  0.00    -0.550 OA
ATOM     16  O   UNL     1     -16.269 -14.598   0.614  1.00  0.00    -0.550 OA
ENDBRANCH  13  14
ENDBRANCH  12  13
ENDBRANCH  11  12
ENDBRANCH  10  11
ENDBRANCH   9  10
ENDBRANCH   8   9
ENDBRANCH   7   8
ENDBRANCH   6   7
ENDBRANCH   5   6
ENDBRANCH   4   5
ENDBRANCH   3   4
ENDBRANCH   2   3
ENDBRANCH   1   2
BRANCH   1  17
ATOM     17  C   UNL     1     -18.301 -10.502  -1.735  1.00  0.00     0.000 C 
BRANCH  17  18
ATOM     18  C   UNL     1     -18.483  -9.055  -1.251  1.00  0.00     0.000 C 
BRANCH  18  19
ATOM     19  C   UNL     1     -19.321  -9.009   0.035  1.00  0.00     0.000 C 
BRANCH  19  20
ATOM     20  C   UNL     1     -18.562  -8.382   1.219  1.00  0.00     0.000 C 
BRANCH  20  21
ATOM     21  C   UNL     1     -17.788  -7.091   0.885  1.00  0.00     0.000 C 
BRANCH  21  22
ATOM     22  C   UNL     1     -16.254  -7.211   0.949  1.00  0.00    -0.000 C 
BRANCH  22  23
ATOM     23  C   UNL     1     -15.731  -8.590   1.390  1.00  0.00    -0.000 C 
BRANCH  23  24
ATOM     24  C   UNL     1     -14.808  -9.237   0.344  1.00  0.00    -0.000 C 
BRANCH  24  25
ATOM     25  C   UNL     1     -14.945  -8.595  -1.048  1.00  0.00    -0.000 C 
BRANCH  25  26
ATOM     26  C   UNL     1     -13.755  -8.845  -1.996  1.00  0.00    -0.000 C 
BRANCH  26  27
ATOM     27  C   UNL     1     -14.131  -9.120  -3.465  1.00  0.00    -0.000 C 
BRANCH  27  28
ATOM     28  C   UNL     1     -15.642  -9.235  -3.738  1.00  0.00    -0.000 C 
BRANCH  28  29
ATOM     29  C   UNL     1     -16.310  -7.871  -3.968  1.00  0.00    -0.003 C 
ATOM     30  C   UNL     1     -16.952  -7.801  -5.350  1.00  0.00     0.004 C 
ENDBRANCH  28  29
ENDBRANCH  27  28
ENDBRANCH  26  27
ENDBRANCH  25  26
ENDBRANCH  24  25
ENDBRANCH  23  24
ENDBRANCH  22  23
ENDBRANCH  21  22
ENDBRANCH  20  21
ENDBRANCH  19  20
ENDBRANCH  18  19
ENDBRANCH  17  18
ENDBRANCH   1  17
TORSDOF 26
ENDMDL
MODEL 2
REMARK VINA RESULT:    -4.660      2.380      6.715
REMARK INTER + INTRA:         -16.414
REMARK INTER:                 -11.863
REMARK INTRA:                  -4.551
REMARK UNBOUND:                -4.670
REMARK SMILES CCCCCCCCCCCCCCCCCCCCCCCCCCCC(=O)[O-]
REMARK SMILES IDX 15 1 16 2 17 3 18 4 19 5 20 6 21 7 22 8 23 9 24 10 25 11
REMARK SMILES IDX 26 12 27 13 28 14 29 15 30 16 14 17 13 18 12 19 11 20 10 21
REMARK SMILES IDX 9 22 8 23 7 24 6 25 5 26 4 27 3 28 2 29 1 30
REMARK H PARENT
REMARK Flexibility Score: inf
ROOT
ATOM      1  C   UNL     1     -18.592 -12.635  -0.253  1.00  0.00     0.000 C 
ENDROOT
BRANCH   1   2
ATOM      2  C   UNL     1     -17.888 -11.374  -0.773  1.00  0.00     0.000 C 
BRANCH   2   3
ATOM      3  C   UNL     1     -18.907 -10.356  -1.308  1.00  0.00     0.000 C 
BRANCH   3   4
ATOM      4  C   UNL     1     -19.118  -9.170  -0.351  1.00  0.00     0.000 C 
BRANCH   4   5
ATOM      5  C   UNL     1     -18.147  -9.119   0.847  1.00  0.00     0.000 C 
BRANCH   5   6
ATOM      6  C   UNL     1     -17.782  -7.703   1.329  1.00  0.00     0.000 C 
BRANCH   6   7
ATOM      7  C   UNL     1     -16.444  -7.208   0.758  1.00  0.00     0.000 C 
BRANCH   7   8
ATOM      8  C   UNL     1     -15.706  -8.331   0.019  1.00  0.00     0.000 C 
BRANCH   8   9
ATOM      9  C   UNL     1     -14.593  -7.758  -0.872  1.00  0.00     0.000 C 
BRANCH   9  10
ATOM     10  C   UNL     1     -14.050  -8.782  -1.880  1.00  0.00     0.000 C 
BRANCH  10  11
ATOM     11  C   UNL     1     -14.857 -10.093  -1.888  1.00  0.00     0.000 C 
BRANCH  11  12
ATOM     12  C   UNL     1     -15.467 -10.402  -3.265  1.00  0.00     0.006 C 
BRANCH  12  13
ATOM     13  C   UNL     1     -15.281  -9.254  -4.265  1.00  0.00     0.053 C 
BRANCH  13  14
ATOM     14  C   UNL     1     -16.514  -8.408  -4.323  1.00  0.00     0.041 C 
ATOM     15  O   UNL     1     -16.872  -7.883  -5.410  1.00  0.00    -0.550 OA
ATOM     16  O   UNL     1     -17.245  -8.161  -3.167  1.00  0.00    -0.550 OA
ENDBRANCH  13  14
ENDBRANCH  12  13
ENDBRANCH  11  12
ENDBRANCH  10  11
ENDBRANCH   9  10
ENDBRANCH   8   9
ENDBRANCH   7   8
ENDBRANCH   6   7
ENDBRANCH   5   6
ENDBRANCH   4   5
ENDBRANCH   3   4
ENDBRANCH   2   3
ENDBRANCH   1   2
BRANCH   1  17
ATOM     17  C   UNL     1     -19.906 -12.923  -0.998  1.00  0.00     0.000 C 
BRANCH  17  18
ATOM     18  C   UNL     1     -19.750 -14.024  -2.058  1.00  0.00     0.000 C 
BRANCH  18  19
ATOM     19  C   UNL     1     -19.065 -13.478  -3.319  1.00  0.00     0.000 C 
BRANCH  19  20
ATOM     20  C   UNL     1     -17.749 -14.207  -3.647  1.00  0.00     0.000 C 
BRANCH  20  21
ATOM     21  C   UNL     1     -17.337 -15.293  -2.632  1.00  0.00     0.000 C 
BRANCH  21  22
ATOM     22  C   UNL     1     -16.111 -14.947  -1.765  1.00  0.00    -0.000 C 
BRANCH  22  23
ATOM     23  C   UNL     1     -15.322 -13.708  -2.225  1.00  0.00    -0.000 C 
BRANCH  23  24
ATOM     24  C   UNL     1     -13.845 -13.752  -1.799  1.00  0.00    -0.000 C 
BRANCH  24  25
ATOM     25  C   UNL     1     -13.663 -13.649  -0.275  1.00  0.00    -0.000 C 
BRANCH  25  26
ATOM     26  C   UNL     1     -14.457 -12.511   0.397  1.00  0.00    -0.000 C 
BRANCH  26  27
ATOM     27  C   UNL     1     -15.304 -12.930   1.615  1.00  0.00    -0.000 C 
BRANCH  27  28
ATOM     28  C   UNL     1     -15.625 -14.433   1.695  1.00  0.00    -0.000 C 
BRANCH  28  29
ATOM     29  C   UNL     1     -15.935 -14.899   3.126  1.00  0.00    -0.003 C 
ATOM     30  C   UNL     1     -15.166 -16.171   3.468  1.00  0.00     0.004 C 
ENDBRANCH  28  29
ENDBRANCH  27  28
ENDBRANCH  26  27
ENDBRANCH  25  26
ENDBRANCH  24  25
ENDBRANCH  23  24
ENDBRANCH  22  23
ENDBRANCH  21  22
ENDBRANCH  20  21
ENDBRANCH  19  20
ENDBRANCH  18  19
ENDBRANCH  17  18
ENDBRANCH   1  17
TORSDOF 26
ENDMDL
MODEL 3
REMARK VINA RESULT:    -4.543      2.541      5.850
REMARK INTER + INTRA:         -16.119
REMARK INTER:                 -12.464
REMARK INTRA:                  -3.655
REMARK UNBOUND:                -4.670
REMARK SMILES CCCCCCCCCCCCCCCCCCCCCCCCCCCC(=O)[O-]
REMARK SMILES IDX 15 1 16 2 17 3 18 4 19 5 20 6 21 7 22 8 23 9 24 10 25 11
REMARK SMILES IDX 26 12 27 13 28 14 29 15 30 16 14 17 13 18 12 19 11 20 10 21
REMARK SMILES IDX 9 22 8 23 7 24 6 25 5 26 4 27 3 28 2 29 1 30
REMARK H PARENT
REMARK Flexibility Score: inf
ROOT
ATOM      1  C   UNL     1     -19.578 -14.140  -2.963  1.00  0.00     0.000 C 
ENDROOT
BRANCH   1   2
ATOM      2  C   UNL     1     -20.076 -13.697  -1.580  1.00  0.00     0.000 C 
BRANCH   2   3
ATOM      3  C   UNL     1     -19.005 -12.876  -0.847  1.00  0.00     0.000 C 
BRANCH   3   4
ATOM      4  C   UNL     1     -19.560 -11.567  -0.259  1.00  0.00     0.000 C 
BRANCH   4   5
ATOM      5  C   UNL     1     -19.251 -10.300  -1.085  1.00  0.00     0.000 C 
BRANCH   5   6
ATOM      6  C   UNL     1     -19.219  -8.989  -0.278  1.00  0.00     0.000 C 
BRANCH   6   7
ATOM      7  C   UNL     1     -18.170  -9.009   0.845  1.00  0.00     0.000 C 
BRANCH   7   8
ATOM      8  C   UNL     1     -17.902  -7.597   1.379  1.00  0.00     0.000 C 
BRANCH   8   9
ATOM      9  C   UNL     1     -16.470  -7.151   1.047  1.00  0.00     0.000 C 
BRANCH   9  10
ATOM     10  C   UNL     1     -15.602  -8.295   0.501  1.00  0.00     0.000 C 
BRANCH  10  11
ATOM     11  C   UNL     1     -15.020  -7.986  -0.891  1.00  0.00     0.000 C 
BRANCH  11  12
ATOM     12  C   UNL     1     -16.024  -7.261  -1.802  1.00  0.00     0.006 C 
BRANCH  12  13
ATOM     13  C   UNL     1     -16.796  -8.221  -2.715  1.00  0.00     0.053 C 
BRANCH  13  14
ATOM     14  C   UNL     1     -16.142  -8.303  -4.059  1.00  0.00     0.041 C 
ATOM     15  O   UNL     1     -14.943  -8.672  -4.158  1.00  0.00    -0.550 OA
ATOM     16  O   UNL     1     -16.843  -7.928  -5.199  1.00  0.00    -0.550 OA
ENDBRANCH  13  14
ENDBRANCH  12  13
ENDBRANCH  11  12
ENDBRANCH  10  11
ENDBRANCH   9  10
ENDBRANCH   8   9
ENDBRANCH   7   8
ENDBRANCH   6   7
ENDBRANCH   5   6
ENDBRANCH   4   5
ENDBRANCH   3   4
ENDBRANCH   2   3
ENDBRANCH   1   2
BRANCH   1  17
ATOM     17  C   UNL     1     -18.082 -13.852  -3.168  1.00  0.00     0.000 C 
BRANCH  17  18
ATOM     18  C   UNL     1     -17.249 -15.137  -3.291  1.00  0.00     0.000 C 
BRANCH  18  19
ATOM     19  C   UNL     1     -16.867 -15.677  -1.906  1.00  0.00     0.000 C 
BRANCH  19  20
ATOM     20  C   UNL     1     -15.917 -14.738  -1.139  1.00  0.00     0.000 C 
BRANCH  20  21
ATOM     21  C   UNL     1     -16.384 -14.358   0.281  1.00  0.00     0.000 C 
BRANCH  21  22
ATOM     22  C   UNL     1     -15.268 -13.893   1.235  1.00  0.00    -0.000 C 
BRANCH  22  23
ATOM     23  C   UNL     1     -14.529 -12.617   0.793  1.00  0.00    -0.000 C 
BRANCH  23  24
ATOM     24  C   UNL     1     -15.463 -11.589   0.133  1.00  0.00    -0.000 C 
BRANCH  24  25
ATOM     25  C   UNL     1     -15.020 -11.211  -1.291  1.00  0.00    -0.000 C 
BRANCH  25  26
ATOM     26  C   UNL     1     -15.982 -11.660  -2.409  1.00  0.00    -0.000 C 
BRANCH  26  27
ATOM     27  C   UNL     1     -15.366 -11.727  -3.820  1.00  0.00    -0.000 C 
BRANCH  27  28
ATOM     28  C   UNL     1     -14.648 -13.048  -4.152  1.00  0.00    -0.000 C 
BRANCH  28  29
ATOM     29  C   UNL     1     -13.906 -12.999  -5.496  1.00  0.00    -0.003 C 
ATOM     30  C   UNL     1     -14.882 -12.836  -6.657  1.00  0.00     0.004 C 
ENDBRANCH  28  29
ENDBRANCH  27  28
ENDBRANCH  26  27
ENDBRANCH  25  26
ENDBRANCH  24  25
ENDBRANCH  23  24
ENDBRANCH  22  23
ENDBRANCH  21  22
ENDBRANCH  20  21
ENDBRANCH  19  20
ENDBRANCH  18  19
ENDBRANCH  17  18
ENDBRANCH   1  17
TORSDOF 26
ENDMDL
MODEL 4
REMARK VINA RESULT:    -4.492      3.825      6.494
REMARK INTER + INTRA:         -15.989
REMARK INTER:                 -11.958
REMARK INTRA:                  -4.031
REMARK UNBOUND:                -4.670
REMARK SMILES CCCCCCCCCCCCCCCCCCCCCCCCCCCC(=O)[O-]
REMARK SMILES IDX 15 1 16 2 17 3 18 4 19 5 20 6 21 7 22 8 23 9 24 10 25 11
REMARK SMILES IDX 26 12 27 13 28 14 29 15 30 16 14 17 13 18 12 19 11 20 10 21
REMARK SMILES IDX 9 22 8 23 7 24 6 25 5 26 4 27 3 28 2 29 1 30
REMARK H PARENT
REMARK Flexibility Score: inf
ROOT
ATOM      1  C   UNL     1     -18.954 -11.647  -0.358  1.00  0.00     0.000 C 
ENDROOT
BRANCH   1   2
ATOM      2  C   UNL     1     -19.390 -10.462  -1.231  1.00  0.00     0.000 C 
BRANCH   2   3
ATOM      3  C   UNL     1     -18.959  -9.129  -0.603  1.00  0.00     0.000 C 
BRANCH   3   4
ATOM      4  C   UNL     1     -18.038  -9.317   0.615  1.00  0.00     0.000 C 
BRANCH   4   5
ATOM      5  C   UNL     1     -17.507  -8.010   1.239  1.00  0.00     0.000 C 
BRANCH   5   6
ATOM      6  C   UNL     1     -16.386  -7.317   0.442  1.00  0.00     0.000 C 
BRANCH   6   7
ATOM      7  C   UNL     1     -15.227  -8.266   0.100  1.00  0.00     0.000 C 
BRANCH   7   8
ATOM      8  C   UNL     1     -14.454  -7.778  -1.131  1.00  0.00     0.000 C 
BRANCH   8   9
ATOM      9  C   UNL     1     -13.301  -8.737  -1.466  1.00  0.00     0.000 C 
BRANCH   9  10
ATOM     10  C   UNL     1     -12.141  -8.043  -2.195  1.00  0.00     0.000 C 
BRANCH  10  11
ATOM     11  C   UNL     1     -10.823  -8.096  -1.400  1.00  0.00     0.000 C 
BRANCH  11  12
ATOM     12  C   UNL     1      -9.633  -7.532  -2.192  1.00  0.00     0.006 C 
BRANCH  12  13
ATOM     13  C   UNL     1      -8.583  -8.600  -2.522  1.00  0.00     0.053 C 
BRANCH  13  14
ATOM     14  C   UNL     1      -7.252  -7.963  -2.776  1.00  0.00     0.041 C 
ATOM     15  O   UNL     1      -7.188  -6.804  -3.262  1.00  0.00    -0.550 OA
ATOM     16  O   UNL     1      -6.082  -8.667  -2.515  1.00  0.00    -0.550 OA
ENDBRANCH  13  14
ENDBRANCH  12  13
ENDBRANCH  11  12
ENDBRANCH  10  11
ENDBRANCH   9  10
ENDBRANCH   8   9
ENDBRANCH   7   8
ENDBRANCH   6   7
ENDBRANCH   5   6
ENDBRANCH   4   5
ENDBRANCH   3   4
ENDBRANCH   2   3
ENDBRANCH   1   2
BRANCH   1  17
ATOM     17  C   UNL     1     -19.199 -13.002  -1.043  1.00  0.00     0.000 C 
BRANCH  17  18
ATOM     18  C   UNL     1     -18.951 -12.946  -2.558  1.00  0.00     0.000 C 
BRANCH  18  19
ATOM     19  C   UNL     1     -18.734 -14.354  -3.131  1.00  0.00     0.000 C 
BRANCH  19  20
ATOM     20  C   UNL     1     -17.246 -14.741  -3.217  1.00  0.00     0.000 C 
BRANCH  20  21
ATOM     21  C   UNL     1     -16.662 -15.364  -1.933  1.00  0.00     0.000 C 
BRANCH  21  22
ATOM     22  C   UNL     1     -15.512 -14.570  -1.284  1.00  0.00    -0.000 C 
BRANCH  22  23
ATOM     23  C   UNL     1     -15.818 -14.023   0.122  1.00  0.00    -0.000 C 
BRANCH  23  24
ATOM     24  C   UNL     1     -15.401 -12.553   0.290  1.00  0.00    -0.000 C 
BRANCH  24  25
ATOM     25  C   UNL     1     -14.879 -11.929  -1.017  1.00  0.00    -0.000 C 
BRANCH  25  26
ATOM     26  C   UNL     1     -15.885 -11.014  -1.744  1.00  0.00    -0.000 C 
BRANCH  26  27
ATOM     27  C   UNL     1     -15.810 -11.045  -3.283  1.00  0.00    -0.000 C 
BRANCH  27  28
ATOM     28  C   UNL     1     -15.447  -9.702  -3.942  1.00  0.00    -0.000 C 
BRANCH  28  29
ATOM     29  C   UNL     1     -16.546  -8.642  -3.773  1.00  0.00    -0.003 C 
ATOM     30  C   UNL     1     -16.727  -7.831  -5.053  1.00  0.00     0.004 C 
ENDBRANCH  28  29
ENDBRANCH  27  28
ENDBRANCH  26  27
ENDBRANCH  25  26
ENDBRANCH  24  25
ENDBRANCH  23  24
ENDBRANCH  22  23
ENDBRANCH  21  22
ENDBRANCH  20  21
ENDBRANCH  19  20
ENDBRANCH  18  19
ENDBRANCH  17  18
ENDBRANCH   1  17
TORSDOF 26
ENDMDL
MODEL 5
REMARK VINA RESULT:    -4.201      2.302      6.762
REMARK INTER + INTRA:         -15.255
REMARK INTER:                 -10.850
REMARK INTRA:                  -4.406
REMARK UNBOUND:                -4.670
REMARK SMILES CCCCCCCCCCCCCCCCCCCCCCCCCCCC(=O)[O-]
REMARK SMILES IDX 15 1 16 2 17 3 18 4 19 5 20 6 21 7 22 8 23 9 24 10 25 11
REMARK SMILES IDX 26 12 27 13 28 14 29 15 30 16 14 17 13 18 12 19 11 20 10 21
REMARK SMILES IDX 9 22 8 23 7 24 6 25 5 26 4 27 3 28 2 29 1 30
REMARK H PARENT
REMARK Flexibility Score: inf
ROOT
ATOM      1  C   UNL     1     -14.980 -10.845  -3.851  1.00  0.00     0.000 C 
ENDROOT
BRANCH   1   2
ATOM      2  C   UNL     1     -15.187  -9.472  -4.507  1.00  0.00     0.000 C 
BRANCH   2   3
ATOM      3  C   UNL     1     -16.476  -8.810  -4.000  1.00  0.00     0.000 C 
BRANCH   3   4
ATOM      4  C   UNL     1     -17.172  -9.631  -2.900  1.00  0.00     0.000 C 
BRANCH   4   5
ATOM      5  C   UNL     1     -17.872  -8.795  -1.808  1.00  0.00     0.000 C 
BRANCH   5   6
ATOM      6  C   UNL     1     -19.015  -9.516  -1.070  1.00  0.00     0.000 C 
BRANCH   6   7
ATOM      7  C   UNL     1     -19.603  -8.679   0.077  1.00  0.00     0.000 C 
BRANCH   7   8
ATOM      8  C   UNL     1     -18.630  -8.597   1.260  1.00  0.00     0.000 C 
BRANCH   8   9
ATOM      9  C   UNL     1     -17.905  -7.242   1.275  1.00  0.00     0.000 C 
BRANCH   9  10
ATOM     10  C   UNL     1     -16.380  -7.380   1.147  1.00  0.00     0.000 C 
BRANCH  10  11
ATOM     11  C   UNL     1     -15.914  -8.848   1.158  1.00  0.00     0.000 C 
BRANCH  11  12
ATOM     12  C   UNL     1     -14.433  -8.999   0.776  1.00  0.00     0.006 C 
BRANCH  12  13
ATOM     13  C   UNL     1     -14.240  -9.448  -0.678  1.00  0.00     0.053 C 
BRANCH  13  14
ATOM     14  C   UNL     1     -13.779  -8.301  -1.521  1.00  0.00     0.041 C 
ATOM     15  O   UNL     1     -12.629  -8.313  -2.033  1.00  0.00    -0.550 OA
ATOM     16  O   UNL     1     -14.603  -7.197  -1.707  1.00  0.00    -0.550 OA
ENDBRANCH  13  14
ENDBRANCH  12  13
ENDBRANCH  11  12
ENDBRANCH  10  11
ENDBRANCH   9  10
ENDBRANCH   8   9
ENDBRANCH   7   8
ENDBRANCH   6   7
ENDBRANCH   5   6
ENDBRANCH   4   5
ENDBRANCH   3   4
ENDBRANCH   2   3
ENDBRANCH   1   2
BRANCH   1  17
ATOM     17  C   UNL     1     -14.633 -11.938  -4.876  1.00  0.00     0.000 C 
BRANCH  17  18
ATOM     18  C   UNL     1     -14.745 -13.352  -4.286  1.00  0.00     0.000 C 
BRANCH  18  19
ATOM     19  C   UNL     1     -15.308 -13.307  -2.858  1.00  0.00     0.000 C 
BRANCH  19  20
ATOM     20  C   UNL     1     -15.831 -14.674  -2.379  1.00  0.00     0.000 C 
BRANCH  20  21
ATOM     21  C   UNL     1     -17.210 -15.075  -2.941  1.00  0.00     0.000 C 
BRANCH  21  22
ATOM     22  C   UNL     1     -18.105 -13.901  -3.381  1.00  0.00    -0.000 C 
BRANCH  22  23
ATOM     23  C   UNL     1     -19.587 -14.035  -2.986  1.00  0.00    -0.000 C 
BRANCH  23  24
ATOM     24  C   UNL     1     -19.850 -13.636  -1.525  1.00  0.00    -0.000 C 
BRANCH  24  25
ATOM     25  C   UNL     1     -18.947 -12.483  -1.052  1.00  0.00    -0.000 C 
BRANCH  25  26
ATOM     26  C   UNL     1     -17.954 -12.855   0.067  1.00  0.00    -0.000 C 
BRANCH  26  27
ATOM     27  C   UNL     1     -16.689 -11.977   0.143  1.00  0.00    -0.000 C 
BRANCH  27  28
ATOM     28  C   UNL     1     -15.459 -12.665   0.762  1.00  0.00    -0.000 C 
BRANCH  28  29
ATOM     29  C   UNL     1     -15.711 -14.142   1.099  1.00  0.00    -0.003 C 
ATOM     30  C   UNL     1     -15.624 -14.385   2.603  1.00  0.00     0.004 C 
ENDBRANCH  28  29
ENDBRANCH  27  28
ENDBRANCH  26  27
ENDBRANCH  25  26
ENDBRANCH  24  25
ENDBRANCH  23  24
ENDBRANCH  22  23
ENDBRANCH  21  22
ENDBRANCH  20  21
ENDBRANCH  19  20
ENDBRANCH  18  19
ENDBRANCH  17  18
ENDBRANCH   1  17
TORSDOF 26
ENDMDL
MODEL 6
REMARK VINA RESULT:    -4.165      2.347      6.644
REMARK INTER + INTRA:         -15.166
REMARK INTER:                 -11.889
REMARK INTRA:                  -3.277
REMARK UNBOUND:                -4.670
REMARK SMILES CCCCCCCCCCCCCCCCCCCCCCCCCCCC(=O)[O-]
REMARK SMILES IDX 15 1 16 2 17 3 18 4 19 5 20 6 21 7 22 8 23 9 24 10 25 11
REMARK SMILES IDX 26 12 27 13 28 14 29 15 30 16 14 17 13 18 12 19 11 20 10 21
REMARK SMILES IDX 9 22 8 23 7 24 6 25 5 26 4 27 3 28 2 29 1 30
REMARK H PARENT
REMARK Flexibility Score: inf
ROOT
ATOM      1  C   UNL     1     -15.243 -10.868   0.026  1.00  0.00     0.000 C 
ENDROOT
BRANCH   1   2
ATOM      2  C   UNL     1     -14.493  -9.547   0.247  1.00  0.00     0.000 C 
BRANCH   2   3
ATOM      3  C   UNL     1     -14.033  -8.946  -1.089  1.00  0.00     0.000 C 
BRANCH   3   4
ATOM      4  C   UNL     1     -14.567  -7.521  -1.314  1.00  0.00     0.000 C 
BRANCH   4   5
ATOM      5  C   UNL     1     -16.008  -7.279  -0.816  1.00  0.00     0.000 C 
BRANCH   5   6
ATOM      6  C   UNL     1     -16.118  -6.729   0.618  1.00  0.00     0.000 C 
BRANCH   6   7
ATOM      7  C   UNL     1     -16.621  -7.779   1.620  1.00  0.00     0.000 C 
BRANCH   7   8
ATOM      8  C   UNL     1     -18.143  -7.947   1.531  1.00  0.00     0.000 C 
BRANCH   8   9
ATOM      9  C   UNL     1     -18.505  -9.279   0.857  1.00  0.00     0.000 C 
BRANCH   9  10
ATOM     10  C   UNL     1     -19.334  -9.093  -0.424  1.00  0.00     0.000 C 
BRANCH  10  11
ATOM     11  C   UNL     1     -18.773  -9.892  -1.615  1.00  0.00     0.000 C 
BRANCH  11  12
ATOM     12  C   UNL     1     -17.762  -9.083  -2.444  1.00  0.00     0.006 C 
BRANCH  12  13
ATOM     13  C   UNL     1     -16.719  -9.970  -3.135  1.00  0.00     0.053 C 
BRANCH  13  14
ATOM     14  C   UNL     1     -15.951  -9.181  -4.148  1.00  0.00     0.041 C 
ATOM     15  O   UNL     1     -14.827  -9.584  -4.545  1.00  0.00    -0.550 OA
ATOM     16  O   UNL     1     -16.456  -7.975  -4.621  1.00  0.00    -0.550 OA
ENDBRANCH  13  14
ENDBRANCH  12  13
ENDBRANCH  11  12
ENDBRANCH  10  11
ENDBRANCH   9  10
ENDBRANCH   8   9
ENDBRANCH   7   8
ENDBRANCH   6   7
ENDBRANCH   5   6
ENDBRANCH   4   5
ENDBRANCH   3   4
ENDBRANCH   2   3
ENDBRANCH   1   2
BRANCH   1  17
ATOM     17  C   UNL     1     -14.496 -11.814  -0.930  1.00  0.00     0.000 C 
BRANCH  17  18
ATOM     18  C   UNL     1     -14.256 -13.200  -0.312  1.00  0.00     0.000 C 
BRANCH  18  19
ATOM     19  C   UNL     1     -14.657 -13.218   1.170  1.00  0.00     0.000 C 
BRANCH  19  20
ATOM     20  C   UNL     1     -15.981 -13.963   1.421  1.00  0.00     0.000 C 
BRANCH  20  21
ATOM     21  C   UNL     1     -16.924 -14.041   0.204  1.00  0.00     0.000 C 
BRANCH  21  22
ATOM     22  C   UNL     1     -17.902 -12.859   0.055  1.00  0.00    -0.000 C 
BRANCH  22  23
ATOM     23  C   UNL     1     -19.136 -13.147  -0.819  1.00  0.00    -0.000 C 
BRANCH  23  24
ATOM     24  C   UNL     1     -18.845 -13.002  -2.322  1.00  0.00    -0.000 C 
BRANCH  24  25
ATOM     25  C   UNL     1     -18.930 -14.341  -3.076  1.00  0.00    -0.000 C 
BRANCH  25  26
ATOM     26  C   UNL     1     -17.591 -15.092  -3.214  1.00  0.00    -0.000 C 
BRANCH  26  27
ATOM     27  C   UNL     1     -16.330 -14.235  -2.988  1.00  0.00    -0.000 C 
BRANCH  27  28
ATOM     28  C   UNL     1     -16.034 -13.211  -4.099  1.00  0.00    -0.000 C 
BRANCH  28  29
ATOM     29  C   UNL     1     -14.530 -13.021  -4.347  1.00  0.00    -0.003 C 
ATOM     30  C   UNL     1     -14.237 -12.848  -5.835  1.00  0.00     0.004 C 
ENDBRANCH  28  29
ENDBRANCH  27  28
ENDBRANCH  26  27
ENDBRANCH  25  26
ENDBRANCH  24  25
ENDBRANCH  23  24
ENDBRANCH  22  23
ENDBRANCH  21  22
ENDBRANCH  20  21
ENDBRANCH  19  20
ENDBRANCH  18  19
ENDBRANCH  17  18
ENDBRANCH   1  17
TORSDOF 26
ENDMDL
MODEL 7
REMARK VINA RESULT:    -4.148      2.019      6.330
REMARK INTER + INTRA:         -15.122
REMARK INTER:                 -11.528
REMARK INTRA:                  -3.594
REMARK UNBOUND:                -4.670
REMARK SMILES CCCCCCCCCCCCCCCCCCCCCCCCCCCC(=O)[O-]
REMARK SMILES IDX 15 1 16 2 17 3 18 4 19 5 20 6 21 7 22 8 23 9 24 10 25 11
REMARK SMILES IDX 26 12 27 13 28 14 29 15 30 16 14 17 13 18 12 19 11 20 10 21
REMARK SMILES IDX 9 22 8 23 7 24 6 25 5 26 4 27 3 28 2 29 1 30
REMARK H PARENT
REMARK Flexibility Score: inf
ROOT
ATOM      1  C   UNL     1     -19.780  -9.128  -0.147  1.00  0.00     0.000 C 
ENDROOT
BRANCH   1   2
ATOM      2  C   UNL     1     -18.658  -8.089  -0.013  1.00  0.00     0.000 C 
BRANCH   2   3
ATOM      3  C   UNL     1     -17.852  -8.312   1.275  1.00  0.00     0.000 C 
BRANCH   3   4
ATOM      4  C   UNL     1     -16.515  -7.550   1.277  1.00  0.00     0.000 C 
BRANCH   4   5
ATOM      5  C   UNL     1     -15.257  -8.440   1.198  1.00  0.00     0.000 C 
BRANCH   5   6
ATOM      6  C   UNL     1     -15.302  -9.536   0.117  1.00  0.00     0.000 C 
BRANCH   6   7
ATOM      7  C   UNL     1     -14.201  -9.372  -0.942  1.00  0.00     0.000 C 
BRANCH   7   8
ATOM      8  C   UNL     1     -14.258  -7.984  -1.591  1.00  0.00     0.000 C 
BRANCH   8   9
ATOM      9  C   UNL     1     -15.655  -7.711  -2.171  1.00  0.00     0.000 C 
BRANCH   9  10
ATOM     10  C   UNL     1     -15.907  -8.451  -3.493  1.00  0.00     0.000 C 
BRANCH  10  11
ATOM     11  C   UNL     1     -16.788  -9.701  -3.315  1.00  0.00     0.000 C 
BRANCH  11  12
ATOM     12  C   UNL     1     -15.966 -10.998  -3.249  1.00  0.00     0.006 C 
BRANCH  12  13
ATOM     13  C   UNL     1     -14.876 -11.064  -4.326  1.00  0.00     0.053 C 
BRANCH  13  14
ATOM     14  C   UNL     1     -14.842 -12.423  -4.952  1.00  0.00     0.041 C 
ATOM     15  O   UNL     1     -15.706 -13.285  -4.641  1.00  0.00    -0.550 OA
ATOM     16  O   UNL     1     -13.831 -12.754  -5.846  1.00  0.00    -0.550 OA
ENDBRANCH  13  14
ENDBRANCH  12  13
ENDBRANCH  11  12
ENDBRANCH  10  11
ENDBRANCH   9  10
ENDBRANCH   8   9
ENDBRANCH   7   8
ENDBRANCH   6   7
ENDBRANCH   5   6
ENDBRANCH   4   5
ENDBRANCH   3   4
ENDBRANCH   2   3
ENDBRANCH   1   2
BRANCH   1  17
ATOM     17  C   UNL     1     -19.343 -10.363  -0.953  1.00  0.00     0.000 C 
BRANCH  17  18
ATOM     18  C   UNL     1     -18.631 -11.409  -0.083  1.00  0.00     0.000 C 
BRANCH  18  19
ATOM     19  C   UNL     1     -18.535 -12.757  -0.813  1.00  0.00     0.000 C 
BRANCH  19  20
ATOM     20  C   UNL     1     -18.944 -12.663  -2.295  1.00  0.00     0.000 C 
BRANCH  20  21
ATOM     21  C   UNL     1     -19.376 -13.997  -2.935  1.00  0.00     0.000 C 
BRANCH  21  22
ATOM     22  C   UNL     1     -18.353 -15.143  -2.818  1.00  0.00    -0.000 C 
BRANCH  22  23
ATOM     23  C   UNL     1     -16.879 -14.699  -2.844  1.00  0.00    -0.000 C 
BRANCH  23  24
ATOM     24  C   UNL     1     -16.099 -15.157  -1.601  1.00  0.00    -0.000 C 
BRANCH  24  25
ATOM     25  C   UNL     1     -14.618 -14.742  -1.642  1.00  0.00    -0.000 C 
BRANCH  25  26
ATOM     26  C   UNL     1     -14.337 -13.300  -1.175  1.00  0.00    -0.000 C 
BRANCH  26  27
ATOM     27  C   UNL     1     -14.079 -13.135   0.336  1.00  0.00    -0.000 C 
BRANCH  27  28
ATOM     28  C   UNL     1     -15.312 -12.734   1.165  1.00  0.00    -0.000 C 
BRANCH  28  29
ATOM     29  C   UNL     1     -16.140 -13.944   1.623  1.00  0.00    -0.003 C 
ATOM     30  C   UNL     1     -15.463 -14.664   2.785  1.00  0.00     0.004 C 
ENDBRANCH  28  29
ENDBRANCH  27  28
ENDBRANCH  26  27
ENDBRANCH  25  26
ENDBRANCH  24  25
ENDBRANCH  23  24
ENDBRANCH  22  23
ENDBRANCH  21  22
ENDBRANCH  20  21
ENDBRANCH  19  20
ENDBRANCH  18  19
ENDBRANCH  17  18
ENDBRANCH   1  17
TORSDOF 26
ENDMDL
MODEL 8
REMARK VINA RESULT:    -4.107      1.145      3.816
REMARK INTER + INTRA:         -15.020
REMARK INTER:                 -11.166
REMARK INTRA:                  -3.855
REMARK UNBOUND:                -4.670
REMARK SMILES CCCCCCCCCCCCCCCCCCCCCCCCCCCC(=O)[O-]
REMARK SMILES IDX 15 1 16 2 17 3 18 4 19 5 20 6 21 7 22 8 23 9 24 10 25 11
REMARK SMILES IDX 26 12 27 13 28 14 29 15 30 16 14 17 13 18 12 19 11 20 10 21
REMARK SMILES IDX 9 22 8 23 7 24 6 25 5 26 4 27 3 28 2 29 1 30
REMARK H PARENT
REMARK Flexibility Score: inf
ROOT
ATOM      1  C   UNL     1     -14.965 -10.036  -4.274  1.00  0.00     0.000 C 
ENDROOT
BRANCH   1   2
ATOM      2  C   UNL     1     -15.207 -11.552  -4.297  1.00  0.00     0.000 C 
BRANCH   2   3
ATOM      3  C   UNL     1     -15.301 -12.115  -2.872  1.00  0.00     0.000 C 
BRANCH   3   4
ATOM      4  C   UNL     1     -14.880 -13.593  -2.789  1.00  0.00     0.000 C 
BRANCH   4   5
ATOM      5  C   UNL     1     -15.835 -14.498  -1.983  1.00  0.00     0.000 C 
BRANCH   5   6
ATOM      6  C   UNL     1     -16.865 -15.272  -2.825  1.00  0.00     0.000 C 
BRANCH   6   7
ATOM      7  C   UNL     1     -17.646 -14.364  -3.788  1.00  0.00     0.000 C 
BRANCH   7   8
ATOM      8  C   UNL     1     -19.023 -14.002  -3.217  1.00  0.00     0.000 C 
BRANCH   8   9
ATOM      9  C   UNL     1     -18.948 -12.708  -2.392  1.00  0.00     0.000 C 
BRANCH   9  10
ATOM     10  C   UNL     1     -19.560 -12.858  -0.991  1.00  0.00     0.000 C 
BRANCH  10  11
ATOM     11  C   UNL     1     -18.613 -12.380   0.125  1.00  0.00     0.000 C 
BRANCH  11  12
ATOM     12  C   UNL     1     -17.288 -13.159   0.147  1.00  0.00     0.006 C 
BRANCH  12  13
ATOM     13  C   UNL     1     -16.124 -12.333   0.708  1.00  0.00     0.053 C 
BRANCH  13  14
ATOM     14  C   UNL     1     -15.071 -13.232   1.275  1.00  0.00     0.041 C 
ATOM     15  O   UNL     1     -13.914 -13.244   0.779  1.00  0.00    -0.550 OA
ATOM     16  O   UNL     1     -15.378 -14.089   2.325  1.00  0.00    -0.550 OA
ENDBRANCH  13  14
ENDBRANCH  12  13
ENDBRANCH  11  12
ENDBRANCH  10  11
ENDBRANCH   9  10
ENDBRANCH   8   9
ENDBRANCH   7   8
ENDBRANCH   6   7
ENDBRANCH   5   6
ENDBRANCH   4   5
ENDBRANCH   3   4
ENDBRANCH   2   3
ENDBRANCH   1   2
BRANCH   1  17
ATOM     17  C   UNL     1     -16.001  -9.264  -5.109  1.00  0.00     0.000 C 
BRANCH  17  18
ATOM     18  C   UNL     1     -16.337  -7.892  -4.502  1.00  0.00     0.000 C 
BRANCH  18  19
ATOM     19  C   UNL     1     -16.720  -8.027  -3.021  1.00  0.00     0.000 C 
BRANCH  19  20
ATOM     20  C   UNL     1     -17.692  -9.192  -2.759  1.00  0.00     0.000 C 
BRANCH  20  21
ATOM     21  C   UNL     1     -17.872  -9.566  -1.274  1.00  0.00     0.000 C 
BRANCH  21  22
ATOM     22  C   UNL     1     -19.243  -9.209  -0.669  1.00  0.00    -0.000 C 
BRANCH  22  23
ATOM     23  C   UNL     1     -19.182  -8.486   0.689  1.00  0.00    -0.000 C 
BRANCH  23  24
ATOM     24  C   UNL     1     -17.783  -8.536   1.325  1.00  0.00    -0.000 C 
BRANCH  24  25
ATOM     25  C   UNL     1     -16.971  -7.252   1.080  1.00  0.00    -0.000 C 
BRANCH  25  26
ATOM     26  C   UNL     1     -15.587  -7.474   0.440  1.00  0.00    -0.000 C 
BRANCH  26  27
ATOM     27  C   UNL     1     -15.014  -8.897   0.589  1.00  0.00    -0.000 C 
BRANCH  27  28
ATOM     28  C   UNL     1     -14.291  -9.439  -0.658  1.00  0.00    -0.000 C 
BRANCH  28  29
ATOM     29  C   UNL     1     -13.863  -8.326  -1.627  1.00  0.00    -0.003 C 
ATOM     30  C   UNL     1     -12.350  -8.321  -1.823  1.00  0.00     0.004 C 
ENDBRANCH  28  29
ENDBRANCH  27  28
ENDBRANCH  26  27
ENDBRANCH  25  26
ENDBRANCH  24  25
ENDBRANCH  23  24
ENDBRANCH  22  23
ENDBRANCH  21  22
ENDBRANCH  20  21
ENDBRANCH  19  20
ENDBRANCH  18  19
ENDBRANCH  17  18
ENDBRANCH   1  17
TORSDOF 26
ENDMDL
MODEL 9
REMARK VINA RESULT:    -3.989      4.412      7.322
REMARK INTER + INTRA:         -14.723
REMARK INTER:                 -11.758
REMARK INTRA:                  -2.965
REMARK UNBOUND:                -4.670
REMARK SMILES CCCCCCCCCCCCCCCCCCCCCCCCCCCC(=O)[O-]
REMARK SMILES IDX 15 1 16 2 17 3 18 4 19 5 20 6 21 7 22 8 23 9 24 10 25 11
REMARK SMILES IDX 26 12 27 13 28 14 29 15 30 16 14 17 13 18 12 19 11 20 10 21
REMARK SMILES IDX 9 22 8 23 7 24 6 25 5 26 4 27 3 28 2 29 1 30
REMARK H PARENT
REMARK Flexibility Score: inf
ROOT
ATOM      1  C   UNL     1     -15.556  -8.443  -0.098  1.00  0.00     0.000 C 
ENDROOT
BRANCH   1   2
ATOM      2  C   UNL     1     -15.399  -8.001  -1.560  1.00  0.00     0.000 C 
BRANCH   2   3
ATOM      3  C   UNL     1     -14.190  -8.685  -2.214  1.00  0.00     0.000 C 
BRANCH   3   4
ATOM      4  C   UNL     1     -12.869  -8.375  -1.489  1.00  0.00     0.000 C 
BRANCH   4   5
ATOM      5  C   UNL     1     -11.690  -8.001  -2.412  1.00  0.00     0.000 C 
BRANCH   5   6
ATOM      6  C   UNL     1     -10.386  -7.628  -1.684  1.00  0.00     0.000 C 
BRANCH   6   7
ATOM      7  C   UNL     1      -9.189  -8.478  -2.138  1.00  0.00     0.000 C 
BRANCH   7   8
ATOM      8  C   UNL     1      -8.051  -7.596  -2.668  1.00  0.00     0.000 C 
BRANCH   8   9
ATOM      9  C   UNL     1      -7.494  -8.158  -3.985  1.00  0.00     0.000 C 
BRANCH   9  10
ATOM     10  C   UNL     1      -6.500  -9.309  -3.769  1.00  0.00     0.000 C 
BRANCH  10  11
ATOM     11  C   UNL     1      -6.702 -10.464  -4.767  1.00  0.00     0.000 C 
BRANCH  11  12
ATOM     12  C   UNL     1      -6.588 -11.845  -4.103  1.00  0.00     0.006 C 
BRANCH  12  13
ATOM     13  C   UNL     1      -7.055 -11.840  -2.642  1.00  0.00     0.053 C 
BRANCH  13  14
ATOM     14  C   UNL     1      -7.196 -13.241  -2.134  1.00  0.00     0.041 C 
ATOM     15  O   UNL     1      -6.608 -13.593  -1.078  1.00  0.00    -0.550 OA
ATOM     16  O   UNL     1      -7.940 -14.170  -2.850  1.00  0.00    -0.550 OA
ENDBRANCH  13  14
ENDBRANCH  12  13
ENDBRANCH  11  12
ENDBRANCH  10  11
ENDBRANCH   9  10
ENDBRANCH   8   9
ENDBRANCH   7   8
ENDBRANCH   6   7
ENDBRANCH   5   6
ENDBRANCH   4   5
ENDBRANCH   3   4
ENDBRANCH   2   3
ENDBRANCH   1   2
BRANCH   1  17
ATOM     17  C   UNL     1     -16.373  -7.440   0.733  1.00  0.00     0.000 C 
BRANCH  17  18
ATOM     18  C   UNL     1     -17.749  -7.994   1.133  1.00  0.00     0.000 C 
BRANCH  18  19
ATOM     19  C   UNL     1     -17.947  -9.416   0.589  1.00  0.00     0.000 C 
BRANCH  19  20
ATOM     20  C   UNL     1     -18.917  -9.470  -0.605  1.00  0.00     0.000 C 
BRANCH  20  21
ATOM     21  C   UNL     1     -18.898 -10.792  -1.399  1.00  0.00     0.000 C 
BRANCH  21  22
ATOM     22  C   UNL     1     -19.013 -12.070  -0.547  1.00  0.00    -0.000 C 
BRANCH  22  23
ATOM     23  C   UNL     1     -18.688 -13.376  -1.294  1.00  0.00    -0.000 C 
BRANCH  23  24
ATOM     24  C   UNL     1     -18.404 -13.151  -2.787  1.00  0.00    -0.000 C 
BRANCH  24  25
ATOM     25  C   UNL     1     -17.151 -13.901  -3.274  1.00  0.00    -0.000 C 
BRANCH  25  26
ATOM     26  C   UNL     1     -15.853 -13.070  -3.262  1.00  0.00    -0.000 C 
BRANCH  26  27
ATOM     27  C   UNL     1     -14.988 -13.220  -1.995  1.00  0.00    -0.000 C 
BRANCH  27  28
ATOM     28  C   UNL     1     -15.136 -12.080  -0.970  1.00  0.00    -0.000 C 
BRANCH  28  29
ATOM     29  C   UNL     1     -14.853 -12.535   0.469  1.00  0.00    -0.003 C 
ATOM     30  C   UNL     1     -15.920 -13.511   0.957  1.00  0.00     0.004 C 
ENDBRANCH  28  29
ENDBRANCH  27  28
ENDBRANCH  26  27
ENDBRANCH  25  26
ENDBRANCH  24  25
ENDBRANCH  23  24
ENDBRANCH  22  23
ENDBRANCH  21  22
ENDBRANCH  20  21
ENDBRANCH  19  20
ENDBRANCH  18  19
ENDBRANCH  17  18
ENDBRANCH   1  17
TORSDOF 26
ENDMDL
