MODEL 1
REMARK VINA RESULT:    -3.410      0.000      0.000
REMARK INTER + INTRA:          -9.063
REMARK INTER:                  -6.400
REMARK INTRA:                  -2.663
REMARK UNBOUND:                -2.663
REMARK SMILES CCCCCCCCC=CCCCCCCCC(=O)[O-]
REMARK SMILES IDX 10 1 9 2 11 3 12 4 13 5 14 6 15 7 16 8 17 9 18 10 19 11
REMARK SMILES IDX 20 12 8 13 7 14 6 15 5 16 4 17 3 18 2 19 1 20
REMARK H PARENT
REMARK Flexibility Score: inf
ROOT
ATOM      1  C   UNL     1      64.002  33.530  60.978  1.00  0.00    -0.031 C 
ATOM      2  C   UNL     1      64.426  34.761  61.324  1.00  0.00    -0.031 C 
ENDROOT
BRANCH   1   3
ATOM      3  C   UNL     1      62.953  33.226  59.933  1.00  0.00     0.027 C 
BRANCH   3   4
ATOM      4  C   UNL     1      61.604  32.857  60.572  1.00  0.00     0.004 C 
BRANCH   4   5
ATOM      5  C   UNL     1      61.088  31.449  60.213  1.00  0.00     0.000 C 
BRANCH   5   6
ATOM      6  C   UNL     1      60.986  30.498  61.424  1.00  0.00     0.000 C 
BRANCH   6   7
ATOM      7  C   UNL     1      62.348  29.890  61.804  1.00  0.00     0.000 C 
BRANCH   7   8
ATOM      8  C   UNL     1      63.182  29.479  60.575  1.00  0.00     0.006 C 
BRANCH   8   9
ATOM      9  C   UNL     1      64.686  29.758  60.728  1.00  0.00     0.053 C 
BRANCH   9  10
ATOM     10  C   UNL     1      65.491  28.505  60.883  1.00  0.00     0.041 C 
ATOM     11  O   UNL     1      65.014  27.397  60.522  1.00  0.00    -0.550 OA
ATOM     12  O   UNL     1      66.772  28.561  61.418  1.00  0.00    -0.550 OA
ENDBRANCH   9  10
ENDBRANCH   8   9
ENDBRANCH   7   8
ENDBRANCH   6   7
ENDBRANCH   5   6
ENDBRANCH   4   5
ENDBRANCH   3   4
ENDBRANCH   1   3
BRANCH   2  13
ATOM     13  C   UNL     1      63.956  36.054  60.705  1.00  0.00     0.027 C 
BRANCH  13  14
ATOM     14  C   UNL     1      62.686  36.581  61.386  1.00  0.00     0.004 C 
BRANCH  14  15
ATOM     15  C   UNL     1      61.516  36.635  60.397  1.00  0.00     0.000 C 
BRANCH  15  16
ATOM     16  C   UNL     1      62.021  36.791  58.955  1.00  0.00     0.000 C 
BRANCH  16  17
ATOM     17  C   UNL     1      61.257  35.897  57.964  1.00  0.00    -0.000 C 
BRANCH  17  18
ATOM     18  C   UNL     1      59.892  35.451  58.507  1.00  0.00    -0.000 C 
BRANCH  18  19
ATOM     19  C   UNL     1      59.404  34.185  57.792  1.00  0.00    -0.003 C 
ATOM     20  C   UNL     1      60.536  33.521  57.013  1.00  0.00     0.004 C 
ENDBRANCH  18  19
ENDBRANCH  17  18
ENDBRANCH  16  17
ENDBRANCH  15  16
ENDBRANCH  14  15
ENDBRANCH  13  14
ENDBRANCH   2  13
TORSDOF 15
ENDMDL
MODEL 2
REMARK VINA RESULT:    -3.395      2.980      5.710
REMARK INTER + INTRA:          -9.034
REMARK INTER:                  -5.828
REMARK INTRA:                  -3.206
REMARK UNBOUND:                -2.663
REMARK SMILES CCCCCCCCC=CCCCCCCCC(=O)[O-]
REMARK SMILES IDX 10 1 9 2 11 3 12 4 13 5 14 6 15 7 16 8 17 9 18 10 19 11
REMARK SMILES IDX 20 12 8 13 7 14 6 15 5 16 4 17 3 18 2 19 1 20
REMARK H PARENT
REMARK Flexibility Score: inf
ROOT
ATOM      1  C   UNL     1      62.255  33.808  58.158  1.00  0.00    -0.031 C 
ATOM      2  C   UNL     1      63.300  33.010  57.861  1.00  0.00    -0.031 C 
ENDROOT
BRANCH   1   3
ATOM      3  C   UNL     1      61.218  33.533  59.224  1.00  0.00     0.027 C 
BRANCH   3   4
ATOM      4  C   UNL     1      61.616  34.147  60.576  1.00  0.00     0.004 C 
BRANCH   4   5
ATOM      5  C   UNL     1      61.705  35.686  60.581  1.00  0.00     0.000 C 
BRANCH   5   6
ATOM      6  C   UNL     1      62.994  36.231  61.232  1.00  0.00     0.000 C 
BRANCH   6   7
ATOM      7  C   UNL     1      64.093  35.159  61.333  1.00  0.00     0.000 C 
BRANCH   7   8
ATOM      8  C   UNL     1      65.464  35.661  60.839  1.00  0.00     0.006 C 
BRANCH   8   9
ATOM      9  C   UNL     1      65.418  36.313  59.447  1.00  0.00     0.053 C 
BRANCH   9  10
ATOM     10  C   UNL     1      66.464  35.771  58.523  1.00  0.00     0.041 C 
ATOM     11  O   UNL     1      66.243  34.722  57.863  1.00  0.00    -0.550 OA
ATOM     12  O   UNL     1      67.679  36.429  58.384  1.00  0.00    -0.550 OA
ENDBRANCH   9  10
ENDBRANCH   8   9
ENDBRANCH   7   8
ENDBRANCH   6   7
ENDBRANCH   5   6
ENDBRANCH   4   5
ENDBRANCH   3   4
ENDBRANCH   1   3
BRANCH   2  13
ATOM     13  C   UNL     1      63.644  31.721  58.565  1.00  0.00     0.027 C 
BRANCH  13  14
ATOM     14  C   UNL     1      64.702  31.934  59.655  1.00  0.00     0.004 C 
BRANCH  14  15
ATOM     15  C   UNL     1      64.190  31.449  61.017  1.00  0.00     0.000 C 
BRANCH  15  16
ATOM     16  C   UNL     1      63.123  30.357  60.847  1.00  0.00     0.000 C 
BRANCH  16  17
ATOM     17  C   UNL     1      61.898  30.588  61.747  1.00  0.00    -0.000 C 
BRANCH  17  18
ATOM     18  C   UNL     1      60.577  30.258  61.037  1.00  0.00    -0.000 C 
BRANCH  18  19
ATOM     19  C   UNL     1      60.832  29.510  59.722  1.00  0.00    -0.003 C 
ATOM     20  C   UNL     1      60.105  30.179  58.558  1.00  0.00     0.004 C 
ENDBRANCH  18  19
ENDBRANCH  17  18
ENDBRANCH  16  17
ENDBRANCH  15  16
ENDBRANCH  14  15
ENDBRANCH  13  14
ENDBRANCH   2  13
TORSDOF 15
ENDMDL
MODEL 3
REMARK VINA RESULT:    -3.383     10.150     13.140
REMARK INTER + INTRA:          -9.012
REMARK INTER:                  -6.206
REMARK INTRA:                  -2.806
REMARK UNBOUND:                -2.663
REMARK SMILES CCCCCCCCC=CCCCCCCCC(=O)[O-]
REMARK SMILES IDX 10 1 9 2 11 3 12 4 13 5 14 6 15 7 16 8 17 9 18 10 19 11
REMARK SMILES IDX 20 12 8 13 7 14 6 15 5 16 4 17 3 18 2 19 1 20
REMARK H PARENT
REMARK Flexibility Score: inf
ROOT
ATOM      1  C   UNL     1      56.386  25.928  51.165  1.00  0.00    -0.031 C 
ATOM      2  C   UNL     1      57.564  25.525  51.679  1.00  0.00    -0.031 C 
ENDROOT
BRANCH   1   3
ATOM      3  C   UNL     1      56.082  26.091  49.693  1.00  0.00     0.027 C 
BRANCH   3   4
ATOM      4  C   UNL     1      54.573  26.008  49.411  1.00  0.00     0.004 C 
BRANCH   4   5
ATOM      5  C   UNL     1      53.697  26.859  50.351  1.00  0.00     0.000 C 
BRANCH   5   6
ATOM      6  C   UNL     1      53.404  28.276  49.813  1.00  0.00     0.000 C 
BRANCH   6   7
ATOM      7  C   UNL     1      54.398  29.320  50.353  1.00  0.00     0.000 C 
BRANCH   7   8
ATOM      8  C   UNL     1      54.467  29.340  51.892  1.00  0.00     0.006 C 
BRANCH   8   9
ATOM      9  C   UNL     1      54.417  30.754  52.494  1.00  0.00     0.053 C 
BRANCH   9  10
ATOM     10  C   UNL     1      55.545  31.016  53.443  1.00  0.00     0.041 C 
ATOM     11  O   UNL     1      56.050  30.070  54.103  1.00  0.00    -0.550 OA
ATOM     12  O   UNL     1      56.044  32.303  53.594  1.00  0.00    -0.550 OA
ENDBRANCH   9  10
ENDBRANCH   8   9
ENDBRANCH   7   8
ENDBRANCH   6   7
ENDBRANCH   5   6
ENDBRANCH   4   5
ENDBRANCH   3   4
ENDBRANCH   1   3
BRANCH   2  13
ATOM     13  C   UNL     1      58.778  25.127  50.877  1.00  0.00     0.027 C 
BRANCH  13  14
ATOM     14  C   UNL     1      60.040  25.855  51.359  1.00  0.00     0.004 C 
BRANCH  14  15
ATOM     15  C   UNL     1      60.700  26.626  50.210  1.00  0.00     0.000 C 
BRANCH  15  16
ATOM     16  C   UNL     1      59.647  27.157  49.226  1.00  0.00     0.000 C 
BRANCH  16  17
ATOM     17  C   UNL     1      59.492  28.685  49.299  1.00  0.00    -0.000 C 
BRANCH  17  18
ATOM     18  C   UNL     1      58.109  29.112  49.811  1.00  0.00    -0.000 C 
BRANCH  18  19
ATOM     19  C   UNL     1      58.103  29.230  51.340  1.00  0.00    -0.003 C 
ATOM     20  C   UNL     1      59.414  29.819  51.853  1.00  0.00     0.004 C 
ENDBRANCH  18  19
ENDBRANCH  17  18
ENDBRANCH  16  17
ENDBRANCH  15  16
ENDBRANCH  14  15
ENDBRANCH  13  14
ENDBRANCH   2  13
TORSDOF 15
ENDMDL
MODEL 4
REMARK VINA RESULT:    -3.353     10.379     13.054
REMARK INTER + INTRA:          -8.957
REMARK INTER:                  -6.014
REMARK INTRA:                  -2.943
REMARK UNBOUND:                -2.663
REMARK SMILES CCCCCCCCC=CCCCCCCCC(=O)[O-]
REMARK SMILES IDX 10 1 9 2 11 3 12 4 13 5 14 6 15 7 16 8 17 9 18 10 19 11
REMARK SMILES IDX 20 12 8 13 7 14 6 15 5 16 4 17 3 18 2 19 1 20
REMARK H PARENT
REMARK Flexibility Score: inf
ROOT
ATOM      1  C   UNL     1      54.501  29.231  50.554  1.00  0.00    -0.031 C 
ATOM      2  C   UNL     1      53.983  28.212  49.840  1.00  0.00    -0.031 C 
ENDROOT
BRANCH   1   3
ATOM      3  C   UNL     1      54.504  29.330  52.063  1.00  0.00     0.027 C 
BRANCH   3   4
ATOM      4  C   UNL     1      55.866  28.939  52.656  1.00  0.00     0.004 C 
BRANCH   4   5
ATOM      5  C   UNL     1      57.031  29.867  52.256  1.00  0.00     0.000 C 
BRANCH   5   6
ATOM      6  C   UNL     1      58.153  29.153  51.474  1.00  0.00     0.000 C 
BRANCH   6   7
ATOM      7  C   UNL     1      57.910  29.179  49.954  1.00  0.00     0.000 C 
BRANCH   7   8
ATOM      8  C   UNL     1      59.214  29.076  49.139  1.00  0.00     0.006 C 
BRANCH   8   9
ATOM      9  C   UNL     1      59.848  27.675  49.163  1.00  0.00     0.053 C 
BRANCH   9  10
ATOM     10  C   UNL     1      61.280  27.699  49.599  1.00  0.00     0.041 C 
ATOM     11  O   UNL     1      61.957  26.638  49.608  1.00  0.00    -0.550 OA
ATOM     12  O   UNL     1      61.869  28.895  49.989  1.00  0.00    -0.550 OA
ENDBRANCH   9  10
ENDBRANCH   8   9
ENDBRANCH   7   8
ENDBRANCH   6   7
ENDBRANCH   5   6
ENDBRANCH   4   5
ENDBRANCH   3   4
ENDBRANCH   1   3
BRANCH   2  13
ATOM     13  C   UNL     1      53.347  26.973  50.419  1.00  0.00     0.027 C 
BRANCH  13  14
ATOM     14  C   UNL     1      54.334  25.799  50.466  1.00  0.00     0.004 C 
BRANCH  14  15
ATOM     15  C   UNL     1      55.626  26.138  49.713  1.00  0.00     0.000 C 
BRANCH  15  16
ATOM     16  C   UNL     1      56.861  25.819  50.568  1.00  0.00     0.000 C 
BRANCH  16  17
ATOM     17  C   UNL     1      56.503  25.539  52.037  1.00  0.00    -0.000 C 
BRANCH  17  18
ATOM     18  C   UNL     1      57.740  25.491  52.946  1.00  0.00    -0.000 C 
BRANCH  18  19
ATOM     19  C   UNL     1      59.030  25.558  52.119  1.00  0.00    -0.003 C 
ATOM     20  C   UNL     1      60.107  26.360  52.844  1.00  0.00     0.004 C 
ENDBRANCH  18  19
ENDBRANCH  17  18
ENDBRANCH  16  17
ENDBRANCH  15  16
ENDBRANCH  14  15
ENDBRANCH  13  14
ENDBRANCH   2  13
TORSDOF 15
ENDMDL
MODEL 5
REMARK VINA RESULT:    -3.339     10.704     12.827
REMARK INTER + INTRA:          -8.931
REMARK INTER:                  -6.431
REMARK INTRA:                  -2.500
REMARK UNBOUND:                -2.663
REMARK SMILES CCCCCCCCC=CCCCCCCCC(=O)[O-]
REMARK SMILES IDX 10 1 9 2 11 3 12 4 13 5 14 6 15 7 16 8 17 9 18 10 19 11
REMARK SMILES IDX 20 12 8 13 7 14 6 15 5 16 4 17 3 18 2 19 1 20
REMARK H PARENT
REMARK Flexibility Score: inf
ROOT
ATOM      1  C   UNL     1      56.932  27.048  50.629  1.00  0.00    -0.031 C 
ATOM      2  C   UNL     1      56.005  26.111  50.351  1.00  0.00    -0.031 C 
ENDROOT
BRANCH   1   3
ATOM      3  C   UNL     1      56.918  28.472  50.123  1.00  0.00     0.027 C 
BRANCH   3   4
ATOM      4  C   UNL     1      58.297  29.137  50.253  1.00  0.00     0.004 C 
BRANCH   4   5
ATOM      5  C   UNL     1      59.224  28.936  49.037  1.00  0.00     0.000 C 
BRANCH   5   6
ATOM      6  C   UNL     1      60.249  27.796  49.220  1.00  0.00     0.000 C 
BRANCH   6   7
ATOM      7  C   UNL     1      60.640  27.595  50.694  1.00  0.00     0.000 C 
BRANCH   7   8
ATOM      8  C   UNL     1      60.437  26.145  51.175  1.00  0.00     0.006 C 
BRANCH   8   9
ATOM      9  C   UNL     1      60.561  25.100  50.053  1.00  0.00     0.053 C 
BRANCH   9  10
ATOM     10  C   UNL     1      61.851  24.343  50.113  1.00  0.00     0.041 C 
ATOM     11  O   UNL     1      62.949  24.959  50.088  1.00  0.00    -0.550 OA
ATOM     12  O   UNL     1      61.841  22.957  50.203  1.00  0.00    -0.550 OA
ENDBRANCH   9  10
ENDBRANCH   8   9
ENDBRANCH   7   8
ENDBRANCH   6   7
ENDBRANCH   5   6
ENDBRANCH   4   5
ENDBRANCH   3   4
ENDBRANCH   1   3
BRANCH   2  13
ATOM     13  C   UNL     1      54.767  26.326  49.516  1.00  0.00     0.027 C 
BRANCH  13  14
ATOM     14  C   UNL     1      53.633  26.959  50.334  1.00  0.00     0.004 C 
BRANCH  14  15
ATOM     15  C   UNL     1      53.066  28.192  49.621  1.00  0.00     0.000 C 
BRANCH  15  16
ATOM     16  C   UNL     1      53.466  29.483  50.352  1.00  0.00     0.000 C 
BRANCH  16  17
ATOM     17  C   UNL     1      53.662  29.267  51.862  1.00  0.00    -0.000 C 
BRANCH  17  18
ATOM     18  C   UNL     1      54.555  30.341  52.498  1.00  0.00    -0.000 C 
BRANCH  18  19
ATOM     19  C   UNL     1      55.713  29.702  53.275  1.00  0.00    -0.003 C 
ATOM     20  C   UNL     1      55.348  28.300  53.754  1.00  0.00     0.004 C 
ENDBRANCH  18  19
ENDBRANCH  17  18
ENDBRANCH  16  17
ENDBRANCH  15  16
ENDBRANCH  14  15
ENDBRANCH  13  14
ENDBRANCH   2  13
TORSDOF 15
ENDMDL
MODEL 6
REMARK VINA RESULT:    -3.299      0.963      1.592
REMARK INTER + INTRA:          -8.856
REMARK INTER:                  -6.337
REMARK INTRA:                  -2.518
REMARK UNBOUND:                -2.663
REMARK SMILES CCCCCCCCC=CCCCCCCCC(=O)[O-]
REMARK SMILES IDX 10 1 9 2 11 3 12 4 13 5 14 6 15 7 16 8 17 9 18 10 19 11
REMARK SMILES IDX 20 12 8 13 7 14 6 15 5 16 4 17 3 18 2 19 1 20
REMARK H PARENT
REMARK Flexibility Score: inf
ROOT
ATOM      1  C   UNL     1      63.206  33.074  59.418  1.00  0.00    -0.031 C 
ATOM      2  C   UNL     1      64.291  33.737  59.864  1.00  0.00    -0.031 C 
ENDROOT
BRANCH   1   3
ATOM      3  C   UNL     1      61.872  33.001  60.125  1.00  0.00     0.027 C 
BRANCH   3   4
ATOM      4  C   UNL     1      60.901  32.048  59.411  1.00  0.00     0.004 C 
BRANCH   4   5
ATOM      5  C   UNL     1      60.540  30.781  60.212  1.00  0.00     0.000 C 
BRANCH   5   6
ATOM      6  C   UNL     1      61.139  30.754  61.634  1.00  0.00     0.000 C 
BRANCH   6   7
ATOM      7  C   UNL     1      62.184  29.638  61.804  1.00  0.00     0.000 C 
BRANCH   7   8
ATOM      8  C   UNL     1      63.606  30.086  61.413  1.00  0.00     0.006 C 
BRANCH   8   9
ATOM      9  C   UNL     1      64.504  28.936  60.928  1.00  0.00     0.053 C 
BRANCH   9  10
ATOM     10  C   UNL     1      65.861  29.404  60.505  1.00  0.00     0.041 C 
ATOM     11  O   UNL     1      66.895  28.890  61.008  1.00  0.00    -0.550 OA
ATOM     12  O   UNL     1      65.986  30.405  59.549  1.00  0.00    -0.550 OA
ENDBRANCH   9  10
ENDBRANCH   8   9
ENDBRANCH   7   8
ENDBRANCH   6   7
ENDBRANCH   5   6
ENDBRANCH   4   5
ENDBRANCH   3   4
ENDBRANCH   1   3
BRANCH   2  13
ATOM     13  C   UNL     1      64.357  34.555  61.130  1.00  0.00     0.027 C 
BRANCH  13  14
ATOM     14  C   UNL     1      64.049  36.035  60.865  1.00  0.00     0.004 C 
BRANCH  14  15
ATOM     15  C   UNL     1      62.631  36.390  61.329  1.00  0.00     0.000 C 
BRANCH  15  16
ATOM     16  C   UNL     1      61.831  37.049  60.195  1.00  0.00     0.000 C 
BRANCH  16  17
ATOM     17  C   UNL     1      62.389  36.704  58.804  1.00  0.00    -0.000 C 
BRANCH  17  18
ATOM     18  C   UNL     1      61.351  36.010  57.910  1.00  0.00    -0.000 C 
BRANCH  18  19
ATOM     19  C   UNL     1      60.026  35.814  58.658  1.00  0.00    -0.003 C 
ATOM     20  C   UNL     1      59.071  34.928  57.863  1.00  0.00     0.004 C 
ENDBRANCH  18  19
ENDBRANCH  17  18
ENDBRANCH  16  17
ENDBRANCH  15  16
ENDBRANCH  14  15
ENDBRANCH  13  14
ENDBRANCH   2  13
TORSDOF 15
ENDMDL
MODEL 7
REMARK VINA RESULT:    -3.270      1.783      3.682
REMARK INTER + INTRA:          -8.801
REMARK INTER:                  -7.050
REMARK INTRA:                  -1.751
REMARK UNBOUND:                -2.663
REMARK SMILES CCCCCCCCC=CCCCCCCCC(=O)[O-]
REMARK SMILES IDX 10 1 9 2 11 3 12 4 13 5 14 6 15 7 16 8 17 9 18 10 19 11
REMARK SMILES IDX 20 12 8 13 7 14 6 15 5 16 4 17 3 18 2 19 1 20
REMARK H PARENT
REMARK Flexibility Score: inf
ROOT
ATOM      1  C   UNL     1      60.817  31.397  60.552  1.00  0.00    -0.031 C 
ATOM      2  C   UNL     1      61.491  32.454  60.058  1.00  0.00    -0.031 C 
ENDROOT
BRANCH   1   3
ATOM      3  C   UNL     1      61.087  30.729  61.881  1.00  0.00     0.027 C 
BRANCH   3   4
ATOM      4  C   UNL     1      61.930  29.454  61.716  1.00  0.00     0.004 C 
BRANCH   4   5
ATOM      5  C   UNL     1      63.443  29.702  61.559  1.00  0.00     0.000 C 
BRANCH   5   6
ATOM      6  C   UNL     1      64.052  29.044  60.302  1.00  0.00     0.000 C 
BRANCH   6   7
ATOM      7  C   UNL     1      64.679  27.673  60.608  1.00  0.00     0.000 C 
BRANCH   7   8
ATOM      8  C   UNL     1      66.200  27.749  60.845  1.00  0.00     0.006 C 
BRANCH   8   9
ATOM      9  C   UNL     1      66.865  28.972  60.190  1.00  0.00     0.053 C 
BRANCH   9  10
ATOM     10  C   UNL     1      68.351  28.984  60.372  1.00  0.00     0.041 C 
ATOM     11  O   UNL     1      69.110  29.128  59.378  1.00  0.00    -0.550 OA
ATOM     12  O   UNL     1      68.898  28.844  61.641  1.00  0.00    -0.550 OA
ENDBRANCH   9  10
ENDBRANCH   8   9
ENDBRANCH   7   8
ENDBRANCH   6   7
ENDBRANCH   5   6
ENDBRANCH   4   5
ENDBRANCH   3   4
ENDBRANCH   1   3
BRANCH   2  13
ATOM     13  C   UNL     1      62.610  33.183  60.759  1.00  0.00     0.027 C 
BRANCH  13  14
ATOM     14  C   UNL     1      63.886  33.218  59.907  1.00  0.00     0.004 C 
BRANCH  14  15
ATOM     15  C   UNL     1      64.623  34.552  60.079  1.00  0.00     0.000 C 
BRANCH  15  16
ATOM     16  C   UNL     1      64.513  35.058  61.525  1.00  0.00     0.000 C 
BRANCH  16  17
ATOM     17  C   UNL     1      63.945  36.485  61.607  1.00  0.00    -0.000 C 
BRANCH  17  18
ATOM     18  C   UNL     1      62.948  36.786  60.478  1.00  0.00    -0.000 C 
BRANCH  18  19
ATOM     19  C   UNL     1      61.504  36.719  60.988  1.00  0.00    -0.003 C 
ATOM     20  C   UNL     1      60.584  36.074  59.955  1.00  0.00     0.004 C 
ENDBRANCH  18  19
ENDBRANCH  17  18
ENDBRANCH  16  17
ENDBRANCH  15  16
ENDBRANCH  14  15
ENDBRANCH  13  14
ENDBRANCH   2  13
TORSDOF 15
ENDMDL
MODEL 8
REMARK VINA RESULT:    -3.260      3.778      7.255
REMARK INTER + INTRA:          -8.782
REMARK INTER:                  -6.668
REMARK INTRA:                  -2.114
REMARK UNBOUND:                -2.663
REMARK SMILES CCCCCCCCC=CCCCCCCCC(=O)[O-]
REMARK SMILES IDX 10 1 9 2 11 3 12 4 13 5 14 6 15 7 16 8 17 9 18 10 19 11
REMARK SMILES IDX 20 12 8 13 7 14 6 15 5 16 4 17 3 18 2 19 1 20
REMARK H PARENT
REMARK Flexibility Score: inf
ROOT
ATOM      1  C   UNL     1      63.661  33.124  59.608  1.00  0.00    -0.031 C 
ATOM      2  C   UNL     1      62.452  32.680  59.212  1.00  0.00    -0.031 C 
ENDROOT
BRANCH   1   3
ATOM      3  C   UNL     1      64.001  33.619  60.995  1.00  0.00     0.027 C 
BRANCH   3   4
ATOM      4  C   UNL     1      64.541  35.058  60.969  1.00  0.00     0.004 C 
BRANCH   4   5
ATOM      5  C   UNL     1      63.538  36.129  61.442  1.00  0.00     0.000 C 
BRANCH   5   6
ATOM      6  C   UNL     1      62.540  36.570  60.350  1.00  0.00     0.000 C 
BRANCH   6   7
ATOM      7  C   UNL     1      61.109  36.086  60.639  1.00  0.00     0.000 C 
BRANCH   7   8
ATOM      8  C   UNL     1      60.093  36.558  59.581  1.00  0.00     0.006 C 
BRANCH   8   9
ATOM      9  C   UNL     1      59.925  35.580  58.407  1.00  0.00     0.053 C 
BRANCH   9  10
ATOM     10  C   UNL     1      58.619  35.753  57.696  1.00  0.00     0.041 C 
ATOM     11  O   UNL     1      57.554  35.329  58.216  1.00  0.00    -0.550 OA
ATOM     12  O   UNL     1      58.577  36.389  56.461  1.00  0.00    -0.550 OA
ENDBRANCH   9  10
ENDBRANCH   8   9
ENDBRANCH   7   8
ENDBRANCH   6   7
ENDBRANCH   5   6
ENDBRANCH   4   5
ENDBRANCH   3   4
ENDBRANCH   1   3
BRANCH   2  13
ATOM     13  C   UNL     1      61.232  32.561  60.092  1.00  0.00     0.027 C 
BRANCH  13  14
ATOM     14  C   UNL     1      60.858  31.096  60.348  1.00  0.00     0.004 C 
BRANCH  14  15
ATOM     15  C   UNL     1      61.214  30.682  61.781  1.00  0.00     0.000 C 
BRANCH  15  16
ATOM     16  C   UNL     1      62.177  29.485  61.785  1.00  0.00     0.000 C 
BRANCH  16  17
ATOM     17  C   UNL     1      63.610  29.882  61.393  1.00  0.00    -0.000 C 
BRANCH  17  18
ATOM     18  C   UNL     1      64.461  28.674  60.975  1.00  0.00    -0.000 C 
BRANCH  18  19
ATOM     19  C   UNL     1      65.886  29.107  60.610  1.00  0.00    -0.003 C 
ATOM     20  C   UNL     1      65.875  30.182  59.527  1.00  0.00     0.004 C 
ENDBRANCH  18  19
ENDBRANCH  17  18
ENDBRANCH  16  17
ENDBRANCH  15  16
ENDBRANCH  14  15
ENDBRANCH  13  14
ENDBRANCH   2  13
TORSDOF 15
ENDMDL
MODEL 9
REMARK VINA RESULT:    -3.240      2.476      3.754
REMARK INTER + INTRA:          -8.744
REMARK INTER:                  -5.885
REMARK INTRA:                  -2.860
REMARK UNBOUND:                -2.663
REMARK SMILES CCCCCCCCC=CCCCCCCCC(=O)[O-]
REMARK SMILES IDX 10 1 9 2 11 3 12 4 13 5 14 6 15 7 16 8 17 9 18 10 19 11
REMARK SMILES IDX 20 12 8 13 7 14 6 15 5 16 4 17 3 18 2 19 1 20
REMARK H PARENT
REMARK Flexibility Score: inf
ROOT
ATOM      1  C   UNL     1      63.854  33.970  57.145  1.00  0.00    -0.031 C 
ATOM      2  C   UNL     1      64.385  35.081  57.692  1.00  0.00    -0.031 C 
ENDROOT
BRANCH   1   3
ATOM      3  C   UNL     1      64.407  32.571  57.294  1.00  0.00     0.027 C 
BRANCH   3   4
ATOM      4  C   UNL     1      63.761  31.826  58.472  1.00  0.00     0.004 C 
BRANCH   4   5
ATOM      5  C   UNL     1      64.728  31.483  59.623  1.00  0.00     0.000 C 
BRANCH   5   6
ATOM      6  C   UNL     1      64.053  31.449  61.011  1.00  0.00     0.000 C 
BRANCH   6   7
ATOM      7  C   UNL     1      63.411  30.084  61.313  1.00  0.00     0.000 C 
BRANCH   7   8
ATOM      8  C   UNL     1      62.000  30.208  61.919  1.00  0.00     0.006 C 
BRANCH   8   9
ATOM      9  C   UNL     1      60.943  30.714  60.924  1.00  0.00     0.053 C 
BRANCH   9  10
ATOM     10  C   UNL     1      60.437  29.632  60.021  1.00  0.00     0.041 C 
ATOM     11  O   UNL     1      59.587  28.803  60.440  1.00  0.00    -0.550 OA
ATOM     12  O   UNL     1      60.900  29.542  58.714  1.00  0.00    -0.550 OA
ENDBRANCH   9  10
ENDBRANCH   8   9
ENDBRANCH   7   8
ENDBRANCH   6   7
ENDBRANCH   5   6
ENDBRANCH   4   5
ENDBRANCH   3   4
ENDBRANCH   1   3
BRANCH   2  13
ATOM     13  C   UNL     1      65.603  35.123  58.581  1.00  0.00     0.027 C 
BRANCH  13  14
ATOM     14  C   UNL     1      65.514  36.254  59.613  1.00  0.00     0.004 C 
BRANCH  14  15
ATOM     15  C   UNL     1      65.471  35.692  61.039  1.00  0.00     0.000 C 
BRANCH  15  16
ATOM     16  C   UNL     1      64.066  35.176  61.385  1.00  0.00     0.000 C 
BRANCH  16  17
ATOM     17  C   UNL     1      63.002  36.285  61.329  1.00  0.00    -0.000 C 
BRANCH  17  18
ATOM     18  C   UNL     1      61.738  35.850  60.574  1.00  0.00    -0.000 C 
BRANCH  18  19
ATOM     19  C   UNL     1      61.729  34.333  60.349  1.00  0.00    -0.003 C 
ATOM     20  C   UNL     1      60.898  33.963  59.123  1.00  0.00     0.004 C 
ENDBRANCH  18  19
ENDBRANCH  17  18
ENDBRANCH  16  17
ENDBRANCH  15  16
ENDBRANCH  14  15
ENDBRANCH  13  14
ENDBRANCH   2  13
TORSDOF 15
ENDMDL
