MODEL 1
REMARK VINA RESULT:    -3.277      0.000      0.000
REMARK INTER + INTRA:          -7.236
REMARK INTER:                  -5.576
REMARK INTRA:                  -1.659
REMARK UNBOUND:                -1.659
REMARK SMILES CCCCCCCCCCCCCC(=O)[O-]
REMARK SMILES IDX 8 1 9 2 10 3 11 4 12 5 13 6 14 7 15 8 16 9 7 10 6 11 5 12
REMARK SMILES IDX 4 13 3 14 2 15 1 16
REMARK H PARENT
REMARK Flexibility Score: inf
ROOT
ATOM      1  C   UNL     1      16.861 -14.135 186.447  1.00  0.00     0.000 C 
ENDROOT
BRANCH   1   2
ATOM      2  C   UNL     1      18.289 -13.700 186.822  1.00  0.00     0.000 C 
BRANCH   2   3
ATOM      3  C   UNL     1      18.431 -12.166 186.893  1.00  0.00     0.000 C 
BRANCH   3   4
ATOM      4  C   UNL     1      19.770 -11.698 187.490  1.00  0.00     0.000 C 
BRANCH   4   5
ATOM      5  C   UNL     1      19.835 -10.178 187.694  1.00  0.00     0.006 C 
BRANCH   5   6
ATOM      6  C   UNL     1      18.755  -9.710 188.674  1.00  0.00     0.053 C 
BRANCH   6   7
ATOM      7  C   UNL     1      18.974  -8.277 189.049  1.00  0.00     0.041 C 
ATOM      8  O   UNL     1      19.361  -7.978 190.210  1.00  0.00    -0.550 OA
ATOM      9  O   UNL     1      18.704  -7.269 188.132  1.00  0.00    -0.550 OA
ENDBRANCH   6   7
ENDBRANCH   5   6
ENDBRANCH   4   5
ENDBRANCH   3   4
ENDBRANCH   2   3
ENDBRANCH   1   2
BRANCH   1  10
ATOM     10  C   UNL     1      15.797 -13.111 186.872  1.00  0.00     0.000 C 
BRANCH  10  11
ATOM     11  C   UNL     1      14.809 -12.780 185.741  1.00  0.00    -0.000 C 
BRANCH  11  12
ATOM     12  C   UNL     1      15.496 -12.676 184.369  1.00  0.00    -0.000 C 
BRANCH  12  13
ATOM     13  C   UNL     1      16.142 -11.299 184.132  1.00  0.00    -0.000 C 
BRANCH  13  14
ATOM     14  C   UNL     1      15.354 -10.158 184.794  1.00  0.00    -0.000 C 
BRANCH  14  15
ATOM     15  C   UNL     1      16.219  -9.319 185.746  1.00  0.00    -0.003 C 
ATOM     16  C   UNL     1      17.543  -8.934 185.092  1.00  0.00     0.004 C 
ENDBRANCH  14  15
ENDBRANCH  13  14
ENDBRANCH  12  13
ENDBRANCH  11  12
ENDBRANCH  10  11
ENDBRANCH   1  10
TORSDOF 12
ENDMDL
MODEL 2
REMARK VINA RESULT:    -3.262      1.582      2.190
REMARK INTER + INTRA:          -7.210
REMARK INTER:                  -5.345
REMARK INTRA:                  -1.865
REMARK UNBOUND:                -1.659
REMARK SMILES CCCCCCCCCCCCCC(=O)[O-]
REMARK SMILES IDX 8 1 9 2 10 3 11 4 12 5 13 6 14 7 15 8 16 9 7 10 6 11 5 12
REMARK SMILES IDX 4 13 3 14 2 15 1 16
REMARK H PARENT
REMARK Flexibility Score: inf
ROOT
ATOM      1  C   UNL     1      16.156 -14.740 187.394  1.00  0.00     0.000 C 
ENDROOT
BRANCH   1   2
ATOM      2  C   UNL     1      17.436 -15.225 186.689  1.00  0.00     0.000 C 
BRANCH   2   3
ATOM      3  C   UNL     1      18.621 -14.262 186.910  1.00  0.00     0.000 C 
BRANCH   3   4
ATOM      4  C   UNL     1      18.225 -12.776 186.858  1.00  0.00     0.000 C 
BRANCH   4   5
ATOM      5  C   UNL     1      19.358 -11.840 187.299  1.00  0.00     0.006 C 
BRANCH   5   6
ATOM      6  C   UNL     1      18.800 -10.569 187.946  1.00  0.00     0.053 C 
BRANCH   6   7
ATOM      7  C   UNL     1      19.024  -9.387 187.057  1.00  0.00     0.041 C 
ATOM      8  O   UNL     1      19.760  -8.438 187.439  1.00  0.00    -0.550 OA
ATOM      9  O   UNL     1      18.381  -9.308 185.828  1.00  0.00    -0.550 OA
ENDBRANCH   6   7
ENDBRANCH   5   6
ENDBRANCH   4   5
ENDBRANCH   3   4
ENDBRANCH   2   3
ENDBRANCH   1   2
BRANCH   1  10
ATOM     10  C   UNL     1      14.891 -14.962 186.550  1.00  0.00     0.000 C 
BRANCH  10  11
ATOM     11  C   UNL     1      15.155 -14.825 185.041  1.00  0.00    -0.000 C 
BRANCH  11  12
ATOM     12  C   UNL     1      14.556 -13.537 184.452  1.00  0.00    -0.000 C 
BRANCH  12  13
ATOM     13  C   UNL     1      15.632 -12.524 184.026  1.00  0.00    -0.000 C 
BRANCH  13  14
ATOM     14  C   UNL     1      15.554 -11.211 184.821  1.00  0.00    -0.000 C 
BRANCH  14  15
ATOM     15  C   UNL     1      14.446 -11.230 185.884  1.00  0.00    -0.003 C 
ATOM     16  C   UNL     1      15.028 -11.090 187.288  1.00  0.00     0.004 C 
ENDBRANCH  14  15
ENDBRANCH  13  14
ENDBRANCH  12  13
ENDBRANCH  11  12
ENDBRANCH  10  11
ENDBRANCH   1  10
TORSDOF 12
ENDMDL
MODEL 3
REMARK VINA RESULT:    -3.262      2.066      4.194
REMARK INTER + INTRA:          -7.209
REMARK INTER:                  -5.592
REMARK INTRA:                  -1.617
REMARK UNBOUND:                -1.659
REMARK SMILES CCCCCCCCCCCCCC(=O)[O-]
REMARK SMILES IDX 8 1 9 2 10 3 11 4 12 5 13 6 14 7 15 8 16 9 7 10 6 11 5 12
REMARK SMILES IDX 4 13 3 14 2 15 1 16
REMARK H PARENT
REMARK Flexibility Score: inf
ROOT
ATOM      1  C   UNL     1      18.116 -11.977 187.370  1.00  0.00     0.000 C 
ENDROOT
BRANCH   1   2
ATOM      2  C   UNL     1      19.629 -11.716 187.481  1.00  0.00     0.000 C 
BRANCH   2   3
ATOM      3  C   UNL     1      19.952 -10.212 187.604  1.00  0.00     0.000 C 
BRANCH   3   4
ATOM      4  C   UNL     1      18.873  -9.410 188.352  1.00  0.00     0.000 C 
BRANCH   4   5
ATOM      5  C   UNL     1      18.373  -8.195 187.558  1.00  0.00     0.006 C 
BRANCH   5   6
ATOM      6  C   UNL     1      18.697  -8.342 186.069  1.00  0.00     0.053 C 
BRANCH   6   7
ATOM      7  C   UNL     1      17.440  -8.512 185.274  1.00  0.00     0.041 C 
ATOM      8  O   UNL     1      16.326  -8.575 185.858  1.00  0.00    -0.550 OA
ATOM      9  O   UNL     1      17.504  -8.650 183.893  1.00  0.00    -0.550 OA
ENDBRANCH   6   7
ENDBRANCH   5   6
ENDBRANCH   4   5
ENDBRANCH   3   4
ENDBRANCH   2   3
ENDBRANCH   1   2
BRANCH   1  10
ATOM     10  C   UNL     1      17.633 -12.070 185.915  1.00  0.00     0.000 C 
BRANCH  10  11
ATOM     11  C   UNL     1      16.289 -12.808 185.782  1.00  0.00    -0.000 C 
BRANCH  11  12
ATOM     12  C   UNL     1      15.922 -13.595 187.051  1.00  0.00    -0.000 C 
BRANCH  12  13
ATOM     13  C   UNL     1      15.504 -15.045 186.749  1.00  0.00    -0.000 C 
BRANCH  13  14
ATOM     14  C   UNL     1      16.709 -15.965 186.497  1.00  0.00    -0.000 C 
BRANCH  14  15
ATOM     15  C   UNL     1      17.798 -15.818 187.569  1.00  0.00    -0.003 C 
ATOM     16  C   UNL     1      19.162 -15.561 186.936  1.00  0.00     0.004 C 
ENDBRANCH  14  15
ENDBRANCH  13  14
ENDBRANCH  12  13
ENDBRANCH  11  12
ENDBRANCH  10  11
ENDBRANCH   1  10
TORSDOF 12
ENDMDL
MODEL 4
REMARK VINA RESULT:    -3.183      3.426      5.362
REMARK INTER + INTRA:          -7.074
REMARK INTER:                  -5.376
REMARK INTRA:                  -1.698
REMARK UNBOUND:                -1.659
REMARK SMILES CCCCCCCCCCCCCC(=O)[O-]
REMARK SMILES IDX 8 1 9 2 10 3 11 4 12 5 13 6 14 7 15 8 16 9 7 10 6 11 5 12
REMARK SMILES IDX 4 13 3 14 2 15 1 16
REMARK H PARENT
REMARK Flexibility Score: inf
ROOT
ATOM      1  C   UNL     1      19.690  -9.258 188.258  1.00  0.00     0.000 C 
ENDROOT
BRANCH   1   2
ATOM      2  C   UNL     1      19.081 -10.661 188.432  1.00  0.00     0.000 C 
BRANCH   2   3
ATOM      3  C   UNL     1      19.448 -11.603 187.266  1.00  0.00     0.000 C 
BRANCH   3   4
ATOM      4  C   UNL     1      18.241 -12.359 186.682  1.00  0.00     0.000 C 
BRANCH   4   5
ATOM      5  C   UNL     1      18.314 -13.874 186.918  1.00  0.00     0.006 C 
BRANCH   5   6
ATOM      6  C   UNL     1      16.986 -14.549 186.563  1.00  0.00     0.053 C 
BRANCH   6   7
ATOM      7  C   UNL     1      16.513 -15.402 187.698  1.00  0.00     0.041 C 
ATOM      8  O   UNL     1      15.289 -15.444 187.991  1.00  0.00    -0.550 OA
ATOM      9  O   UNL     1      17.429 -16.112 188.464  1.00  0.00    -0.550 OA
ENDBRANCH   6   7
ENDBRANCH   5   6
ENDBRANCH   4   5
ENDBRANCH   3   4
ENDBRANCH   2   3
ENDBRANCH   1   2
BRANCH   1  10
ATOM     10  C   UNL     1      19.766  -8.820 186.788  1.00  0.00     0.000 C 
BRANCH  10  11
ATOM     11  C   UNL     1      19.104  -7.453 186.542  1.00  0.00    -0.000 C 
BRANCH  11  12
ATOM     12  C   UNL     1      17.799  -7.567 185.737  1.00  0.00    -0.000 C 
BRANCH  12  13
ATOM     13  C   UNL     1      17.460  -9.019 185.359  1.00  0.00    -0.000 C 
BRANCH  13  14
ATOM     14  C   UNL     1      16.080  -9.457 185.877  1.00  0.00    -0.000 C 
BRANCH  14  15
ATOM     15  C   UNL     1      15.877  -9.131 187.364  1.00  0.00    -0.003 C 
ATOM     16  C   UNL     1      15.425 -10.364 188.140  1.00  0.00     0.004 C 
ENDBRANCH  14  15
ENDBRANCH  13  14
ENDBRANCH  12  13
ENDBRANCH  11  12
ENDBRANCH  10  11
ENDBRANCH   1  10
TORSDOF 12
ENDMDL
MODEL 5
REMARK VINA RESULT:    -3.164      3.264      5.348
REMARK INTER + INTRA:          -7.042
REMARK INTER:                  -5.564
REMARK INTRA:                  -1.479
REMARK UNBOUND:                -1.659
REMARK SMILES CCCCCCCCCCCCCC(=O)[O-]
REMARK SMILES IDX 8 1 9 2 10 3 11 4 12 5 13 6 14 7 15 8 16 9 7 10 6 11 5 12
REMARK SMILES IDX 4 13 3 14 2 15 1 16
REMARK H PARENT
REMARK Flexibility Score: inf
ROOT
ATOM      1  C   UNL     1      18.958 -10.627 187.893  1.00  0.00     0.000 C 
ENDROOT
BRANCH   1   2
ATOM      2  C   UNL     1      19.391 -12.033 187.438  1.00  0.00     0.000 C 
BRANCH   2   3
ATOM      3  C   UNL     1      18.221 -12.836 186.833  1.00  0.00     0.000 C 
BRANCH   3   4
ATOM      4  C   UNL     1      18.425 -14.359 186.889  1.00  0.00     0.000 C 
BRANCH   4   5
ATOM      5  C   UNL     1      17.151 -15.146 186.554  1.00  0.00     0.006 C 
BRANCH   5   6
ATOM      6  C   UNL     1      15.909 -14.259 186.681  1.00  0.00     0.053 C 
BRANCH   6   7
ATOM      7  C   UNL     1      15.128 -14.265 185.405  1.00  0.00     0.041 C 
ATOM      8  O   UNL     1      14.259 -15.153 185.198  1.00  0.00    -0.550 OA
ATOM      9  O   UNL     1      15.395 -13.321 184.421  1.00  0.00    -0.550 OA
ENDBRANCH   6   7
ENDBRANCH   5   6
ENDBRANCH   4   5
ENDBRANCH   3   4
ENDBRANCH   2   3
ENDBRANCH   1   2
BRANCH   1  10
ATOM     10  C   UNL     1      20.063  -9.576 187.712  1.00  0.00     0.000 C 
BRANCH  10  11
ATOM     11  C   UNL     1      19.658  -8.451 186.744  1.00  0.00    -0.000 C 
BRANCH  11  12
ATOM     12  C   UNL     1      18.601  -8.904 185.724  1.00  0.00    -0.000 C 
BRANCH  12  13
ATOM     13  C   UNL     1      17.495  -7.855 185.511  1.00  0.00    -0.000 C 
BRANCH  13  14
ATOM     14  C   UNL     1      16.085  -8.462 185.582  1.00  0.00    -0.000 C 
BRANCH  14  15
ATOM     15  C   UNL     1      16.103  -9.998 185.583  1.00  0.00    -0.003 C 
ATOM     16  C   UNL     1      15.328 -10.556 186.773  1.00  0.00     0.004 C 
ENDBRANCH  14  15
ENDBRANCH  13  14
ENDBRANCH  12  13
ENDBRANCH  11  12
ENDBRANCH  10  11
ENDBRANCH   1  10
TORSDOF 12
ENDMDL
MODEL 6
REMARK VINA RESULT:    -3.161      1.997      3.502
REMARK INTER + INTRA:          -7.038
REMARK INTER:                  -5.778
REMARK INTRA:                  -1.260
REMARK UNBOUND:                -1.659
REMARK SMILES CCCCCCCCCCCCCC(=O)[O-]
REMARK SMILES IDX 8 1 9 2 10 3 11 4 12 5 13 6 14 7 15 8 16 9 7 10 6 11 5 12
REMARK SMILES IDX 4 13 3 14 2 15 1 16
REMARK H PARENT
REMARK Flexibility Score: inf
ROOT
ATOM      1  C   UNL     1      18.253 -12.558 186.868  1.00  0.00     0.000 C 
ENDROOT
BRANCH   1   2
ATOM      2  C   UNL     1      19.428 -11.641 187.256  1.00  0.00     0.000 C 
BRANCH   2   3
ATOM      3  C   UNL     1      19.018 -10.579 188.297  1.00  0.00     0.000 C 
BRANCH   3   4
ATOM      4  C   UNL     1      19.755  -9.239 188.132  1.00  0.00     0.000 C 
BRANCH   4   5
ATOM      5  C   UNL     1      19.830  -8.773 186.671  1.00  0.00     0.006 C 
BRANCH   5   6
ATOM      6  C   UNL     1      18.848  -7.628 186.410  1.00  0.00     0.053 C 
BRANCH   6   7
ATOM      7  C   UNL     1      17.779  -8.062 185.457  1.00  0.00     0.041 C 
ATOM      8  O   UNL     1      17.040  -7.206 184.902  1.00  0.00    -0.550 OA
ATOM      9  O   UNL     1      17.565  -9.414 185.220  1.00  0.00    -0.550 OA
ENDBRANCH   6   7
ENDBRANCH   5   6
ENDBRANCH   4   5
ENDBRANCH   3   4
ENDBRANCH   2   3
ENDBRANCH   1   2
BRANCH   1  10
ATOM     10  C   UNL     1      18.620 -14.049 186.918  1.00  0.00     0.000 C 
BRANCH  10  11
ATOM     11  C   UNL     1      17.412 -14.965 186.656  1.00  0.00    -0.000 C 
BRANCH  11  12
ATOM     12  C   UNL     1      16.175 -14.559 187.475  1.00  0.00    -0.000 C 
BRANCH  12  13
ATOM     13  C   UNL     1      14.991 -14.134 186.589  1.00  0.00    -0.000 C 
BRANCH  13  14
ATOM     14  C   UNL     1      15.282 -14.312 185.091  1.00  0.00    -0.000 C 
BRANCH  14  15
ATOM     15  C   UNL     1      15.340 -12.975 184.338  1.00  0.00    -0.003 C 
ATOM     16  C   UNL     1      14.889 -11.821 185.229  1.00  0.00     0.004 C 
ENDBRANCH  14  15
ENDBRANCH  13  14
ENDBRANCH  12  13
ENDBRANCH  11  12
ENDBRANCH  10  11
ENDBRANCH   1  10
TORSDOF 12
ENDMDL
MODEL 7
REMARK VINA RESULT:    -3.157      2.534      3.956
REMARK INTER + INTRA:          -7.031
REMARK INTER:                  -5.706
REMARK INTRA:                  -1.325
REMARK UNBOUND:                -1.659
REMARK SMILES CCCCCCCCCCCCCC(=O)[O-]
REMARK SMILES IDX 8 1 9 2 10 3 11 4 12 5 13 6 14 7 15 8 16 9 7 10 6 11 5 12
REMARK SMILES IDX 4 13 3 14 2 15 1 16
REMARK H PARENT
REMARK Flexibility Score: inf
ROOT
ATOM      1  C   UNL     1      17.936 -12.979 186.385  1.00  0.00     0.000 C 
ENDROOT
BRANCH   1   2
ATOM      2  C   UNL     1      18.161 -11.763 187.302  1.00  0.00     0.000 C 
BRANCH   2   3
ATOM      3  C   UNL     1      19.655 -11.540 187.616  1.00  0.00     0.000 C 
BRANCH   3   4
ATOM      4  C   UNL     1      20.076 -10.060 187.588  1.00  0.00     0.000 C 
BRANCH   4   5
ATOM      5  C   UNL     1      19.778  -9.380 186.244  1.00  0.00     0.006 C 
BRANCH   5   6
ATOM      6  C   UNL     1      18.822  -8.198 186.428  1.00  0.00     0.053 C 
BRANCH   6   7
ATOM      7  C   UNL     1      17.738  -8.237 185.397  1.00  0.00     0.041 C 
ATOM      8  O   UNL     1      17.333  -9.341 184.944  1.00  0.00    -0.550 OA
ATOM      9  O   UNL     1      17.210  -7.053 184.898  1.00  0.00    -0.550 OA
ENDBRANCH   6   7
ENDBRANCH   5   6
ENDBRANCH   4   5
ENDBRANCH   3   4
ENDBRANCH   2   3
ENDBRANCH   1   2
BRANCH   1  10
ATOM     10  C   UNL     1      18.628 -14.250 186.901  1.00  0.00     0.000 C 
BRANCH  10  11
ATOM     11  C   UNL     1      17.662 -15.441 187.028  1.00  0.00    -0.000 C 
BRANCH  11  12
ATOM     12  C   UNL     1      16.407 -15.277 186.156  1.00  0.00    -0.000 C 
BRANCH  12  13
ATOM     13  C   UNL     1      15.104 -15.345 186.972  1.00  0.00    -0.000 C 
BRANCH  13  14
ATOM     14  C   UNL     1      15.334 -15.091 188.470  1.00  0.00    -0.000 C 
BRANCH  14  15
ATOM     15  C   UNL     1      14.475 -13.939 189.012  1.00  0.00    -0.003 C 
ATOM     16  C   UNL     1      14.628 -12.687 188.152  1.00  0.00     0.004 C 
ENDBRANCH  14  15
ENDBRANCH  13  14
ENDBRANCH  12  13
ENDBRANCH  11  12
ENDBRANCH  10  11
ENDBRANCH   1  10
TORSDOF 12
ENDMDL
MODEL 8
REMARK VINA RESULT:    -3.157      1.928      4.221
REMARK INTER + INTRA:          -7.031
REMARK INTER:                  -5.360
REMARK INTRA:                  -1.670
REMARK UNBOUND:                -1.659
REMARK SMILES CCCCCCCCCCCCCC(=O)[O-]
REMARK SMILES IDX 8 1 9 2 10 3 11 4 12 5 13 6 14 7 15 8 16 9 7 10 6 11 5 12
REMARK SMILES IDX 4 13 3 14 2 15 1 16
REMARK H PARENT
REMARK Flexibility Score: inf
ROOT
ATOM      1  C   UNL     1      14.845 -13.328 186.479  1.00  0.00     0.000 C 
ENDROOT
BRANCH   1   2
ATOM      2  C   UNL     1      15.203 -13.638 185.013  1.00  0.00     0.000 C 
BRANCH   2   3
ATOM      3  C   UNL     1      15.474 -12.356 184.198  1.00  0.00     0.000 C 
BRANCH   3   4
ATOM      4  C   UNL     1      15.196 -11.060 184.978  1.00  0.00     0.000 C 
BRANCH   4   5
ATOM      5  C   UNL     1      15.294  -9.802 184.103  1.00  0.00     0.006 C 
BRANCH   5   6
ATOM      6  C   UNL     1      15.523  -8.554 184.960  1.00  0.00     0.053 C 
BRANCH   6   7
ATOM      7  C   UNL     1      16.902  -8.016 184.744  1.00  0.00     0.041 C 
ATOM      8  O   UNL     1      17.066  -6.817 184.392  1.00  0.00    -0.550 OA
ATOM      9  O   UNL     1      18.004  -8.850 184.882  1.00  0.00    -0.550 OA
ENDBRANCH   6   7
ENDBRANCH   5   6
ENDBRANCH   4   5
ENDBRANCH   3   4
ENDBRANCH   2   3
ENDBRANCH   1   2
BRANCH   1  10
ATOM     10  C   UNL     1      15.964 -13.712 187.459  1.00  0.00     0.000 C 
BRANCH  10  11
ATOM     11  C   UNL     1      17.107 -14.486 186.779  1.00  0.00    -0.000 C 
BRANCH  11  12
ATOM     12  C   UNL     1      18.462 -13.771 186.908  1.00  0.00    -0.000 C 
BRANCH  12  13
ATOM     13  C   UNL     1      18.375 -12.271 186.574  1.00  0.00    -0.000 C 
BRANCH  13  14
ATOM     14  C   UNL     1      19.438 -11.441 187.310  1.00  0.00    -0.000 C 
BRANCH  14  15
ATOM     15  C   UNL     1      18.823 -10.422 188.281  1.00  0.00    -0.003 C 
ATOM     16  C   UNL     1      17.332 -10.237 188.014  1.00  0.00     0.004 C 
ENDBRANCH  14  15
ENDBRANCH  13  14
ENDBRANCH  12  13
ENDBRANCH  11  12
ENDBRANCH  10  11
ENDBRANCH   1  10
TORSDOF 12
ENDMDL
MODEL 9
REMARK VINA RESULT:    -3.113     17.332     19.225
REMARK INTER + INTRA:          -6.955
REMARK INTER:                  -4.984
REMARK INTRA:                  -1.972
REMARK UNBOUND:                -1.659
REMARK SMILES CCCCCCCCCCCCCC(=O)[O-]
REMARK SMILES IDX 8 1 9 2 10 3 11 4 12 5 13 6 14 7 15 8 16 9 7 10 6 11 5 12
REMARK SMILES IDX 4 13 3 14 2 15 1 16
REMARK H PARENT
REMARK Flexibility Score: inf
ROOT
ATOM      1  C   UNL     1      15.095  -1.234 200.376  1.00  0.00     0.000 C 
ENDROOT
BRANCH   1   2
ATOM      2  C   UNL     1      13.774  -0.446 200.451  1.00  0.00     0.000 C 
BRANCH   2   3
ATOM      3  C   UNL     1      13.943   0.906 201.174  1.00  0.00     0.000 C 
BRANCH   3   4
ATOM      4  C   UNL     1      15.405   1.242 201.516  1.00  0.00     0.000 C 
BRANCH   4   5
ATOM      5  C   UNL     1      15.601   1.626 202.989  1.00  0.00     0.006 C 
BRANCH   5   6
ATOM      6  C   UNL     1      16.154   0.447 203.794  1.00  0.00     0.053 C 
BRANCH   6   7
ATOM      7  C   UNL     1      17.564   0.153 203.391  1.00  0.00     0.041 C 
ATOM      8  O   UNL     1      18.392   1.092 203.252  1.00  0.00    -0.550 OA
ATOM      9  O   UNL     1      17.953  -1.153 203.119  1.00  0.00    -0.550 OA
ENDBRANCH   6   7
ENDBRANCH   5   6
ENDBRANCH   4   5
ENDBRANCH   3   4
ENDBRANCH   2   3
ENDBRANCH   1   2
BRANCH   1  10
ATOM     10  C   UNL     1      15.156  -2.389 201.387  1.00  0.00     0.000 C 
BRANCH  10  11
ATOM     11  C   UNL     1      13.790  -2.691 202.025  1.00  0.00    -0.000 C 
BRANCH  11  12
ATOM     12  C   UNL     1      13.791  -2.482 203.549  1.00  0.00    -0.000 C 
BRANCH  12  13
ATOM     13  C   UNL     1      12.517  -1.783 204.052  1.00  0.00    -0.000 C 
BRANCH  13  14
ATOM     14  C   UNL     1      11.354  -1.885 203.053  1.00  0.00    -0.000 C 
BRANCH  14  15
ATOM     15  C   UNL     1      10.815  -0.511 202.631  1.00  0.00    -0.003 C 
ATOM     16  C   UNL     1      10.131  -0.582 201.269  1.00  0.00     0.004 C 
ENDBRANCH  14  15
ENDBRANCH  13  14
ENDBRANCH  12  13
ENDBRANCH  11  12
ENDBRANCH  10  11
ENDBRANCH   1  10
TORSDOF 12
ENDMDL
