MODEL 1
REMARK VINA RESULT:    -4.094      0.000      0.000
REMARK INTER + INTRA:         -13.094
REMARK INTER:                  -9.360
REMARK INTRA:                  -3.734
REMARK UNBOUND:                -3.734
REMARK SMILES CCCCCCCCCCCCCCCCCCCCCCCC(=O)[O-]
REMARK SMILES IDX 13 1 14 2 15 3 16 4 17 5 18 6 19 7 20 8 21 9 22 10 23 11
REMARK SMILES IDX 24 12 25 13 26 14 12 15 11 16 10 17 9 18 8 19 7 20 6 21 5 22
REMARK SMILES IDX 4 23 3 24 2 25 1 26
REMARK H PARENT
REMARK Flexibility Score: inf
ROOT
ATOM      1  C   UNL     1      -2.201  58.731  48.853  1.00  0.00     0.000 C 
ENDROOT
BRANCH   1   2
ATOM      2  C   UNL     1      -3.408  59.686  48.866  1.00  0.00     0.000 C 
BRANCH   2   3
ATOM      3  C   UNL     1      -3.890  60.164  47.480  1.00  0.00     0.000 C 
BRANCH   3   4
ATOM      4  C   UNL     1      -2.811  60.828  46.605  1.00  0.00     0.000 C 
BRANCH   4   5
ATOM      5  C   UNL     1      -3.279  61.081  45.165  1.00  0.00     0.000 C 
BRANCH   5   6
ATOM      6  C   UNL     1      -2.899  62.496  44.706  1.00  0.00     0.000 C 
BRANCH   6   7
ATOM      7  C   UNL     1      -2.343  63.367  45.846  1.00  0.00     0.000 C 
BRANCH   7   8
ATOM      8  C   UNL     1      -1.932  64.795  45.436  1.00  0.00     0.000 C 
BRANCH   8   9
ATOM      9  C   UNL     1      -1.611  65.745  46.605  1.00  0.00     0.000 C 
BRANCH   9  10
ATOM     10  C   UNL     1      -0.135  66.170  46.720  1.00  0.00     0.006 C 
BRANCH  10  11
ATOM     11  C   UNL     1       0.427  66.099  48.152  1.00  0.00     0.053 C 
BRANCH  11  12
ATOM     12  C   UNL     1       1.755  65.408  48.210  1.00  0.00     0.041 C 
ATOM     13  O   UNL     1       2.462  65.296  47.174  1.00  0.00    -0.550 OA
ATOM     14  O   UNL     1       2.225  64.904  49.417  1.00  0.00    -0.550 OA
ENDBRANCH  11  12
ENDBRANCH  10  11
ENDBRANCH   9  10
ENDBRANCH   8   9
ENDBRANCH   7   8
ENDBRANCH   6   7
ENDBRANCH   5   6
ENDBRANCH   4   5
ENDBRANCH   3   4
ENDBRANCH   2   3
ENDBRANCH   1   2
BRANCH   1  15
ATOM     15  C   UNL     1      -2.604  57.251  48.957  1.00  0.00     0.000 C 
BRANCH  15  16
ATOM     16  C   UNL     1      -2.377  56.480  47.645  1.00  0.00     0.000 C 
BRANCH  16  17
ATOM     17  C   UNL     1      -3.435  56.718  46.548  1.00  0.00     0.000 C 
BRANCH  17  18
ATOM     18  C   UNL     1      -2.921  57.424  45.280  1.00  0.00    -0.000 C 
BRANCH  18  19
ATOM     19  C   UNL     1      -1.410  57.707  45.328  1.00  0.00    -0.000 C 
BRANCH  19  20
ATOM     20  C   UNL     1      -0.782  57.803  43.928  1.00  0.00    -0.000 C 
BRANCH  20  21
ATOM     21  C   UNL     1       0.706  58.193  43.968  1.00  0.00    -0.000 C 
BRANCH  21  22
ATOM     22  C   UNL     1       0.974  59.558  43.296  1.00  0.00    -0.000 C 
BRANCH  22  23
ATOM     23  C   UNL     1       0.313  60.748  44.018  1.00  0.00    -0.000 C 
BRANCH  23  24
ATOM     24  C   UNL     1       0.725  60.925  45.489  1.00  0.00    -0.000 C 
BRANCH  24  25
ATOM     25  C   UNL     1       1.265  62.330  45.791  1.00  0.00    -0.003 C 
ATOM     26  C   UNL     1       1.281  63.195  44.534  1.00  0.00     0.004 C 
ENDBRANCH  24  25
ENDBRANCH  23  24
ENDBRANCH  22  23
ENDBRANCH  21  22
ENDBRANCH  20  21
ENDBRANCH  19  20
ENDBRANCH  18  19
ENDBRANCH  17  18
ENDBRANCH  16  17
ENDBRANCH  15  16
ENDBRANCH   1  15
TORSDOF 22
ENDMDL
MODEL 2
REMARK VINA RESULT:    -4.068     10.339     13.054
REMARK INTER + INTRA:         -13.034
REMARK INTER:                 -10.595
REMARK INTRA:                  -2.440
REMARK UNBOUND:                -3.734
REMARK SMILES CCCCCCCCCCCCCCCCCCCCCCCC(=O)[O-]
REMARK SMILES IDX 13 1 14 2 15 3 16 4 17 5 18 6 19 7 20 8 21 9 22 10 23 11
REMARK SMILES IDX 24 12 25 13 26 14 12 15 11 16 10 17 9 18 8 19 7 20 6 21 5 22
REMARK SMILES IDX 4 23 3 24 2 25 1 26
REMARK H PARENT
REMARK Flexibility Score: inf
ROOT
ATOM      1  C   UNL     1       7.754  59.683  56.618  1.00  0.00     0.000 C 
ENDROOT
BRANCH   1   2
ATOM      2  C   UNL     1       6.347  59.127  56.902  1.00  0.00     0.000 C 
BRANCH   2   3
ATOM      3  C   UNL     1       5.694  59.613  58.214  1.00  0.00     0.000 C 
BRANCH   3   4
ATOM      4  C   UNL     1       4.804  60.862  58.078  1.00  0.00     0.000 C 
BRANCH   4   5
ATOM      5  C   UNL     1       5.077  61.913  59.164  1.00  0.00     0.000 C 
BRANCH   5   6
ATOM      6  C   UNL     1       6.488  61.744  59.747  1.00  0.00     0.000 C 
BRANCH   6   7
ATOM      7  C   UNL     1       7.539  62.611  59.034  1.00  0.00     0.000 C 
BRANCH   7   8
ATOM      8  C   UNL     1       9.001  62.327  59.435  1.00  0.00     0.000 C 
BRANCH   8   9
ATOM      9  C   UNL     1       9.966  63.516  59.279  1.00  0.00     0.000 C 
BRANCH   9  10
ATOM     10  C   UNL     1       9.722  64.401  58.041  1.00  0.00     0.006 C 
BRANCH  10  11
ATOM     11  C   UNL     1      10.401  63.884  56.759  1.00  0.00     0.053 C 
BRANCH  11  12
ATOM     12  C   UNL     1      10.665  64.981  55.772  1.00  0.00     0.041 C 
ATOM     13  O   UNL     1      10.625  66.187  56.134  1.00  0.00    -0.550 OA
ATOM     14  O   UNL     1      10.979  64.671  54.455  1.00  0.00    -0.550 OA
ENDBRANCH  11  12
ENDBRANCH  10  11
ENDBRANCH   9  10
ENDBRANCH   8   9
ENDBRANCH   7   8
ENDBRANCH   6   7
ENDBRANCH   5   6
ENDBRANCH   4   5
ENDBRANCH   3   4
ENDBRANCH   2   3
ENDBRANCH   1   2
BRANCH   1  15
ATOM     15  C   UNL     1       7.730  61.041  55.898  1.00  0.00     0.000 C 
BRANCH  15  16
ATOM     16  C   UNL     1       8.761  61.126  54.757  1.00  0.00     0.000 C 
BRANCH  16  17
ATOM     17  C   UNL     1       8.181  61.005  53.333  1.00  0.00     0.000 C 
BRANCH  17  18
ATOM     18  C   UNL     1       8.879  61.863  52.263  1.00  0.00    -0.000 C 
BRANCH  18  19
ATOM     19  C   UNL     1       7.888  62.518  51.286  1.00  0.00    -0.000 C 
BRANCH  19  20
ATOM     20  C   UNL     1       6.431  62.109  51.558  1.00  0.00    -0.000 C 
BRANCH  20  21
ATOM     21  C   UNL     1       5.463  62.585  50.461  1.00  0.00    -0.000 C 
BRANCH  21  22
ATOM     22  C   UNL     1       6.031  63.771  49.650  1.00  0.00    -0.000 C 
BRANCH  22  23
ATOM     23  C   UNL     1       5.793  63.658  48.132  1.00  0.00    -0.000 C 
BRANCH  23  24
ATOM     24  C   UNL     1       6.910  62.946  47.350  1.00  0.00    -0.000 C 
BRANCH  24  25
ATOM     25  C   UNL     1       8.315  63.330  47.837  1.00  0.00    -0.003 C 
ATOM     26  C   UNL     1       9.303  62.187  47.622  1.00  0.00     0.004 C 
ENDBRANCH  24  25
ENDBRANCH  23  24
ENDBRANCH  22  23
ENDBRANCH  21  22
ENDBRANCH  20  21
ENDBRANCH  19  20
ENDBRANCH  18  19
ENDBRANCH  17  18
ENDBRANCH  16  17
ENDBRANCH  15  16
ENDBRANCH   1  15
TORSDOF 22
ENDMDL
MODEL 3
REMARK VINA RESULT:    -4.067     11.423     14.260
REMARK INTER + INTRA:         -13.033
REMARK INTER:                 -10.518
REMARK INTRA:                  -2.515
REMARK UNBOUND:                -3.734
REMARK SMILES CCCCCCCCCCCCCCCCCCCCCCCC(=O)[O-]
REMARK SMILES IDX 13 1 14 2 15 3 16 4 17 5 18 6 19 7 20 8 21 9 22 10 23 11
REMARK SMILES IDX 24 12 25 13 26 14 12 15 11 16 10 17 9 18 8 19 7 20 6 21 5 22
REMARK SMILES IDX 4 23 3 24 2 25 1 26
REMARK H PARENT
REMARK Flexibility Score: inf
ROOT
ATOM      1  C   UNL     1       7.874  59.483  55.138  1.00  0.00     0.000 C 
ENDROOT
BRANCH   1   2
ATOM      2  C   UNL     1       7.614  59.272  56.640  1.00  0.00     0.000 C 
BRANCH   2   3
ATOM      3  C   UNL     1       6.138  59.385  57.079  1.00  0.00     0.000 C 
BRANCH   3   4
ATOM      4  C   UNL     1       5.480  60.751  56.815  1.00  0.00     0.000 C 
BRANCH   4   5
ATOM      5  C   UNL     1       4.325  61.056  57.780  1.00  0.00     0.000 C 
BRANCH   5   6
ATOM      6  C   UNL     1       4.852  61.329  59.197  1.00  0.00     0.000 C 
BRANCH   6   7
ATOM      7  C   UNL     1       5.910  62.445  59.238  1.00  0.00     0.000 C 
BRANCH   7   8
ATOM      8  C   UNL     1       7.340  61.977  59.577  1.00  0.00     0.000 C 
BRANCH   8   9
ATOM      9  C   UNL     1       8.399  62.275  58.500  1.00  0.00     0.000 C 
BRANCH   9  10
ATOM     10  C   UNL     1       9.384  63.409  58.843  1.00  0.00     0.006 C 
BRANCH  10  11
ATOM     11  C   UNL     1      10.788  62.918  59.240  1.00  0.00     0.053 C 
BRANCH  11  12
ATOM     12  C   UNL     1      10.972  62.859  60.727  1.00  0.00     0.041 C 
ATOM     13  O   UNL     1      10.294  62.057  61.422  1.00  0.00    -0.550 OA
ATOM     14  O   UNL     1      11.911  63.676  61.344  1.00  0.00    -0.550 OA
ENDBRANCH  11  12
ENDBRANCH  10  11
ENDBRANCH   9  10
ENDBRANCH   8   9
ENDBRANCH   7   8
ENDBRANCH   6   7
ENDBRANCH   5   6
ENDBRANCH   4   5
ENDBRANCH   3   4
ENDBRANCH   2   3
ENDBRANCH   1   2
BRANCH   1  15
ATOM     15  C   UNL     1       8.375  60.898  54.807  1.00  0.00     0.000 C 
BRANCH  15  16
ATOM     16  C   UNL     1       8.521  61.138  53.294  1.00  0.00     0.000 C 
BRANCH  16  17
ATOM     17  C   UNL     1       7.220  61.517  52.558  1.00  0.00     0.000 C 
BRANCH  17  18
ATOM     18  C   UNL     1       7.411  62.165  51.174  1.00  0.00    -0.000 C 
BRANCH  18  19
ATOM     19  C   UNL     1       8.892  62.355  50.806  1.00  0.00    -0.000 C 
BRANCH  19  20
ATOM     20  C   UNL     1       9.080  63.103  49.476  1.00  0.00    -0.000 C 
BRANCH  20  21
ATOM     21  C   UNL     1       9.802  64.451  49.647  1.00  0.00    -0.000 C 
BRANCH  21  22
ATOM     22  C   UNL     1       9.799  64.937  51.113  1.00  0.00    -0.000 C 
BRANCH  22  23
ATOM     23  C   UNL     1      11.208  65.130  51.708  1.00  0.00    -0.000 C 
BRANCH  23  24
ATOM     24  C   UNL     1      11.276  65.081  53.244  1.00  0.00    -0.000 C 
BRANCH  24  25
ATOM     25  C   UNL     1      10.947  63.691  53.810  1.00  0.00    -0.003 C 
ATOM     26  C   UNL     1      10.827  63.732  55.330  1.00  0.00     0.004 C 
ENDBRANCH  24  25
ENDBRANCH  23  24
ENDBRANCH  22  23
ENDBRANCH  21  22
ENDBRANCH  20  21
ENDBRANCH  19  20
ENDBRANCH  18  19
ENDBRANCH  17  18
ENDBRANCH  16  17
ENDBRANCH  15  16
ENDBRANCH   1  15
TORSDOF 22
ENDMDL
MODEL 4
REMARK VINA RESULT:    -3.940     10.121     12.919
REMARK INTER + INTRA:         -12.742
REMARK INTER:                 -10.410
REMARK INTRA:                  -2.332
REMARK UNBOUND:                -3.734
REMARK SMILES CCCCCCCCCCCCCCCCCCCCCCCC(=O)[O-]
REMARK SMILES IDX 13 1 14 2 15 3 16 4 17 5 18 6 19 7 20 8 21 9 22 10 23 11
REMARK SMILES IDX 24 12 25 13 26 14 12 15 11 16 10 17 9 18 8 19 7 20 6 21 5 22
REMARK SMILES IDX 4 23 3 24 2 25 1 26
REMARK H PARENT
REMARK Flexibility Score: inf
ROOT
ATOM      1  C   UNL     1       7.894  59.359  55.298  1.00  0.00     0.000 C 
ENDROOT
BRANCH   1   2
ATOM      2  C   UNL     1       7.594  59.050  56.775  1.00  0.00     0.000 C 
BRANCH   2   3
ATOM      3  C   UNL     1       6.113  59.178  57.192  1.00  0.00     0.000 C 
BRANCH   3   4
ATOM      4  C   UNL     1       5.851  60.088  58.406  1.00  0.00     0.000 C 
BRANCH   4   5
ATOM      5  C   UNL     1       6.346  61.527  58.194  1.00  0.00     0.000 C 
BRANCH   5   6
ATOM      6  C   UNL     1       7.445  61.882  59.207  1.00  0.00     0.000 C 
BRANCH   6   7
ATOM      7  C   UNL     1       8.766  62.297  58.537  1.00  0.00     0.000 C 
BRANCH   7   8
ATOM      8  C   UNL     1       9.222  63.740  58.830  1.00  0.00     0.000 C 
BRANCH   8   9
ATOM      9  C   UNL     1       9.694  64.540  57.602  1.00  0.00     0.000 C 
BRANCH   9  10
ATOM     10  C   UNL     1      10.848  63.901  56.806  1.00  0.00     0.006 C 
BRANCH  10  11
ATOM     11  C   UNL     1      10.595  63.826  55.289  1.00  0.00     0.053 C 
BRANCH  11  12
ATOM     12  C   UNL     1      11.504  64.732  54.514  1.00  0.00     0.041 C 
ATOM     13  O   UNL     1      11.853  65.844  54.991  1.00  0.00    -0.550 OA
ATOM     14  O   UNL     1      11.985  64.338  53.272  1.00  0.00    -0.550 OA
ENDBRANCH  11  12
ENDBRANCH  10  11
ENDBRANCH   9  10
ENDBRANCH   8   9
ENDBRANCH   7   8
ENDBRANCH   6   7
ENDBRANCH   5   6
ENDBRANCH   4   5
ENDBRANCH   3   4
ENDBRANCH   2   3
ENDBRANCH   1   2
BRANCH   1  15
ATOM     15  C   UNL     1       7.991  60.866  55.007  1.00  0.00     0.000 C 
BRANCH  15  16
ATOM     16  C   UNL     1       8.859  61.178  53.774  1.00  0.00     0.000 C 
BRANCH  16  17
ATOM     17  C   UNL     1       8.084  61.611  52.514  1.00  0.00     0.000 C 
BRANCH  17  18
ATOM     18  C   UNL     1       8.925  62.312  51.432  1.00  0.00    -0.000 C 
BRANCH  18  19
ATOM     19  C   UNL     1       8.565  61.855  50.008  1.00  0.00    -0.000 C 
BRANCH  19  20
ATOM     20  C   UNL     1       9.334  62.629  48.926  1.00  0.00    -0.000 C 
BRANCH  20  21
ATOM     21  C   UNL     1       8.447  63.627  48.161  1.00  0.00    -0.000 C 
BRANCH  21  22
ATOM     22  C   UNL     1       7.376  62.920  47.300  1.00  0.00    -0.000 C 
BRANCH  22  23
ATOM     23  C   UNL     1       5.929  63.294  47.674  1.00  0.00    -0.000 C 
BRANCH  23  24
ATOM     24  C   UNL     1       5.729  63.738  49.133  1.00  0.00    -0.000 C 
BRANCH  24  25
ATOM     25  C   UNL     1       5.097  62.644  50.006  1.00  0.00    -0.003 C 
ATOM     26  C   UNL     1       4.935  63.117  51.448  1.00  0.00     0.004 C 
ENDBRANCH  24  25
ENDBRANCH  23  24
ENDBRANCH  22  23
ENDBRANCH  21  22
ENDBRANCH  20  21
ENDBRANCH  19  20
ENDBRANCH  18  19
ENDBRANCH  17  18
ENDBRANCH  16  17
ENDBRANCH  15  16
ENDBRANCH   1  15
TORSDOF 22
ENDMDL
MODEL 5
REMARK VINA RESULT:    -3.836     10.497     13.422
REMARK INTER + INTRA:         -12.503
REMARK INTER:                  -9.489
REMARK INTRA:                  -3.014
REMARK UNBOUND:                -3.734
REMARK SMILES CCCCCCCCCCCCCCCCCCCCCCCC(=O)[O-]
REMARK SMILES IDX 13 1 14 2 15 3 16 4 17 5 18 6 19 7 20 8 21 9 22 10 23 11
REMARK SMILES IDX 24 12 25 13 26 14 12 15 11 16 10 17 9 18 8 19 7 20 6 21 5 22
REMARK SMILES IDX 4 23 3 24 2 25 1 26
REMARK H PARENT
REMARK Flexibility Score: inf
ROOT
ATOM      1  C   UNL     1       6.270  60.868  59.222  1.00  0.00     0.000 C 
ENDROOT
BRANCH   1   2
ATOM      2  C   UNL     1       7.265  61.911  59.763  1.00  0.00     0.000 C 
BRANCH   2   3
ATOM      3  C   UNL     1       8.046  62.700  58.691  1.00  0.00     0.000 C 
BRANCH   3   4
ATOM      4  C   UNL     1       9.532  62.322  58.552  1.00  0.00     0.000 C 
BRANCH   4   5
ATOM      5  C   UNL     1      10.442  63.538  58.327  1.00  0.00     0.000 C 
BRANCH   5   6
ATOM      6  C   UNL     1       9.722  64.614  57.500  1.00  0.00     0.000 C 
BRANCH   6   7
ATOM      7  C   UNL     1      10.394  64.874  56.141  1.00  0.00     0.000 C 
BRANCH   7   8
ATOM      8  C   UNL     1      11.122  63.660  55.529  1.00  0.00     0.000 C 
BRANCH   8   9
ATOM      9  C   UNL     1      10.914  63.466  54.016  1.00  0.00     0.000 C 
BRANCH   9  10
ATOM     10  C   UNL     1      10.932  64.760  53.180  1.00  0.00     0.006 C 
BRANCH  10  11
ATOM     11  C   UNL     1      10.242  64.628  51.809  1.00  0.00     0.053 C 
BRANCH  11  12
ATOM     12  C   UNL     1      10.895  65.474  50.758  1.00  0.00     0.041 C 
ATOM     13  O   UNL     1      12.150  65.514  50.662  1.00  0.00    -0.550 OA
ATOM     14  O   UNL     1      10.115  66.201  49.867  1.00  0.00    -0.550 OA
ENDBRANCH  11  12
ENDBRANCH  10  11
ENDBRANCH   9  10
ENDBRANCH   8   9
ENDBRANCH   7   8
ENDBRANCH   6   7
ENDBRANCH   5   6
ENDBRANCH   4   5
ENDBRANCH   3   4
ENDBRANCH   2   3
ENDBRANCH   1   2
BRANCH   1  15
ATOM     15  C   UNL     1       5.423  61.396  58.052  1.00  0.00     0.000 C 
BRANCH  15  16
ATOM     16  C   UNL     1       5.620  60.581  56.761  1.00  0.00     0.000 C 
BRANCH  16  17
ATOM     17  C   UNL     1       6.677  59.460  56.843  1.00  0.00     0.000 C 
BRANCH  17  18
ATOM     18  C   UNL     1       8.012  59.762  56.138  1.00  0.00    -0.000 C 
BRANCH  18  19
ATOM     19  C   UNL     1       7.928  60.980  55.202  1.00  0.00    -0.000 C 
BRANCH  19  20
ATOM     20  C   UNL     1       8.056  60.595  53.719  1.00  0.00    -0.000 C 
BRANCH  20  21
ATOM     21  C   UNL     1       7.797  61.780  52.772  1.00  0.00    -0.000 C 
BRANCH  21  22
ATOM     22  C   UNL     1       6.418  61.690  52.082  1.00  0.00    -0.000 C 
BRANCH  22  23
ATOM     23  C   UNL     1       6.208  62.735  50.969  1.00  0.00    -0.000 C 
BRANCH  23  24
ATOM     24  C   UNL     1       6.612  62.271  49.559  1.00  0.00    -0.000 C 
BRANCH  24  25
ATOM     25  C   UNL     1       7.925  62.905  49.078  1.00  0.00    -0.003 C 
ATOM     26  C   UNL     1       9.087  61.923  49.199  1.00  0.00     0.004 C 
ENDBRANCH  24  25
ENDBRANCH  23  24
ENDBRANCH  22  23
ENDBRANCH  21  22
ENDBRANCH  20  21
ENDBRANCH  19  20
ENDBRANCH  18  19
ENDBRANCH  17  18
ENDBRANCH  16  17
ENDBRANCH  15  16
ENDBRANCH   1  15
TORSDOF 22
ENDMDL
MODEL 6
REMARK VINA RESULT:    -3.797      3.244      5.742
REMARK INTER + INTRA:         -12.414
REMARK INTER:                  -9.783
REMARK INTRA:                  -2.631
REMARK UNBOUND:                -3.734
REMARK SMILES CCCCCCCCCCCCCCCCCCCCCCCC(=O)[O-]
REMARK SMILES IDX 13 1 14 2 15 3 16 4 17 5 18 6 19 7 20 8 21 9 22 10 23 11
REMARK SMILES IDX 24 12 25 13 26 14 12 15 11 16 10 17 9 18 8 19 7 20 6 21 5 22
REMARK SMILES IDX 4 23 3 24 2 25 1 26
REMARK H PARENT
REMARK Flexibility Score: inf
ROOT
ATOM      1  C   UNL     1       0.668  59.146  44.371  1.00  0.00     0.000 C 
ENDROOT
BRANCH   1   2
ATOM      2  C   UNL     1       1.416  60.484  44.514  1.00  0.00     0.000 C 
BRANCH   2   3
ATOM      3  C   UNL     1       1.122  61.273  45.807  1.00  0.00     0.000 C 
BRANCH   3   4
ATOM      4  C   UNL     1       1.602  62.735  45.805  1.00  0.00     0.000 C 
BRANCH   4   5
ATOM      5  C   UNL     1       1.694  63.335  44.395  1.00  0.00     0.000 C 
BRANCH   5   6
ATOM      6  C   UNL     1       3.152  63.648  44.026  1.00  0.00     0.000 C 
BRANCH   6   7
ATOM      7  C   UNL     1       4.102  63.584  45.234  1.00  0.00     0.000 C 
BRANCH   7   8
ATOM      8  C   UNL     1       5.604  63.620  44.886  1.00  0.00     0.000 C 
BRANCH   8   9
ATOM      9  C   UNL     1       6.536  62.999  45.942  1.00  0.00     0.000 C 
BRANCH   9  10
ATOM     10  C   UNL     1       6.169  63.310  47.406  1.00  0.00     0.006 C 
BRANCH  10  11
ATOM     11  C   UNL     1       7.377  63.681  48.287  1.00  0.00     0.053 C 
BRANCH  11  12
ATOM     12  C   UNL     1       8.191  62.483  48.672  1.00  0.00     0.041 C 
ATOM     13  O   UNL     1       9.189  62.143  47.982  1.00  0.00    -0.550 OA
ATOM     14  O   UNL     1       7.863  61.754  49.807  1.00  0.00    -0.550 OA
ENDBRANCH  11  12
ENDBRANCH  10  11
ENDBRANCH   9  10
ENDBRANCH   8   9
ENDBRANCH   7   8
ENDBRANCH   6   7
ENDBRANCH   5   6
ENDBRANCH   4   5
ENDBRANCH   3   4
ENDBRANCH   2   3
ENDBRANCH   1   2
BRANCH   1  15
ATOM     15  C   UNL     1      -0.687  59.134  45.098  1.00  0.00     0.000 C 
BRANCH  15  16
ATOM     16  C   UNL     1      -1.269  57.717  45.246  1.00  0.00     0.000 C 
BRANCH  16  17
ATOM     17  C   UNL     1      -2.809  57.635  45.266  1.00  0.00     0.000 C 
BRANCH  17  18
ATOM     18  C   UNL     1      -3.412  56.884  46.468  1.00  0.00    -0.000 C 
BRANCH  18  19
ATOM     19  C   UNL     1      -2.373  56.574  47.558  1.00  0.00    -0.000 C 
BRANCH  19  20
ATOM     20  C   UNL     1      -2.636  57.344  48.862  1.00  0.00    -0.000 C 
BRANCH  20  21
ATOM     21  C   UNL     1      -2.221  58.823  48.776  1.00  0.00    -0.000 C 
BRANCH  21  22
ATOM     22  C   UNL     1      -3.430  59.780  48.869  1.00  0.00    -0.000 C 
BRANCH  22  23
ATOM     23  C   UNL     1      -3.974  60.232  47.500  1.00  0.00    -0.000 C 
BRANCH  23  24
ATOM     24  C   UNL     1      -3.073  61.216  46.736  1.00  0.00    -0.000 C 
BRANCH  24  25
ATOM     25  C   UNL     1      -3.488  61.386  45.267  1.00  0.00    -0.003 C 
ATOM     26  C   UNL     1      -2.529  62.315  44.529  1.00  0.00     0.004 C 
ENDBRANCH  24  25
ENDBRANCH  23  24
ENDBRANCH  22  23
ENDBRANCH  21  22
ENDBRANCH  20  21
ENDBRANCH  19  20
ENDBRANCH  18  19
ENDBRANCH  17  18
ENDBRANCH  16  17
ENDBRANCH  15  16
ENDBRANCH   1  15
TORSDOF 22
ENDMDL
MODEL 7
REMARK VINA RESULT:    -3.789      1.643      4.687
REMARK INTER + INTRA:         -12.396
REMARK INTER:                  -9.589
REMARK INTRA:                  -2.807
REMARK UNBOUND:                -3.734
REMARK SMILES CCCCCCCCCCCCCCCCCCCCCCCC(=O)[O-]
REMARK SMILES IDX 13 1 14 2 15 3 16 4 17 5 18 6 19 7 20 8 21 9 22 10 23 11
REMARK SMILES IDX 24 12 25 13 26 14 12 15 11 16 10 17 9 18 8 19 7 20 6 21 5 22
REMARK SMILES IDX 4 23 3 24 2 25 1 26
REMARK H PARENT
REMARK Flexibility Score: inf
ROOT
ATOM      1  C   UNL     1       1.635  60.606  43.610  1.00  0.00     0.000 C 
ENDROOT
BRANCH   1   2
ATOM      2  C   UNL     1       1.149  60.790  45.059  1.00  0.00     0.000 C 
BRANCH   2   3
ATOM      3  C   UNL     1      -0.003  61.801  45.248  1.00  0.00     0.000 C 
BRANCH   3   4
ATOM      4  C   UNL     1      -0.503  62.472  43.956  1.00  0.00     0.000 C 
BRANCH   4   5
ATOM      5  C   UNL     1      -1.839  63.205  44.140  1.00  0.00     0.000 C 
BRANCH   5   6
ATOM      6  C   UNL     1      -1.943  63.810  45.548  1.00  0.00     0.000 C 
BRANCH   6   7
ATOM      7  C   UNL     1      -1.304  65.206  45.649  1.00  0.00     0.000 C 
BRANCH   7   8
ATOM      8  C   UNL     1      -0.087  65.301  46.591  1.00  0.00     0.000 C 
BRANCH   8   9
ATOM      9  C   UNL     1      -0.406  65.750  48.029  1.00  0.00     0.000 C 
BRANCH   9  10
ATOM     10  C   UNL     1       0.821  66.034  48.916  1.00  0.00     0.006 C 
BRANCH  10  11
ATOM     11  C   UNL     1       1.197  67.526  49.004  1.00  0.00     0.053 C 
BRANCH  11  12
ATOM     12  C   UNL     1       0.687  68.169  50.257  1.00  0.00     0.041 C 
ATOM     13  O   UNL     1      -0.545  68.387  50.407  1.00  0.00    -0.550 OA
ATOM     14  O   UNL     1       1.570  68.509  51.274  1.00  0.00    -0.550 OA
ENDBRANCH  11  12
ENDBRANCH  10  11
ENDBRANCH   9  10
ENDBRANCH   8   9
ENDBRANCH   7   8
ENDBRANCH   6   7
ENDBRANCH   5   6
ENDBRANCH   4   5
ENDBRANCH   3   4
ENDBRANCH   2   3
ENDBRANCH   1   2
BRANCH   1  15
ATOM     15  C   UNL     1       1.148  59.294  42.975  1.00  0.00     0.000 C 
BRANCH  15  16
ATOM     16  C   UNL     1       0.724  58.248  44.023  1.00  0.00     0.000 C 
BRANCH  16  17
ATOM     17  C   UNL     1      -0.735  57.762  43.918  1.00  0.00     0.000 C 
BRANCH  17  18
ATOM     18  C   UNL     1      -1.637  58.124  45.112  1.00  0.00    -0.000 C 
BRANCH  18  19
ATOM     19  C   UNL     1      -3.135  58.022  44.778  1.00  0.00    -0.000 C 
BRANCH  19  20
ATOM     20  C   UNL     1      -3.981  59.060  45.533  1.00  0.00    -0.000 C 
BRANCH  20  21
ATOM     21  C   UNL     1      -3.170  60.298  45.954  1.00  0.00    -0.000 C 
BRANCH  21  22
ATOM     22  C   UNL     1      -3.425  60.695  47.425  1.00  0.00    -0.000 C 
BRANCH  22  23
ATOM     23  C   UNL     1      -3.654  59.495  48.364  1.00  0.00    -0.000 C 
BRANCH  23  24
ATOM     24  C   UNL     1      -2.373  58.798  48.851  1.00  0.00    -0.000 C 
BRANCH  24  25
ATOM     25  C   UNL     1      -2.596  57.318  49.198  1.00  0.00    -0.003 C 
ATOM     26  C   UNL     1      -1.963  56.407  48.150  1.00  0.00     0.004 C 
ENDBRANCH  24  25
ENDBRANCH  23  24
ENDBRANCH  22  23
ENDBRANCH  21  22
ENDBRANCH  20  21
ENDBRANCH  19  20
ENDBRANCH  18  19
ENDBRANCH  17  18
ENDBRANCH  16  17
ENDBRANCH  15  16
ENDBRANCH   1  15
TORSDOF 22
ENDMDL
MODEL 8
REMARK VINA RESULT:    -3.743      1.649      4.566
REMARK INTER + INTRA:         -12.292
REMARK INTER:                  -9.545
REMARK INTRA:                  -2.747
REMARK UNBOUND:                -3.734
REMARK SMILES CCCCCCCCCCCCCCCCCCCCCCCC(=O)[O-]
REMARK SMILES IDX 13 1 14 2 15 3 16 4 17 5 18 6 19 7 20 8 21 9 22 10 23 11
REMARK SMILES IDX 24 12 25 13 26 14 12 15 11 16 10 17 9 18 8 19 7 20 6 21 5 22
REMARK SMILES IDX 4 23 3 24 2 25 1 26
REMARK H PARENT
REMARK Flexibility Score: inf
ROOT
ATOM      1  C   UNL     1      -2.279  62.313  44.194  1.00  0.00     0.000 C 
ENDROOT
BRANCH   1   2
ATOM      2  C   UNL     1      -2.708  61.775  45.571  1.00  0.00     0.000 C 
BRANCH   2   3
ATOM      3  C   UNL     1      -3.915  62.489  46.215  1.00  0.00     0.000 C 
BRANCH   3   4
ATOM      4  C   UNL     1      -3.574  63.766  47.005  1.00  0.00     0.000 C 
BRANCH   4   5
ATOM      5  C   UNL     1      -3.892  65.053  46.230  1.00  0.00     0.000 C 
BRANCH   5   6
ATOM      6  C   UNL     1      -2.689  66.008  46.237  1.00  0.00     0.000 C 
BRANCH   6   7
ATOM      7  C   UNL     1      -1.343  65.275  46.371  1.00  0.00     0.000 C 
BRANCH   7   8
ATOM      8  C   UNL     1      -0.523  65.639  47.625  1.00  0.00     0.000 C 
BRANCH   8   9
ATOM      9  C   UNL     1      -0.847  67.010  48.245  1.00  0.00     0.000 C 
BRANCH   9  10
ATOM     10  C   UNL     1       0.259  68.074  48.101  1.00  0.00     0.006 C 
BRANCH  10  11
ATOM     11  C   UNL     1       1.430  67.893  49.085  1.00  0.00     0.053 C 
BRANCH  11  12
ATOM     12  C   UNL     1       0.963  67.625  50.484  1.00  0.00     0.041 C 
ATOM     13  O   UNL     1       0.328  68.505  51.123  1.00  0.00    -0.550 OA
ATOM     14  O   UNL     1       1.210  66.393  51.075  1.00  0.00    -0.550 OA
ENDBRANCH  11  12
ENDBRANCH  10  11
ENDBRANCH   9  10
ENDBRANCH   8   9
ENDBRANCH   7   8
ENDBRANCH   6   7
ENDBRANCH   5   6
ENDBRANCH   4   5
ENDBRANCH   3   4
ENDBRANCH   2   3
ENDBRANCH   1   2
BRANCH   1  15
ATOM     15  C   UNL     1      -0.757  62.271  43.980  1.00  0.00     0.000 C 
BRANCH  15  16
ATOM     16  C   UNL     1       0.016  61.966  45.276  1.00  0.00     0.000 C 
BRANCH  16  17
ATOM     17  C   UNL     1       0.712  60.591  45.321  1.00  0.00     0.000 C 
BRANCH  17  18
ATOM     18  C   UNL     1       0.313  59.614  44.199  1.00  0.00    -0.000 C 
BRANCH  18  19
ATOM     19  C   UNL     1      -0.043  58.215  44.727  1.00  0.00    -0.000 C 
BRANCH  19  20
ATOM     20  C   UNL     1      -1.459  57.773  44.325  1.00  0.00    -0.000 C 
BRANCH  20  21
ATOM     21  C   UNL     1      -2.546  58.332  45.261  1.00  0.00    -0.000 C 
BRANCH  21  22
ATOM     22  C   UNL     1      -3.721  57.347  45.451  1.00  0.00    -0.000 C 
BRANCH  22  23
ATOM     23  C   UNL     1      -3.785  56.715  46.855  1.00  0.00    -0.000 C 
BRANCH  23  24
ATOM     24  C   UNL     1      -2.429  56.577  47.567  1.00  0.00    -0.000 C 
BRANCH  24  25
ATOM     25  C   UNL     1      -2.419  57.223  48.960  1.00  0.00    -0.003 C 
ATOM     26  C   UNL     1      -2.439  58.746  48.859  1.00  0.00     0.004 C 
ENDBRANCH  24  25
ENDBRANCH  23  24
ENDBRANCH  22  23
ENDBRANCH  21  22
ENDBRANCH  20  21
ENDBRANCH  19  20
ENDBRANCH  18  19
ENDBRANCH  17  18
ENDBRANCH  16  17
ENDBRANCH  15  16
ENDBRANCH   1  15
TORSDOF 22
ENDMDL
MODEL 9
REMARK VINA RESULT:    -3.706      0.984      3.962
REMARK INTER + INTRA:         -12.206
REMARK INTER:                  -9.033
REMARK INTRA:                  -3.173
REMARK UNBOUND:                -3.734
REMARK SMILES CCCCCCCCCCCCCCCCCCCCCCCC(=O)[O-]
REMARK SMILES IDX 13 1 14 2 15 3 16 4 17 5 18 6 19 7 20 8 21 9 22 10 23 11
REMARK SMILES IDX 24 12 25 13 26 14 12 15 11 16 10 17 9 18 8 19 7 20 6 21 5 22
REMARK SMILES IDX 4 23 3 24 2 25 1 26
REMARK H PARENT
REMARK Flexibility Score: inf
ROOT
ATOM      1  C   UNL     1      -1.121  58.524  45.235  1.00  0.00     0.000 C 
ENDROOT
BRANCH   1   2
ATOM      2  C   UNL     1      -0.057  58.081  44.214  1.00  0.00     0.000 C 
BRANCH   2   3
ATOM      3  C   UNL     1       0.802  59.217  43.618  1.00  0.00     0.000 C 
BRANCH   3   4
ATOM      4  C   UNL     1       0.488  60.625  44.154  1.00  0.00     0.000 C 
BRANCH   4   5
ATOM      5  C   UNL     1       1.505  61.111  45.197  1.00  0.00     0.000 C 
BRANCH   5   6
ATOM      6  C   UNL     1       1.041  62.425  45.843  1.00  0.00     0.000 C 
BRANCH   6   7
ATOM      7  C   UNL     1       1.969  63.610  45.525  1.00  0.00     0.000 C 
BRANCH   7   8
ATOM      8  C   UNL     1       1.276  64.827  44.880  1.00  0.00     0.000 C 
BRANCH   8   9
ATOM      9  C   UNL     1       1.133  66.059  45.792  1.00  0.00     0.000 C 
BRANCH   9  10
ATOM     10  C   UNL     1       0.397  65.809  47.122  1.00  0.00     0.006 C 
BRANCH  10  11
ATOM     11  C   UNL     1       1.013  66.547  48.325  1.00  0.00     0.053 C 
BRANCH  11  12
ATOM     12  C   UNL     1       1.723  65.617  49.262  1.00  0.00     0.041 C 
ATOM     13  O   UNL     1       2.600  64.823  48.829  1.00  0.00    -0.550 OA
ATOM     14  O   UNL     1       1.434  65.643  50.620  1.00  0.00    -0.550 OA
ENDBRANCH  11  12
ENDBRANCH  10  11
ENDBRANCH   9  10
ENDBRANCH   8   9
ENDBRANCH   7   8
ENDBRANCH   6   7
ENDBRANCH   5   6
ENDBRANCH   4   5
ENDBRANCH   3   4
ENDBRANCH   2   3
ENDBRANCH   1   2
BRANCH   1  15
ATOM     15  C   UNL     1      -2.101  57.399  45.607  1.00  0.00     0.000 C 
BRANCH  15  16
ATOM     16  C   UNL     1      -1.652  56.606  46.847  1.00  0.00     0.000 C 
BRANCH  16  17
ATOM     17  C   UNL     1      -2.618  56.656  48.048  1.00  0.00     0.000 C 
BRANCH  17  18
ATOM     18  C   UNL     1      -2.174  57.559  49.213  1.00  0.00    -0.000 C 
BRANCH  18  19
ATOM     19  C   UNL     1      -2.237  59.055  48.864  1.00  0.00    -0.000 C 
BRANCH  19  20
ATOM     20  C   UNL     1      -3.678  59.566  48.706  1.00  0.00    -0.000 C 
BRANCH  20  21
ATOM     21  C   UNL     1      -4.004  59.994  47.264  1.00  0.00    -0.000 C 
BRANCH  21  22
ATOM     22  C   UNL     1      -3.742  61.497  47.024  1.00  0.00    -0.000 C 
BRANCH  22  23
ATOM     23  C   UNL     1      -2.587  61.780  46.043  1.00  0.00    -0.000 C 
BRANCH  23  24
ATOM     24  C   UNL     1      -3.004  61.904  44.568  1.00  0.00    -0.000 C 
BRANCH  24  25
ATOM     25  C   UNL     1      -2.338  63.094  43.861  1.00  0.00    -0.003 C 
ATOM     26  C   UNL     1      -2.350  64.337  44.747  1.00  0.00     0.004 C 
ENDBRANCH  24  25
ENDBRANCH  23  24
ENDBRANCH  22  23
ENDBRANCH  21  22
ENDBRANCH  20  21
ENDBRANCH  19  20
ENDBRANCH  18  19
ENDBRANCH  17  18
ENDBRANCH  16  17
ENDBRANCH  15  16
ENDBRANCH   1  15
TORSDOF 22
ENDMDL
