MODEL 1
REMARK VINA RESULT:    -6.476      0.000      0.000
REMARK INTER + INTRA:         -11.656
REMARK INTER:                 -11.018
REMARK INTRA:                  -0.638
REMARK UNBOUND:                -0.638
REMARK SMILES CCCCCCCCCCCCCC(=O)[O-]
REMARK SMILES IDX 8 1 9 2 10 3 11 4 12 5 13 6 14 7 15 8 16 9 7 10 6 11 5 12
REMARK SMILES IDX 4 13 3 14 2 15 1 16
REMARK H PARENT
REMARK Flexibility Score: inf
ROOT
ATOM      1  C   UNL     1      93.609 122.679 121.889  1.00  0.00     0.000 C 
ENDROOT
BRANCH   1   2
ATOM      2  C   UNL     1      93.066 122.474 123.311  1.00  0.00     0.000 C 
BRANCH   2   3
ATOM      3  C   UNL     1      93.658 123.471 124.319  1.00  0.00     0.000 C 
BRANCH   3   4
ATOM      4  C   UNL     1      94.336 122.739 125.483  1.00  0.00     0.000 C 
BRANCH   4   5
ATOM      5  C   UNL     1      95.817 123.124 125.589  1.00  0.00     0.006 C 
BRANCH   5   6
ATOM      6  C   UNL     1      96.099 124.431 124.843  1.00  0.00     0.053 C 
BRANCH   6   7
ATOM      7  C   UNL     1      97.299 125.114 125.419  1.00  0.00     0.041 C 
ATOM      8  O   UNL     1      97.979 124.550 126.317  1.00  0.00    -0.550 OA
ATOM      9  O   UNL     1      97.637 126.395 125.002  1.00  0.00    -0.550 OA
ENDBRANCH   6   7
ENDBRANCH   5   6
ENDBRANCH   4   5
ENDBRANCH   3   4
ENDBRANCH   2   3
ENDBRANCH   1   2
BRANCH   1  10
ATOM     10  C   UNL     1      93.134 121.587 120.913  1.00  0.00     0.000 C 
BRANCH  10  11
ATOM     11  C   UNL     1      94.150 121.318 119.791  1.00  0.00    -0.000 C 
BRANCH  11  12
ATOM     12  C   UNL     1      94.293 122.508 118.825  1.00  0.00    -0.000 C 
BRANCH  12  13
ATOM     13  C   UNL     1      92.925 123.012 118.318  1.00  0.00    -0.000 C 
BRANCH  13  14
ATOM     14  C   UNL     1      92.092 121.928 117.613  1.00  0.00    -0.000 C 
BRANCH  14  15
ATOM     15  C   UNL     1      92.215 121.978 116.085  1.00  0.00    -0.003 C 
ATOM     16  C   UNL     1      92.938 120.746 115.549  1.00  0.00     0.004 C 
ENDBRANCH  14  15
ENDBRANCH  13  14
ENDBRANCH  12  13
ENDBRANCH  11  12
ENDBRANCH  10  11
ENDBRANCH   1  10
TORSDOF 12
ENDMDL
MODEL 2
REMARK VINA RESULT:    -6.193      4.262      8.241
REMARK INTER + INTRA:         -11.175
REMARK INTER:                 -10.451
REMARK INTRA:                  -0.724
REMARK UNBOUND:                -0.638
REMARK SMILES CCCCCCCCCCCCCC(=O)[O-]
REMARK SMILES IDX 8 1 9 2 10 3 11 4 12 5 13 6 14 7 15 8 16 9 7 10 6 11 5 12
REMARK SMILES IDX 4 13 3 14 2 15 1 16
REMARK H PARENT
REMARK Flexibility Score: inf
ROOT
ATOM      1  C   UNL     1      92.775 121.893 122.156  1.00  0.00     0.000 C 
ENDROOT
BRANCH   1   2
ATOM      2  C   UNL     1      93.540 121.337 120.946  1.00  0.00     0.000 C 
BRANCH   2   3
ATOM      3  C   UNL     1      94.725 122.225 120.538  1.00  0.00     0.000 C 
BRANCH   3   4
ATOM      4  C   UNL     1      94.636 122.615 119.058  1.00  0.00     0.000 C 
BRANCH   4   5
ATOM      5  C   UNL     1      93.272 122.235 118.468  1.00  0.00     0.006 C 
BRANCH   5   6
ATOM      6  C   UNL     1      93.412 121.104 117.446  1.00  0.00     0.053 C 
BRANCH   6   7
ATOM      7  C   UNL     1      92.692 121.450 116.181  1.00  0.00     0.041 C 
ATOM      8  O   UNL     1      92.761 120.684 115.183  1.00  0.00    -0.550 OA
ATOM      9  O   UNL     1      91.987 122.643 116.085  1.00  0.00    -0.550 OA
ENDBRANCH   6   7
ENDBRANCH   5   6
ENDBRANCH   4   5
ENDBRANCH   3   4
ENDBRANCH   2   3
ENDBRANCH   1   2
BRANCH   1  10
ATOM     10  C   UNL     1      93.540 123.021 122.873  1.00  0.00     0.000 C 
BRANCH  10  11
ATOM     11  C   UNL     1      93.229 123.079 124.376  1.00  0.00    -0.000 C 
BRANCH  11  12
ATOM     12  C   UNL     1      94.491 122.942 125.247  1.00  0.00    -0.000 C 
BRANCH  12  13
ATOM     13  C   UNL     1      95.748 123.489 124.538  1.00  0.00    -0.000 C 
BRANCH  13  14
ATOM     14  C   UNL     1      97.024 123.399 125.391  1.00  0.00    -0.000 C 
BRANCH  14  15
ATOM     15  C   UNL     1      97.380 124.724 126.077  1.00  0.00    -0.003 C 
ATOM     16  C   UNL     1      97.348 125.884 125.087  1.00  0.00     0.004 C 
ENDBRANCH  14  15
ENDBRANCH  13  14
ENDBRANCH  12  13
ENDBRANCH  11  12
ENDBRANCH  10  11
ENDBRANCH   1  10
TORSDOF 12
ENDMDL
MODEL 3
REMARK VINA RESULT:    -6.163      1.070      1.723
REMARK INTER + INTRA:         -11.123
REMARK INTER:                 -10.303
REMARK INTRA:                  -0.821
REMARK UNBOUND:                -0.638
REMARK SMILES CCCCCCCCCCCCCC(=O)[O-]
REMARK SMILES IDX 8 1 9 2 10 3 11 4 12 5 13 6 14 7 15 8 16 9 7 10 6 11 5 12
REMARK SMILES IDX 4 13 3 14 2 15 1 16
REMARK H PARENT
REMARK Flexibility Score: inf
ROOT
ATOM      1  C   UNL     1      93.029 122.504 121.123  1.00  0.00     0.000 C 
ENDROOT
BRANCH   1   2
ATOM      2  C   UNL     1      92.902 122.277 122.636  1.00  0.00     0.000 C 
BRANCH   2   3
ATOM      3  C   UNL     1      93.925 123.089 123.444  1.00  0.00     0.000 C 
BRANCH   3   4
ATOM      4  C   UNL     1      93.858 122.731 124.934  1.00  0.00     0.000 C 
BRANCH   4   5
ATOM      5  C   UNL     1      95.194 123.016 125.630  1.00  0.00     0.006 C 
BRANCH   5   6
ATOM      6  C   UNL     1      96.204 123.624 124.652  1.00  0.00     0.053 C 
BRANCH   6   7
ATOM      7  C   UNL     1      97.218 124.442 125.388  1.00  0.00     0.041 C 
ATOM      8  O   UNL     1      97.283 125.686 125.204  1.00  0.00    -0.550 OA
ATOM      9  O   UNL     1      98.126 123.823 126.238  1.00  0.00    -0.550 OA
ENDBRANCH   6   7
ENDBRANCH   5   6
ENDBRANCH   4   5
ENDBRANCH   3   4
ENDBRANCH   2   3
ENDBRANCH   1   2
BRANCH   1  10
ATOM     10  C   UNL     1      94.454 122.236 120.602  1.00  0.00     0.000 C 
BRANCH  10  11
ATOM     11  C   UNL     1      94.545 120.942 119.778  1.00  0.00    -0.000 C 
BRANCH  11  12
ATOM     12  C   UNL     1      94.331 121.183 118.273  1.00  0.00    -0.000 C 
BRANCH  12  13
ATOM     13  C   UNL     1      92.844 121.081 117.874  1.00  0.00    -0.000 C 
BRANCH  13  14
ATOM     14  C   UNL     1      92.344 122.278 117.049  1.00  0.00    -0.000 C 
BRANCH  14  15
ATOM     15  C   UNL     1      92.744 123.630 117.653  1.00  0.00    -0.003 C 
ATOM     16  C   UNL     1      92.734 124.731 116.596  1.00  0.00     0.004 C 
ENDBRANCH  14  15
ENDBRANCH  13  14
ENDBRANCH  12  13
ENDBRANCH  11  12
ENDBRANCH  10  11
ENDBRANCH   1  10
TORSDOF 12
ENDMDL
MODEL 4
REMARK VINA RESULT:    -5.034      4.087      8.053
REMARK INTER + INTRA:          -9.203
REMARK INTER:                  -8.574
REMARK INTRA:                  -0.629
REMARK UNBOUND:                -0.638
REMARK SMILES CCCCCCCCCCCCCC(=O)[O-]
REMARK SMILES IDX 8 1 9 2 10 3 11 4 12 5 13 6 14 7 15 8 16 9 7 10 6 11 5 12
REMARK SMILES IDX 4 13 3 14 2 15 1 16
REMARK H PARENT
REMARK Flexibility Score: inf
ROOT
ATOM      1  C   UNL     1      96.612 124.595 124.656  1.00  0.00     0.000 C 
ENDROOT
BRANCH   1   2
ATOM      2  C   UNL     1      95.617 123.564 124.104  1.00  0.00     0.000 C 
BRANCH   2   3
ATOM      3  C   UNL     1      94.649 123.044 125.177  1.00  0.00     0.000 C 
BRANCH   3   4
ATOM      4  C   UNL     1      93.248 122.824 124.594  1.00  0.00     0.000 C 
BRANCH   4   5
ATOM      5  C   UNL     1      93.193 123.237 123.118  1.00  0.00     0.006 C 
BRANCH   5   6
ATOM      6  C   UNL     1      93.065 122.011 122.210  1.00  0.00     0.053 C 
BRANCH   6   7
ATOM      7  C   UNL     1      93.318 122.387 120.784  1.00  0.00     0.041 C 
ATOM      8  O   UNL     1      92.376 122.809 120.063  1.00  0.00    -0.550 OA
ATOM      9  O   UNL     1      94.584 122.223 120.236  1.00  0.00    -0.550 OA
ENDBRANCH   6   7
ENDBRANCH   5   6
ENDBRANCH   4   5
ENDBRANCH   3   4
ENDBRANCH   2   3
ENDBRANCH   1   2
BRANCH   1  10
ATOM     10  C   UNL     1      96.953 124.354 126.138  1.00  0.00     0.000 C 
BRANCH  10  11
ATOM     11  C   UNL     1      98.367 123.785 126.332  1.00  0.00    -0.000 C 
BRANCH  11  12
ATOM     12  C   UNL     1      98.433 122.267 126.086  1.00  0.00    -0.000 C 
BRANCH  12  13
ATOM     13  C   UNL     1      99.880 121.733 126.134  1.00  0.00    -0.000 C 
BRANCH  13  14
ATOM     14  C   UNL     1      99.994 120.316 126.721  1.00  0.00    -0.000 C 
BRANCH  14  15
ATOM     15  C   UNL     1     100.624 119.313 125.746  1.00  0.00    -0.003 C 
ATOM     16  C   UNL     1     102.115 119.581 125.565  1.00  0.00     0.004 C 
ENDBRANCH  14  15
ENDBRANCH  13  14
ENDBRANCH  12  13
ENDBRANCH  11  12
ENDBRANCH  10  11
ENDBRANCH   1  10
TORSDOF 12
ENDMDL
MODEL 5
REMARK VINA RESULT:    -4.996      1.108      2.169
REMARK INTER + INTRA:          -9.139
REMARK INTER:                  -8.216
REMARK INTRA:                  -0.922
REMARK UNBOUND:                -0.638
REMARK SMILES CCCCCCCCCCCCCC(=O)[O-]
REMARK SMILES IDX 8 1 9 2 10 3 11 4 12 5 13 6 14 7 15 8 16 9 7 10 6 11 5 12
REMARK SMILES IDX 4 13 3 14 2 15 1 16
REMARK H PARENT
REMARK Flexibility Score: inf
ROOT
ATOM      1  C   UNL     1      93.243 123.754 123.972  1.00  0.00     0.000 C 
ENDROOT
BRANCH   1   2
ATOM      2  C   UNL     1      93.602 122.605 124.926  1.00  0.00     0.000 C 
BRANCH   2   3
ATOM      3  C   UNL     1      94.696 122.992 125.932  1.00  0.00     0.000 C 
BRANCH   3   4
ATOM      4  C   UNL     1      96.041 122.360 125.552  1.00  0.00     0.000 C 
BRANCH   4   5
ATOM      5  C   UNL     1      97.176 123.388 125.637  1.00  0.00     0.006 C 
BRANCH   5   6
ATOM      6  C   UNL     1      96.841 124.644 124.828  1.00  0.00     0.053 C 
BRANCH   6   7
ATOM      7  C   UNL     1      97.330 125.868 125.535  1.00  0.00     0.041 C 
ATOM      8  O   UNL     1      97.742 126.859 124.876  1.00  0.00    -0.550 OA
ATOM      9  O   UNL     1      97.378 125.897 126.923  1.00  0.00    -0.550 OA
ENDBRANCH   6   7
ENDBRANCH   5   6
ENDBRANCH   4   5
ENDBRANCH   3   4
ENDBRANCH   2   3
ENDBRANCH   1   2
BRANCH   1  10
ATOM     10  C   UNL     1      93.470 123.387 122.493  1.00  0.00     0.000 C 
BRANCH  10  11
ATOM     11  C   UNL     1      92.779 122.072 122.100  1.00  0.00    -0.000 C 
BRANCH  11  12
ATOM     12  C   UNL     1      93.572 121.280 121.045  1.00  0.00    -0.000 C 
BRANCH  12  13
ATOM     13  C   UNL     1      94.163 122.197 119.953  1.00  0.00    -0.000 C 
BRANCH  13  14
ATOM     14  C   UNL     1      94.540 121.453 118.662  1.00  0.00    -0.000 C 
BRANCH  14  15
ATOM     15  C   UNL     1      93.357 121.287 117.699  1.00  0.00    -0.003 C 
ATOM     16  C   UNL     1      92.458 122.519 117.712  1.00  0.00     0.004 C 
ENDBRANCH  14  15
ENDBRANCH  13  14
ENDBRANCH  12  13
ENDBRANCH  11  12
ENDBRANCH  10  11
ENDBRANCH   1  10
TORSDOF 12
ENDMDL
MODEL 6
REMARK VINA RESULT:    -4.877      4.009      8.177
REMARK INTER + INTRA:          -8.936
REMARK INTER:                  -8.368
REMARK INTRA:                  -0.568
REMARK UNBOUND:                -0.638
REMARK SMILES CCCCCCCCCCCCCC(=O)[O-]
REMARK SMILES IDX 8 1 9 2 10 3 11 4 12 5 13 6 14 7 15 8 16 9 7 10 6 11 5 12
REMARK SMILES IDX 4 13 3 14 2 15 1 16
REMARK H PARENT
REMARK Flexibility Score: inf
ROOT
ATOM      1  C   UNL     1      94.211 123.896 124.138  1.00  0.00     0.000 C 
ENDROOT
BRANCH   1   2
ATOM      2  C   UNL     1      93.430 122.675 123.631  1.00  0.00     0.000 C 
BRANCH   2   3
ATOM      3  C   UNL     1      92.950 122.840 122.182  1.00  0.00     0.000 C 
BRANCH   3   4
ATOM      4  C   UNL     1      93.428 121.674 121.308  1.00  0.00     0.000 C 
BRANCH   4   5
ATOM      5  C   UNL     1      94.527 122.126 120.338  1.00  0.00     0.006 C 
BRANCH   5   6
ATOM      6  C   UNL     1      94.386 121.425 118.984  1.00  0.00     0.053 C 
BRANCH   6   7
ATOM      7  C   UNL     1      93.279 122.041 118.188  1.00  0.00     0.041 C 
ATOM      8  O   UNL     1      92.946 123.239 118.387  1.00  0.00    -0.550 OA
ATOM      9  O   UNL     1      92.581 121.277 117.261  1.00  0.00    -0.550 OA
ENDBRANCH   6   7
ENDBRANCH   5   6
ENDBRANCH   4   5
ENDBRANCH   3   4
ENDBRANCH   2   3
ENDBRANCH   1   2
BRANCH   1  10
ATOM     10  C   UNL     1      95.730 123.645 124.194  1.00  0.00     0.000 C 
BRANCH  10  11
ATOM     11  C   UNL     1      96.225 123.347 125.617  1.00  0.00    -0.000 C 
BRANCH  11  12
ATOM     12  C   UNL     1      97.325 124.322 126.077  1.00  0.00    -0.000 C 
BRANCH  12  13
ATOM     13  C   UNL     1      98.696 123.628 126.214  1.00  0.00    -0.000 C 
BRANCH  13  14
ATOM     14  C   UNL     1      98.600 122.106 126.407  1.00  0.00    -0.000 C 
BRANCH  14  15
ATOM     15  C   UNL     1      99.913 121.378 126.093  1.00  0.00    -0.003 C 
ATOM     16  C   UNL     1      99.987 120.036 126.816  1.00  0.00     0.004 C 
ENDBRANCH  14  15
ENDBRANCH  13  14
ENDBRANCH  12  13
ENDBRANCH  11  12
ENDBRANCH  10  11
ENDBRANCH   1  10
TORSDOF 12
ENDMDL
MODEL 7
REMARK VINA RESULT:    -4.727     11.211     13.780
REMARK INTER + INTRA:          -8.680
REMARK INTER:                  -7.372
REMARK INTRA:                  -1.308
REMARK UNBOUND:                -0.638
REMARK SMILES CCCCCCCCCCCCCC(=O)[O-]
REMARK SMILES IDX 8 1 9 2 10 3 11 4 12 5 13 6 14 7 15 8 16 9 7 10 6 11 5 12
REMARK SMILES IDX 4 13 3 14 2 15 1 16
REMARK H PARENT
REMARK Flexibility Score: inf
ROOT
ATOM      1  C   UNL     1      84.533 126.860 129.317  1.00  0.00     0.000 C 
ENDROOT
BRANCH   1   2
ATOM      2  C   UNL     1      85.592 126.125 128.483  1.00  0.00     0.000 C 
BRANCH   2   3
ATOM      3  C   UNL     1      84.991 125.015 127.609  1.00  0.00     0.000 C 
BRANCH   3   4
ATOM      4  C   UNL     1      83.554 124.695 128.038  1.00  0.00     0.000 C 
BRANCH   4   5
ATOM      5  C   UNL     1      82.719 124.206 126.848  1.00  0.00     0.006 C 
BRANCH   5   6
ATOM      6  C   UNL     1      83.528 124.265 125.549  1.00  0.00     0.053 C 
BRANCH   6   7
ATOM      7  C   UNL     1      83.520 122.934 124.866  1.00  0.00     0.041 C 
ATOM      8  O   UNL     1      84.524 122.177 124.941  1.00  0.00    -0.550 OA
ATOM      9  O   UNL     1      82.424 122.550 124.104  1.00  0.00    -0.550 OA
ENDBRANCH   6   7
ENDBRANCH   5   6
ENDBRANCH   4   5
ENDBRANCH   3   4
ENDBRANCH   2   3
ENDBRANCH   1   2
BRANCH   1  10
ATOM     10  C   UNL     1      84.847 126.837 130.824  1.00  0.00     0.000 C 
BRANCH  10  11
ATOM     11  C   UNL     1      84.562 125.470 131.464  1.00  0.00    -0.000 C 
BRANCH  11  12
ATOM     12  C   UNL     1      85.656 125.042 132.459  1.00  0.00    -0.000 C 
BRANCH  12  13
ATOM     13  C   UNL     1      86.358 123.738 132.025  1.00  0.00    -0.000 C 
BRANCH  13  14
ATOM     14  C   UNL     1      87.337 123.926 130.854  1.00  0.00    -0.000 C 
BRANCH  14  15
ATOM     15  C   UNL     1      87.398 122.708 129.923  1.00  0.00    -0.003 C 
ATOM     16  C   UNL     1      87.940 121.483 130.652  1.00  0.00     0.004 C 
ENDBRANCH  14  15
ENDBRANCH  13  14
ENDBRANCH  12  13
ENDBRANCH  11  12
ENDBRANCH  10  11
ENDBRANCH   1  10
TORSDOF 12
ENDMDL
MODEL 8
REMARK VINA RESULT:    -4.545     11.263     13.534
REMARK INTER + INTRA:          -8.370
REMARK INTER:                  -6.633
REMARK INTRA:                  -1.737
REMARK UNBOUND:                -0.638
REMARK SMILES CCCCCCCCCCCCCC(=O)[O-]
REMARK SMILES IDX 8 1 9 2 10 3 11 4 12 5 13 6 14 7 15 8 16 9 7 10 6 11 5 12
REMARK SMILES IDX 4 13 3 14 2 15 1 16
REMARK H PARENT
REMARK Flexibility Score: inf
ROOT
ATOM      1  C   UNL     1      84.432 124.901 127.283  1.00  0.00     0.000 C 
ENDROOT
BRANCH   1   2
ATOM      2  C   UNL     1      83.295 124.255 128.088  1.00  0.00     0.000 C 
BRANCH   2   3
ATOM      3  C   UNL     1      83.512 122.751 128.314  1.00  0.00     0.000 C 
BRANCH   3   4
ATOM      4  C   UNL     1      84.652 122.221 127.437  1.00  0.00     0.000 C 
BRANCH   4   5
ATOM      5  C   UNL     1      84.121 121.272 126.355  1.00  0.00     0.006 C 
BRANCH   5   6
ATOM      6  C   UNL     1      84.273 121.888 124.962  1.00  0.00     0.053 C 
BRANCH   6   7
ATOM      7  C   UNL     1      82.931 122.186 124.371  1.00  0.00     0.041 C 
ATOM      8  O   UNL     1      82.081 122.843 125.029  1.00  0.00    -0.550 OA
ATOM      9  O   UNL     1      82.600 121.696 123.114  1.00  0.00    -0.550 OA
ENDBRANCH   6   7
ENDBRANCH   5   6
ENDBRANCH   4   5
ENDBRANCH   3   4
ENDBRANCH   2   3
ENDBRANCH   1   2
BRANCH   1  10
ATOM     10  C   UNL     1      85.368 125.753 128.160  1.00  0.00     0.000 C 
BRANCH  10  11
ATOM     11  C   UNL     1      84.655 126.330 129.393  1.00  0.00    -0.000 C 
BRANCH  11  12
ATOM     12  C   UNL     1      85.384 125.998 130.708  1.00  0.00    -0.000 C 
BRANCH  12  13
ATOM     13  C   UNL     1      85.632 124.484 130.869  1.00  0.00    -0.000 C 
BRANCH  13  14
ATOM     14  C   UNL     1      87.121 124.101 130.881  1.00  0.00    -0.000 C 
BRANCH  14  15
ATOM     15  C   UNL     1      87.454 122.959 129.912  1.00  0.00    -0.003 C 
ATOM     16  C   UNL     1      86.826 121.646 130.371  1.00  0.00     0.004 C 
ENDBRANCH  14  15
ENDBRANCH  13  14
ENDBRANCH  12  13
ENDBRANCH  11  12
ENDBRANCH  10  11
ENDBRANCH   1  10
TORSDOF 12
ENDMDL
MODEL 9
REMARK VINA RESULT:    -4.514     10.725     12.030
REMARK INTER + INTRA:          -8.318
REMARK INTER:                  -6.901
REMARK INTRA:                  -1.416
REMARK UNBOUND:                -0.638
REMARK SMILES CCCCCCCCCCCCCC(=O)[O-]
REMARK SMILES IDX 8 1 9 2 10 3 11 4 12 5 13 6 14 7 15 8 16 9 7 10 6 11 5 12
REMARK SMILES IDX 4 13 3 14 2 15 1 16
REMARK H PARENT
REMARK Flexibility Score: inf
ROOT
ATOM      1  C   UNL     1      85.449 126.119 128.216  1.00  0.00     0.000 C 
ENDROOT
BRANCH   1   2
ATOM      2  C   UNL     1      85.175 126.394 129.702  1.00  0.00     0.000 C 
BRANCH   2   3
ATOM      3  C   UNL     1      85.958 125.455 130.631  1.00  0.00     0.000 C 
BRANCH   3   4
ATOM      4  C   UNL     1      85.012 124.697 131.571  1.00  0.00     0.000 C 
BRANCH   4   5
ATOM      5  C   UNL     1      85.007 123.196 131.255  1.00  0.00     0.006 C 
BRANCH   5   6
ATOM      6  C   UNL     1      86.372 122.569 131.549  1.00  0.00     0.053 C 
BRANCH   6   7
ATOM      7  C   UNL     1      86.896 121.863 130.338  1.00  0.00     0.041 C 
ATOM      8  O   UNL     1      86.142 121.654 129.351  1.00  0.00    -0.550 OA
ATOM      9  O   UNL     1      88.202 121.391 130.319  1.00  0.00    -0.550 OA
ENDBRANCH   6   7
ENDBRANCH   5   6
ENDBRANCH   4   5
ENDBRANCH   3   4
ENDBRANCH   2   3
ENDBRANCH   1   2
BRANCH   1  10
ATOM     10  C   UNL     1      84.997 124.712 127.782  1.00  0.00     0.000 C 
BRANCH  10  11
ATOM     11  C   UNL     1      83.500 124.471 128.035  1.00  0.00    -0.000 C 
BRANCH  11  12
ATOM     12  C   UNL     1      82.675 124.462 126.735  1.00  0.00    -0.000 C 
BRANCH  12  13
ATOM     13  C   UNL     1      83.559 124.251 125.487  1.00  0.00    -0.000 C 
BRANCH  13  14
ATOM     14  C   UNL     1      83.334 122.895 124.797  1.00  0.00    -0.000 C 
BRANCH  14  15
ATOM     15  C   UNL     1      84.506 121.924 124.989  1.00  0.00    -0.003 C 
ATOM     16  C   UNL     1      84.269 121.004 126.183  1.00  0.00     0.004 C 
ENDBRANCH  14  15
ENDBRANCH  13  14
ENDBRANCH  12  13
ENDBRANCH  11  12
ENDBRANCH  10  11
ENDBRANCH   1  10
TORSDOF 12
ENDMDL
