MODEL 1
REMARK VINA RESULT:    -2.533      0.000      0.000
REMARK INTER + INTRA:          -5.371
REMARK INTER:                  -4.606
REMARK INTRA:                  -0.765
REMARK UNBOUND:                -0.765
REMARK SMILES CCCCCCCCCCCCCCCC(=O)[O-]
REMARK SMILES IDX 9 1 10 2 11 3 12 4 13 5 14 6 15 7 16 8 17 9 18 10 8 11 7 12
REMARK SMILES IDX 6 13 5 14 4 15 3 16 2 17 1 18
REMARK H PARENT
REMARK Flexibility Score: inf
ROOT
ATOM      1  C   UNL     1       0.576 -16.058 -18.250  1.00  0.00     0.000 C 
ENDROOT
BRANCH   1   2
ATOM      2  C   UNL     1      -0.889 -15.687 -18.557  1.00  0.00     0.000 C 
BRANCH   2   3
ATOM      3  C   UNL     1      -1.803 -16.904 -18.793  1.00  0.00     0.000 C 
BRANCH   3   4
ATOM      4  C   UNL     1      -1.768 -17.390 -20.253  1.00  0.00     0.000 C 
BRANCH   4   5
ATOM      5  C   UNL     1      -1.746 -18.924 -20.372  1.00  0.00     0.000 C 
BRANCH   5   6
ATOM      6  C   UNL     1      -1.343 -19.671 -19.083  1.00  0.00     0.006 C 
BRANCH   6   7
ATOM      7  C   UNL     1       0.166 -19.689 -18.796  1.00  0.00     0.053 C 
BRANCH   7   8
ATOM      8  C   UNL     1       0.463 -19.914 -17.345  1.00  0.00     0.041 C 
ATOM      9  O   UNL     1      -0.475 -20.124 -16.532  1.00  0.00    -0.550 OA
ATOM     10  O   UNL     1       1.772 -19.854 -16.884  1.00  0.00    -0.550 OA
ENDBRANCH   7   8
ENDBRANCH   6   7
ENDBRANCH   5   6
ENDBRANCH   4   5
ENDBRANCH   3   4
ENDBRANCH   2   3
ENDBRANCH   1   2
BRANCH   1  11
ATOM     11  C   UNL     1       1.426 -14.875 -17.748  1.00  0.00     0.000 C 
BRANCH  11  12
ATOM     12  C   UNL     1       1.983 -14.024 -18.904  1.00  0.00    -0.000 C 
BRANCH  12  13
ATOM     13  C   UNL     1       2.819 -12.831 -18.413  1.00  0.00    -0.000 C 
BRANCH  13  14
ATOM     14  C   UNL     1       2.373 -11.498 -19.034  1.00  0.00    -0.000 C 
BRANCH  14  15
ATOM     15  C   UNL     1       3.359 -10.376 -18.686  1.00  0.00    -0.000 C 
BRANCH  15  16
ATOM     16  C   UNL     1       4.809 -10.862 -18.800  1.00  0.00    -0.000 C 
BRANCH  16  17
ATOM     17  C   UNL     1       5.301 -10.786 -20.249  1.00  0.00    -0.003 C 
ATOM     18  C   UNL     1       6.789 -11.114 -20.345  1.00  0.00     0.004 C 
ENDBRANCH  16  17
ENDBRANCH  15  16
ENDBRANCH  14  15
ENDBRANCH  13  14
ENDBRANCH  12  13
ENDBRANCH  11  12
ENDBRANCH   1  11
TORSDOF 14
ENDMDL
MODEL 2
REMARK VINA RESULT:    -2.515      3.776      8.547
REMARK INTER + INTRA:          -5.338
REMARK INTER:                  -4.352
REMARK INTRA:                  -0.986
REMARK UNBOUND:                -0.765
REMARK SMILES CCCCCCCCCCCCCCCC(=O)[O-]
REMARK SMILES IDX 9 1 10 2 11 3 12 4 13 5 14 6 15 7 16 8 17 9 18 10 8 11 7 12
REMARK SMILES IDX 6 13 5 14 4 15 3 16 2 17 1 18
REMARK H PARENT
REMARK Flexibility Score: inf
ROOT
ATOM      1  C   UNL     1       0.471 -15.970 -18.521  1.00  0.00     0.000 C 
ENDROOT
BRANCH   1   2
ATOM      2  C   UNL     1       1.255 -14.780 -17.932  1.00  0.00     0.000 C 
BRANCH   2   3
ATOM      3  C   UNL     1       2.356 -14.238 -18.864  1.00  0.00     0.000 C 
BRANCH   3   4
ATOM      4  C   UNL     1       2.572 -12.724 -18.699  1.00  0.00     0.000 C 
BRANCH   4   5
ATOM      5  C   UNL     1       4.015 -12.288 -19.010  1.00  0.00     0.000 C 
BRANCH   5   6
ATOM      6  C   UNL     1       4.373 -10.855 -18.566  1.00  0.00     0.006 C 
BRANCH   6   7
ATOM      7  C   UNL     1       3.328  -9.789 -18.934  1.00  0.00     0.053 C 
BRANCH   7   8
ATOM      8  C   UNL     1       2.589  -9.285 -17.733  1.00  0.00     0.041 C 
ATOM      9  O   UNL     1       3.221  -8.918 -16.708  1.00  0.00    -0.550 OA
ATOM     10  O   UNL     1       1.200  -9.254 -17.731  1.00  0.00    -0.550 OA
ENDBRANCH   7   8
ENDBRANCH   6   7
ENDBRANCH   5   6
ENDBRANCH   4   5
ENDBRANCH   3   4
ENDBRANCH   2   3
ENDBRANCH   1   2
BRANCH   1  11
ATOM     11  C   UNL     1      -1.054 -15.869 -18.323  1.00  0.00     0.000 C 
BRANCH  11  12
ATOM     12  C   UNL     1      -1.807 -15.717 -19.656  1.00  0.00    -0.000 C 
BRANCH  12  13
ATOM     13  C   UNL     1      -1.970 -17.051 -20.402  1.00  0.00    -0.000 C 
BRANCH  13  14
ATOM     14  C   UNL     1      -2.073 -18.254 -19.452  1.00  0.00    -0.000 C 
BRANCH  14  15
ATOM     15  C   UNL     1      -1.534 -19.526 -20.118  1.00  0.00    -0.000 C 
BRANCH  15  16
ATOM     16  C   UNL     1      -0.070 -19.772 -19.732  1.00  0.00    -0.000 C 
BRANCH  16  17
ATOM     17  C   UNL     1       0.059 -20.079 -18.236  1.00  0.00    -0.003 C 
ATOM     18  C   UNL     1       1.276 -19.384 -17.633  1.00  0.00     0.004 C 
ENDBRANCH  16  17
ENDBRANCH  15  16
ENDBRANCH  14  15
ENDBRANCH  13  14
ENDBRANCH  12  13
ENDBRANCH  11  12
ENDBRANCH   1  11
TORSDOF 14
ENDMDL
MODEL 3
REMARK VINA RESULT:    -2.102      4.566      9.310
REMARK INTER + INTRA:          -4.587
REMARK INTER:                  -3.950
REMARK INTRA:                  -0.636
REMARK UNBOUND:                -0.765
REMARK SMILES CCCCCCCCCCCCCCCC(=O)[O-]
REMARK SMILES IDX 9 1 10 2 11 3 12 4 13 5 14 6 15 7 16 8 17 9 18 10 8 11 7 12
REMARK SMILES IDX 6 13 5 14 4 15 3 16 2 17 1 18
REMARK H PARENT
REMARK Flexibility Score: inf
ROOT
ATOM      1  C   UNL     1       2.439 -12.595 -18.664  1.00  0.00     0.000 C 
ENDROOT
BRANCH   1   2
ATOM      2  C   UNL     1       3.797 -12.044 -19.146  1.00  0.00     0.000 C 
BRANCH   2   3
ATOM      3  C   UNL     1       4.218 -10.735 -18.452  1.00  0.00     0.000 C 
BRANCH   3   4
ATOM      4  C   UNL     1       3.179  -9.614 -18.632  1.00  0.00     0.000 C 
BRANCH   4   5
ATOM      5  C   UNL     1       2.420  -9.288 -17.333  1.00  0.00     0.000 C 
BRANCH   5   6
ATOM      6  C   UNL     1       3.169  -8.356 -16.358  1.00  0.00     0.006 C 
BRANCH   6   7
ATOM      7  C   UNL     1       3.906  -9.077 -15.218  1.00  0.00     0.053 C 
BRANCH   7   8
ATOM      8  C   UNL     1       3.750  -8.369 -13.908  1.00  0.00     0.041 C 
ATOM      9  O   UNL     1       3.734  -9.021 -12.832  1.00  0.00    -0.550 OA
ATOM     10  O   UNL     1       3.582  -6.990 -13.877  1.00  0.00    -0.550 OA
ENDBRANCH   7   8
ENDBRANCH   6   7
ENDBRANCH   5   6
ENDBRANCH   4   5
ENDBRANCH   3   4
ENDBRANCH   2   3
ENDBRANCH   1   2
BRANCH   1  11
ATOM     11  C   UNL     1       2.322 -14.129 -18.759  1.00  0.00     0.000 C 
BRANCH  11  12
ATOM     12  C   UNL     1       1.233 -14.690 -17.827  1.00  0.00    -0.000 C 
BRANCH  12  13
ATOM     13  C   UNL     1       0.630 -16.006 -18.344  1.00  0.00    -0.000 C 
BRANCH  13  14
ATOM     14  C   UNL     1      -0.877 -15.901 -18.619  1.00  0.00    -0.000 C 
BRANCH  14  15
ATOM     15  C   UNL     1      -1.529 -17.289 -18.629  1.00  0.00    -0.000 C 
BRANCH  15  16
ATOM     16  C   UNL     1      -1.318 -17.988 -19.977  1.00  0.00    -0.000 C 
BRANCH  16  17
ATOM     17  C   UNL     1      -1.026 -19.480 -19.782  1.00  0.00    -0.003 C 
ATOM     18  C   UNL     1       0.322 -19.693 -19.097  1.00  0.00     0.004 C 
ENDBRANCH  16  17
ENDBRANCH  15  16
ENDBRANCH  14  15
ENDBRANCH  13  14
ENDBRANCH  12  13
ENDBRANCH  11  12
ENDBRANCH   1  11
TORSDOF 14
ENDMDL
MODEL 4
REMARK VINA RESULT:    -1.960      1.637      2.895
REMARK INTER + INTRA:          -4.328
REMARK INTER:                  -3.518
REMARK INTRA:                  -0.811
REMARK UNBOUND:                -0.765
REMARK SMILES CCCCCCCCCCCCCCCC(=O)[O-]
REMARK SMILES IDX 9 1 10 2 11 3 12 4 13 5 14 6 15 7 16 8 17 9 18 10 8 11 7 12
REMARK SMILES IDX 6 13 5 14 4 15 3 16 2 17 1 18
REMARK H PARENT
REMARK Flexibility Score: inf
ROOT
ATOM      1  C   UNL     1       2.100 -14.449 -18.711  1.00  0.00     0.000 C 
ENDROOT
BRANCH   1   2
ATOM      2  C   UNL     1       0.884 -14.844 -17.849  1.00  0.00     0.000 C 
BRANCH   2   3
ATOM      3  C   UNL     1       0.155 -16.107 -18.345  1.00  0.00     0.000 C 
BRANCH   3   4
ATOM      4  C   UNL     1      -1.316 -15.833 -18.705  1.00  0.00     0.000 C 
BRANCH   4   5
ATOM      5  C   UNL     1      -1.963 -16.986 -19.494  1.00  0.00     0.000 C 
BRANCH   5   6
ATOM      6  C   UNL     1      -1.018 -18.160 -19.825  1.00  0.00     0.006 C 
BRANCH   6   7
ATOM      7  C   UNL     1      -1.420 -19.504 -19.197  1.00  0.00     0.053 C 
BRANCH   7   8
ATOM      8  C   UNL     1      -0.763 -19.725 -17.869  1.00  0.00     0.041 C 
ATOM      9  O   UNL     1       0.482 -19.893 -17.797  1.00  0.00    -0.550 OA
ATOM     10  O   UNL     1      -1.532 -19.782 -16.713  1.00  0.00    -0.550 OA
ENDBRANCH   7   8
ENDBRANCH   6   7
ENDBRANCH   5   6
ENDBRANCH   4   5
ENDBRANCH   3   4
ENDBRANCH   2   3
ENDBRANCH   1   2
BRANCH   1  11
ATOM     11  C   UNL     1       2.394 -12.936 -18.714  1.00  0.00     0.000 C 
BRANCH  11  12
ATOM     12  C   UNL     1       3.854 -12.625 -19.088  1.00  0.00    -0.000 C 
BRANCH  12  13
ATOM     13  C   UNL     1       4.333 -11.272 -18.538  1.00  0.00    -0.000 C 
BRANCH  13  14
ATOM     14  C   UNL     1       3.712 -10.077 -19.278  1.00  0.00    -0.000 C 
BRANCH  14  15
ATOM     15  C   UNL     1       2.762  -9.299 -18.359  1.00  0.00    -0.000 C 
BRANCH  15  16
ATOM     16  C   UNL     1       3.135  -9.498 -16.885  1.00  0.00    -0.000 C 
BRANCH  16  17
ATOM     17  C   UNL     1       3.136  -8.162 -16.134  1.00  0.00    -0.003 C 
ATOM     18  C   UNL     1       3.804  -8.297 -14.768  1.00  0.00     0.004 C 
ENDBRANCH  16  17
ENDBRANCH  15  16
ENDBRANCH  14  15
ENDBRANCH  13  14
ENDBRANCH  12  13
ENDBRANCH  11  12
ENDBRANCH   1  11
TORSDOF 14
ENDMDL
MODEL 5
REMARK VINA RESULT:    -1.878      2.363      3.813
REMARK INTER + INTRA:          -4.180
REMARK INTER:                  -3.615
REMARK INTRA:                  -0.565
REMARK UNBOUND:                -0.765
REMARK SMILES CCCCCCCCCCCCCCCC(=O)[O-]
REMARK SMILES IDX 9 1 10 2 11 3 12 4 13 5 14 6 15 7 16 8 17 9 18 10 8 11 7 12
REMARK SMILES IDX 6 13 5 14 4 15 3 16 2 17 1 18
REMARK H PARENT
REMARK Flexibility Score: inf
ROOT
ATOM      1  C   UNL     1       2.392 -12.945 -18.819  1.00  0.00     0.000 C 
ENDROOT
BRANCH   1   2
ATOM      2  C   UNL     1       2.254 -14.439 -18.464  1.00  0.00     0.000 C 
BRANCH   2   3
ATOM      3  C   UNL     1       0.860 -14.826 -17.934  1.00  0.00     0.000 C 
BRANCH   3   4
ATOM      4  C   UNL     1       0.453 -16.253 -18.339  1.00  0.00     0.000 C 
BRANCH   4   5
ATOM      5  C   UNL     1      -1.043 -16.374 -18.683  1.00  0.00     0.000 C 
BRANCH   5   6
ATOM      6  C   UNL     1      -1.369 -17.336 -19.844  1.00  0.00     0.006 C 
BRANCH   6   7
ATOM      7  C   UNL     1      -1.794 -18.747 -19.408  1.00  0.00     0.053 C 
BRANCH   7   8
ATOM      8  C   UNL     1      -0.735 -19.430 -18.598  1.00  0.00     0.041 C 
ATOM      9  O   UNL     1      -0.957 -19.744 -17.399  1.00  0.00    -0.550 OA
ATOM     10  O   UNL     1       0.512 -19.687 -19.155  1.00  0.00    -0.550 OA
ENDBRANCH   7   8
ENDBRANCH   6   7
ENDBRANCH   5   6
ENDBRANCH   4   5
ENDBRANCH   3   4
ENDBRANCH   2   3
ENDBRANCH   1   2
BRANCH   1  11
ATOM     11  C   UNL     1       3.825 -12.399 -18.664  1.00  0.00     0.000 C 
BRANCH  11  12
ATOM     12  C   UNL     1       3.876 -10.863 -18.739  1.00  0.00    -0.000 C 
BRANCH  12  13
ATOM     13  C   UNL     1       2.479 -10.223 -18.765  1.00  0.00    -0.000 C 
BRANCH  13  14
ATOM     14  C   UNL     1       2.335  -9.068 -17.761  1.00  0.00    -0.000 C 
BRANCH  14  15
ATOM     15  C   UNL     1       3.376  -9.185 -16.641  1.00  0.00    -0.000 C 
BRANCH  15  16
ATOM     16  C   UNL     1       3.216  -8.052 -15.620  1.00  0.00    -0.000 C 
BRANCH  16  17
ATOM     17  C   UNL     1       3.903  -8.405 -14.296  1.00  0.00    -0.003 C 
ATOM     18  C   UNL     1       3.886  -7.222 -13.333  1.00  0.00     0.004 C 
ENDBRANCH  16  17
ENDBRANCH  15  16
ENDBRANCH  14  15
ENDBRANCH  13  14
ENDBRANCH  12  13
ENDBRANCH  11  12
ENDBRANCH   1  11
TORSDOF 14
ENDMDL
MODEL 6
REMARK VINA RESULT:    -1.536      4.664      9.390
REMARK INTER + INTRA:          -3.559
REMARK INTER:                  -2.936
REMARK INTRA:                  -0.623
REMARK UNBOUND:                -0.765
REMARK SMILES CCCCCCCCCCCCCCCC(=O)[O-]
REMARK SMILES IDX 9 1 10 2 11 3 12 4 13 5 14 6 15 7 16 8 17 9 18 10 8 11 7 12
REMARK SMILES IDX 6 13 5 14 4 15 3 16 2 17 1 18
REMARK H PARENT
REMARK Flexibility Score: inf
ROOT
ATOM      1  C   UNL     1       2.416 -14.129 -18.428  1.00  0.00     0.000 C 
ENDROOT
BRANCH   1   2
ATOM      2  C   UNL     1       2.218 -12.772 -19.134  1.00  0.00     0.000 C 
BRANCH   2   3
ATOM      3  C   UNL     1       3.030 -11.622 -18.509  1.00  0.00     0.000 C 
BRANCH   3   4
ATOM      4  C   UNL     1       4.530 -11.715 -18.841  1.00  0.00     0.000 C 
BRANCH   4   5
ATOM      5  C   UNL     1       4.950 -10.769 -19.980  1.00  0.00     0.000 C 
BRANCH   5   6
ATOM      6  C   UNL     1       6.325 -11.076 -20.609  1.00  0.00     0.006 C 
BRANCH   6   7
ATOM      7  C   UNL     1       7.529 -10.761 -19.707  1.00  0.00     0.053 C 
BRANCH   7   8
ATOM      8  C   UNL     1       8.560  -9.933 -20.411  1.00  0.00     0.041 C 
ATOM      9  O   UNL     1       9.102  -8.961 -19.824  1.00  0.00    -0.550 OA
ATOM     10  O   UNL     1       8.896 -10.213 -21.730  1.00  0.00    -0.550 OA
ENDBRANCH   7   8
ENDBRANCH   6   7
ENDBRANCH   5   6
ENDBRANCH   4   5
ENDBRANCH   3   4
ENDBRANCH   2   3
ENDBRANCH   1   2
BRANCH   1  11
ATOM     11  C   UNL     1       1.133 -14.686 -17.780  1.00  0.00     0.000 C 
BRANCH  11  12
ATOM     12  C   UNL     1       0.635 -15.965 -18.475  1.00  0.00    -0.000 C 
BRANCH  12  13
ATOM     13  C   UNL     1      -0.899 -16.063 -18.509  1.00  0.00    -0.000 C 
BRANCH  13  14
ATOM     14  C   UNL     1      -1.416 -16.875 -19.707  1.00  0.00    -0.000 C 
BRANCH  14  15
ATOM     15  C   UNL     1      -0.848 -18.299 -19.689  1.00  0.00    -0.000 C 
BRANCH  15  16
ATOM     16  C   UNL     1      -1.058 -18.959 -18.320  1.00  0.00    -0.000 C 
BRANCH  16  17
ATOM     17  C   UNL     1      -0.035 -20.076 -18.087  1.00  0.00    -0.003 C 
ATOM     18  C   UNL     1       1.213 -19.545 -17.387  1.00  0.00     0.004 C 
ENDBRANCH  16  17
ENDBRANCH  15  16
ENDBRANCH  14  15
ENDBRANCH  13  14
ENDBRANCH  12  13
ENDBRANCH  11  12
ENDBRANCH   1  11
TORSDOF 14
ENDMDL
