MODEL 1
REMARK VINA RESULT:    -2.415      0.000      0.000
REMARK INTER + INTRA:          -6.522
REMARK INTER:                  -5.238
REMARK INTRA:                  -1.284
REMARK UNBOUND:                -1.284
REMARK SMILES CCCCCCCCCCCCCCCCCCCCCC(=O)[O-]
REMARK SMILES IDX 12 1 11 2 10 3 9 4 8 5 7 6 6 7 5 8 4 9 3 10 2 11 1 12 13 13
REMARK SMILES IDX 14 14 15 15 16 16 17 17 18 18 19 19 20 20 21 21 22 22 23 23
REMARK SMILES IDX 24 24
REMARK H PARENT
REMARK Flexibility Score: inf
ROOT
ATOM      1  C   UNL     1      26.627  19.732  58.444  1.00  0.00     0.000 C 
ENDROOT
BRANCH   1   2
ATOM      2  C   UNL     1      26.938  21.035  59.199  1.00  0.00     0.000 C 
BRANCH   2   3
ATOM      3  C   UNL     1      25.714  21.961  59.326  1.00  0.00     0.000 C 
BRANCH   3   4
ATOM      4  C   UNL     1      24.351  21.269  59.143  1.00  0.00    -0.000 C 
BRANCH   4   5
ATOM      5  C   UNL     1      23.298  21.742  60.162  1.00  0.00    -0.000 C 
BRANCH   5   6
ATOM      6  C   UNL     1      23.913  22.123  61.518  1.00  0.00    -0.000 C 
BRANCH   6   7
ATOM      7  C   UNL     1      23.189  21.459  62.701  1.00  0.00    -0.000 C 
BRANCH   7   8
ATOM      8  C   UNL     1      24.154  21.044  63.824  1.00  0.00    -0.000 C 
BRANCH   8   9
ATOM      9  C   UNL     1      25.334  22.019  63.982  1.00  0.00    -0.000 C 
BRANCH   9  10
ATOM     10  C   UNL     1      26.682  21.393  63.580  1.00  0.00    -0.000 C 
BRANCH  10  11
ATOM     11  C   UNL     1      26.604  19.915  63.156  1.00  0.00    -0.003 C 
ATOM     12  C   UNL     1      26.314  18.974  64.325  1.00  0.00     0.004 C 
ENDBRANCH  10  11
ENDBRANCH   9  10
ENDBRANCH   8   9
ENDBRANCH   7   8
ENDBRANCH   6   7
ENDBRANCH   5   6
ENDBRANCH   4   5
ENDBRANCH   3   4
ENDBRANCH   2   3
ENDBRANCH   1   2
BRANCH   1  13
ATOM     13  C   UNL     1      26.685  19.909  56.918  1.00  0.00     0.000 C 
BRANCH  13  14
ATOM     14  C   UNL     1      27.275  21.265  56.499  1.00  0.00     0.000 C 
BRANCH  14  15
ATOM     15  C   UNL     1      27.411  21.356  54.975  1.00  0.00     0.000 C 
BRANCH  15  16
ATOM     16  C   UNL     1      26.045  21.589  54.312  1.00  0.00     0.000 C 
BRANCH  16  17
ATOM     17  C   UNL     1      24.993  22.125  55.295  1.00  0.00     0.000 C 
BRANCH  17  18
ATOM     18  C   UNL     1      23.556  21.805  54.859  1.00  0.00     0.000 C 
BRANCH  18  19
ATOM     19  C   UNL     1      23.525  21.274  53.418  1.00  0.00     0.000 C 
BRANCH  19  20
ATOM     20  C   UNL     1      23.276  19.759  53.350  1.00  0.00     0.006 C 
BRANCH  20  21
ATOM     21  C   UNL     1      22.900  19.161  54.711  1.00  0.00     0.053 C 
BRANCH  21  22
ATOM     22  C   UNL     1      23.693  17.920  54.972  1.00  0.00     0.041 C 
ATOM     23  O   UNL     1      24.952  17.959  54.969  1.00  0.00    -0.550 OA
ATOM     24  O   UNL     1      23.043  16.728  55.269  1.00  0.00    -0.550 OA
ENDBRANCH  21  22
ENDBRANCH  20  21
ENDBRANCH  19  20
ENDBRANCH  18  19
ENDBRANCH  17  18
ENDBRANCH  16  17
ENDBRANCH  15  16
ENDBRANCH  14  15
ENDBRANCH  13  14
ENDBRANCH   1  13
TORSDOF 20
ENDMDL
MODEL 2
REMARK VINA RESULT:    -2.144      1.758      3.359
REMARK INTER + INTRA:          -5.935
REMARK INTER:                  -4.514
REMARK INTRA:                  -1.420
REMARK UNBOUND:                -1.284
REMARK SMILES CCCCCCCCCCCCCCCCCCCCCC(=O)[O-]
REMARK SMILES IDX 12 1 11 2 10 3 9 4 8 5 7 6 6 7 5 8 4 9 3 10 2 11 1 12 13 13
REMARK SMILES IDX 14 14 15 15 16 16 17 17 18 18 19 19 20 20 21 21 22 22 23 23
REMARK SMILES IDX 24 24
REMARK H PARENT
REMARK Flexibility Score: inf
ROOT
ATOM      1  C   UNL     1      24.051  18.490  56.917  1.00  0.00     0.000 C 
ENDROOT
BRANCH   1   2
ATOM      2  C   UNL     1      23.245  19.501  57.749  1.00  0.00     0.000 C 
BRANCH   2   3
ATOM      3  C   UNL     1      24.040  20.778  58.077  1.00  0.00     0.000 C 
BRANCH   3   4
ATOM      4  C   UNL     1      23.338  21.755  59.037  1.00  0.00    -0.000 C 
BRANCH   4   5
ATOM      5  C   UNL     1      22.889  21.086  60.349  1.00  0.00    -0.000 C 
BRANCH   5   6
ATOM      6  C   UNL     1      23.105  21.983  61.578  1.00  0.00    -0.000 C 
BRANCH   6   7
ATOM      7  C   UNL     1      23.698  21.216  62.771  1.00  0.00    -0.000 C 
BRANCH   7   8
ATOM      8  C   UNL     1      24.544  22.116  63.687  1.00  0.00    -0.000 C 
BRANCH   8   9
ATOM      9  C   UNL     1      25.970  21.577  63.896  1.00  0.00    -0.000 C 
BRANCH   9  10
ATOM     10  C   UNL     1      26.914  21.920  62.730  1.00  0.00    -0.000 C 
BRANCH  10  11
ATOM     11  C   UNL     1      26.256  21.886  61.338  1.00  0.00    -0.003 C 
ATOM     12  C   UNL     1      27.027  21.028  60.335  1.00  0.00     0.004 C 
ENDBRANCH  10  11
ENDBRANCH   9  10
ENDBRANCH   8   9
ENDBRANCH   7   8
ENDBRANCH   6   7
ENDBRANCH   5   6
ENDBRANCH   4   5
ENDBRANCH   3   4
ENDBRANCH   2   3
ENDBRANCH   1   2
BRANCH   1  13
ATOM     13  C   UNL     1      23.161  17.416  56.272  1.00  0.00     0.000 C 
BRANCH  13  14
ATOM     14  C   UNL     1      22.913  17.670  54.776  1.00  0.00     0.000 C 
BRANCH  14  15
ATOM     15  C   UNL     1      23.933  18.667  54.214  1.00  0.00     0.000 C 
BRANCH  15  16
ATOM     16  C   UNL     1      23.245  19.718  53.329  1.00  0.00     0.000 C 
BRANCH  16  17
ATOM     17  C   UNL     1      22.890  21.000  54.098  1.00  0.00     0.000 C 
BRANCH  17  18
ATOM     18  C   UNL     1      24.072  21.555  54.906  1.00  0.00     0.000 C 
BRANCH  18  19
ATOM     19  C   UNL     1      25.155  22.121  53.975  1.00  0.00     0.000 C 
BRANCH  19  20
ATOM     20  C   UNL     1      26.578  21.807  54.463  1.00  0.00     0.006 C 
BRANCH  20  21
ATOM     21  C   UNL     1      26.685  20.427  55.123  1.00  0.00     0.053 C 
BRANCH  21  22
ATOM     22  C   UNL     1      27.039  20.567  56.569  1.00  0.00     0.041 C 
ATOM     23  O   UNL     1      27.234  21.707  57.067  1.00  0.00    -0.550 OA
ATOM     24  O   UNL     1      27.107  19.441  57.381  1.00  0.00    -0.550 OA
ENDBRANCH  21  22
ENDBRANCH  20  21
ENDBRANCH  19  20
ENDBRANCH  18  19
ENDBRANCH  17  18
ENDBRANCH  16  17
ENDBRANCH  15  16
ENDBRANCH  14  15
ENDBRANCH  13  14
ENDBRANCH   1  13
TORSDOF 20
ENDMDL
MODEL 3
REMARK VINA RESULT:    -1.472      2.408      7.747
REMARK INTER + INTRA:          -4.478
REMARK INTER:                  -4.345
REMARK INTRA:                  -0.133
REMARK UNBOUND:                -1.284
REMARK SMILES CCCCCCCCCCCCCCCCCCCCCC(=O)[O-]
REMARK SMILES IDX 12 1 11 2 10 3 9 4 8 5 7 6 6 7 5 8 4 9 3 10 2 11 1 12 13 13
REMARK SMILES IDX 14 14 15 15 16 16 17 17 18 18 19 19 20 20 21 21 22 22 23 23
REMARK SMILES IDX 24 24
REMARK H PARENT
REMARK Flexibility Score: inf
ROOT
ATOM      1  C   UNL     1      26.294  19.747  58.025  1.00  0.00     0.000 C 
ENDROOT
BRANCH   1   2
ATOM      2  C   UNL     1      27.101  20.462  56.927  1.00  0.00     0.000 C 
BRANCH   2   3
ATOM      3  C   UNL     1      26.412  20.416  55.551  1.00  0.00     0.000 C 
BRANCH   3   4
ATOM      4  C   UNL     1      26.716  21.611  54.629  1.00  0.00    -0.000 C 
BRANCH   4   5
ATOM      5  C   UNL     1      25.470  22.125  53.886  1.00  0.00    -0.000 C 
BRANCH   5   6
ATOM      6  C   UNL     1      24.191  22.032  54.733  1.00  0.00    -0.000 C 
BRANCH   6   7
ATOM      7  C   UNL     1      23.079  21.231  54.037  1.00  0.00    -0.000 C 
BRANCH   7   8
ATOM      8  C   UNL     1      23.627  20.270  52.967  1.00  0.00    -0.000 C 
BRANCH   8   9
ATOM      9  C   UNL     1      22.886  18.922  52.946  1.00  0.00    -0.000 C 
BRANCH   9  10
ATOM     10  C   UNL     1      23.182  18.060  54.186  1.00  0.00    -0.000 C 
BRANCH  10  11
ATOM     11  C   UNL     1      23.483  18.858  55.468  1.00  0.00    -0.003 C 
ATOM     12  C   UNL     1      22.877  18.226  56.721  1.00  0.00     0.004 C 
ENDBRANCH  10  11
ENDBRANCH   9  10
ENDBRANCH   8   9
ENDBRANCH   7   8
ENDBRANCH   6   7
ENDBRANCH   5   6
ENDBRANCH   4   5
ENDBRANCH   3   4
ENDBRANCH   2   3
ENDBRANCH   1   2
BRANCH   1  13
ATOM     13  C   UNL     1      25.432  20.718  58.848  1.00  0.00     0.000 C 
BRANCH  13  14
ATOM     14  C   UNL     1      24.096  21.050  58.165  1.00  0.00     0.000 C 
BRANCH  14  15
ATOM     15  C   UNL     1      22.948  21.058  59.182  1.00  0.00     0.000 C 
BRANCH  15  16
ATOM     16  C   UNL     1      23.328  21.861  60.436  1.00  0.00     0.000 C 
BRANCH  16  17
ATOM     17  C   UNL     1      22.895  21.169  61.737  1.00  0.00     0.000 C 
BRANCH  17  18
ATOM     18  C   UNL     1      23.341  21.932  62.993  1.00  0.00     0.000 C 
BRANCH  18  19
ATOM     19  C   UNL     1      24.873  21.971  63.096  1.00  0.00     0.000 C 
BRANCH  19  20
ATOM     20  C   UNL     1      25.431  20.889  64.035  1.00  0.00     0.006 C 
BRANCH  20  21
ATOM     21  C   UNL     1      26.334  19.886  63.308  1.00  0.00     0.053 C 
BRANCH  21  22
ATOM     22  C   UNL     1      26.981  20.529  62.122  1.00  0.00     0.041 C 
ATOM     23  O   UNL     1      27.134  21.779  62.084  1.00  0.00    -0.550 OA
ATOM     24  O   UNL     1      27.459  19.746  61.079  1.00  0.00    -0.550 OA
ENDBRANCH  21  22
ENDBRANCH  20  21
ENDBRANCH  19  20
ENDBRANCH  18  19
ENDBRANCH  17  18
ENDBRANCH  16  17
ENDBRANCH  15  16
ENDBRANCH  14  15
ENDBRANCH  13  14
ENDBRANCH   1  13
TORSDOF 20
ENDMDL
MODEL 4
REMARK VINA RESULT:    -1.401      2.786      7.596
REMARK INTER + INTRA:          -4.322
REMARK INTER:                  -2.910
REMARK INTRA:                  -1.413
REMARK UNBOUND:                -1.284
REMARK SMILES CCCCCCCCCCCCCCCCCCCCCC(=O)[O-]
REMARK SMILES IDX 12 1 11 2 10 3 9 4 8 5 7 6 6 7 5 8 4 9 3 10 2 11 1 12 13 13
REMARK SMILES IDX 14 14 15 15 16 16 17 17 18 18 19 19 20 20 21 21 22 22 23 23
REMARK SMILES IDX 24 24
REMARK H PARENT
REMARK Flexibility Score: inf
ROOT
ATOM      1  C   UNL     1      27.232  19.375  59.746  1.00  0.00     0.000 C 
ENDROOT
BRANCH   1   2
ATOM      2  C   UNL     1      27.259  18.908  58.280  1.00  0.00     0.000 C 
BRANCH   2   3
ATOM      3  C   UNL     1      26.199  19.606  57.409  1.00  0.00     0.000 C 
BRANCH   3   4
ATOM      4  C   UNL     1      26.718  20.791  56.574  1.00  0.00    -0.000 C 
BRANCH   4   5
ATOM      5  C   UNL     1      26.202  20.772  55.124  1.00  0.00    -0.000 C 
BRANCH   5   6
ATOM      6  C   UNL     1      25.417  22.041  54.757  1.00  0.00    -0.000 C 
BRANCH   6   7
ATOM      7  C   UNL     1      24.585  21.870  53.474  1.00  0.00    -0.000 C 
BRANCH   7   8
ATOM      8  C   UNL     1      23.191  21.283  53.751  1.00  0.00    -0.000 C 
BRANCH   8   9
ATOM      9  C   UNL     1      23.000  19.889  53.128  1.00  0.00    -0.000 C 
BRANCH   9  10
ATOM     10  C   UNL     1      23.676  18.773  53.944  1.00  0.00    -0.000 C 
BRANCH  10  11
ATOM     11  C   UNL     1      22.875  18.298  55.171  1.00  0.00    -0.003 C 
ATOM     12  C   UNL     1      23.015  19.231  56.373  1.00  0.00     0.004 C 
ENDBRANCH  10  11
ENDBRANCH   9  10
ENDBRANCH   8   9
ENDBRANCH   7   8
ENDBRANCH   6   7
ENDBRANCH   5   6
ENDBRANCH   4   5
ENDBRANCH   3   4
ENDBRANCH   2   3
ENDBRANCH   1   2
BRANCH   1  13
ATOM     13  C   UNL     1      28.136  20.594  59.991  1.00  0.00     0.000 C 
BRANCH  13  14
ATOM     14  C   UNL     1      27.456  21.921  59.618  1.00  0.00     0.000 C 
BRANCH  14  15
ATOM     15  C   UNL     1      26.126  22.084  60.362  1.00  0.00     0.000 C 
BRANCH  15  16
ATOM     16  C   UNL     1      24.935  21.933  59.403  1.00  0.00     0.000 C 
BRANCH  16  17
ATOM     17  C   UNL     1      23.581  22.125  60.103  1.00  0.00     0.000 C 
BRANCH  17  18
ATOM     18  C   UNL     1      23.420  21.227  61.339  1.00  0.00     0.000 C 
BRANCH  18  19
ATOM     19  C   UNL     1      23.623  22.032  62.631  1.00  0.00     0.000 C 
BRANCH  19  20
ATOM     20  C   UNL     1      24.115  21.162  63.800  1.00  0.00     0.006 C 
BRANCH  20  21
ATOM     21  C   UNL     1      25.637  20.972  63.795  1.00  0.00     0.053 C 
BRANCH  21  22
ATOM     22  C   UNL     1      25.980  19.517  63.777  1.00  0.00     0.041 C 
ATOM     23  O   UNL     1      26.632  19.030  62.815  1.00  0.00    -0.550 OA
ATOM     24  O   UNL     1      25.624  18.704  64.846  1.00  0.00    -0.550 OA
ENDBRANCH  21  22
ENDBRANCH  20  21
ENDBRANCH  19  20
ENDBRANCH  18  19
ENDBRANCH  17  18
ENDBRANCH  16  17
ENDBRANCH  15  16
ENDBRANCH  14  15
ENDBRANCH  13  14
ENDBRANCH   1  13
TORSDOF 20
ENDMDL
MODEL 5
REMARK VINA RESULT:    -1.024      1.995      3.994
REMARK INTER + INTRA:          -3.506
REMARK INTER:                  -3.159
REMARK INTRA:                  -0.347
REMARK UNBOUND:                -1.284
REMARK SMILES CCCCCCCCCCCCCCCCCCCCCC(=O)[O-]
REMARK SMILES IDX 12 1 11 2 10 3 9 4 8 5 7 6 6 7 5 8 4 9 3 10 2 11 1 12 13 13
REMARK SMILES IDX 14 14 15 15 16 16 17 17 18 18 19 19 20 20 21 21 22 22 23 23
REMARK SMILES IDX 24 24
REMARK H PARENT
REMARK Flexibility Score: inf
ROOT
ATOM      1  C   UNL     1      24.526  21.318  58.754  1.00  0.00     0.000 C 
ENDROOT
BRANCH   1   2
ATOM      2  C   UNL     1      24.096  22.027  60.050  1.00  0.00     0.000 C 
BRANCH   2   3
ATOM      3  C   UNL     1      22.876  21.367  60.718  1.00  0.00     0.000 C 
BRANCH   3   4
ATOM      4  C   UNL     1      23.065  20.995  62.200  1.00  0.00    -0.000 C 
BRANCH   4   5
ATOM      5  C   UNL     1      23.801  22.084  63.001  1.00  0.00    -0.000 C 
BRANCH   5   6
ATOM      6  C   UNL     1      24.446  21.542  64.286  1.00  0.00    -0.000 C 
BRANCH   6   7
ATOM      7  C   UNL     1      25.674  20.661  64.003  1.00  0.00    -0.000 C 
BRANCH   7   8
ATOM      8  C   UNL     1      26.975  21.478  63.908  1.00  0.00    -0.000 C 
BRANCH   8   9
ATOM      9  C   UNL     1      27.168  22.125  62.526  1.00  0.00    -0.000 C 
BRANCH   9  10
ATOM     10  C   UNL     1      27.041  21.115  61.371  1.00  0.00    -0.000 C 
BRANCH  10  11
ATOM     11  C   UNL     1      27.163  21.728  59.964  1.00  0.00    -0.003 C 
ATOM     12  C   UNL     1      28.573  21.616  59.385  1.00  0.00     0.004 C 
ENDBRANCH  10  11
ENDBRANCH   9  10
ENDBRANCH   8   9
ENDBRANCH   7   8
ENDBRANCH   6   7
ENDBRANCH   5   6
ENDBRANCH   4   5
ENDBRANCH   3   4
ENDBRANCH   2   3
ENDBRANCH   1   2
BRANCH   1  13
ATOM     13  C   UNL     1      24.163  22.123  57.496  1.00  0.00     0.000 C 
BRANCH  13  14
ATOM     14  C   UNL     1      22.887  21.608  56.810  1.00  0.00     0.000 C 
BRANCH  14  15
ATOM     15  C   UNL     1      23.136  21.338  55.321  1.00  0.00     0.000 C 
BRANCH  15  16
ATOM     16  C   UNL     1      22.896  19.859  54.982  1.00  0.00     0.000 C 
BRANCH  16  17
ATOM     17  C   UNL     1      24.102  19.205  54.291  1.00  0.00     0.000 C 
BRANCH  17  18
ATOM     18  C   UNL     1      24.814  18.179  55.184  1.00  0.00     0.000 C 
BRANCH  18  19
ATOM     19  C   UNL     1      25.273  18.822  56.501  1.00  0.00     0.000 C 
BRANCH  19  20
ATOM     20  C   UNL     1      26.611  19.565  56.362  1.00  0.00     0.006 C 
BRANCH  20  21
ATOM     21  C   UNL     1      26.440  21.089  56.328  1.00  0.00     0.053 C 
BRANCH  21  22
ATOM     22  C   UNL     1      27.235  21.678  55.207  1.00  0.00     0.041 C 
ATOM     23  O   UNL     1      26.685  21.927  54.101  1.00  0.00    -0.550 OA
ATOM     24  O   UNL     1      28.574  22.000  55.397  1.00  0.00    -0.550 OA
ENDBRANCH  21  22
ENDBRANCH  20  21
ENDBRANCH  19  20
ENDBRANCH  18  19
ENDBRANCH  17  18
ENDBRANCH  16  17
ENDBRANCH  15  16
ENDBRANCH  14  15
ENDBRANCH  13  14
ENDBRANCH   1  13
TORSDOF 20
ENDMDL
MODEL 6
REMARK VINA RESULT:    -1.018      1.135      4.388
REMARK INTER + INTRA:          -3.492
REMARK INTER:                  -2.873
REMARK INTRA:                  -0.619
REMARK UNBOUND:                -1.284
REMARK SMILES CCCCCCCCCCCCCCCCCCCCCC(=O)[O-]
REMARK SMILES IDX 12 1 11 2 10 3 9 4 8 5 7 6 6 7 5 8 4 9 3 10 2 11 1 12 13 13
REMARK SMILES IDX 14 14 15 15 16 16 17 17 18 18 19 19 20 20 21 21 22 22 23 23
REMARK SMILES IDX 24 24
REMARK H PARENT
REMARK Flexibility Score: inf
ROOT
ATOM      1  C   UNL     1      23.384  22.041  61.412  1.00  0.00     0.000 C 
ENDROOT
BRANCH   1   2
ATOM      2  C   UNL     1      23.197  21.222  62.700  1.00  0.00     0.000 C 
BRANCH   2   3
ATOM      3  C   UNL     1      24.532  20.784  63.331  1.00  0.00     0.000 C 
BRANCH   3   4
ATOM      4  C   UNL     1      25.277  21.884  64.110  1.00  0.00    -0.000 C 
BRANCH   4   5
ATOM      5  C   UNL     1      26.807  21.757  64.009  1.00  0.00    -0.000 C 
BRANCH   5   6
ATOM      6  C   UNL     1      27.343  22.125  62.617  1.00  0.00    -0.000 C 
BRANCH   6   7
ATOM      7  C   UNL     1      26.680  21.308  61.495  1.00  0.00    -0.000 C 
BRANCH   7   8
ATOM      8  C   UNL     1      27.600  21.129  60.275  1.00  0.00    -0.000 C 
BRANCH   8   9
ATOM      9  C   UNL     1      26.971  20.246  59.183  1.00  0.00    -0.000 C 
BRANCH   9  10
ATOM     10  C   UNL     1      27.658  20.410  57.815  1.00  0.00    -0.000 C 
BRANCH  10  11
ATOM     11  C   UNL     1      26.821  19.933  56.614  1.00  0.00    -0.003 C 
ATOM     12  C   UNL     1      27.127  20.703  55.330  1.00  0.00     0.004 C 
ENDBRANCH  10  11
ENDBRANCH   9  10
ENDBRANCH   8   9
ENDBRANCH   7   8
ENDBRANCH   6   7
ENDBRANCH   5   6
ENDBRANCH   4   5
ENDBRANCH   3   4
ENDBRANCH   2   3
ENDBRANCH   1   2
BRANCH   1  13
ATOM     13  C   UNL     1      22.876  21.300  60.165  1.00  0.00     0.000 C 
BRANCH  13  14
ATOM     14  C   UNL     1      23.042  22.122  58.877  1.00  0.00     0.000 C 
BRANCH  14  15
ATOM     15  C   UNL     1      24.409  21.863  58.233  1.00  0.00     0.000 C 
BRANCH  15  16
ATOM     16  C   UNL     1      24.363  22.125  56.720  1.00  0.00     0.000 C 
BRANCH  16  17
ATOM     17  C   UNL     1      22.989  21.819  56.106  1.00  0.00     0.000 C 
BRANCH  17  18
ATOM     18  C   UNL     1      22.947  22.066  54.590  1.00  0.00     0.000 C 
BRANCH  18  19
ATOM     19  C   UNL     1      24.096  21.332  53.883  1.00  0.00     0.000 C 
BRANCH  19  20
ATOM     20  C   UNL     1      23.691  19.933  53.390  1.00  0.00     0.006 C 
BRANCH  20  21
ATOM     21  C   UNL     1      22.875  19.154  54.429  1.00  0.00     0.053 C 
BRANCH  21  22
ATOM     22  C   UNL     1      23.777  18.314  55.277  1.00  0.00     0.041 C 
ATOM     23  O   UNL     1      23.370  17.862  56.380  1.00  0.00    -0.550 OA
ATOM     24  O   UNL     1      25.051  17.988  54.827  1.00  0.00    -0.550 OA
ENDBRANCH  21  22
ENDBRANCH  20  21
ENDBRANCH  19  20
ENDBRANCH  18  19
ENDBRANCH  17  18
ENDBRANCH  16  17
ENDBRANCH  15  16
ENDBRANCH  14  15
ENDBRANCH  13  14
ENDBRANCH   1  13
TORSDOF 20
ENDMDL
MODEL 7
REMARK VINA RESULT:    -0.834      1.189      2.705
REMARK INTER + INTRA:          -3.094
REMARK INTER:                  -2.776
REMARK INTRA:                  -0.317
REMARK UNBOUND:                -1.284
REMARK SMILES CCCCCCCCCCCCCCCCCCCCCC(=O)[O-]
REMARK SMILES IDX 12 1 11 2 10 3 9 4 8 5 7 6 6 7 5 8 4 9 3 10 2 11 1 12 13 13
REMARK SMILES IDX 14 14 15 15 16 16 17 17 18 18 19 19 20 20 21 21 22 22 23 23
REMARK SMILES IDX 24 24
REMARK H PARENT
REMARK Flexibility Score: inf
ROOT
ATOM      1  C   UNL     1      26.626  19.417  58.962  1.00  0.00     0.000 C 
ENDROOT
BRANCH   1   2
ATOM      2  C   UNL     1      27.865  19.915  59.726  1.00  0.00     0.000 C 
BRANCH   2   3
ATOM      3  C   UNL     1      27.688  21.335  60.294  1.00  0.00     0.000 C 
BRANCH   3   4
ATOM      4  C   UNL     1      26.573  21.482  61.346  1.00  0.00    -0.000 C 
BRANCH   4   5
ATOM      5  C   UNL     1      27.079  21.277  62.785  1.00  0.00    -0.000 C 
BRANCH   5   6
ATOM      6  C   UNL     1      26.231  20.266  63.573  1.00  0.00    -0.000 C 
BRANCH   6   7
ATOM      7  C   UNL     1      24.732  20.374  63.249  1.00  0.00    -0.000 C 
BRANCH   7   8
ATOM      8  C   UNL     1      24.293  21.821  62.965  1.00  0.00    -0.000 C 
BRANCH   8   9
ATOM      9  C   UNL     1      22.876  21.906  62.374  1.00  0.00    -0.000 C 
BRANCH   9  10
ATOM     10  C   UNL     1      22.877  22.120  60.850  1.00  0.00    -0.000 C 
BRANCH  10  11
ATOM     11  C   UNL     1      23.340  20.903  60.029  1.00  0.00    -0.003 C 
ATOM     12  C   UNL     1      23.746  21.265  58.601  1.00  0.00     0.004 C 
ENDBRANCH  10  11
ENDBRANCH   9  10
ENDBRANCH   8   9
ENDBRANCH   7   8
ENDBRANCH   6   7
ENDBRANCH   5   6
ENDBRANCH   4   5
ENDBRANCH   3   4
ENDBRANCH   2   3
ENDBRANCH   1   2
BRANCH   1  13
ATOM     13  C   UNL     1      26.539  19.995  57.541  1.00  0.00     0.000 C 
BRANCH  13  14
ATOM     14  C   UNL     1      27.273  21.338  57.401  1.00  0.00     0.000 C 
BRANCH  14  15
ATOM     15  C   UNL     1      26.850  22.062  56.117  1.00  0.00     0.000 C 
BRANCH  15  16
ATOM     16  C   UNL     1      26.080  21.119  55.180  1.00  0.00     0.000 C 
BRANCH  16  17
ATOM     17  C   UNL     1      25.510  21.841  53.949  1.00  0.00     0.000 C 
BRANCH  17  18
ATOM     18  C   UNL     1      24.006  22.125  54.071  1.00  0.00     0.000 C 
BRANCH  18  19
ATOM     19  C   UNL     1      23.197  20.819  54.032  1.00  0.00     0.000 C 
BRANCH  19  20
ATOM     20  C   UNL     1      23.440  19.935  55.266  1.00  0.00     0.006 C 
BRANCH  20  21
ATOM     21  C   UNL     1      23.975  18.545  54.899  1.00  0.00     0.053 C 
BRANCH  21  22
ATOM     22  C   UNL     1      24.027  17.671  56.112  1.00  0.00     0.041 C 
ATOM     23  O   UNL     1      25.113  17.138  56.463  1.00  0.00    -0.550 OA
ATOM     24  O   UNL     1      22.887  17.481  56.883  1.00  0.00    -0.550 OA
ENDBRANCH  21  22
ENDBRANCH  20  21
ENDBRANCH  19  20
ENDBRANCH  18  19
ENDBRANCH  17  18
ENDBRANCH  16  17
ENDBRANCH  15  16
ENDBRANCH  14  15
ENDBRANCH  13  14
ENDBRANCH   1  13
TORSDOF 20
ENDMDL
