MODEL 1
REMARK VINA RESULT:    -4.176      0.000      0.000
REMARK INTER + INTRA:          -5.181
REMARK INTER:                  -4.908
REMARK INTRA:                  -0.273
REMARK UNBOUND:                -0.273
REMARK SMILES O=c1c(O)c(-c2ccc(O)cc2)oc2cc(O)cc(O)c12
REMARK SMILES IDX 5 1 3 2 2 3 1 4 21 5 19 6 18 7 16 8 15 9 14 10 13 11 6 12
REMARK SMILES IDX 7 13 8 14 9 15 12 16 11 17 10 18 4 20 20 22 17 24
REMARK H PARENT 10 19 4 21 20 23 17 25
REMARK Flexibility Score: inf
ROOT
ATOM      1  C   UNL     1      17.120  13.171  10.923  1.00  0.00     0.180 A 
ATOM      2  C   UNL     1      17.616  11.888  11.209  1.00  0.00     0.208 A 
ATOM      3  C   UNL     1      17.732  11.485  12.548  1.00  0.00     0.238 A 
ATOM      4  O   UNL     1      18.125  10.315  12.796  1.00  0.00    -0.285 OA
ATOM      5  C   UNL     1      17.366  12.376  13.586  1.00  0.00     0.111 A 
ATOM      6  C   UNL     1      17.480  12.087  14.979  1.00  0.00     0.134 A 
ATOM      7  C   UNL     1      16.965  12.992  15.916  1.00  0.00     0.093 A 
ATOM      8  C   UNL     1      16.401  14.203  15.515  1.00  0.00     0.123 A 
ATOM      9  C   UNL     1      16.339  14.521  14.158  1.00  0.00     0.094 A 
ATOM     10  C   UNL     1      16.811  13.622  13.197  1.00  0.00     0.146 A 
ATOM     11  O   UNL     1      16.723  13.959  11.916  1.00  0.00    -0.452 OA
ENDROOT
BRANCH   1  12
ATOM     12  C   UNL     1      16.992  13.677   9.537  1.00  0.00     0.021 A 
ATOM     13  C   UNL     1      18.120  14.205   8.887  1.00  0.00     0.016 A 
ATOM     14  C   UNL     1      18.026  14.667   7.570  1.00  0.00     0.047 A 
ATOM     15  C   UNL     1      16.811  14.593   6.883  1.00  0.00     0.115 A 
ATOM     16  C   UNL     1      15.777  13.586   8.833  1.00  0.00     0.016 A 
ATOM     17  C   UNL     1      15.688  14.048   7.517  1.00  0.00     0.047 A 
BRANCH  15  18
ATOM     18  O   UNL     1      16.732  15.057   5.572  1.00  0.00    -0.508 OA
ATOM     19  H   UNL     1      16.023  14.719   4.933  1.00  0.00     0.293 HD
ENDBRANCH  15  18
ENDBRANCH   1  12
BRANCH   2  20
ATOM     20  O   UNL     1      17.951  11.016  10.168  1.00  0.00    -0.502 OA
ATOM     21  H   UNL     1      18.762  11.160   9.579  1.00  0.00     0.293 HD
ENDBRANCH   2  20
BRANCH   6  22
ATOM     22  O   UNL     1      18.108  10.948  15.492  1.00  0.00    -0.507 OA
ATOM     23  H   UNL     1      18.921  10.510  15.088  1.00  0.00     0.293 HD
ENDBRANCH   6  22
BRANCH   8  24
ATOM     24  O   UNL     1      15.914  15.086  16.475  1.00  0.00    -0.508 OA
ATOM     25  H   UNL     1      14.924  15.143  16.689  1.00  0.00     0.293 HD
ENDBRANCH   8  24
TORSDOF 5
ENDMDL
MODEL 2
REMARK VINA RESULT:    -3.737      1.496      6.437
REMARK INTER + INTRA:          -4.666
REMARK INTER:                  -4.584
REMARK INTRA:                  -0.082
REMARK UNBOUND:                -0.273
REMARK SMILES O=c1c(O)c(-c2ccc(O)cc2)oc2cc(O)cc(O)c12
REMARK SMILES IDX 5 1 3 2 2 3 1 4 21 5 19 6 18 7 16 8 15 9 14 10 13 11 6 12
REMARK SMILES IDX 7 13 8 14 9 15 12 16 11 17 10 18 4 20 20 22 17 24
REMARK H PARENT 10 19 4 21 20 23 17 25
REMARK Flexibility Score: inf
ROOT
ATOM      1  C   UNL     1      17.518  12.618  11.829  1.00  0.00     0.180 A 
ATOM      2  C   UNL     1      17.709  11.263  11.511  1.00  0.00     0.208 A 
ATOM      3  C   UNL     1      17.900  10.898  10.169  1.00  0.00     0.238 A 
ATOM      4  O   UNL     1      18.125   9.689   9.898  1.00  0.00    -0.285 OA
ATOM      5  C   UNL     1      17.881  11.889   9.160  1.00  0.00     0.111 A 
ATOM      6  C   UNL     1      18.023  11.628   7.764  1.00  0.00     0.134 A 
ATOM      7  C   UNL     1      18.120  12.699   6.867  1.00  0.00     0.093 A 
ATOM      8  C   UNL     1      18.014  14.019   7.305  1.00  0.00     0.123 A 
ATOM      9  C   UNL     1      17.814  14.284   8.661  1.00  0.00     0.094 A 
ATOM     10  C   UNL     1      17.751  13.237   9.585  1.00  0.00     0.146 A 
ATOM     11  O   UNL     1      17.571  13.533  10.867  1.00  0.00    -0.452 OA
ENDROOT
BRANCH   1  12
ATOM     12  C   UNL     1      17.285  13.078  13.217  1.00  0.00     0.021 A 
ATOM     13  C   UNL     1      18.111  14.074  13.763  1.00  0.00     0.016 A 
ATOM     14  C   UNL     1      17.895  14.539  15.064  1.00  0.00     0.047 A 
ATOM     15  C   UNL     1      16.844  14.026  15.829  1.00  0.00     0.115 A 
ATOM     16  C   UNL     1      16.216  12.580  13.984  1.00  0.00     0.016 A 
ATOM     17  C   UNL     1      16.002  13.048  15.284  1.00  0.00     0.047 A 
BRANCH  15  18
ATOM     18  O   UNL     1      16.640  14.498  17.124  1.00  0.00    -0.508 OA
ATOM     19  H   UNL     1      17.087  15.344  17.455  1.00  0.00     0.293 HD
ENDBRANCH  15  18
ENDBRANCH   1  12
BRANCH   2  20
ATOM     20  O   UNL     1      17.746  10.302  12.526  1.00  0.00    -0.502 OA
ATOM     21  H   UNL     1      17.450   9.345  12.379  1.00  0.00     0.293 HD
ENDBRANCH   2  20
BRANCH   6  22
ATOM     22  O   UNL     1      18.047  10.345   7.208  1.00  0.00    -0.507 OA
ATOM     23  H   UNL     1      17.385   9.614   7.420  1.00  0.00     0.293 HD
ENDBRANCH   6  22
BRANCH   8  24
ATOM     24  O   UNL     1      18.099  15.058   6.383  1.00  0.00    -0.508 OA
ATOM     25  H   UNL     1      18.843  15.746   6.426  1.00  0.00     0.293 HD
ENDBRANCH   8  24
TORSDOF 5
ENDMDL
MODEL 3
REMARK VINA RESULT:    -1.569      1.859      7.089
REMARK INTER + INTRA:          -2.118
REMARK INTER:                  -2.418
REMARK INTRA:                   0.300
REMARK UNBOUND:                -0.273
REMARK SMILES O=c1c(O)c(-c2ccc(O)cc2)oc2cc(O)cc(O)c12
REMARK SMILES IDX 5 1 3 2 2 3 1 4 21 5 19 6 18 7 16 8 15 9 14 10 13 11 6 12
REMARK SMILES IDX 7 13 8 14 9 15 12 16 11 17 10 18 4 20 20 22 17 24
REMARK H PARENT 10 19 4 21 20 23 17 25
REMARK Flexibility Score: inf
ROOT
ATOM      1  C   UNL     1      16.817  13.089  11.607  1.00  0.00     0.180 A 
ATOM      2  C   UNL     1      16.002  14.124  11.116  1.00  0.00     0.208 A 
ATOM      3  C   UNL     1      15.795  14.230   9.733  1.00  0.00     0.238 A 
ATOM      4  O   UNL     1      15.020  15.125   9.304  1.00  0.00    -0.285 OA
ATOM      5  C   UNL     1      16.419  13.312   8.854  1.00  0.00     0.111 A 
ATOM      6  C   UNL     1      16.311  13.351   7.431  1.00  0.00     0.134 A 
ATOM      7  C   UNL     1      16.864  12.314   6.669  1.00  0.00     0.093 A 
ATOM      8  C   UNL     1      17.575  11.276   7.270  1.00  0.00     0.123 A 
ATOM      9  C   UNL     1      17.738  11.261   8.656  1.00  0.00     0.094 A 
ATOM     10  C   UNL     1      17.166  12.262   9.448  1.00  0.00     0.146 A 
ATOM     11  O   UNL     1      17.335  12.204  10.763  1.00  0.00    -0.452 OA
ENDROOT
BRANCH   1  12
ATOM     12  C   UNL     1      17.103  12.927  13.051  1.00  0.00     0.021 A 
ATOM     13  C   UNL     1      17.444  11.659  13.550  1.00  0.00     0.016 A 
ATOM     14  C   UNL     1      17.739  11.488  14.906  1.00  0.00     0.047 A 
ATOM     15  C   UNL     1      17.712  12.582  15.776  1.00  0.00     0.115 A 
ATOM     16  C   UNL     1      17.097  14.027  13.927  1.00  0.00     0.016 A 
ATOM     17  C   UNL     1      17.393  13.853  15.282  1.00  0.00     0.047 A 
BRANCH  15  18
ATOM     18  O   UNL     1      18.008  12.397  17.125  1.00  0.00    -0.508 OA
ATOM     19  H   UNL     1      18.626  13.027  17.622  1.00  0.00     0.293 HD
ENDBRANCH  15  18
ENDBRANCH   1  12
BRANCH   2  20
ATOM     20  O   UNL     1      15.378  15.006  12.003  1.00  0.00    -0.502 OA
ATOM     21  H   UNL     1      14.484  15.437  11.802  1.00  0.00     0.293 HD
ENDBRANCH   2  20
BRANCH   6  22
ATOM     22  O   UNL     1      15.701  14.390   6.722  1.00  0.00    -0.507 OA
ATOM     23  H   UNL     1      15.878  14.605   5.753  1.00  0.00     0.293 HD
ENDBRANCH   6  22
BRANCH   8  24
ATOM     24  O   UNL     1      18.125  10.271   6.479  1.00  0.00    -0.508 OA
ATOM     25  H   UNL     1      18.072   9.295   6.750  1.00  0.00     0.293 HD
ENDBRANCH   8  24
TORSDOF 5
ENDMDL
