MODEL 1
REMARK VINA RESULT:    -4.747      0.000      0.000
REMARK INTER + INTRA:         -15.889
REMARK INTER:                 -12.518
REMARK INTRA:                  -3.370
REMARK UNBOUND:                -3.370
REMARK SMILES CCCCCCCCCCCCCCCCCCCCCCCCCCCCCC(=O)[O-]
REMARK SMILES IDX 16 1 17 2 18 3 19 4 20 5 21 6 22 7 23 8 24 9 25 10 26 11
REMARK SMILES IDX 27 12 28 13 29 14 30 15 31 16 32 17 15 18 14 19 13 20 12 21
REMARK SMILES IDX 11 22 10 23 9 24 8 25 7 26 6 27 5 28 4 29 3 30 2 31 1 32
REMARK H PARENT
REMARK Flexibility Score: inf
ROOT
ATOM      1  C   UNL     1      -2.540 -16.600   4.423  1.00  0.00     0.000 C 
ENDROOT
BRANCH   1   2
ATOM      2  C   UNL     1      -3.848 -17.094   3.790  1.00  0.00     0.000 C 
BRANCH   2   3
ATOM      3  C   UNL     1      -5.060 -16.369   4.395  1.00  0.00     0.000 C 
BRANCH   3   4
ATOM      4  C   UNL     1      -4.869 -16.013   5.878  1.00  0.00     0.000 C 
BRANCH   4   5
ATOM      5  C   UNL     1      -5.956 -15.072   6.438  1.00  0.00     0.000 C 
BRANCH   5   6
ATOM      6  C   UNL     1      -6.872 -14.517   5.334  1.00  0.00     0.000 C 
BRANCH   6   7
ATOM      7  C   UNL     1      -7.935 -13.541   5.869  1.00  0.00     0.000 C 
BRANCH   7   8
ATOM      8  C   UNL     1      -9.331 -13.747   5.245  1.00  0.00     0.000 C 
BRANCH   8   9
ATOM      9  C   UNL     1     -10.318 -12.641   5.650  1.00  0.00     0.000 C 
BRANCH   9  10
ATOM     10  C   UNL     1      -9.902 -11.987   6.977  1.00  0.00     0.000 C 
BRANCH  10  11
ATOM     11  C   UNL     1     -10.919 -10.930   7.457  1.00  0.00     0.000 C 
BRANCH  11  12
ATOM     12  C   UNL     1     -12.115 -10.747   6.505  1.00  0.00     0.000 C 
BRANCH  12  13
ATOM     13  C   UNL     1     -13.115  -9.691   7.001  1.00  0.00     0.006 C 
BRANCH  13  14
ATOM     14  C   UNL     1     -13.465  -9.871   8.486  1.00  0.00     0.053 C 
BRANCH  14  15
ATOM     15  C   UNL     1     -14.946  -9.898   8.726  1.00  0.00     0.041 C 
ATOM     16  O   UNL     1     -15.407  -9.769   9.893  1.00  0.00    -0.550 OA
ATOM     17  O   UNL     1     -15.820 -10.058   7.656  1.00  0.00    -0.550 OA
ENDBRANCH  14  15
ENDBRANCH  13  14
ENDBRANCH  12  13
ENDBRANCH  11  12
ENDBRANCH  10  11
ENDBRANCH   9  10
ENDBRANCH   8   9
ENDBRANCH   7   8
ENDBRANCH   6   7
ENDBRANCH   5   6
ENDBRANCH   4   5
ENDBRANCH   3   4
ENDBRANCH   2   3
ENDBRANCH   1   2
BRANCH   1  18
ATOM     18  C   UNL     1      -1.376 -17.545   4.092  1.00  0.00     0.000 C 
BRANCH  18  19
ATOM     19  C   UNL     1      -1.652 -18.439   2.869  1.00  0.00     0.000 C 
BRANCH  19  20
ATOM     20  C   UNL     1      -1.155 -19.892   2.990  1.00  0.00     0.000 C 
BRANCH  20  21
ATOM     21  C   UNL     1      -1.200 -20.428   4.429  1.00  0.00     0.000 C 
BRANCH  21  22
ATOM     22  C   UNL     1      -2.635 -20.406   4.980  1.00  0.00     0.000 C 
BRANCH  22  23
ATOM     23  C   UNL     1      -2.682 -20.338   6.518  1.00  0.00     0.000 C 
BRANCH  23  24
ATOM     24  C   UNL     1      -3.378 -19.088   7.085  1.00  0.00    -0.000 C 
BRANCH  24  25
ATOM     25  C   UNL     1      -4.479 -19.433   8.098  1.00  0.00    -0.000 C 
BRANCH  25  26
ATOM     26  C   UNL     1      -5.856 -18.991   7.587  1.00  0.00    -0.000 C 
BRANCH  26  27
ATOM     27  C   UNL     1      -6.703 -20.164   7.061  1.00  0.00    -0.000 C 
BRANCH  27  28
ATOM     28  C   UNL     1      -6.278 -20.649   5.657  1.00  0.00    -0.000 C 
BRANCH  28  29
ATOM     29  C   UNL     1      -6.849 -19.761   4.538  1.00  0.00    -0.000 C 
BRANCH  29  30
ATOM     30  C   UNL     1      -8.389 -19.668   4.587  1.00  0.00    -0.000 C 
BRANCH  30  31
ATOM     31  C   UNL     1      -8.997 -18.854   3.434  1.00  0.00    -0.003 C 
ATOM     32  C   UNL     1      -9.592 -17.525   3.890  1.00  0.00     0.004 C 
ENDBRANCH  30  31
ENDBRANCH  29  30
ENDBRANCH  28  29
ENDBRANCH  27  28
ENDBRANCH  26  27
ENDBRANCH  25  26
ENDBRANCH  24  25
ENDBRANCH  23  24
ENDBRANCH  22  23
ENDBRANCH  21  22
ENDBRANCH  20  21
ENDBRANCH  19  20
ENDBRANCH  18  19
ENDBRANCH   1  18
TORSDOF 28
ENDMDL
MODEL 2
REMARK VINA RESULT:    -4.637      1.727      2.999
REMARK INTER + INTRA:         -15.597
REMARK INTER:                 -11.634
REMARK INTRA:                  -3.963
REMARK UNBOUND:                -3.370
REMARK SMILES CCCCCCCCCCCCCCCCCCCCCCCCCCCCCC(=O)[O-]
REMARK SMILES IDX 16 1 17 2 18 3 19 4 20 5 21 6 22 7 23 8 24 9 25 10 26 11
REMARK SMILES IDX 27 12 28 13 29 14 30 15 31 16 32 17 15 18 14 19 13 20 12 21
REMARK SMILES IDX 11 22 10 23 9 24 8 25 7 26 6 27 5 28 4 29 3 30 2 31 1 32
REMARK H PARENT
REMARK Flexibility Score: inf
ROOT
ATOM      1  C   UNL     1      -3.063 -17.787   3.996  1.00  0.00     0.000 C 
ENDROOT
BRANCH   1   2
ATOM      2  C   UNL     1      -4.257 -16.831   4.129  1.00  0.00     0.000 C 
BRANCH   2   3
ATOM      3  C   UNL     1      -5.450 -17.533   4.796  1.00  0.00     0.000 C 
BRANCH   3   4
ATOM      4  C   UNL     1      -6.607 -16.573   5.122  1.00  0.00     0.000 C 
BRANCH   4   5
ATOM      5  C   UNL     1      -6.190 -15.089   5.168  1.00  0.00     0.000 C 
BRANCH   5   6
ATOM      6  C   UNL     1      -7.235 -14.211   5.879  1.00  0.00     0.000 C 
BRANCH   6   7
ATOM      7  C   UNL     1      -8.360 -13.737   4.941  1.00  0.00     0.000 C 
BRANCH   7   8
ATOM      8  C   UNL     1      -9.667 -13.381   5.679  1.00  0.00     0.000 C 
BRANCH   8   9
ATOM      9  C   UNL     1      -9.624 -11.971   6.290  1.00  0.00     0.000 C 
BRANCH   9  10
ATOM     10  C   UNL     1     -10.979 -11.594   6.908  1.00  0.00     0.000 C 
BRANCH  10  11
ATOM     11  C   UNL     1     -11.402 -10.150   6.564  1.00  0.00     0.000 C 
BRANCH  11  12
ATOM     12  C   UNL     1     -12.866 -10.028   6.107  1.00  0.00     0.000 C 
BRANCH  12  13
ATOM     13  C   UNL     1     -13.844 -10.767   7.035  1.00  0.00     0.006 C 
BRANCH  13  14
ATOM     14  C   UNL     1     -14.755  -9.802   7.809  1.00  0.00     0.053 C 
BRANCH  14  15
ATOM     15  C   UNL     1     -14.469  -9.800   9.281  1.00  0.00     0.041 C 
ATOM     16  O   UNL     1     -15.383  -9.535  10.110  1.00  0.00    -0.550 OA
ATOM     17  O   UNL     1     -13.191 -10.099   9.740  1.00  0.00    -0.550 OA
ENDBRANCH  14  15
ENDBRANCH  13  14
ENDBRANCH  12  13
ENDBRANCH  11  12
ENDBRANCH  10  11
ENDBRANCH   9  10
ENDBRANCH   8   9
ENDBRANCH   7   8
ENDBRANCH   6   7
ENDBRANCH   5   6
ENDBRANCH   4   5
ENDBRANCH   3   4
ENDBRANCH   2   3
ENDBRANCH   1   2
BRANCH   1  18
ATOM     18  C   UNL     1      -1.787 -17.157   4.573  1.00  0.00     0.000 C 
BRANCH  18  19
ATOM     19  C   UNL     1      -1.992 -15.709   5.054  1.00  0.00     0.000 C 
BRANCH  19  20
ATOM     20  C   UNL     1      -1.239 -15.332   6.343  1.00  0.00     0.000 C 
BRANCH  20  21
ATOM     21  C   UNL     1      -2.068 -15.558   7.616  1.00  0.00     0.000 C 
BRANCH  21  22
ATOM     22  C   UNL     1      -3.372 -14.743   7.575  1.00  0.00     0.000 C 
BRANCH  22  23
ATOM     23  C   UNL     1      -4.447 -15.291   8.532  1.00  0.00     0.000 C 
BRANCH  23  24
ATOM     24  C   UNL     1      -4.807 -16.771   8.313  1.00  0.00    -0.000 C 
BRANCH  24  25
ATOM     25  C   UNL     1      -4.593 -17.623   9.573  1.00  0.00    -0.000 C 
BRANCH  25  26
ATOM     26  C   UNL     1      -4.000 -18.992   9.218  1.00  0.00    -0.000 C 
BRANCH  26  27
ATOM     27  C   UNL     1      -3.325 -19.010   7.834  1.00  0.00    -0.000 C 
BRANCH  27  28
ATOM     28  C   UNL     1      -3.975 -20.003   6.845  1.00  0.00    -0.000 C 
BRANCH  28  29
ATOM     29  C   UNL     1      -5.218 -20.687   7.441  1.00  0.00    -0.000 C 
BRANCH  29  30
ATOM     30  C   UNL     1      -6.535 -20.073   6.920  1.00  0.00    -0.000 C 
BRANCH  30  31
ATOM     31  C   UNL     1      -7.774 -20.937   7.202  1.00  0.00    -0.003 C 
ATOM     32  C   UNL     1      -8.400 -21.513   5.934  1.00  0.00     0.004 C 
ENDBRANCH  30  31
ENDBRANCH  29  30
ENDBRANCH  28  29
ENDBRANCH  27  28
ENDBRANCH  26  27
ENDBRANCH  25  26
ENDBRANCH  24  25
ENDBRANCH  23  24
ENDBRANCH  22  23
ENDBRANCH  21  22
ENDBRANCH  20  21
ENDBRANCH  19  20
ENDBRANCH  18  19
ENDBRANCH   1  18
TORSDOF 28
ENDMDL
MODEL 3
REMARK VINA RESULT:    -4.623      4.022     10.673
REMARK INTER + INTRA:         -15.562
REMARK INTER:                 -11.798
REMARK INTRA:                  -3.764
REMARK UNBOUND:                -3.370
REMARK SMILES CCCCCCCCCCCCCCCCCCCCCCCCCCCCCC(=O)[O-]
REMARK SMILES IDX 16 1 17 2 18 3 19 4 20 5 21 6 22 7 23 8 24 9 25 10 26 11
REMARK SMILES IDX 27 12 28 13 29 14 30 15 31 16 32 17 15 18 14 19 13 20 12 21
REMARK SMILES IDX 11 22 10 23 9 24 8 25 7 26 6 27 5 28 4 29 3 30 2 31 1 32
REMARK H PARENT
REMARK Flexibility Score: inf
ROOT
ATOM      1  C   UNL     1      -9.035 -12.719   6.253  1.00  0.00     0.000 C 
ENDROOT
BRANCH   1   2
ATOM      2  C   UNL     1      -8.745 -13.727   5.132  1.00  0.00     0.000 C 
BRANCH   2   3
ATOM      3  C   UNL     1      -7.237 -13.818   4.852  1.00  0.00     0.000 C 
BRANCH   3   4
ATOM      4  C   UNL     1      -6.512 -14.809   5.777  1.00  0.00     0.000 C 
BRANCH   4   5
ATOM      5  C   UNL     1      -6.476 -16.254   5.237  1.00  0.00     0.000 C 
BRANCH   5   6
ATOM      6  C   UNL     1      -5.995 -17.262   6.295  1.00  0.00     0.000 C 
BRANCH   6   7
ATOM      7  C   UNL     1      -6.367 -18.716   5.952  1.00  0.00     0.000 C 
BRANCH   7   8
ATOM      8  C   UNL     1      -5.510 -19.319   4.819  1.00  0.00     0.000 C 
BRANCH   8   9
ATOM      9  C   UNL     1      -4.046 -18.858   4.889  1.00  0.00     0.000 C 
BRANCH   9  10
ATOM     10  C   UNL     1      -3.588 -18.267   3.547  1.00  0.00     0.000 C 
BRANCH  10  11
ATOM     11  C   UNL     1      -2.410 -17.282   3.708  1.00  0.00     0.000 C 
BRANCH  11  12
ATOM     12  C   UNL     1      -2.735 -16.073   4.603  1.00  0.00     0.000 C 
BRANCH  12  13
ATOM     13  C   UNL     1      -1.801 -15.963   5.819  1.00  0.00     0.006 C 
BRANCH  13  14
ATOM     14  C   UNL     1      -2.565 -16.027   7.149  1.00  0.00     0.053 C 
BRANCH  14  15
ATOM     15  C   UNL     1      -2.715 -14.679   7.790  1.00  0.00     0.041 C 
ATOM     16  O   UNL     1      -1.699 -14.020   8.141  1.00  0.00    -0.550 OA
ATOM     17  O   UNL     1      -3.984 -14.145   7.993  1.00  0.00    -0.550 OA
ENDBRANCH  14  15
ENDBRANCH  13  14
ENDBRANCH  12  13
ENDBRANCH  11  12
ENDBRANCH  10  11
ENDBRANCH   9  10
ENDBRANCH   8   9
ENDBRANCH   7   8
ENDBRANCH   6   7
ENDBRANCH   5   6
ENDBRANCH   4   5
ENDBRANCH   3   4
ENDBRANCH   2   3
ENDBRANCH   1   2
BRANCH   1  18
ATOM     18  C   UNL     1     -10.488 -12.227   6.189  1.00  0.00     0.000 C 
BRANCH  18  19
ATOM     19  C   UNL     1     -10.608 -10.692   6.218  1.00  0.00     0.000 C 
BRANCH  19  20
ATOM     20  C   UNL     1     -12.037 -10.141   6.060  1.00  0.00     0.000 C 
BRANCH  20  21
ATOM     21  C   UNL     1     -13.081 -10.927   6.867  1.00  0.00     0.000 C 
BRANCH  21  22
ATOM     22  C   UNL     1     -13.962  -9.979   7.698  1.00  0.00     0.000 C 
BRANCH  22  23
ATOM     23  C   UNL     1     -13.682 -10.076   9.210  1.00  0.00     0.000 C 
BRANCH  23  24
ATOM     24  C   UNL     1     -12.552  -9.160   9.713  1.00  0.00    -0.000 C 
BRANCH  24  25
ATOM     25  C   UNL     1     -11.242  -9.922   9.964  1.00  0.00    -0.000 C 
BRANCH  25  26
ATOM     26  C   UNL     1     -10.026  -9.065   9.591  1.00  0.00    -0.000 C 
BRANCH  26  27
ATOM     27  C   UNL     1      -8.738  -9.892   9.430  1.00  0.00    -0.000 C 
BRANCH  27  28
ATOM     28  C   UNL     1      -8.970 -11.416   9.519  1.00  0.00    -0.000 C 
BRANCH  28  29
ATOM     29  C   UNL     1      -8.054 -12.083  10.559  1.00  0.00    -0.000 C 
BRANCH  29  30
ATOM     30  C   UNL     1      -7.118 -13.138   9.931  1.00  0.00    -0.000 C 
BRANCH  30  31
ATOM     31  C   UNL     1      -7.808 -14.477   9.630  1.00  0.00    -0.003 C 
ATOM     32  C   UNL     1      -8.199 -15.244  10.891  1.00  0.00     0.004 C 
ENDBRANCH  30  31
ENDBRANCH  29  30
ENDBRANCH  28  29
ENDBRANCH  27  28
ENDBRANCH  26  27
ENDBRANCH  25  26
ENDBRANCH  24  25
ENDBRANCH  23  24
ENDBRANCH  22  23
ENDBRANCH  21  22
ENDBRANCH  20  21
ENDBRANCH  19  20
ENDBRANCH  18  19
ENDBRANCH   1  18
TORSDOF 28
ENDMDL
MODEL 4
REMARK VINA RESULT:    -4.610      3.092      8.378
REMARK INTER + INTRA:         -15.527
REMARK INTER:                 -12.507
REMARK INTRA:                  -3.020
REMARK UNBOUND:                -3.370
REMARK SMILES CCCCCCCCCCCCCCCCCCCCCCCCCCCCCC(=O)[O-]
REMARK SMILES IDX 16 1 17 2 18 3 19 4 20 5 21 6 22 7 23 8 24 9 25 10 26 11
REMARK SMILES IDX 27 12 28 13 29 14 30 15 31 16 32 17 15 18 14 19 13 20 12 21
REMARK SMILES IDX 11 22 10 23 9 24 8 25 7 26 6 27 5 28 4 29 3 30 2 31 1 32
REMARK H PARENT
REMARK Flexibility Score: inf
ROOT
ATOM      1  C   UNL     1     -11.667 -10.812   6.000  1.00  0.00     0.000 C 
ENDROOT
BRANCH   1   2
ATOM      2  C   UNL     1     -12.924  -9.965   6.240  1.00  0.00     0.000 C 
BRANCH   2   3
ATOM      3  C   UNL     1     -14.031 -10.799   6.901  1.00  0.00     0.000 C 
BRANCH   3   4
ATOM      4  C   UNL     1     -15.364 -10.042   7.023  1.00  0.00     0.000 C 
BRANCH   4   5
ATOM      5  C   UNL     1     -15.529  -9.285   8.357  1.00  0.00     0.000 C 
BRANCH   5   6
ATOM      6  C   UNL     1     -14.737  -9.939   9.502  1.00  0.00     0.000 C 
BRANCH   6   7
ATOM      7  C   UNL     1     -13.519  -9.108   9.942  1.00  0.00     0.000 C 
BRANCH   7   8
ATOM      8  C   UNL     1     -12.175  -9.847   9.769  1.00  0.00     0.000 C 
BRANCH   8   9
ATOM      9  C   UNL     1     -10.994  -9.045  10.338  1.00  0.00     0.000 C 
BRANCH   9  10
ATOM     10  C   UNL     1      -9.733  -9.916  10.443  1.00  0.00     0.000 C 
BRANCH  10  11
ATOM     11  C   UNL     1     -10.064 -11.416  10.589  1.00  0.00     0.000 C 
BRANCH  11  12
ATOM     12  C   UNL     1      -8.869 -12.343  10.306  1.00  0.00     0.000 C 
BRANCH  12  13
ATOM     13  C   UNL     1      -8.785 -13.525  11.285  1.00  0.00     0.006 C 
BRANCH  13  14
ATOM     14  C   UNL     1      -9.982 -13.572  12.246  1.00  0.00     0.053 C 
BRANCH  14  15
ATOM     15  C   UNL     1      -9.583 -13.331  13.671  1.00  0.00     0.041 C 
ATOM     16  O   UNL     1      -9.318 -14.299  14.435  1.00  0.00    -0.550 OA
ATOM     17  O   UNL     1      -9.496 -12.029  14.156  1.00  0.00    -0.550 OA
ENDBRANCH  14  15
ENDBRANCH  13  14
ENDBRANCH  12  13
ENDBRANCH  11  12
ENDBRANCH  10  11
ENDBRANCH   9  10
ENDBRANCH   8   9
ENDBRANCH   7   8
ENDBRANCH   6   7
ENDBRANCH   5   6
ENDBRANCH   4   5
ENDBRANCH   3   4
ENDBRANCH   2   3
ENDBRANCH   1   2
BRANCH   1  18
ATOM     18  C   UNL     1     -10.440 -10.180   6.673  1.00  0.00     0.000 C 
BRANCH  18  19
ATOM     19  C   UNL     1      -9.201 -11.094   6.651  1.00  0.00     0.000 C 
BRANCH  19  20
ATOM     20  C   UNL     1      -9.498 -12.605   6.645  1.00  0.00     0.000 C 
BRANCH  20  21
ATOM     21  C   UNL     1      -8.828 -13.348   5.480  1.00  0.00     0.000 C 
BRANCH  21  22
ATOM     22  C   UNL     1      -7.390 -13.757   5.842  1.00  0.00     0.000 C 
BRANCH  22  23
ATOM     23  C   UNL     1      -6.763 -14.711   4.809  1.00  0.00     0.000 C 
BRANCH  23  24
ATOM     24  C   UNL     1      -6.464 -16.124   5.339  1.00  0.00    -0.000 C 
BRANCH  24  25
ATOM     25  C   UNL     1      -5.107 -16.660   4.861  1.00  0.00    -0.000 C 
BRANCH  25  26
ATOM     26  C   UNL     1      -3.962 -16.099   5.714  1.00  0.00    -0.000 C 
BRANCH  26  27
ATOM     27  C   UNL     1      -2.609 -16.110   4.982  1.00  0.00    -0.000 C 
BRANCH  27  28
ATOM     28  C   UNL     1      -2.700 -16.623   3.528  1.00  0.00    -0.000 C 
BRANCH  28  29
ATOM     29  C   UNL     1      -1.970 -17.964   3.338  1.00  0.00    -0.000 C 
BRANCH  29  30
ATOM     30  C   UNL     1      -0.921 -18.226   4.439  1.00  0.00    -0.000 C 
BRANCH  30  31
ATOM     31  C   UNL     1      -1.025 -19.621   5.074  1.00  0.00    -0.003 C 
ATOM     32  C   UNL     1      -2.465 -20.106   5.217  1.00  0.00     0.004 C 
ENDBRANCH  30  31
ENDBRANCH  29  30
ENDBRANCH  28  29
ENDBRANCH  27  28
ENDBRANCH  26  27
ENDBRANCH  25  26
ENDBRANCH  24  25
ENDBRANCH  23  24
ENDBRANCH  22  23
ENDBRANCH  21  22
ENDBRANCH  20  21
ENDBRANCH  19  20
ENDBRANCH  18  19
ENDBRANCH   1  18
TORSDOF 28
ENDMDL
MODEL 5
REMARK VINA RESULT:    -4.566      3.056      6.867
REMARK INTER + INTRA:         -15.409
REMARK INTER:                 -11.564
REMARK INTRA:                  -3.845
REMARK UNBOUND:                -3.370
REMARK SMILES CCCCCCCCCCCCCCCCCCCCCCCCCCCCCC(=O)[O-]
REMARK SMILES IDX 16 1 17 2 18 3 19 4 20 5 21 6 22 7 23 8 24 9 25 10 26 11
REMARK SMILES IDX 27 12 28 13 29 14 30 15 31 16 32 17 15 18 14 19 13 20 12 21
REMARK SMILES IDX 11 22 10 23 9 24 8 25 7 26 6 27 5 28 4 29 3 30 2 31 1 32
REMARK H PARENT
REMARK Flexibility Score: inf
ROOT
ATOM      1  C   UNL     1      -9.035 -12.818   6.578  1.00  0.00     0.000 C 
ENDROOT
BRANCH   1   2
ATOM      2  C   UNL     1     -10.468 -12.268   6.610  1.00  0.00     0.000 C 
BRANCH   2   3
ATOM      3  C   UNL     1     -10.499 -10.793   6.181  1.00  0.00     0.000 C 
BRANCH   3   4
ATOM      4  C   UNL     1     -11.926 -10.241   6.027  1.00  0.00     0.000 C 
BRANCH   4   5
ATOM      5  C   UNL     1     -12.983 -11.011   6.845  1.00  0.00     0.000 C 
BRANCH   5   6
ATOM      6  C   UNL     1     -14.182 -10.127   7.229  1.00  0.00     0.000 C 
BRANCH   6   7
ATOM      7  C   UNL     1     -13.985  -9.396   8.569  1.00  0.00     0.000 C 
BRANCH   7   8
ATOM      8  C   UNL     1     -12.922 -10.050   9.476  1.00  0.00     0.000 C 
BRANCH   8   9
ATOM      9  C   UNL     1     -11.714  -9.129   9.713  1.00  0.00     0.000 C 
BRANCH   9  10
ATOM     10  C   UNL     1     -10.399  -9.923   9.683  1.00  0.00     0.000 C 
BRANCH  10  11
ATOM     11  C   UNL     1     -10.466 -11.205  10.540  1.00  0.00     0.000 C 
BRANCH  11  12
ATOM     12  C   UNL     1      -9.301 -12.178  10.287  1.00  0.00     0.000 C 
BRANCH  12  13
ATOM     13  C   UNL     1      -8.118 -11.953  11.242  1.00  0.00     0.006 C 
BRANCH  13  14
ATOM     14  C   UNL     1      -6.900 -11.347  10.531  1.00  0.00     0.053 C 
BRANCH  14  15
ATOM     15  C   UNL     1      -6.648  -9.925  10.935  1.00  0.00     0.041 C 
ATOM     16  O   UNL     1      -5.574  -9.348  10.613  1.00  0.00    -0.550 OA
ATOM     17  O   UNL     1      -7.608  -9.231  11.665  1.00  0.00    -0.550 OA
ENDBRANCH  14  15
ENDBRANCH  13  14
ENDBRANCH  12  13
ENDBRANCH  11  12
ENDBRANCH  10  11
ENDBRANCH   9  10
ENDBRANCH   8   9
ENDBRANCH   7   8
ENDBRANCH   6   7
ENDBRANCH   5   6
ENDBRANCH   4   5
ENDBRANCH   3   4
ENDBRANCH   2   3
ENDBRANCH   1   2
BRANCH   1  18
ATOM     18  C   UNL     1      -8.734 -13.492   5.231  1.00  0.00     0.000 C 
BRANCH  18  19
ATOM     19  C   UNL     1      -7.302 -14.050   5.141  1.00  0.00     0.000 C 
BRANCH  19  20
ATOM     20  C   UNL     1      -6.739 -14.630   6.452  1.00  0.00     0.000 C 
BRANCH  20  21
ATOM     21  C   UNL     1      -6.218 -16.067   6.302  1.00  0.00     0.000 C 
BRANCH  21  22
ATOM     22  C   UNL     1      -6.760 -16.718   5.018  1.00  0.00     0.000 C 
BRANCH  22  23
ATOM     23  C   UNL     1      -7.027 -18.226   5.182  1.00  0.00     0.000 C 
BRANCH  23  24
ATOM     24  C   UNL     1      -5.862 -19.134   4.751  1.00  0.00    -0.000 C 
BRANCH  24  25
ATOM     25  C   UNL     1      -5.244 -19.901   5.929  1.00  0.00    -0.000 C 
BRANCH  25  26
ATOM     26  C   UNL     1      -3.750 -19.582   6.071  1.00  0.00    -0.000 C 
BRANCH  26  27
ATOM     27  C   UNL     1      -3.459 -18.576   7.199  1.00  0.00    -0.000 C 
BRANCH  27  28
ATOM     28  C   UNL     1      -2.311 -17.596   6.869  1.00  0.00    -0.000 C 
BRANCH  28  29
ATOM     29  C   UNL     1      -2.821 -16.307   6.202  1.00  0.00    -0.000 C 
BRANCH  29  30
ATOM     30  C   UNL     1      -2.170 -16.058   4.825  1.00  0.00    -0.000 C 
BRANCH  30  31
ATOM     31  C   UNL     1      -2.852 -16.813   3.673  1.00  0.00    -0.003 C 
ATOM     32  C   UNL     1      -2.074 -18.048   3.225  1.00  0.00     0.004 C 
ENDBRANCH  30  31
ENDBRANCH  29  30
ENDBRANCH  28  29
ENDBRANCH  27  28
ENDBRANCH  26  27
ENDBRANCH  25  26
ENDBRANCH  24  25
ENDBRANCH  23  24
ENDBRANCH  22  23
ENDBRANCH  21  22
ENDBRANCH  20  21
ENDBRANCH  19  20
ENDBRANCH  18  19
ENDBRANCH   1  18
TORSDOF 28
ENDMDL
MODEL 6
REMARK VINA RESULT:    -4.533      2.158      3.252
REMARK INTER + INTRA:         -15.324
REMARK INTER:                 -12.088
REMARK INTRA:                  -3.235
REMARK UNBOUND:                -3.370
REMARK SMILES CCCCCCCCCCCCCCCCCCCCCCCCCCCCCC(=O)[O-]
REMARK SMILES IDX 16 1 17 2 18 3 19 4 20 5 21 6 22 7 23 8 24 9 25 10 26 11
REMARK SMILES IDX 27 12 28 13 29 14 30 15 31 16 32 17 15 18 14 19 13 20 12 21
REMARK SMILES IDX 11 22 10 23 9 24 8 25 7 26 6 27 5 28 4 29 3 30 2 31 1 32
REMARK H PARENT
REMARK Flexibility Score: inf
ROOT
ATOM      1  C   UNL     1      -3.865 -17.028   3.958  1.00  0.00     0.000 C 
ENDROOT
BRANCH   1   2
ATOM      2  C   UNL     1      -4.596 -16.285   5.086  1.00  0.00     0.000 C 
BRANCH   2   3
ATOM      3  C   UNL     1      -6.068 -16.042   4.720  1.00  0.00     0.000 C 
BRANCH   3   4
ATOM      4  C   UNL     1      -6.790 -15.116   5.712  1.00  0.00     0.000 C 
BRANCH   4   5
ATOM      5  C   UNL     1      -7.263 -13.785   5.091  1.00  0.00     0.000 C 
BRANCH   5   6
ATOM      6  C   UNL     1      -8.787 -13.602   5.192  1.00  0.00     0.000 C 
BRANCH   6   7
ATOM      7  C   UNL     1      -9.206 -12.681   6.352  1.00  0.00     0.000 C 
BRANCH   7   8
ATOM      8  C   UNL     1     -10.666 -12.193   6.254  1.00  0.00     0.000 C 
BRANCH   8   9
ATOM      9  C   UNL     1     -10.768 -10.659   6.266  1.00  0.00     0.000 C 
BRANCH   9  10
ATOM     10  C   UNL     1     -12.201 -10.197   5.958  1.00  0.00     0.000 C 
BRANCH  10  11
ATOM     11  C   UNL     1     -13.240 -10.825   6.911  1.00  0.00     0.000 C 
BRANCH  11  12
ATOM     12  C   UNL     1     -13.861  -9.820   7.897  1.00  0.00     0.000 C 
BRANCH  12  13
ATOM     13  C   UNL     1     -13.465 -10.094   9.356  1.00  0.00     0.006 C 
BRANCH  13  14
ATOM     14  C   UNL     1     -12.456  -9.067   9.890  1.00  0.00     0.053 C 
BRANCH  14  15
ATOM     15  C   UNL     1     -11.046  -9.578   9.859  1.00  0.00     0.041 C 
ATOM     16  O   UNL     1     -10.159  -8.968   9.202  1.00  0.00    -0.550 OA
ATOM     17  O   UNL     1     -10.710 -10.729  10.564  1.00  0.00    -0.550 OA
ENDBRANCH  14  15
ENDBRANCH  13  14
ENDBRANCH  12  13
ENDBRANCH  11  12
ENDBRANCH  10  11
ENDBRANCH   9  10
ENDBRANCH   8   9
ENDBRANCH   7   8
ENDBRANCH   6   7
ENDBRANCH   5   6
ENDBRANCH   4   5
ENDBRANCH   3   4
ENDBRANCH   2   3
ENDBRANCH   1   2
BRANCH   1  18
ATOM     18  C   UNL     1      -2.394 -16.597   3.878  1.00  0.00     0.000 C 
BRANCH  18  19
ATOM     19  C   UNL     1      -1.663 -16.685   5.231  1.00  0.00     0.000 C 
BRANCH  19  20
ATOM     20  C   UNL     1      -1.333 -15.332   5.889  1.00  0.00     0.000 C 
BRANCH  20  21
ATOM     21  C   UNL     1      -1.564 -15.327   7.407  1.00  0.00     0.000 C 
BRANCH  21  22
ATOM     22  C   UNL     1      -2.855 -14.574   7.765  1.00  0.00     0.000 C 
BRANCH  22  23
ATOM     23  C   UNL     1      -3.788 -15.389   8.680  1.00  0.00     0.000 C 
BRANCH  23  24
ATOM     24  C   UNL     1      -3.910 -16.878   8.308  1.00  0.00    -0.000 C 
BRANCH  24  25
ATOM     25  C   UNL     1      -5.362 -17.376   8.335  1.00  0.00    -0.000 C 
BRANCH  25  26
ATOM     26  C   UNL     1      -5.457 -18.763   8.984  1.00  0.00    -0.000 C 
BRANCH  26  27
ATOM     27  C   UNL     1      -6.106 -19.811   8.062  1.00  0.00    -0.000 C 
BRANCH  27  28
ATOM     28  C   UNL     1      -5.203 -20.239   6.884  1.00  0.00    -0.000 C 
BRANCH  28  29
ATOM     29  C   UNL     1      -5.762 -19.779   5.527  1.00  0.00    -0.000 C 
BRANCH  29  30
ATOM     30  C   UNL     1      -7.258 -19.404   5.601  1.00  0.00    -0.000 C 
BRANCH  30  31
ATOM     31  C   UNL     1      -8.149 -20.228   4.660  1.00  0.00    -0.003 C 
ATOM     32  C   UNL     1      -8.176 -21.714   5.011  1.00  0.00     0.004 C 
ENDBRANCH  30  31
ENDBRANCH  29  30
ENDBRANCH  28  29
ENDBRANCH  27  28
ENDBRANCH  26  27
ENDBRANCH  25  26
ENDBRANCH  24  25
ENDBRANCH  23  24
ENDBRANCH  22  23
ENDBRANCH  21  22
ENDBRANCH  20  21
ENDBRANCH  19  20
ENDBRANCH  18  19
ENDBRANCH   1  18
TORSDOF 28
ENDMDL
MODEL 7
REMARK VINA RESULT:    -4.493      3.659     10.133
REMARK INTER + INTRA:         -15.217
REMARK INTER:                 -11.153
REMARK INTRA:                  -4.064
REMARK UNBOUND:                -3.370
REMARK SMILES CCCCCCCCCCCCCCCCCCCCCCCCCCCCCC(=O)[O-]
REMARK SMILES IDX 16 1 17 2 18 3 19 4 20 5 21 6 22 7 23 8 24 9 25 10 26 11
REMARK SMILES IDX 27 12 28 13 29 14 30 15 31 16 32 17 15 18 14 19 13 20 12 21
REMARK SMILES IDX 11 22 10 23 9 24 8 25 7 26 6 27 5 28 4 29 3 30 2 31 1 32
REMARK H PARENT
REMARK Flexibility Score: inf
ROOT
ATOM      1  C   UNL     1      -7.685 -13.664   5.555  1.00  0.00     0.000 C 
ENDROOT
BRANCH   1   2
ATOM      2  C   UNL     1      -7.349 -15.096   5.119  1.00  0.00     0.000 C 
BRANCH   2   3
ATOM      3  C   UNL     1      -5.838 -15.358   5.211  1.00  0.00     0.000 C 
BRANCH   3   4
ATOM      4  C   UNL     1      -5.303 -15.296   6.651  1.00  0.00     0.000 C 
BRANCH   4   5
ATOM      5  C   UNL     1      -3.964 -16.037   6.850  1.00  0.00     0.000 C 
BRANCH   5   6
ATOM      6  C   UNL     1      -2.762 -15.077   6.860  1.00  0.00     0.000 C 
BRANCH   6   7
ATOM      7  C   UNL     1      -1.719 -15.410   5.779  1.00  0.00     0.000 C 
BRANCH   7   8
ATOM      8  C   UNL     1      -2.281 -16.262   4.621  1.00  0.00     0.000 C 
BRANCH   8   9
ATOM      9  C   UNL     1      -1.555 -17.610   4.486  1.00  0.00     0.000 C 
BRANCH   9  10
ATOM     10  C   UNL     1      -2.554 -18.777   4.471  1.00  0.00     0.000 C 
BRANCH  10  11
ATOM     11  C   UNL     1      -3.960 -18.343   4.006  1.00  0.00     0.000 C 
BRANCH  11  12
ATOM     12  C   UNL     1      -5.096 -18.868   4.901  1.00  0.00     0.000 C 
BRANCH  12  13
ATOM     13  C   UNL     1      -6.339 -19.292   4.102  1.00  0.00     0.006 C 
BRANCH  13  14
ATOM     14  C   UNL     1      -7.629 -19.182   4.927  1.00  0.00     0.053 C 
BRANCH  14  15
ATOM     15  C   UNL     1      -8.846 -19.578   4.145  1.00  0.00     0.041 C 
ATOM     16  O   UNL     1      -9.294 -18.828   3.235  1.00  0.00    -0.550 OA
ATOM     17  O   UNL     1      -9.482 -20.785   4.416  1.00  0.00    -0.550 OA
ENDBRANCH  14  15
ENDBRANCH  13  14
ENDBRANCH  12  13
ENDBRANCH  11  12
ENDBRANCH  10  11
ENDBRANCH   9  10
ENDBRANCH   8   9
ENDBRANCH   7   8
ENDBRANCH   6   7
ENDBRANCH   5   6
ENDBRANCH   4   5
ENDBRANCH   3   4
ENDBRANCH   2   3
ENDBRANCH   1   2
BRANCH   1  18
ATOM     18  C   UNL     1      -9.198 -13.408   5.489  1.00  0.00     0.000 C 
BRANCH  18  19
ATOM     19  C   UNL     1      -9.705 -12.486   6.613  1.00  0.00     0.000 C 
BRANCH  19  20
ATOM     20  C   UNL     1      -9.113 -11.064   6.615  1.00  0.00     0.000 C 
BRANCH  20  21
ATOM     21  C   UNL     1     -10.167  -9.970   6.393  1.00  0.00     0.000 C 
BRANCH  21  22
ATOM     22  C   UNL     1     -11.523 -10.583   6.003  1.00  0.00     0.000 C 
BRANCH  22  23
ATOM     23  C   UNL     1     -12.654 -10.196   6.974  1.00  0.00     0.000 C 
BRANCH  23  24
ATOM     24  C   UNL     1     -12.318  -9.028   7.918  1.00  0.00    -0.000 C 
BRANCH  24  25
ATOM     25  C   UNL     1     -12.396  -9.425   9.399  1.00  0.00    -0.000 C 
BRANCH  25  26
ATOM     26  C   UNL     1     -10.996  -9.667   9.978  1.00  0.00    -0.000 C 
BRANCH  26  27
ATOM     27  C   UNL     1     -10.657 -11.161  10.119  1.00  0.00    -0.000 C 
BRANCH  27  28
ATOM     28  C   UNL     1      -9.140 -11.445  10.192  1.00  0.00    -0.000 C 
BRANCH  28  29
ATOM     29  C   UNL     1      -8.828 -12.737  10.966  1.00  0.00    -0.000 C 
BRANCH  29  30
ATOM     30  C   UNL     1      -8.382 -13.887  10.037  1.00  0.00    -0.000 C 
BRANCH  30  31
ATOM     31  C   UNL     1      -7.025 -13.644   9.359  1.00  0.00    -0.003 C 
ATOM     32  C   UNL     1      -5.853 -13.684  10.337  1.00  0.00     0.004 C 
ENDBRANCH  30  31
ENDBRANCH  29  30
ENDBRANCH  28  29
ENDBRANCH  27  28
ENDBRANCH  26  27
ENDBRANCH  25  26
ENDBRANCH  24  25
ENDBRANCH  23  24
ENDBRANCH  22  23
ENDBRANCH  21  22
ENDBRANCH  20  21
ENDBRANCH  19  20
ENDBRANCH  18  19
ENDBRANCH   1  18
TORSDOF 28
ENDMDL
MODEL 8
REMARK VINA RESULT:    -4.481      3.437      7.546
REMARK INTER + INTRA:         -15.187
REMARK INTER:                 -10.378
REMARK INTRA:                  -4.809
REMARK UNBOUND:                -3.370
REMARK SMILES CCCCCCCCCCCCCCCCCCCCCCCCCCCCCC(=O)[O-]
REMARK SMILES IDX 16 1 17 2 18 3 19 4 20 5 21 6 22 7 23 8 24 9 25 10 26 11
REMARK SMILES IDX 27 12 28 13 29 14 30 15 31 16 32 17 15 18 14 19 13 20 12 21
REMARK SMILES IDX 11 22 10 23 9 24 8 25 7 26 6 27 5 28 4 29 3 30 2 31 1 32
REMARK H PARENT
REMARK Flexibility Score: inf
ROOT
ATOM      1  C   UNL     1     -10.769 -12.228   6.461  1.00  0.00     0.000 C 
ENDROOT
BRANCH   1   2
ATOM      2  C   UNL     1     -11.067 -10.833   5.897  1.00  0.00     0.000 C 
BRANCH   2   3
ATOM      3  C   UNL     1     -12.492 -10.386   6.261  1.00  0.00     0.000 C 
BRANCH   3   4
ATOM      4  C   UNL     1     -12.530  -9.037   6.997  1.00  0.00     0.000 C 
BRANCH   4   5
ATOM      5  C   UNL     1     -11.632  -8.986   8.251  1.00  0.00     0.000 C 
BRANCH   5   6
ATOM      6  C   UNL     1     -11.969 -10.101   9.256  1.00  0.00     0.000 C 
BRANCH   6   7
ATOM      7  C   UNL     1     -10.805 -10.424  10.209  1.00  0.00     0.000 C 
BRANCH   7   8
ATOM      8  C   UNL     1      -9.447  -9.866   9.732  1.00  0.00     0.000 C 
BRANCH   8   9
ATOM      9  C   UNL     1      -8.557 -10.954   9.111  1.00  0.00     0.000 C 
BRANCH   9  10
ATOM     10  C   UNL     1      -8.818 -12.321   9.763  1.00  0.00     0.000 C 
BRANCH  10  11
ATOM     11  C   UNL     1      -7.795 -13.389   9.321  1.00  0.00     0.000 C 
BRANCH  11  12
ATOM     12  C   UNL     1      -7.958 -14.736  10.046  1.00  0.00     0.000 C 
BRANCH  12  13
ATOM     13  C   UNL     1      -7.045 -14.867  11.275  1.00  0.00     0.006 C 
BRANCH  13  14
ATOM     14  C   UNL     1      -7.772 -14.522  12.583  1.00  0.00     0.053 C 
BRANCH  14  15
ATOM     15  C   UNL     1      -9.192 -15.005  12.594  1.00  0.00     0.041 C 
ATOM     16  O   UNL     1      -9.448 -16.236  12.688  1.00  0.00    -0.550 OA
ATOM     17  O   UNL     1     -10.237 -14.090  12.507  1.00  0.00    -0.550 OA
ENDBRANCH  14  15
ENDBRANCH  13  14
ENDBRANCH  12  13
ENDBRANCH  11  12
ENDBRANCH  10  11
ENDBRANCH   9  10
ENDBRANCH   8   9
ENDBRANCH   7   8
ENDBRANCH   6   7
ENDBRANCH   5   6
ENDBRANCH   4   5
ENDBRANCH   3   4
ENDBRANCH   2   3
ENDBRANCH   1   2
BRANCH   1  18
ATOM     18  C   UNL     1      -9.864 -13.026   5.510  1.00  0.00     0.000 C 
BRANCH  18  19
ATOM     19  C   UNL     1      -8.380 -12.992   5.918  1.00  0.00     0.000 C 
BRANCH  19  20
ATOM     20  C   UNL     1      -7.447 -13.886   5.079  1.00  0.00     0.000 C 
BRANCH  20  21
ATOM     21  C   UNL     1      -6.573 -14.816   5.933  1.00  0.00     0.000 C 
BRANCH  21  22
ATOM     22  C   UNL     1      -6.339 -16.159   5.221  1.00  0.00     0.000 C 
BRANCH  22  23
ATOM     23  C   UNL     1      -4.902 -16.309   4.688  1.00  0.00     0.000 C 
BRANCH  23  24
ATOM     24  C   UNL     1      -4.126 -17.507   5.265  1.00  0.00    -0.000 C 
BRANCH  24  25
ATOM     25  C   UNL     1      -2.622 -17.227   5.398  1.00  0.00    -0.000 C 
BRANCH  25  26
ATOM     26  C   UNL     1      -2.309 -15.754   5.109  1.00  0.00    -0.000 C 
BRANCH  26  27
ATOM     27  C   UNL     1      -1.339 -15.137   6.132  1.00  0.00    -0.000 C 
BRANCH  27  28
ATOM     28  C   UNL     1      -1.898 -15.110   7.572  1.00  0.00    -0.000 C 
BRANCH  28  29
ATOM     29  C   UNL     1      -3.091 -14.149   7.714  1.00  0.00    -0.000 C 
BRANCH  29  30
ATOM     30  C   UNL     1      -4.249 -14.762   8.531  1.00  0.00    -0.000 C 
BRANCH  30  31
ATOM     31  C   UNL     1      -4.058 -16.253   8.849  1.00  0.00    -0.003 C 
ATOM     32  C   UNL     1      -5.346 -17.062   8.716  1.00  0.00     0.004 C 
ENDBRANCH  30  31
ENDBRANCH  29  30
ENDBRANCH  28  29
ENDBRANCH  27  28
ENDBRANCH  26  27
ENDBRANCH  25  26
ENDBRANCH  24  25
ENDBRANCH  23  24
ENDBRANCH  22  23
ENDBRANCH  21  22
ENDBRANCH  20  21
ENDBRANCH  19  20
ENDBRANCH  18  19
ENDBRANCH   1  18
TORSDOF 28
ENDMDL
MODEL 9
REMARK VINA RESULT:    -4.420      3.767      9.389
REMARK INTER + INTRA:         -15.026
REMARK INTER:                 -11.391
REMARK INTRA:                  -3.635
REMARK UNBOUND:                -3.370
REMARK SMILES CCCCCCCCCCCCCCCCCCCCCCCCCCCCCC(=O)[O-]
REMARK SMILES IDX 16 1 17 2 18 3 19 4 20 5 21 6 22 7 23 8 24 9 25 10 26 11
REMARK SMILES IDX 27 12 28 13 29 14 30 15 31 16 32 17 15 18 14 19 13 20 12 21
REMARK SMILES IDX 11 22 10 23 9 24 8 25 7 26 6 27 5 28 4 29 3 30 2 31 1 32
REMARK H PARENT
REMARK Flexibility Score: inf
ROOT
ATOM      1  C   UNL     1      -4.685 -17.975   4.420  1.00  0.00     0.000 C 
ENDROOT
BRANCH   1   2
ATOM      2  C   UNL     1      -3.377 -18.092   3.626  1.00  0.00     0.000 C 
BRANCH   2   3
ATOM      3  C   UNL     1      -2.585 -16.777   3.675  1.00  0.00     0.000 C 
BRANCH   3   4
ATOM      4  C   UNL     1      -1.703 -16.652   4.929  1.00  0.00     0.000 C 
BRANCH   4   5
ATOM      5  C   UNL     1      -1.616 -15.218   5.490  1.00  0.00     0.000 C 
BRANCH   5   6
ATOM      6  C   UNL     1      -2.060 -15.138   6.961  1.00  0.00     0.000 C 
BRANCH   6   7
ATOM      7  C   UNL     1      -3.019 -16.274   7.361  1.00  0.00     0.000 C 
BRANCH   7   8
ATOM      8  C   UNL     1      -4.143 -15.822   8.318  1.00  0.00     0.000 C 
BRANCH   8   9
ATOM      9  C   UNL     1      -4.876 -17.012   8.955  1.00  0.00     0.000 C 
BRANCH   9  10
ATOM     10  C   UNL     1      -4.399 -18.343   8.354  1.00  0.00     0.000 C 
BRANCH  10  11
ATOM     11  C   UNL     1      -5.507 -19.417   8.346  1.00  0.00     0.000 C 
BRANCH  11  12
ATOM     12  C   UNL     1      -5.759 -20.034   6.958  1.00  0.00     0.000 C 
BRANCH  12  13
ATOM     13  C   UNL     1      -7.252 -20.119   6.606  1.00  0.00     0.006 C 
BRANCH  13  14
ATOM     14  C   UNL     1      -7.560 -21.276   5.645  1.00  0.00     0.053 C 
BRANCH  14  15
ATOM     15  C   UNL     1      -8.307 -20.825   4.425  1.00  0.00     0.041 C 
ATOM     16  O   UNL     1      -9.545 -21.040   4.316  1.00  0.00    -0.550 OA
ATOM     17  O   UNL     1      -7.634 -20.158   3.407  1.00  0.00    -0.550 OA
ENDBRANCH  14  15
ENDBRANCH  13  14
ENDBRANCH  12  13
ENDBRANCH  11  12
ENDBRANCH  10  11
ENDBRANCH   9  10
ENDBRANCH   8   9
ENDBRANCH   7   8
ENDBRANCH   6   7
ENDBRANCH   5   6
ENDBRANCH   4   5
ENDBRANCH   3   4
ENDBRANCH   2   3
ENDBRANCH   1   2
BRANCH   1  18
ATOM     18  C   UNL     1      -5.185 -16.523   4.448  1.00  0.00     0.000 C 
BRANCH  18  19
ATOM     19  C   UNL     1      -6.398 -16.318   5.374  1.00  0.00     0.000 C 
BRANCH  19  20
ATOM     20  C   UNL     1      -6.550 -14.901   5.956  1.00  0.00     0.000 C 
BRANCH  20  21
ATOM     21  C   UNL     1      -7.202 -13.913   4.979  1.00  0.00     0.000 C 
BRANCH  21  22
ATOM     22  C   UNL     1      -8.725 -13.857   5.186  1.00  0.00     0.000 C 
BRANCH  22  23
ATOM     23  C   UNL     1      -9.168 -12.642   6.023  1.00  0.00     0.000 C 
BRANCH  23  24
ATOM     24  C   UNL     1     -10.686 -12.387   6.029  1.00  0.00    -0.000 C 
BRANCH  24  25
ATOM     25  C   UNL     1     -11.038 -10.921   6.322  1.00  0.00    -0.000 C 
BRANCH  25  26
ATOM     26  C   UNL     1     -12.530 -10.767   6.643  1.00  0.00    -0.000 C 
BRANCH  26  27
ATOM     27  C   UNL     1     -12.797  -9.751   7.768  1.00  0.00    -0.000 C 
BRANCH  27  28
ATOM     28  C   UNL     1     -11.525  -9.339   8.541  1.00  0.00    -0.000 C 
BRANCH  28  29
ATOM     29  C   UNL     1     -11.430 -10.026   9.914  1.00  0.00    -0.000 C 
BRANCH  29  30
ATOM     30  C   UNL     1      -9.984 -10.427  10.275  1.00  0.00    -0.000 C 
BRANCH  30  31
ATOM     31  C   UNL     1      -9.512 -11.719   9.589  1.00  0.00    -0.003 C 
ATOM     32  C   UNL     1      -8.067 -12.079   9.925  1.00  0.00     0.004 C 
ENDBRANCH  30  31
ENDBRANCH  29  30
ENDBRANCH  28  29
ENDBRANCH  27  28
ENDBRANCH  26  27
ENDBRANCH  25  26
ENDBRANCH  24  25
ENDBRANCH  23  24
ENDBRANCH  22  23
ENDBRANCH  21  22
ENDBRANCH  20  21
ENDBRANCH  19  20
ENDBRANCH  18  19
ENDBRANCH   1  18
TORSDOF 28
ENDMDL
