MODEL 1
REMARK VINA RESULT:    -7.809      0.000      0.000
REMARK INTER + INTRA:         -13.130
REMARK INTER:                 -11.461
REMARK INTRA:                  -1.670
REMARK UNBOUND:                -1.670
REMARK SMILES O=c1c(O[C@H]2O[C@@H](CO)[C@H](O)[C@H](O)[C@@H]2O)c(-c2ccc(O)c(O)c2)oc2cc(O)cc(O)c12
REMARK SMILES IDX 4 1 3 2 16 3 25 4 2 5 26 6 1 7 33 8 27 9 31 10 28 11 30 12
REMARK SMILES IDX 17 13 18 14 19 15 20 16 24 17 22 18 21 19 23 21 32 23 29 25
REMARK SMILES IDX 5 27 14 28 6 29 12 30 7 31 10 32 15 33 13 35 8 37 9 38 11 40
REMARK H PARENT 21 20 23 22 32 24 29 26 15 34 13 36 9 39 11 41
REMARK Flexibility Score: inf
ROOT
ATOM      1  O   UNL     1     -23.020  59.056  31.834  1.00  0.00    -0.454 OA
ENDROOT
BRANCH   1   2
ATOM      2  C   UNL     1     -23.856  59.420  32.889  1.00  0.00     0.214 A 
ATOM      3  C   UNL     1     -23.329  59.866  34.097  1.00  0.00     0.180 A 
ATOM      4  O   UNL     1     -24.122  60.412  34.999  1.00  0.00    -0.452 OA
ATOM      5  C   UNL     1     -25.246  59.516  32.686  1.00  0.00     0.239 A 
ATOM      6  C   UNL     1     -25.420  60.644  34.799  1.00  0.00     0.146 A 
ATOM      7  O   UNL     1     -25.711  59.095  31.607  1.00  0.00    -0.285 OA
ATOM      8  C   UNL     1     -26.061  60.184  33.630  1.00  0.00     0.111 A 
ATOM      9  C   UNL     1     -26.115  61.420  35.715  1.00  0.00     0.094 A 
ATOM     10  C   UNL     1     -27.437  60.480  33.414  1.00  0.00     0.134 A 
ATOM     11  C   UNL     1     -27.402  61.881  35.379  1.00  0.00     0.123 A 
ATOM     12  C   UNL     1     -28.095  61.361  34.284  1.00  0.00     0.093 A 
BRANCH   3  13
ATOM     13  C   UNL     1     -21.881  59.839  34.351  1.00  0.00     0.025 A 
ATOM     14  C   UNL     1     -21.260  58.698  34.889  1.00  0.00     0.016 A 
ATOM     15  C   UNL     1     -19.873  58.668  35.090  1.00  0.00     0.051 A 
ATOM     16  C   UNL     1     -19.093  59.785  34.758  1.00  0.00     0.157 A 
ATOM     17  C   UNL     1     -21.094  60.959  34.034  1.00  0.00     0.062 A 
ATOM     18  C   UNL     1     -19.703  60.932  34.253  1.00  0.00     0.158 A 
BRANCH  16  19
ATOM     19  O   UNL     1     -17.711  59.731  34.970  1.00  0.00    -0.504 OA
ATOM     20  H   UNL     1     -17.068  59.468  34.241  1.00  0.00     0.293 HD
ENDBRANCH  16  19
BRANCH  18  21
ATOM     21  O   UNL     1     -18.932  62.046  33.921  1.00  0.00    -0.504 OA
ATOM     22  H   UNL     1     -19.344  62.860  33.479  1.00  0.00     0.293 HD
ENDBRANCH  18  21
ENDBRANCH   3  13
BRANCH  10  23
ATOM     23  O   UNL     1     -28.125  59.943  32.328  1.00  0.00    -0.507 OA
ATOM     24  H   UNL     1     -27.635  59.436  31.604  1.00  0.00     0.293 HD
ENDBRANCH  10  23
BRANCH  11  25
ATOM     25  O   UNL     1     -27.901  63.030  36.004  1.00  0.00    -0.508 OA
ATOM     26  H   UNL     1     -28.403  63.704  35.413  1.00  0.00     0.293 HD
ENDBRANCH  11  25
ENDBRANCH   1   2
BRANCH   1  27
ATOM     27  C   UNL     1     -22.687  59.861  30.695  1.00  0.00     0.339 C 
ATOM     28  C   UNL     1     -23.175  59.162  29.386  1.00  0.00     0.214 C 
ATOM     29  O   UNL     1     -21.306  60.153  30.647  1.00  0.00    -0.332 OA
ATOM     30  C   UNL     1     -22.137  59.318  28.242  1.00  0.00     0.180 C 
ATOM     31  C   UNL     1     -21.097  61.175  29.680  1.00  0.00     0.179 C 
ATOM     32  C   UNL     1     -21.519  60.736  28.243  1.00  0.00     0.177 C 
BRANCH  28  33
ATOM     33  O   UNL     1     -24.439  59.633  28.976  1.00  0.00    -0.384 OA
ATOM     34  H   UNL     1     -25.094  58.914  29.172  1.00  0.00     0.211 HD
ENDBRANCH  28  33
BRANCH  30  35
ATOM     35  O   UNL     1     -22.731  59.029  27.007  1.00  0.00    -0.387 OA
ATOM     36  H   UNL     1     -23.050  58.095  27.045  1.00  0.00     0.211 HD
ENDBRANCH  30  35
BRANCH  31  37
ATOM     37  C   UNL     1     -19.615  61.575  29.718  1.00  0.00     0.191 C 
BRANCH  37  38
ATOM     38  O   UNL     1     -19.062  61.365  30.986  1.00  0.00    -0.394 OA
ATOM     39  H   UNL     1     -18.808  60.406  31.011  1.00  0.00     0.210 HD
ENDBRANCH  37  38
ENDBRANCH  31  37
BRANCH  32  40
ATOM     40  O   UNL     1     -22.441  61.668  27.737  1.00  0.00    -0.387 OA
ATOM     41  H   UNL     1     -22.379  62.500  28.254  1.00  0.00     0.211 HD
ENDBRANCH  32  40
ENDBRANCH   1  27
TORSDOF 12
ENDMDL
MODEL 2
REMARK VINA RESULT:    -7.587      1.155      1.769
REMARK INTER + INTRA:         -12.806
REMARK INTER:                 -11.765
REMARK INTRA:                  -1.041
REMARK UNBOUND:                -1.670
REMARK SMILES O=c1c(O[C@H]2O[C@@H](CO)[C@H](O)[C@H](O)[C@@H]2O)c(-c2ccc(O)c(O)c2)oc2cc(O)cc(O)c12
REMARK SMILES IDX 4 1 3 2 16 3 25 4 2 5 26 6 1 7 33 8 27 9 31 10 28 11 30 12
REMARK SMILES IDX 17 13 18 14 19 15 20 16 24 17 22 18 21 19 23 21 32 23 29 25
REMARK SMILES IDX 5 27 14 28 6 29 12 30 7 31 10 32 15 33 13 35 8 37 9 38 11 40
REMARK H PARENT 21 20 23 22 32 24 29 26 15 34 13 36 9 39 11 41
REMARK Flexibility Score: inf
ROOT
ATOM      1  O   UNL     1     -22.626  59.176  32.255  1.00  0.00    -0.454 OA
ENDROOT
BRANCH   1   2
ATOM      2  C   UNL     1     -23.562  59.575  33.209  1.00  0.00     0.214 A 
ATOM      3  C   UNL     1     -23.161  60.208  34.381  1.00  0.00     0.180 A 
ATOM      4  O   UNL     1     -24.060  60.773  35.164  1.00  0.00    -0.452 OA
ATOM      5  C   UNL     1     -24.938  59.508  32.919  1.00  0.00     0.239 A 
ATOM      6  C   UNL     1     -25.358  60.850  34.865  1.00  0.00     0.146 A 
ATOM      7  O   UNL     1     -25.288  58.919  31.875  1.00  0.00    -0.285 OA
ATOM      8  C   UNL     1     -25.874  60.196  33.726  1.00  0.00     0.111 A 
ATOM      9  C   UNL     1     -26.182  61.654  35.639  1.00  0.00     0.094 A 
ATOM     10  C   UNL     1     -27.252  60.326  33.399  1.00  0.00     0.134 A 
ATOM     11  C   UNL     1     -27.480  61.942  35.178  1.00  0.00     0.123 A 
ATOM     12  C   UNL     1     -28.047  61.232  34.117  1.00  0.00     0.093 A 
BRANCH   3  13
ATOM     13  C   UNL     1     -21.737  60.355  34.718  1.00  0.00     0.025 A 
ATOM     14  C   UNL     1     -21.108  61.612  34.679  1.00  0.00     0.016 A 
ATOM     15  C   UNL     1     -19.762  61.748  35.042  1.00  0.00     0.051 A 
ATOM     16  C   UNL     1     -19.028  60.622  35.444  1.00  0.00     0.157 A 
ATOM     17  C   UNL     1     -20.991  59.230  35.108  1.00  0.00     0.062 A 
ATOM     18  C   UNL     1     -19.634  59.367  35.455  1.00  0.00     0.158 A 
BRANCH  16  19
ATOM     19  O   UNL     1     -17.684  60.783  35.799  1.00  0.00    -0.504 OA
ATOM     20  H   UNL     1     -17.138  60.029  36.182  1.00  0.00     0.293 HD
ENDBRANCH  16  19
BRANCH  18  21
ATOM     21  O   UNL     1     -18.909  58.243  35.854  1.00  0.00    -0.504 OA
ATOM     22  H   UNL     1     -17.900  58.204  35.756  1.00  0.00     0.293 HD
ENDBRANCH  18  21
ENDBRANCH   3  13
BRANCH  10  23
ATOM     23  O   UNL     1     -27.813  59.600  32.350  1.00  0.00    -0.507 OA
ATOM     24  H   UNL     1     -28.060  60.053  31.482  1.00  0.00     0.293 HD
ENDBRANCH  10  23
BRANCH  11  25
ATOM     25  O   UNL     1     -28.124  63.100  35.629  1.00  0.00    -0.508 OA
ATOM     26  H   UNL     1     -29.002  62.975  36.148  1.00  0.00     0.293 HD
ENDBRANCH  11  25
ENDBRANCH   1   2
BRANCH   1  27
ATOM     27  C   UNL     1     -21.707  60.027  31.558  1.00  0.00     0.339 C 
ATOM     28  C   UNL     1     -22.219  60.290  30.105  1.00  0.00     0.214 C 
ATOM     29  O   UNL     1     -20.398  59.497  31.561  1.00  0.00    -0.332 OA
ATOM     30  C   UNL     1     -21.051  60.275  29.083  1.00  0.00     0.180 C 
ATOM     31  C   UNL     1     -19.502  60.510  31.119  1.00  0.00     0.179 C 
ATOM     32  C   UNL     1     -19.799  60.977  29.660  1.00  0.00     0.177 C 
BRANCH  28  33
ATOM     33  O   UNL     1     -22.944  61.497  30.012  1.00  0.00    -0.384 OA
ATOM     34  H   UNL     1     -23.460  61.459  29.166  1.00  0.00     0.211 HD
ENDBRANCH  28  33
BRANCH  30  35
ATOM     35  O   UNL     1     -21.452  60.870  27.880  1.00  0.00    -0.387 OA
ATOM     36  H   UNL     1     -21.520  60.152  27.205  1.00  0.00     0.211 HD
ENDBRANCH  30  35
BRANCH  31  37
ATOM     37  C   UNL     1     -18.070  59.969  31.241  1.00  0.00     0.191 C 
BRANCH  37  38
ATOM     38  O   UNL     1     -17.147  61.005  31.422  1.00  0.00    -0.394 OA
ATOM     39  H   UNL     1     -17.689  61.822  31.578  1.00  0.00     0.210 HD
ENDBRANCH  37  38
ENDBRANCH  31  37
BRANCH  32  40
ATOM     40  O   UNL     1     -19.981  62.371  29.659  1.00  0.00    -0.387 OA
ATOM     41  H   UNL     1     -20.925  62.575  29.831  1.00  0.00     0.211 HD
ENDBRANCH  32  40
ENDBRANCH   1  27
TORSDOF 12
ENDMDL
MODEL 3
REMARK VINA RESULT:    -7.563      1.124      2.185
REMARK INTER + INTRA:         -12.770
REMARK INTER:                 -12.045
REMARK INTRA:                  -0.725
REMARK UNBOUND:                -1.670
REMARK SMILES O=c1c(O[C@H]2O[C@@H](CO)[C@H](O)[C@H](O)[C@@H]2O)c(-c2ccc(O)c(O)c2)oc2cc(O)cc(O)c12
REMARK SMILES IDX 4 1 3 2 16 3 25 4 2 5 26 6 1 7 33 8 27 9 31 10 28 11 30 12
REMARK SMILES IDX 17 13 18 14 19 15 20 16 24 17 22 18 21 19 23 21 32 23 29 25
REMARK SMILES IDX 5 27 14 28 6 29 12 30 7 31 10 32 15 33 13 35 8 37 9 38 11 40
REMARK H PARENT 21 20 23 22 32 24 29 26 15 34 13 36 9 39 11 41
REMARK Flexibility Score: inf
ROOT
ATOM      1  O   UNL     1     -22.831  58.930  32.240  1.00  0.00    -0.454 OA
ENDROOT
BRANCH   1   2
ATOM      2  C   UNL     1     -23.746  59.369  33.197  1.00  0.00     0.214 A 
ATOM      3  C   UNL     1     -23.312  59.957  34.381  1.00  0.00     0.180 A 
ATOM      4  O   UNL     1     -24.179  60.563  35.170  1.00  0.00    -0.452 OA
ATOM      5  C   UNL     1     -25.121  59.391  32.900  1.00  0.00     0.239 A 
ATOM      6  C   UNL     1     -25.469  60.723  34.867  1.00  0.00     0.146 A 
ATOM      7  O   UNL     1     -25.502  58.843  31.845  1.00  0.00    -0.285 OA
ATOM      8  C   UNL     1     -26.017  60.122  33.716  1.00  0.00     0.111 A 
ATOM      9  C   UNL     1     -26.246  61.563  35.652  1.00  0.00     0.094 A 
ATOM     10  C   UNL     1     -27.384  60.341  33.386  1.00  0.00     0.134 A 
ATOM     11  C   UNL     1     -27.521  61.938  35.191  1.00  0.00     0.123 A 
ATOM     12  C   UNL     1     -28.125  61.281  34.116  1.00  0.00     0.093 A 
BRANCH   3  13
ATOM     13  C   UNL     1     -21.884  60.011  34.726  1.00  0.00     0.025 A 
ATOM     14  C   UNL     1     -21.099  58.845  34.753  1.00  0.00     0.016 A 
ATOM     15  C   UNL     1     -19.730  58.914  35.043  1.00  0.00     0.051 A 
ATOM     16  C   UNL     1     -19.132  60.153  35.315  1.00  0.00     0.157 A 
ATOM     17  C   UNL     1     -21.280  61.248  35.014  1.00  0.00     0.062 A 
ATOM     18  C   UNL     1     -19.908  61.311  35.321  1.00  0.00     0.158 A 
BRANCH  16  19
ATOM     19  O   UNL     1     -17.763  60.194  35.604  1.00  0.00    -0.504 OA
ATOM     20  H   UNL     1     -17.269  61.062  35.731  1.00  0.00     0.293 HD
ENDBRANCH  16  19
BRANCH  18  21
ATOM     21  O   UNL     1     -19.319  62.547  35.591  1.00  0.00    -0.504 OA
ATOM     22  H   UNL     1     -18.441  62.818  35.162  1.00  0.00     0.293 HD
ENDBRANCH  18  21
ENDBRANCH   3  13
BRANCH  10  23
ATOM     23  O   UNL     1     -27.983  59.668  32.322  1.00  0.00    -0.507 OA
ATOM     24  H   UNL     1     -28.204  58.685  32.391  1.00  0.00     0.293 HD
ENDBRANCH  10  23
BRANCH  11  25
ATOM     25  O   UNL     1     -28.096  63.125  35.659  1.00  0.00    -0.508 OA
ATOM     26  H   UNL     1     -28.594  63.082  36.558  1.00  0.00     0.293 HD
ENDBRANCH  11  25
ENDBRANCH   1   2
BRANCH   1  27
ATOM     27  C   UNL     1     -22.473  59.611  31.031  1.00  0.00     0.339 C 
ATOM     28  C   UNL     1     -21.002  60.130  31.125  1.00  0.00     0.214 C 
ATOM     29  O   UNL     1     -23.376  60.654  30.730  1.00  0.00    -0.332 OA
ATOM     30  C   UNL     1     -20.860  61.542  30.495  1.00  0.00     0.180 C 
ATOM     31  C   UNL     1     -23.136  61.085  29.395  1.00  0.00     0.179 C 
ATOM     32  C   UNL     1     -21.699  61.659  29.199  1.00  0.00     0.177 C 
BRANCH  28  33
ATOM     33  O   UNL     1     -20.087  59.232  30.539  1.00  0.00    -0.384 OA
ATOM     34  H   UNL     1     -19.290  59.204  31.129  1.00  0.00     0.211 HD
ENDBRANCH  28  33
BRANCH  30  35
ATOM     35  O   UNL     1     -19.512  61.829  30.249  1.00  0.00    -0.387 OA
ATOM     36  H   UNL     1     -19.129  61.057  29.768  1.00  0.00     0.211 HD
ENDBRANCH  30  35
BRANCH  31  37
ATOM     37  C   UNL     1     -24.199  62.132  29.032  1.00  0.00     0.191 C 
BRANCH  37  38
ATOM     38  O   UNL     1     -25.476  61.723  29.431  1.00  0.00    -0.394 OA
ATOM     39  H   UNL     1     -25.457  61.715  30.424  1.00  0.00     0.210 HD
ENDBRANCH  37  38
ENDBRANCH  31  37
BRANCH  32  40
ATOM     40  O   UNL     1     -21.072  60.963  28.152  1.00  0.00    -0.387 OA
ATOM     41  H   UNL     1     -20.839  60.059  28.455  1.00  0.00     0.211 HD
ENDBRANCH  32  40
ENDBRANCH   1  27
TORSDOF 12
ENDMDL
MODEL 4
REMARK VINA RESULT:    -7.147     15.474     18.985
REMARK INTER + INTRA:         -12.160
REMARK INTER:                 -10.401
REMARK INTRA:                  -1.759
REMARK UNBOUND:                -1.670
REMARK SMILES O=c1c(O[C@H]2O[C@@H](CO)[C@H](O)[C@H](O)[C@@H]2O)c(-c2ccc(O)c(O)c2)oc2cc(O)cc(O)c12
REMARK SMILES IDX 4 1 3 2 16 3 25 4 2 5 26 6 1 7 33 8 27 9 31 10 28 11 30 12
REMARK SMILES IDX 17 13 18 14 19 15 20 16 24 17 22 18 21 19 23 21 32 23 29 25
REMARK SMILES IDX 5 27 14 28 6 29 12 30 7 31 10 32 15 33 13 35 8 37 9 38 11 40
REMARK H PARENT 21 20 23 22 32 24 29 26 15 34 13 36 9 39 11 41
REMARK Flexibility Score: inf
ROOT
ATOM      1  O   UNL     1     -14.468  46.589  25.998  1.00  0.00    -0.454 OA
ENDROOT
BRANCH   1   2
ATOM      2  C   UNL     1     -14.345  45.574  25.050  1.00  0.00     0.214 A 
ATOM      3  C   UNL     1     -15.328  44.598  24.918  1.00  0.00     0.180 A 
ATOM      4  O   UNL     1     -15.308  43.781  23.881  1.00  0.00    -0.452 OA
ATOM      5  C   UNL     1     -13.316  45.625  24.092  1.00  0.00     0.239 A 
ATOM      6  C   UNL     1     -14.431  43.877  22.881  1.00  0.00     0.146 A 
ATOM      7  O   UNL     1     -12.428  46.492  24.231  1.00  0.00    -0.285 OA
ATOM      8  C   UNL     1     -13.365  44.798  22.944  1.00  0.00     0.111 A 
ATOM      9  C   UNL     1     -14.630  43.119  21.736  1.00  0.00     0.094 A 
ATOM     10  C   UNL     1     -12.466  44.917  21.848  1.00  0.00     0.134 A 
ATOM     11  C   UNL     1     -13.866  43.406  20.589  1.00  0.00     0.123 A 
ATOM     12  C   UNL     1     -12.744  44.235  20.654  1.00  0.00     0.093 A 
BRANCH   3  13
ATOM     13  C   UNL     1     -16.456  44.521  25.857  1.00  0.00     0.025 A 
ATOM     14  C   UNL     1     -16.338  43.836  27.080  1.00  0.00     0.016 A 
ATOM     15  C   UNL     1     -17.406  43.804  27.986  1.00  0.00     0.051 A 
ATOM     16  C   UNL     1     -18.608  44.456  27.674  1.00  0.00     0.157 A 
ATOM     17  C   UNL     1     -17.669  45.160  25.547  1.00  0.00     0.062 A 
ATOM     18  C   UNL     1     -18.746  45.111  26.452  1.00  0.00     0.158 A 
BRANCH  16  19
ATOM     19  O   UNL     1     -19.661  44.407  28.595  1.00  0.00    -0.504 OA
ATOM     20  H   UNL     1     -19.502  44.382  29.589  1.00  0.00     0.293 HD
ENDBRANCH  16  19
BRANCH  18  21
ATOM     21  O   UNL     1     -19.940  45.761  26.137  1.00  0.00    -0.504 OA
ATOM     22  H   UNL     1     -19.945  46.642  25.636  1.00  0.00     0.293 HD
ENDBRANCH  18  21
ENDBRANCH   3  13
BRANCH  10  23
ATOM     23  O   UNL     1     -11.339  45.733  21.928  1.00  0.00    -0.507 OA
ATOM     24  H   UNL     1     -11.401  46.664  22.314  1.00  0.00     0.293 HD
ENDBRANCH  10  23
BRANCH  11  25
ATOM     25  O   UNL     1     -14.363  43.049  19.330  1.00  0.00    -0.508 OA
ATOM     26  H   UNL     1     -15.232  43.505  19.023  1.00  0.00     0.293 HD
ENDBRANCH  11  25
ENDBRANCH   1   2
BRANCH   1  27
ATOM     27  C   UNL     1     -15.104  47.859  25.806  1.00  0.00     0.339 C 
ATOM     28  C   UNL     1     -14.035  48.999  25.823  1.00  0.00     0.214 C 
ATOM     29  O   UNL     1     -16.122  48.085  26.759  1.00  0.00    -0.332 OA
ATOM     30  C   UNL     1     -14.556  50.250  26.581  1.00  0.00     0.180 C 
ATOM     31  C   UNL     1     -16.890  49.206  26.338  1.00  0.00     0.179 C 
ATOM     32  C   UNL     1     -16.046  50.516  26.259  1.00  0.00     0.177 C 
BRANCH  28  33
ATOM     33  O   UNL     1     -13.615  49.348  24.523  1.00  0.00    -0.384 OA
ATOM     34  H   UNL     1     -13.719  50.330  24.439  1.00  0.00     0.211 HD
ENDBRANCH  28  33
BRANCH  30  35
ATOM     35  O   UNL     1     -13.768  51.366  26.274  1.00  0.00    -0.387 OA
ATOM     36  H   UNL     1     -13.700  51.417  25.290  1.00  0.00     0.211 HD
ENDBRANCH  30  35
BRANCH  31  37
ATOM     37  C   UNL     1     -18.068  49.371  27.310  1.00  0.00     0.191 C 
BRANCH  37  38
ATOM     38  O   UNL     1     -19.146  48.555  26.950  1.00  0.00    -0.394 OA
ATOM     39  H   UNL     1     -18.882  48.125  26.095  1.00  0.00     0.210 HD
ENDBRANCH  37  38
ENDBRANCH  31  37
BRANCH  32  40
ATOM     40  O   UNL     1     -16.173  51.059  24.969  1.00  0.00    -0.387 OA
ATOM     41  H   UNL     1     -15.377  50.833  24.441  1.00  0.00     0.211 HD
ENDBRANCH  32  40
ENDBRANCH   1  27
TORSDOF 12
ENDMDL
MODEL 5
REMARK VINA RESULT:    -7.097      1.986      6.295
REMARK INTER + INTRA:         -12.086
REMARK INTER:                 -10.906
REMARK INTRA:                  -1.180
REMARK UNBOUND:                -1.670
REMARK SMILES O=c1c(O[C@H]2O[C@@H](CO)[C@H](O)[C@H](O)[C@@H]2O)c(-c2ccc(O)c(O)c2)oc2cc(O)cc(O)c12
REMARK SMILES IDX 4 1 3 2 16 3 25 4 2 5 26 6 1 7 33 8 27 9 31 10 28 11 30 12
REMARK SMILES IDX 17 13 18 14 19 15 20 16 24 17 22 18 21 19 23 21 32 23 29 25
REMARK SMILES IDX 5 27 14 28 6 29 12 30 7 31 10 32 15 33 13 35 8 37 9 38 11 40
REMARK H PARENT 21 20 23 22 32 24 29 26 15 34 13 36 9 39 11 41
REMARK Flexibility Score: inf
ROOT
ATOM      1  O   UNL     1     -23.492  61.199  31.008  1.00  0.00    -0.454 OA
ENDROOT
BRANCH   1   2
ATOM      2  C   UNL     1     -22.597  60.321  30.397  1.00  0.00     0.214 A 
ATOM      3  C   UNL     1     -21.406  59.966  31.023  1.00  0.00     0.180 A 
ATOM      4  O   UNL     1     -20.681  58.974  30.542  1.00  0.00    -0.452 OA
ATOM      5  C   UNL     1     -22.969  59.639  29.224  1.00  0.00     0.239 A 
ATOM      6  C   UNL     1     -21.058  58.214  29.512  1.00  0.00     0.146 A 
ATOM      7  O   UNL     1     -24.029  59.978  28.659  1.00  0.00    -0.285 OA
ATOM      8  C   UNL     1     -22.222  58.522  28.778  1.00  0.00     0.111 A 
ATOM      9  C   UNL     1     -20.337  57.063  29.225  1.00  0.00     0.094 A 
ATOM     10  C   UNL     1     -22.631  57.675  27.711  1.00  0.00     0.134 A 
ATOM     11  C   UNL     1     -20.877  56.132  28.318  1.00  0.00     0.123 A 
ATOM     12  C   UNL     1     -21.966  56.457  27.507  1.00  0.00     0.093 A 
BRANCH   3  13
ATOM     13  C   UNL     1     -20.985  60.606  32.278  1.00  0.00     0.025 A 
ATOM     14  C   UNL     1     -20.946  62.006  32.401  1.00  0.00     0.016 A 
ATOM     15  C   UNL     1     -20.582  62.605  33.615  1.00  0.00     0.051 A 
ATOM     16  C   UNL     1     -20.250  61.806  34.718  1.00  0.00     0.157 A 
ATOM     17  C   UNL     1     -20.636  59.812  33.385  1.00  0.00     0.062 A 
ATOM     18  C   UNL     1     -20.256  60.418  34.597  1.00  0.00     0.158 A 
BRANCH  16  19
ATOM     19  O   UNL     1     -19.888  62.429  35.918  1.00  0.00    -0.504 OA
ATOM     20  H   UNL     1     -19.224  62.019  36.555  1.00  0.00     0.293 HD
ENDBRANCH  16  19
BRANCH  18  21
ATOM     21  O   UNL     1     -19.925  59.618  35.692  1.00  0.00    -0.504 OA
ATOM     22  H   UNL     1     -20.639  59.143  36.233  1.00  0.00     0.293 HD
ENDBRANCH  18  21
ENDBRANCH   3  13
BRANCH  10  23
ATOM     23  O   UNL     1     -23.709  58.015  26.896  1.00  0.00    -0.507 OA
ATOM     24  H   UNL     1     -24.266  57.301  26.450  1.00  0.00     0.293 HD
ENDBRANCH  10  23
BRANCH  11  25
ATOM     25  O   UNL     1     -20.470  54.794  28.390  1.00  0.00    -0.508 OA
ATOM     26  H   UNL     1     -19.901  54.435  27.613  1.00  0.00     0.293 HD
ENDBRANCH  11  25
ENDBRANCH   1   2
BRANCH   1  27
ATOM     27  C   UNL     1     -24.562  60.845  31.893  1.00  0.00     0.339 C 
ATOM     28  C   UNL     1     -25.903  61.464  31.384  1.00  0.00     0.214 C 
ATOM     29  O   UNL     1     -24.286  61.222  33.226  1.00  0.00    -0.332 OA
ATOM     30  C   UNL     1     -26.762  61.996  32.563  1.00  0.00     0.180 C 
ATOM     31  C   UNL     1     -25.235  60.591  34.077  1.00  0.00     0.179 C 
ATOM     32  C   UNL     1     -26.700  61.035  33.774  1.00  0.00     0.177 C 
BRANCH  28  33
ATOM     33  O   UNL     1     -26.643  60.551  30.604  1.00  0.00    -0.384 OA
ATOM     34  H   UNL     1     -26.949  61.041  29.798  1.00  0.00     0.211 HD
ENDBRANCH  28  33
BRANCH  30  35
ATOM     35  O   UNL     1     -28.084  62.196  32.146  1.00  0.00    -0.387 OA
ATOM     36  H   UNL     1     -28.388  61.361  31.717  1.00  0.00     0.211 HD
ENDBRANCH  30  35
BRANCH  31  37
ATOM     37  C   UNL     1     -24.857  60.905  35.532  1.00  0.00     0.191 C 
BRANCH  37  38
ATOM     38  O   UNL     1     -23.759  60.144  35.950  1.00  0.00    -0.394 OA
ATOM     39  H   UNL     1     -23.829  60.096  36.939  1.00  0.00     0.210 HD
ENDBRANCH  37  38
ENDBRANCH  31  37
BRANCH  32  40
ATOM     40  O   UNL     1     -27.478  59.892  33.526  1.00  0.00    -0.387 OA
ATOM     41  H   UNL     1     -26.895  59.102  33.498  1.00  0.00     0.211 HD
ENDBRANCH  32  40
ENDBRANCH   1  27
TORSDOF 12
ENDMDL
MODEL 6
REMARK VINA RESULT:    -7.009      1.451      2.427
REMARK INTER + INTRA:         -11.956
REMARK INTER:                 -10.840
REMARK INTRA:                  -1.116
REMARK UNBOUND:                -1.670
REMARK SMILES O=c1c(O[C@H]2O[C@@H](CO)[C@H](O)[C@H](O)[C@@H]2O)c(-c2ccc(O)c(O)c2)oc2cc(O)cc(O)c12
REMARK SMILES IDX 4 1 3 2 16 3 25 4 2 5 26 6 1 7 33 8 27 9 31 10 28 11 30 12
REMARK SMILES IDX 17 13 18 14 19 15 20 16 24 17 22 18 21 19 23 21 32 23 29 25
REMARK SMILES IDX 5 27 14 28 6 29 12 30 7 31 10 32 15 33 13 35 8 37 9 38 11 40
REMARK H PARENT 21 20 23 22 32 24 29 26 15 34 13 36 9 39 11 41
REMARK Flexibility Score: inf
ROOT
ATOM      1  O   UNL     1     -22.723  60.698  31.785  1.00  0.00    -0.454 OA
ENDROOT
BRANCH   1   2
ATOM      2  C   UNL     1     -23.702  60.693  32.778  1.00  0.00     0.214 A 
ATOM      3  C   UNL     1     -23.353  60.618  34.123  1.00  0.00     0.180 A 
ATOM      4  O   UNL     1     -24.265  60.836  35.051  1.00  0.00    -0.452 OA
ATOM      5  C   UNL     1     -25.046  60.949  32.445  1.00  0.00     0.239 A 
ATOM      6  C   UNL     1     -25.518  61.210  34.785  1.00  0.00     0.146 A 
ATOM      7  O   UNL     1     -25.352  60.994  31.236  1.00  0.00    -0.285 OA
ATOM      8  C   UNL     1     -25.984  61.265  33.456  1.00  0.00     0.111 A 
ATOM      9  C   UNL     1     -26.332  61.629  35.828  1.00  0.00     0.094 A 
ATOM     10  C   UNL     1     -27.310  61.709  33.189  1.00  0.00     0.134 A 
ATOM     11  C   UNL     1     -27.550  62.265  35.526  1.00  0.00     0.123 A 
ATOM     12  C   UNL     1     -28.080  62.240  34.234  1.00  0.00     0.093 A 
BRANCH   3  13
ATOM     13  C   UNL     1     -21.959  60.403  34.537  1.00  0.00     0.025 A 
ATOM     14  C   UNL     1     -21.595  59.283  35.305  1.00  0.00     0.016 A 
ATOM     15  C   UNL     1     -20.256  59.066  35.660  1.00  0.00     0.051 A 
ATOM     16  C   UNL     1     -19.268  59.973  35.251  1.00  0.00     0.157 A 
ATOM     17  C   UNL     1     -20.964  61.315  34.144  1.00  0.00     0.062 A 
ATOM     18  C   UNL     1     -19.623  61.102  34.516  1.00  0.00     0.158 A 
BRANCH  16  19
ATOM     19  O   UNL     1     -17.939  59.735  35.620  1.00  0.00    -0.504 OA
ATOM     20  H   UNL     1     -17.208  60.407  35.451  1.00  0.00     0.293 HD
ENDBRANCH  16  19
BRANCH  18  21
ATOM     21  O   UNL     1     -18.644  62.008  34.107  1.00  0.00    -0.504 OA
ATOM     22  H   UNL     1     -18.790  62.621  33.312  1.00  0.00     0.293 HD
ENDBRANCH  18  21
ENDBRANCH   3  13
BRANCH  10  23
ATOM     23  O   UNL     1     -27.837  61.665  31.900  1.00  0.00    -0.507 OA
ATOM     24  H   UNL     1     -28.237  62.490  31.476  1.00  0.00     0.293 HD
ENDBRANCH  10  23
BRANCH  11  25
ATOM     25  O   UNL     1     -28.124  63.125  36.469  1.00  0.00    -0.508 OA
ATOM     26  H   UNL     1     -28.256  62.756  37.420  1.00  0.00     0.293 HD
ENDBRANCH  11  25
ENDBRANCH   1   2
BRANCH   1  27
ATOM     27  C   UNL     1     -22.338  59.589  30.964  1.00  0.00     0.339 C 
ATOM     28  C   UNL     1     -20.795  59.362  31.061  1.00  0.00     0.214 C 
ATOM     29  O   UNL     1     -22.757  59.757  29.626  1.00  0.00    -0.332 OA
ATOM     30  C   UNL     1     -20.190  58.996  29.679  1.00  0.00     0.180 C 
ATOM     31  C   UNL     1     -22.605  58.515  28.948  1.00  0.00     0.179 C 
ATOM     32  C   UNL     1     -21.121  58.036  28.901  1.00  0.00     0.177 C 
BRANCH  28  33
ATOM     33  O   UNL     1     -20.465  58.383  32.021  1.00  0.00    -0.384 OA
ATOM     34  H   UNL     1     -20.564  58.808  32.912  1.00  0.00     0.211 HD
ENDBRANCH  28  33
BRANCH  30  35
ATOM     35  O   UNL     1     -18.915  58.440  29.841  1.00  0.00    -0.387 OA
ATOM     36  H   UNL     1     -18.257  59.146  29.633  1.00  0.00     0.211 HD
ENDBRANCH  30  35
BRANCH  31  37
ATOM     37  C   UNL     1     -23.176  58.671  27.531  1.00  0.00     0.191 C 
BRANCH  37  38
ATOM     38  O   UNL     1     -22.392  59.533  26.756  1.00  0.00    -0.394 OA
ATOM     39  H   UNL     1     -22.999  60.265  26.473  1.00  0.00     0.210 HD
ENDBRANCH  37  38
ENDBRANCH  31  37
BRANCH  32  40
ATOM     40  O   UNL     1     -21.046  56.742  29.445  1.00  0.00    -0.387 OA
ATOM     41  H   UNL     1     -21.403  56.753  30.360  1.00  0.00     0.211 HD
ENDBRANCH  32  40
ENDBRANCH   1  27
TORSDOF 12
ENDMDL
MODEL 7
REMARK VINA RESULT:    -6.973      1.440      2.321
REMARK INTER + INTRA:         -11.905
REMARK INTER:                 -10.758
REMARK INTRA:                  -1.147
REMARK UNBOUND:                -1.670
REMARK SMILES O=c1c(O[C@H]2O[C@@H](CO)[C@H](O)[C@H](O)[C@@H]2O)c(-c2ccc(O)c(O)c2)oc2cc(O)cc(O)c12
REMARK SMILES IDX 4 1 3 2 16 3 25 4 2 5 26 6 1 7 33 8 27 9 31 10 28 11 30 12
REMARK SMILES IDX 17 13 18 14 19 15 20 16 24 17 22 18 21 19 23 21 32 23 29 25
REMARK SMILES IDX 5 27 14 28 6 29 12 30 7 31 10 32 15 33 13 35 8 37 9 38 11 40
REMARK H PARENT 21 20 23 22 32 24 29 26 15 34 13 36 9 39 11 41
REMARK Flexibility Score: inf
ROOT
ATOM      1  O   UNL     1     -22.912  60.916  31.506  1.00  0.00    -0.454 OA
ENDROOT
BRANCH   1   2
ATOM      2  C   UNL     1     -23.859  60.855  32.529  1.00  0.00     0.214 A 
ATOM      3  C   UNL     1     -23.470  60.644  33.848  1.00  0.00     0.180 A 
ATOM      4  O   UNL     1     -24.343  60.809  34.824  1.00  0.00    -0.452 OA
ATOM      5  C   UNL     1     -25.201  61.187  32.268  1.00  0.00     0.239 A 
ATOM      6  C   UNL     1     -25.588  61.250  34.637  1.00  0.00     0.146 A 
ATOM      7  O   UNL     1     -25.543  61.354  31.079  1.00  0.00    -0.285 OA
ATOM      8  C   UNL     1     -26.094  61.444  33.335  1.00  0.00     0.111 A 
ATOM      9  C   UNL     1     -26.352  61.601  35.741  1.00  0.00     0.094 A 
ATOM     10  C   UNL     1     -27.409  61.957  33.156  1.00  0.00     0.134 A 
ATOM     11  C   UNL     1     -27.554  62.305  35.541  1.00  0.00     0.123 A 
ATOM     12  C   UNL     1     -28.125  62.417  34.271  1.00  0.00     0.093 A 
BRANCH   3  13
ATOM     13  C   UNL     1     -22.073  60.342  34.192  1.00  0.00     0.025 A 
ATOM     14  C   UNL     1     -21.704  59.079  34.686  1.00  0.00     0.016 A 
ATOM     15  C   UNL     1     -20.363  58.789  34.973  1.00  0.00     0.051 A 
ATOM     16  C   UNL     1     -19.377  59.765  34.770  1.00  0.00     0.157 A 
ATOM     17  C   UNL     1     -21.080  61.320  34.006  1.00  0.00     0.062 A 
ATOM     18  C   UNL     1     -19.737  61.030  34.310  1.00  0.00     0.158 A 
BRANCH  16  19
ATOM     19  O   UNL     1     -18.045  59.451  35.065  1.00  0.00    -0.504 OA
ATOM     20  H   UNL     1     -17.733  58.500  35.181  1.00  0.00     0.293 HD
ENDBRANCH  16  19
BRANCH  18  21
ATOM     21  O   UNL     1     -18.759  62.005  34.107  1.00  0.00    -0.504 OA
ATOM     22  H   UNL     1     -18.097  61.937  33.342  1.00  0.00     0.293 HD
ENDBRANCH  18  21
ENDBRANCH   3  13
BRANCH  10  23
ATOM     23  O   UNL     1     -27.978  62.050  31.888  1.00  0.00    -0.507 OA
ATOM     24  H   UNL     1     -28.877  62.491  31.755  1.00  0.00     0.293 HD
ENDBRANCH  10  23
BRANCH  11  25
ATOM     25  O   UNL     1     -28.064  63.095  36.577  1.00  0.00    -0.508 OA
ATOM     26  H   UNL     1     -29.075  63.283  36.569  1.00  0.00     0.293 HD
ENDBRANCH  11  25
ENDBRANCH   1   2
BRANCH   1  27
ATOM     27  C   UNL     1     -22.418  59.812  30.737  1.00  0.00     0.339 C 
ATOM     28  C   UNL     1     -22.616  60.091  29.213  1.00  0.00     0.214 C 
ATOM     29  O   UNL     1     -23.017  58.593  31.126  1.00  0.00    -0.332 OA
ATOM     30  C   UNL     1     -23.063  58.810  28.458  1.00  0.00     0.180 C 
ATOM     31  C   UNL     1     -22.283  57.525  30.540  1.00  0.00     0.179 C 
ATOM     32  C   UNL     1     -22.308  57.565  28.980  1.00  0.00     0.177 C 
BRANCH  28  33
ATOM     33  O   UNL     1     -21.458  60.636  28.622  1.00  0.00    -0.384 OA
ATOM     34  H   UNL     1     -21.340  61.545  29.001  1.00  0.00     0.211 HD
ENDBRANCH  28  33
BRANCH  30  35
ATOM     35  O   UNL     1     -22.875  58.971  27.079  1.00  0.00    -0.387 OA
ATOM     36  H   UNL     1     -22.205  59.685  26.954  1.00  0.00     0.211 HD
ENDBRANCH  30  35
BRANCH  31  37
ATOM     37  C   UNL     1     -22.861  56.202  31.064  1.00  0.00     0.191 C 
BRANCH  37  38
ATOM     38  O   UNL     1     -23.200  56.294  32.419  1.00  0.00    -0.394 OA
ATOM     39  H   UNL     1     -22.337  56.303  32.910  1.00  0.00     0.210 HD
ENDBRANCH  37  38
ENDBRANCH  31  37
BRANCH  32  40
ATOM     40  O   UNL     1     -20.986  57.565  28.506  1.00  0.00    -0.387 OA
ATOM     41  H   UNL     1     -20.446  56.950  29.048  1.00  0.00     0.211 HD
ENDBRANCH  32  40
ENDBRANCH   1  27
TORSDOF 12
ENDMDL
MODEL 8
REMARK VINA RESULT:    -6.907      1.705      6.185
REMARK INTER + INTRA:         -11.807
REMARK INTER:                 -10.295
REMARK INTRA:                  -1.512
REMARK UNBOUND:                -1.670
REMARK SMILES O=c1c(O[C@H]2O[C@@H](CO)[C@H](O)[C@H](O)[C@@H]2O)c(-c2ccc(O)c(O)c2)oc2cc(O)cc(O)c12
REMARK SMILES IDX 4 1 3 2 16 3 25 4 2 5 26 6 1 7 33 8 27 9 31 10 28 11 30 12
REMARK SMILES IDX 17 13 18 14 19 15 20 16 24 17 22 18 21 19 23 21 32 23 29 25
REMARK SMILES IDX 5 27 14 28 6 29 12 30 7 31 10 32 15 33 13 35 8 37 9 38 11 40
REMARK H PARENT 21 20 23 22 32 24 29 26 15 34 13 36 9 39 11 41
REMARK Flexibility Score: inf
ROOT
ATOM      1  O   UNL     1     -22.126  61.152  32.227  1.00  0.00    -0.454 OA
ENDROOT
BRANCH   1   2
ATOM      2  C   UNL     1     -21.668  60.381  33.295  1.00  0.00     0.214 A 
ATOM      3  C   UNL     1     -22.563  59.794  34.185  1.00  0.00     0.180 A 
ATOM      4  O   UNL     1     -22.134  58.895  35.050  1.00  0.00    -0.452 OA
ATOM      5  C   UNL     1     -20.307  60.034  33.383  1.00  0.00     0.239 A 
ATOM      6  C   UNL     1     -20.881  58.439  35.083  1.00  0.00     0.146 A 
ATOM      7  O   UNL     1     -19.511  60.582  32.593  1.00  0.00    -0.285 OA
ATOM      8  C   UNL     1     -19.887  59.005  34.259  1.00  0.00     0.111 A 
ATOM      9  C   UNL     1     -20.585  57.339  35.877  1.00  0.00     0.094 A 
ATOM     10  C   UNL     1     -18.566  58.475  34.275  1.00  0.00     0.134 A 
ATOM     11  C   UNL     1     -19.341  56.699  35.716  1.00  0.00     0.123 A 
ATOM     12  C   UNL     1     -18.309  57.295  34.988  1.00  0.00     0.093 A 
BRANCH   3  13
ATOM     13  C   UNL     1     -24.004  60.076  34.114  1.00  0.00     0.025 A 
ATOM     14  C   UNL     1     -24.615  60.966  35.014  1.00  0.00     0.016 A 
ATOM     15  C   UNL     1     -25.981  61.259  34.912  1.00  0.00     0.051 A 
ATOM     16  C   UNL     1     -26.753  60.659  33.907  1.00  0.00     0.157 A 
ATOM     17  C   UNL     1     -24.787  59.467  33.118  1.00  0.00     0.062 A 
ATOM     18  C   UNL     1     -26.163  59.751  33.028  1.00  0.00     0.158 A 
BRANCH  16  19
ATOM     19  O   UNL     1     -28.115  60.967  33.827  1.00  0.00    -0.504 OA
ATOM     20  H   UNL     1     -28.654  61.226  34.637  1.00  0.00     0.293 HD
ENDBRANCH  16  19
BRANCH  18  21
ATOM     21  O   UNL     1     -26.926  59.151  32.026  1.00  0.00    -0.504 OA
ATOM     22  H   UNL     1     -26.568  58.373  31.485  1.00  0.00     0.293 HD
ENDBRANCH  18  21
ENDBRANCH   3  13
BRANCH  10  23
ATOM     23  O   UNL     1     -17.538  59.085  33.560  1.00  0.00    -0.507 OA
ATOM     24  H   UNL     1     -16.744  58.551  33.238  1.00  0.00     0.293 HD
ENDBRANCH  10  23
BRANCH  11  25
ATOM     25  O   UNL     1     -19.210  55.357  36.090  1.00  0.00    -0.508 OA
ATOM     26  H   UNL     1     -19.737  55.048  36.917  1.00  0.00     0.293 HD
ENDBRANCH  11  25
ENDBRANCH   1   2
BRANCH   1  27
ATOM     27  C   UNL     1     -22.394  60.689  30.897  1.00  0.00     0.339 C 
ATOM     28  C   UNL     1     -21.322  61.250  29.909  1.00  0.00     0.214 C 
ATOM     29  O   UNL     1     -23.705  61.015  30.485  1.00  0.00    -0.332 OA
ATOM     30  C   UNL     1     -21.964  61.669  28.558  1.00  0.00     0.180 C 
ATOM     31  C   UNL     1     -23.998  60.286  29.299  1.00  0.00     0.179 C 
ATOM     32  C   UNL     1     -23.046  60.655  28.118  1.00  0.00     0.177 C 
BRANCH  28  33
ATOM     33  O   UNL     1     -20.271  60.334  29.695  1.00  0.00    -0.384 OA
ATOM     34  H   UNL     1     -20.155  60.252  28.714  1.00  0.00     0.211 HD
ENDBRANCH  28  33
BRANCH  30  35
ATOM     35  O   UNL     1     -20.976  61.809  27.576  1.00  0.00    -0.387 OA
ATOM     36  H   UNL     1     -20.649  60.904  27.356  1.00  0.00     0.211 HD
ENDBRANCH  30  35
BRANCH  31  37
ATOM     37  C   UNL     1     -25.463  60.548  28.924  1.00  0.00     0.191 C 
BRANCH  37  38
ATOM     38  O   UNL     1     -26.143  61.208  29.954  1.00  0.00    -0.394 OA
ATOM     39  H   UNL     1     -25.899  62.166  29.865  1.00  0.00     0.210 HD
ENDBRANCH  37  38
ENDBRANCH  31  37
BRANCH  32  40
ATOM     40  O   UNL     1     -22.442  59.479  27.639  1.00  0.00    -0.387 OA
ATOM     41  H   UNL     1     -23.116  58.931  27.181  1.00  0.00     0.211 HD
ENDBRANCH  32  40
ENDBRANCH   1  27
TORSDOF 12
ENDMDL
