MODEL 1
REMARK VINA RESULT:    -6.017      0.000      0.000
REMARK INTER + INTRA:         -14.211
REMARK INTER:                 -11.645
REMARK INTRA:                  -2.566
REMARK UNBOUND:                -2.566
REMARK SMILES CCCCCCCCCCCCCCCCCC(=O)[O-]
REMARK SMILES IDX 10 1 11 2 12 3 13 4 14 5 15 6 16 7 17 8 18 9 19 10 20 11
REMARK SMILES IDX 9 12 8 13 7 14 6 15 5 16 4 17 3 18 2 19 1 20
REMARK H PARENT
REMARK Flexibility Score: inf
ROOT
ATOM      1  C   UNL     1      16.328   0.224  16.535  1.00  0.00     0.000 C 
ENDROOT
BRANCH   1   2
ATOM      2  C   UNL     1      15.813   1.616  16.947  1.00  0.00     0.000 C 
BRANCH   2   3
ATOM      3  C   UNL     1      14.284   1.785  16.891  1.00  0.00     0.000 C 
BRANCH   3   4
ATOM      4  C   UNL     1      13.660   2.030  18.275  1.00  0.00     0.000 C 
BRANCH   4   5
ATOM      5  C   UNL     1      14.049   0.954  19.300  1.00  0.00     0.000 C 
BRANCH   5   6
ATOM      6  C   UNL     1      13.409  -0.410  19.000  1.00  0.00     0.000 C 
BRANCH   6   7
ATOM      7  C   UNL     1      14.032  -1.511  19.867  1.00  0.00     0.006 C 
BRANCH   7   8
ATOM      8  C   UNL     1      15.512  -1.709  19.527  1.00  0.00     0.053 C 
BRANCH   8   9
ATOM      9  C   UNL     1      15.680  -2.833  18.555  1.00  0.00     0.041 C 
ATOM     10  O   UNL     1      16.829  -3.271  18.285  1.00  0.00    -0.550 OA
ATOM     11  O   UNL     1      14.571  -3.371  17.915  1.00  0.00    -0.550 OA
ENDBRANCH   8   9
ENDBRANCH   7   8
ENDBRANCH   6   7
ENDBRANCH   5   6
ENDBRANCH   4   5
ENDBRANCH   3   4
ENDBRANCH   2   3
ENDBRANCH   1   2
BRANCH   1  12
ATOM     12  C   UNL     1      15.322  -0.636  15.749  1.00  0.00     0.000 C 
BRANCH  12  13
ATOM     13  C   UNL     1      16.001  -1.728  14.905  1.00  0.00    -0.000 C 
BRANCH  13  14
ATOM     14  C   UNL     1      17.538  -1.699  15.047  1.00  0.00    -0.000 C 
BRANCH  14  15
ATOM     15  C   UNL     1      18.279  -1.592  13.703  1.00  0.00    -0.000 C 
BRANCH  15  16
ATOM     16  C   UNL     1      17.326  -1.489  12.502  1.00  0.00    -0.000 C 
BRANCH  16  17
ATOM     17  C   UNL     1      17.746  -0.402  11.496  1.00  0.00    -0.000 C 
BRANCH  17  18
ATOM     18  C   UNL     1      16.745   0.759  11.324  1.00  0.00    -0.000 C 
BRANCH  18  19
ATOM     19  C   UNL     1      15.430   0.607  12.108  1.00  0.00    -0.003 C 
ATOM     20  C   UNL     1      15.140   1.800  13.018  1.00  0.00     0.004 C 
ENDBRANCH  18  19
ENDBRANCH  17  18
ENDBRANCH  16  17
ENDBRANCH  15  16
ENDBRANCH  14  15
ENDBRANCH  13  14
ENDBRANCH  12  13
ENDBRANCH   1  12
TORSDOF 16
ENDMDL
MODEL 2
REMARK VINA RESULT:    -5.892      1.447      4.971
REMARK INTER + INTRA:         -13.970
REMARK INTER:                 -11.987
REMARK INTRA:                  -1.983
REMARK UNBOUND:                -2.566
REMARK SMILES CCCCCCCCCCCCCCCCCC(=O)[O-]
REMARK SMILES IDX 10 1 11 2 12 3 13 4 14 5 15 6 16 7 17 8 18 9 19 10 20 11
REMARK SMILES IDX 9 12 8 13 7 14 6 15 5 16 4 17 3 18 2 19 1 20
REMARK H PARENT
REMARK Flexibility Score: inf
ROOT
ATOM      1  C   UNL     1      17.503  -0.743  11.790  1.00  0.00     0.000 C 
ENDROOT
BRANCH   1   2
ATOM      2  C   UNL     1      17.121  -1.235  13.200  1.00  0.00     0.000 C 
BRANCH   2   3
ATOM      3  C   UNL     1      18.297  -1.749  14.049  1.00  0.00     0.000 C 
BRANCH   3   4
ATOM      4  C   UNL     1      18.044  -1.617  15.560  1.00  0.00     0.000 C 
BRANCH   4   5
ATOM      5  C   UNL     1      18.547  -2.832  16.354  1.00  0.00     0.000 C 
BRANCH   5   6
ATOM      6  C   UNL     1      17.403  -3.658  16.962  1.00  0.00     0.000 C 
BRANCH   6   7
ATOM      7  C   UNL     1      16.138  -2.807  17.124  1.00  0.00     0.006 C 
BRANCH   7   8
ATOM      8  C   UNL     1      15.597  -2.891  18.554  1.00  0.00     0.053 C 
BRANCH   8   9
ATOM      9  C   UNL     1      15.924  -1.644  19.311  1.00  0.00     0.041 C 
ATOM     10  O   UNL     1      15.240  -1.314  20.316  1.00  0.00    -0.550 OA
ATOM     11  O   UNL     1      16.960  -0.822  18.884  1.00  0.00    -0.550 OA
ENDBRANCH   8   9
ENDBRANCH   7   8
ENDBRANCH   6   7
ENDBRANCH   5   6
ENDBRANCH   4   5
ENDBRANCH   3   4
ENDBRANCH   2   3
ENDBRANCH   1   2
BRANCH   1  12
ATOM     12  C   UNL     1      16.921   0.628  11.400  1.00  0.00     0.000 C 
BRANCH  12  13
ATOM     13  C   UNL     1      15.420   0.750  11.714  1.00  0.00    -0.000 C 
BRANCH  13  14
ATOM     14  C   UNL     1      15.134   1.845  12.764  1.00  0.00    -0.000 C 
BRANCH  14  15
ATOM     15  C   UNL     1      14.360   1.334  13.991  1.00  0.00    -0.000 C 
BRANCH  15  16
ATOM     16  C   UNL     1      15.216   1.303  15.267  1.00  0.00    -0.000 C 
BRANCH  16  17
ATOM     17  C   UNL     1      14.830   0.158  16.220  1.00  0.00    -0.000 C 
BRANCH  17  18
ATOM     18  C   UNL     1      13.527   0.373  17.017  1.00  0.00    -0.000 C 
BRANCH  18  19
ATOM     19  C   UNL     1      13.652   1.317  18.226  1.00  0.00    -0.003 C 
ATOM     20  C   UNL     1      12.876   2.620  18.045  1.00  0.00     0.004 C 
ENDBRANCH  18  19
ENDBRANCH  17  18
ENDBRANCH  16  17
ENDBRANCH  15  16
ENDBRANCH  14  15
ENDBRANCH  13  14
ENDBRANCH  12  13
ENDBRANCH   1  12
TORSDOF 16
ENDMDL
MODEL 3
REMARK VINA RESULT:    -5.892      1.766      4.181
REMARK INTER + INTRA:         -13.970
REMARK INTER:                 -11.928
REMARK INTRA:                  -2.042
REMARK UNBOUND:                -2.566
REMARK SMILES CCCCCCCCCCCCCCCCCC(=O)[O-]
REMARK SMILES IDX 10 1 11 2 12 3 13 4 14 5 15 6 16 7 17 8 18 9 19 10 20 11
REMARK SMILES IDX 9 12 8 13 7 14 6 15 5 16 4 17 3 18 2 19 1 20
REMARK H PARENT
REMARK Flexibility Score: inf
ROOT
ATOM      1  C   UNL     1      14.504   1.185  18.585  1.00  0.00     0.000 C 
ENDROOT
BRANCH   1   2
ATOM      2  C   UNL     1      14.337   0.527  19.968  1.00  0.00     0.000 C 
BRANCH   2   3
ATOM      3  C   UNL     1      15.167  -0.751  20.183  1.00  0.00     0.000 C 
BRANCH   3   4
ATOM      4  C   UNL     1      16.087  -1.072  18.994  1.00  0.00     0.000 C 
BRANCH   4   5
ATOM      5  C   UNL     1      16.068  -2.560  18.614  1.00  0.00     0.000 C 
BRANCH   5   6
ATOM      6  C   UNL     1      15.711  -2.791  17.138  1.00  0.00     0.000 C 
BRANCH   6   7
ATOM      7  C   UNL     1      15.835  -1.492  16.333  1.00  0.00     0.006 C 
BRANCH   7   8
ATOM      8  C   UNL     1      16.423  -1.758  14.944  1.00  0.00     0.053 C 
BRANCH   8   9
ATOM      9  C   UNL     1      17.880  -1.421  14.919  1.00  0.00     0.041 C 
ATOM     10  O   UNL     1      18.547  -1.571  13.862  1.00  0.00    -0.550 OA
ATOM     11  O   UNL     1      18.512  -0.981  16.075  1.00  0.00    -0.550 OA
ENDBRANCH   8   9
ENDBRANCH   7   8
ENDBRANCH   6   7
ENDBRANCH   5   6
ENDBRANCH   4   5
ENDBRANCH   3   4
ENDBRANCH   2   3
ENDBRANCH   1   2
BRANCH   1  12
ATOM     12  C   UNL     1      13.482   2.290  18.263  1.00  0.00     0.000 C 
BRANCH  12  13
ATOM     13  C   UNL     1      13.014   2.261  16.798  1.00  0.00    -0.000 C 
BRANCH  13  14
ATOM     14  C   UNL     1      13.224   0.876  16.149  1.00  0.00    -0.000 C 
BRANCH  14  15
ATOM     15  C   UNL     1      13.571   0.943  14.652  1.00  0.00    -0.000 C 
BRANCH  15  16
ATOM     16  C   UNL     1      14.942   1.583  14.384  1.00  0.00    -0.000 C 
BRANCH  16  17
ATOM     17  C   UNL     1      15.168   1.917  12.899  1.00  0.00    -0.000 C 
BRANCH  17  18
ATOM     18  C   UNL     1      15.454   0.707  11.987  1.00  0.00    -0.000 C 
BRANCH  18  19
ATOM     19  C   UNL     1      16.878   0.651  11.406  1.00  0.00    -0.003 C 
ATOM     20  C   UNL     1      17.181  -0.670  10.701  1.00  0.00     0.004 C 
ENDBRANCH  18  19
ENDBRANCH  17  18
ENDBRANCH  16  17
ENDBRANCH  15  16
ENDBRANCH  14  15
ENDBRANCH  13  14
ENDBRANCH  12  13
ENDBRANCH   1  12
TORSDOF 16
ENDMDL
MODEL 4
REMARK VINA RESULT:    -5.848      1.765      5.894
REMARK INTER + INTRA:         -13.884
REMARK INTER:                 -11.044
REMARK INTRA:                  -2.840
REMARK UNBOUND:                -2.566
REMARK SMILES CCCCCCCCCCCCCCCCCC(=O)[O-]
REMARK SMILES IDX 10 1 11 2 12 3 13 4 14 5 15 6 16 7 17 8 18 9 19 10 20 11
REMARK SMILES IDX 9 12 8 13 7 14 6 15 5 16 4 17 3 18 2 19 1 20
REMARK H PARENT
REMARK Flexibility Score: inf
ROOT
ATOM      1  C   UNL     1      15.097  -0.382  14.932  1.00  0.00     0.000 C 
ENDROOT
BRANCH   1   2
ATOM      2  C   UNL     1      14.362   0.685  14.097  1.00  0.00     0.000 C 
BRANCH   2   3
ATOM      3  C   UNL     1      15.274   1.590  13.251  1.00  0.00     0.000 C 
BRANCH   3   4
ATOM      4  C   UNL     1      15.403   1.114  11.795  1.00  0.00     0.000 C 
BRANCH   4   5
ATOM      5  C   UNL     1      16.834   0.688  11.434  1.00  0.00     0.000 C 
BRANCH   5   6
ATOM      6  C   UNL     1      17.116  -0.785  11.766  1.00  0.00     0.000 C 
BRANCH   6   7
ATOM      7  C   UNL     1      18.161  -0.905  12.882  1.00  0.00     0.006 C 
BRANCH   7   8
ATOM      8  C   UNL     1      18.078  -2.272  13.568  1.00  0.00     0.053 C 
BRANCH   8   9
ATOM      9  C   UNL     1      19.007  -2.326  14.739  1.00  0.00     0.041 C 
ATOM     10  O   UNL     1      19.536  -1.272  15.179  1.00  0.00    -0.550 OA
ATOM     11  O   UNL     1      19.323  -3.548  15.320  1.00  0.00    -0.550 OA
ENDBRANCH   8   9
ENDBRANCH   7   8
ENDBRANCH   6   7
ENDBRANCH   5   6
ENDBRANCH   4   5
ENDBRANCH   3   4
ENDBRANCH   2   3
ENDBRANCH   1   2
BRANCH   1  12
ATOM     12  C   UNL     1      16.188   0.165  15.870  1.00  0.00     0.000 C 
BRANCH  12  13
ATOM     13  C   UNL     1      16.559  -0.821  16.991  1.00  0.00    -0.000 C 
BRANCH  13  14
ATOM     14  C   UNL     1      15.890  -2.198  16.797  1.00  0.00    -0.000 C 
BRANCH  14  15
ATOM     15  C   UNL     1      15.298  -2.782  18.092  1.00  0.00    -0.000 C 
BRANCH  15  16
ATOM     16  C   UNL     1      14.905  -1.701  19.111  1.00  0.00    -0.000 C 
BRANCH  16  17
ATOM     17  C   UNL     1      13.433  -1.269  18.988  1.00  0.00    -0.000 C 
BRANCH  17  18
ATOM     18  C   UNL     1      13.189   0.015  18.169  1.00  0.00    -0.000 C 
BRANCH  18  19
ATOM     19  C   UNL     1      13.908   1.269  18.694  1.00  0.00    -0.003 C 
ATOM     20  C   UNL     1      13.796   2.460  17.744  1.00  0.00     0.004 C 
ENDBRANCH  18  19
ENDBRANCH  17  18
ENDBRANCH  16  17
ENDBRANCH  15  16
ENDBRANCH  14  15
ENDBRANCH  13  14
ENDBRANCH  12  13
ENDBRANCH   1  12
TORSDOF 16
ENDMDL
MODEL 5
REMARK VINA RESULT:    -5.827      1.723      6.283
REMARK INTER + INTRA:         -13.844
REMARK INTER:                 -11.920
REMARK INTRA:                  -1.924
REMARK UNBOUND:                -2.566
REMARK SMILES CCCCCCCCCCCCCCCCCC(=O)[O-]
REMARK SMILES IDX 10 1 11 2 12 3 13 4 14 5 15 6 16 7 17 8 18 9 19 10 20 11
REMARK SMILES IDX 9 12 8 13 7 14 6 15 5 16 4 17 3 18 2 19 1 20
REMARK H PARENT
REMARK Flexibility Score: inf
ROOT
ATOM      1  C   UNL     1      15.298   0.934  15.402  1.00  0.00     0.000 C 
ENDROOT
BRANCH   1   2
ATOM      2  C   UNL     1      14.417   1.008  14.140  1.00  0.00     0.000 C 
BRANCH   2   3
ATOM      3  C   UNL     1      15.099   1.628  12.907  1.00  0.00     0.000 C 
BRANCH   3   4
ATOM      4  C   UNL     1      15.421   0.590  11.819  1.00  0.00     0.000 C 
BRANCH   4   5
ATOM      5  C   UNL     1      16.908   0.575  11.434  1.00  0.00     0.000 C 
BRANCH   5   6
ATOM      6  C   UNL     1      17.588  -0.766  11.749  1.00  0.00     0.000 C 
BRANCH   6   7
ATOM      7  C   UNL     1      17.398  -1.146  13.222  1.00  0.00     0.006 C 
BRANCH   7   8
ATOM      8  C   UNL     1      18.464  -2.147  13.674  1.00  0.00     0.053 C 
BRANCH   8   9
ATOM      9  C   UNL     1      18.936  -1.822  15.056  1.00  0.00     0.041 C 
ATOM     10  O   UNL     1      19.928  -2.424  15.546  1.00  0.00    -0.550 OA
ATOM     11  O   UNL     1      18.256  -0.882  15.820  1.00  0.00    -0.550 OA
ENDBRANCH   8   9
ENDBRANCH   7   8
ENDBRANCH   6   7
ENDBRANCH   5   6
ENDBRANCH   4   5
ENDBRANCH   3   4
ENDBRANCH   2   3
ENDBRANCH   1   2
BRANCH   1  12
ATOM     12  C   UNL     1      14.975   1.981  16.483  1.00  0.00     0.000 C 
BRANCH  12  13
ATOM     13  C   UNL     1      13.482   2.013  16.855  1.00  0.00    -0.000 C 
BRANCH  13  14
ATOM     14  C   UNL     1      13.215   1.373  18.234  1.00  0.00    -0.000 C 
BRANCH  14  15
ATOM     15  C   UNL     1      13.256  -0.164  18.218  1.00  0.00    -0.000 C 
BRANCH  15  16
ATOM     16  C   UNL     1      13.792  -0.761  19.529  1.00  0.00    -0.000 C 
BRANCH  16  17
ATOM     17  C   UNL     1      15.266  -0.402  19.791  1.00  0.00    -0.000 C 
BRANCH  17  18
ATOM     18  C   UNL     1      16.284  -1.046  18.828  1.00  0.00    -0.000 C 
BRANCH  18  19
ATOM     19  C   UNL     1      16.125  -2.564  18.633  1.00  0.00    -0.003 C 
ATOM     20  C   UNL     1      15.751  -2.943  17.200  1.00  0.00     0.004 C 
ENDBRANCH  18  19
ENDBRANCH  17  18
ENDBRANCH  16  17
ENDBRANCH  15  16
ENDBRANCH  14  15
ENDBRANCH  13  14
ENDBRANCH  12  13
ENDBRANCH   1  12
TORSDOF 16
ENDMDL
MODEL 6
REMARK VINA RESULT:    -5.789      2.115      6.678
REMARK INTER + INTRA:         -13.769
REMARK INTER:                 -11.589
REMARK INTRA:                  -2.180
REMARK UNBOUND:                -2.566
REMARK SMILES CCCCCCCCCCCCCCCCCC(=O)[O-]
REMARK SMILES IDX 10 1 11 2 12 3 13 4 14 5 15 6 16 7 17 8 18 9 19 10 20 11
REMARK SMILES IDX 9 12 8 13 7 14 6 15 5 16 4 17 3 18 2 19 1 20
REMARK H PARENT
REMARK Flexibility Score: inf
ROOT
ATOM      1  C   UNL     1      16.663  -1.127  16.030  1.00  0.00     0.000 C 
ENDROOT
BRANCH   1   2
ATOM      2  C   UNL     1      17.681  -1.611  14.979  1.00  0.00     0.000 C 
BRANCH   2   3
ATOM      3  C   UNL     1      17.132  -1.719  13.545  1.00  0.00     0.000 C 
BRANCH   3   4
ATOM      4  C   UNL     1      18.049  -1.056  12.504  1.00  0.00     0.000 C 
BRANCH   4   5
ATOM      5  C   UNL     1      17.328  -0.760  11.180  1.00  0.00     0.000 C 
BRANCH   5   6
ATOM      6  C   UNL     1      16.888   0.707  11.059  1.00  0.00     0.000 C 
BRANCH   6   7
ATOM      7  C   UNL     1      15.415   0.873  11.453  1.00  0.00     0.006 C 
BRANCH   7   8
ATOM      8  C   UNL     1      15.263   1.869  12.606  1.00  0.00     0.053 C 
BRANCH   8   9
ATOM      9  C   UNL     1      14.755   1.177  13.831  1.00  0.00     0.041 C 
ATOM     10  O   UNL     1      14.124   0.092  13.731  1.00  0.00    -0.550 OA
ATOM     11  O   UNL     1      14.943   1.751  15.082  1.00  0.00    -0.550 OA
ENDBRANCH   8   9
ENDBRANCH   7   8
ENDBRANCH   6   7
ENDBRANCH   5   6
ENDBRANCH   4   5
ENDBRANCH   3   4
ENDBRANCH   2   3
ENDBRANCH   1   2
BRANCH   1  12
ATOM     12  C   UNL     1      17.214  -0.116  17.051  1.00  0.00     0.000 C 
BRANCH  12  13
ATOM     13  C   UNL     1      17.091  -0.608  18.504  1.00  0.00    -0.000 C 
BRANCH  13  14
ATOM     14  C   UNL     1      16.814  -2.125  18.580  1.00  0.00    -0.000 C 
BRANCH  14  15
ATOM     15  C   UNL     1      15.551  -2.480  19.383  1.00  0.00    -0.000 C 
BRANCH  15  16
ATOM     16  C   UNL     1      15.115  -1.358  20.338  1.00  0.00    -0.000 C 
BRANCH  16  17
ATOM     17  C   UNL     1      13.666  -0.898  20.099  1.00  0.00    -0.000 C 
BRANCH  17  18
ATOM     18  C   UNL     1      13.145  -1.081  18.658  1.00  0.00    -0.000 C 
BRANCH  18  19
ATOM     19  C   UNL     1      13.372   0.123  17.726  1.00  0.00    -0.003 C 
ATOM     20  C   UNL     1      13.680   1.413  18.486  1.00  0.00     0.004 C 
ENDBRANCH  18  19
ENDBRANCH  17  18
ENDBRANCH  16  17
ENDBRANCH  15  16
ENDBRANCH  14  15
ENDBRANCH  13  14
ENDBRANCH  12  13
ENDBRANCH   1  12
TORSDOF 16
ENDMDL
MODEL 7
REMARK VINA RESULT:    -5.759      1.216      2.577
REMARK INTER + INTRA:         -13.713
REMARK INTER:                 -11.247
REMARK INTRA:                  -2.466
REMARK UNBOUND:                -2.566
REMARK SMILES CCCCCCCCCCCCCCCCCC(=O)[O-]
REMARK SMILES IDX 10 1 11 2 12 3 13 4 14 5 15 6 16 7 17 8 18 9 19 10 20 11
REMARK SMILES IDX 9 12 8 13 7 14 6 15 5 16 4 17 3 18 2 19 1 20
REMARK H PARENT
REMARK Flexibility Score: inf
ROOT
ATOM      1  C   UNL     1      15.450   1.639  17.104  1.00  0.00     0.000 C 
ENDROOT
BRANCH   1   2
ATOM      2  C   UNL     1      14.048   2.210  17.392  1.00  0.00     0.000 C 
BRANCH   2   3
ATOM      3  C   UNL     1      13.258   1.469  18.486  1.00  0.00     0.000 C 
BRANCH   3   4
ATOM      4  C   UNL     1      14.167   0.816  19.541  1.00  0.00     0.000 C 
BRANCH   4   5
ATOM      5  C   UNL     1      13.929  -0.695  19.677  1.00  0.00     0.000 C 
BRANCH   5   6
ATOM      6  C   UNL     1      13.480  -1.346  18.359  1.00  0.00     0.000 C 
BRANCH   6   7
ATOM      7  C   UNL     1      14.205  -2.678  18.130  1.00  0.00     0.006 C 
BRANCH   7   8
ATOM      8  C   UNL     1      15.298  -2.534  17.068  1.00  0.00     0.053 C 
BRANCH   8   9
ATOM      9  C   UNL     1      16.649  -2.742  17.675  1.00  0.00     0.041 C 
ATOM     10  O   UNL     1      17.122  -1.893  18.476  1.00  0.00    -0.550 OA
ATOM     11  O   UNL     1      17.405  -3.853  17.325  1.00  0.00    -0.550 OA
ENDBRANCH   8   9
ENDBRANCH   7   8
ENDBRANCH   6   7
ENDBRANCH   5   6
ENDBRANCH   4   5
ENDBRANCH   3   4
ENDBRANCH   2   3
ENDBRANCH   1   2
BRANCH   1  12
ATOM     12  C   UNL     1      15.589   0.902  15.760  1.00  0.00     0.000 C 
BRANCH  12  13
ATOM     13  C   UNL     1      14.230   0.587  15.110  1.00  0.00    -0.000 C 
BRANCH  13  14
ATOM     14  C   UNL     1      14.364   0.292  13.600  1.00  0.00    -0.000 C 
BRANCH  14  15
ATOM     15  C   UNL     1      15.223   1.322  12.846  1.00  0.00    -0.000 C 
BRANCH  15  16
ATOM     16  C   UNL     1      15.524   0.902  11.399  1.00  0.00    -0.000 C 
BRANCH  16  17
ATOM     17  C   UNL     1      16.987   0.469  11.193  1.00  0.00    -0.000 C 
BRANCH  17  18
ATOM     18  C   UNL     1      17.321  -0.964  11.654  1.00  0.00    -0.000 C 
BRANCH  18  19
ATOM     19  C   UNL     1      18.144  -1.056  12.951  1.00  0.00    -0.003 C 
ATOM     20  C   UNL     1      17.442  -1.859  14.045  1.00  0.00     0.004 C 
ENDBRANCH  18  19
ENDBRANCH  17  18
ENDBRANCH  16  17
ENDBRANCH  15  16
ENDBRANCH  14  15
ENDBRANCH  13  14
ENDBRANCH  12  13
ENDBRANCH   1  12
TORSDOF 16
ENDMDL
MODEL 8
REMARK VINA RESULT:    -5.754      2.151      3.272
REMARK INTER + INTRA:         -13.702
REMARK INTER:                 -11.659
REMARK INTRA:                  -2.043
REMARK UNBOUND:                -2.566
REMARK SMILES CCCCCCCCCCCCCCCCCC(=O)[O-]
REMARK SMILES IDX 10 1 11 2 12 3 13 4 14 5 15 6 16 7 17 8 18 9 19 10 20 11
REMARK SMILES IDX 9 12 8 13 7 14 6 15 5 16 4 17 3 18 2 19 1 20
REMARK H PARENT
REMARK Flexibility Score: inf
ROOT
ATOM      1  C   UNL     1      16.363  -2.945  16.555  1.00  0.00     0.000 C 
ENDROOT
BRANCH   1   2
ATOM      2  C   UNL     1      17.372  -2.709  17.696  1.00  0.00     0.000 C 
BRANCH   2   3
ATOM      3  C   UNL     1      16.929  -1.679  18.751  1.00  0.00     0.000 C 
BRANCH   3   4
ATOM      4  C   UNL     1      15.570  -2.021  19.384  1.00  0.00     0.000 C 
BRANCH   4   5
ATOM      5  C   UNL     1      15.099  -0.957  20.388  1.00  0.00     0.000 C 
BRANCH   5   6
ATOM      6  C   UNL     1      14.175   0.092  19.751  1.00  0.00     0.000 C 
BRANCH   6   7
ATOM      7  C   UNL     1      13.826  -0.289  18.307  1.00  0.00     0.006 C 
BRANCH   7   8
ATOM      8  C   UNL     1      13.311   0.924  17.527  1.00  0.00     0.053 C 
BRANCH   8   9
ATOM      9  C   UNL     1      14.395   1.942  17.366  1.00  0.00     0.041 C 
ATOM     10  O   UNL     1      15.536   1.595  16.962  1.00  0.00    -0.550 OA
ATOM     11  O   UNL     1      14.159   3.269  17.702  1.00  0.00    -0.550 OA
ENDBRANCH   8   9
ENDBRANCH   7   8
ENDBRANCH   6   7
ENDBRANCH   5   6
ENDBRANCH   4   5
ENDBRANCH   3   4
ENDBRANCH   2   3
ENDBRANCH   1   2
BRANCH   1  12
ATOM     12  C   UNL     1      16.110  -1.728  15.648  1.00  0.00     0.000 C 
BRANCH  12  13
ATOM     13  C   UNL     1      17.408  -1.005  15.244  1.00  0.00    -0.000 C 
BRANCH  13  14
ATOM     14  C   UNL     1      18.210  -1.801  14.193  1.00  0.00    -0.000 C 
BRANCH  14  15
ATOM     15  C   UNL     1      17.587  -1.766  12.787  1.00  0.00    -0.000 C 
BRANCH  15  16
ATOM     16  C   UNL     1      17.758  -0.407  12.091  1.00  0.00    -0.000 C 
BRANCH  16  17
ATOM     17  C   UNL     1      16.720  -0.168  10.979  1.00  0.00    -0.000 C 
BRANCH  17  18
ATOM     18  C   UNL     1      15.494   0.671  11.391  1.00  0.00    -0.000 C 
BRANCH  18  19
ATOM     19  C   UNL     1      15.582   1.309  12.789  1.00  0.00    -0.003 C 
ATOM     20  C   UNL     1      14.448   0.869  13.715  1.00  0.00     0.004 C 
ENDBRANCH  18  19
ENDBRANCH  17  18
ENDBRANCH  16  17
ENDBRANCH  15  16
ENDBRANCH  14  15
ENDBRANCH  13  14
ENDBRANCH  12  13
ENDBRANCH   1  12
TORSDOF 16
ENDMDL
MODEL 9
REMARK VINA RESULT:    -5.698      2.597      5.742
REMARK INTER + INTRA:         -13.593
REMARK INTER:                 -11.568
REMARK INTRA:                  -2.026
REMARK UNBOUND:                -2.566
REMARK SMILES CCCCCCCCCCCCCCCCCC(=O)[O-]
REMARK SMILES IDX 10 1 11 2 12 3 13 4 14 5 15 6 16 7 17 8 18 9 19 10 20 11
REMARK SMILES IDX 9 12 8 13 7 14 6 15 5 16 4 17 3 18 2 19 1 20
REMARK H PARENT
REMARK Flexibility Score: inf
ROOT
ATOM      1  C   UNL     1      13.963   0.698  18.462  1.00  0.00     0.000 C 
ENDROOT
BRANCH   1   2
ATOM      2  C   UNL     1      13.526   2.168  18.311  1.00  0.00     0.000 C 
BRANCH   2   3
ATOM      3  C   UNL     1      12.875   2.517  16.961  1.00  0.00     0.000 C 
BRANCH   3   4
ATOM      4  C   UNL     1      13.108   1.438  15.890  1.00  0.00     0.000 C 
BRANCH   4   5
ATOM      5  C   UNL     1      14.330   1.732  15.006  1.00  0.00     0.000 C 
BRANCH   5   6
ATOM      6  C   UNL     1      14.389   0.838  13.759  1.00  0.00     0.000 C 
BRANCH   6   7
ATOM      7  C   UNL     1      15.353   1.415  12.715  1.00  0.00     0.006 C 
BRANCH   7   8
ATOM      8  C   UNL     1      15.443   0.505  11.487  1.00  0.00     0.053 C 
BRANCH   8   9
ATOM      9  C   UNL     1      16.725  -0.265  11.498  1.00  0.00     0.041 C 
ATOM     10  O   UNL     1      17.441  -0.320  10.464  1.00  0.00    -0.550 OA
ATOM     11  O   UNL     1      17.110  -0.959  12.639  1.00  0.00    -0.550 OA
ENDBRANCH   8   9
ENDBRANCH   7   8
ENDBRANCH   6   7
ENDBRANCH   5   6
ENDBRANCH   4   5
ENDBRANCH   3   4
ENDBRANCH   2   3
ENDBRANCH   1   2
BRANCH   1  12
ATOM     12  C   UNL     1      14.349   0.278  19.891  1.00  0.00     0.000 C 
BRANCH  12  13
ATOM     13  C   UNL     1      14.265  -1.242  20.109  1.00  0.00    -0.000 C 
BRANCH  13  14
ATOM     14  C   UNL     1      13.326  -1.923  19.090  1.00  0.00    -0.000 C 
BRANCH  14  15
ATOM     15  C   UNL     1      14.047  -2.899  18.145  1.00  0.00    -0.000 C 
BRANCH  15  16
ATOM     16  C   UNL     1      15.572  -2.900  18.337  1.00  0.00    -0.000 C 
BRANCH  16  17
ATOM     17  C   UNL     1      16.342  -2.762  17.011  1.00  0.00    -0.000 C 
BRANCH  17  18
ATOM     18  C   UNL     1      16.029  -1.491  16.195  1.00  0.00    -0.000 C 
BRANCH  18  19
ATOM     19  C   UNL     1      16.950  -0.292  16.480  1.00  0.00    -0.003 C 
ATOM     20  C   UNL     1      17.714  -0.429  17.796  1.00  0.00     0.004 C 
ENDBRANCH  18  19
ENDBRANCH  17  18
ENDBRANCH  16  17
ENDBRANCH  15  16
ENDBRANCH  14  15
ENDBRANCH  13  14
ENDBRANCH  12  13
ENDBRANCH   1  12
TORSDOF 16
ENDMDL
