MODEL 1
REMARK VINA RESULT:    -8.774      0.000      0.000
REMARK INTER + INTRA:         -10.884
REMARK INTER:                 -10.569
REMARK INTRA:                  -0.315
REMARK UNBOUND:                -0.315
REMARK SMILES O=c1c(O)c(-c2ccc(O)c(O)c2)oc2cc(O)cc(O)c12
REMARK SMILES IDX 5 1 3 2 2 3 1 4 22 5 20 6 19 7 17 8 16 9 15 10 14 11 6 12
REMARK SMILES IDX 7 13 8 14 9 15 13 16 11 17 10 18 12 20 4 22 21 24 18 26
REMARK H PARENT 10 19 12 21 4 23 21 25 18 27
REMARK Flexibility Score: inf
ROOT
ATOM      1  C   UNL     1     126.337 135.052 110.149  1.00  0.00     0.180 A 
ATOM      2  C   UNL     1     126.602 136.261 109.485  1.00  0.00     0.208 A 
ATOM      3  C   UNL     1     127.340 136.234 108.291  1.00  0.00     0.238 A 
ATOM      4  O   UNL     1     127.528 137.314 107.672  1.00  0.00    -0.285 OA
ATOM      5  C   UNL     1     127.817 135.002 107.784  1.00  0.00     0.111 A 
ATOM      6  C   UNL     1     128.608 134.862 106.604  1.00  0.00     0.134 A 
ATOM      7  C   UNL     1     128.914 133.581 106.125  1.00  0.00     0.093 A 
ATOM      8  C   UNL     1     128.514 132.439 106.817  1.00  0.00     0.123 A 
ATOM      9  C   UNL     1     127.790 132.566 108.004  1.00  0.00     0.094 A 
ATOM     10  C   UNL     1     127.439 133.828 108.487  1.00  0.00     0.146 A 
ATOM     11  O   UNL     1     126.742 133.905 109.615  1.00  0.00    -0.452 OA
ENDROOT
BRANCH   1  12
ATOM     12  C   UNL     1     125.589 135.001 111.426  1.00  0.00     0.025 A 
ATOM     13  C   UNL     1     124.184 134.971 111.450  1.00  0.00     0.016 A 
ATOM     14  C   UNL     1     123.497 134.947 112.666  1.00  0.00     0.051 A 
ATOM     15  C   UNL     1     124.204 134.967 113.876  1.00  0.00     0.157 A 
ATOM     16  C   UNL     1     126.291 135.042 112.641  1.00  0.00     0.062 A 
ATOM     17  C   UNL     1     125.603 135.017 113.864  1.00  0.00     0.158 A 
BRANCH  15  18
ATOM     18  O   UNL     1     123.524 134.941 115.092  1.00  0.00    -0.504 OA
ATOM     19  H   UNL     1     122.692 135.501 115.245  1.00  0.00     0.293 HD
ENDBRANCH  15  18
BRANCH  17  20
ATOM     20  O   UNL     1     126.304 135.044 115.068  1.00  0.00    -0.504 OA
ATOM     21  H   UNL     1     126.998 135.757 115.263  1.00  0.00     0.293 HD
ENDBRANCH  17  20
ENDBRANCH   1  12
BRANCH   2  22
ATOM     22  O   UNL     1     126.104 137.464 109.991  1.00  0.00    -0.502 OA
ATOM     23  H   UNL     1     125.918 138.267 109.402  1.00  0.00     0.293 HD
ENDBRANCH   2  22
BRANCH   6  24
ATOM     24  O   UNL     1     129.138 135.939 105.888  1.00  0.00    -0.507 OA
ATOM     25  H   UNL     1     128.736 136.863 105.858  1.00  0.00     0.293 HD
ENDBRANCH   6  24
BRANCH   8  26
ATOM     26  O   UNL     1     128.849 131.182 106.320  1.00  0.00    -0.508 OA
ATOM     27  H   UNL     1     128.260 130.703 105.648  1.00  0.00     0.293 HD
ENDBRANCH   8  26
TORSDOF 6
ENDMDL
MODEL 2
REMARK VINA RESULT:    -8.665     10.154     11.314
REMARK INTER + INTRA:         -10.753
REMARK INTER:                 -10.430
REMARK INTRA:                  -0.323
REMARK UNBOUND:                -0.315
REMARK SMILES O=c1c(O)c(-c2ccc(O)c(O)c2)oc2cc(O)cc(O)c12
REMARK SMILES IDX 5 1 3 2 2 3 1 4 22 5 20 6 19 7 17 8 16 9 15 10 14 11 6 12
REMARK SMILES IDX 7 13 8 14 9 15 13 16 11 17 10 18 12 20 4 22 21 24 18 26
REMARK H PARENT 10 19 12 21 4 23 21 25 18 27
REMARK Flexibility Score: inf
ROOT
ATOM      1  C   UNL     1     135.250 134.397 114.635  1.00  0.00     0.180 A 
ATOM      2  C   UNL     1     136.207 134.612 113.628  1.00  0.00     0.208 A 
ATOM      3  C   UNL     1     137.565 134.665 113.980  1.00  0.00     0.238 A 
ATOM      4  O   UNL     1     138.421 134.804 113.067  1.00  0.00    -0.285 OA
ATOM      5  C   UNL     1     137.949 134.520 115.334  1.00  0.00     0.111 A 
ATOM      6  C   UNL     1     139.293 134.596 115.809  1.00  0.00     0.134 A 
ATOM      7  C   UNL     1     139.570 134.307 117.151  1.00  0.00     0.093 A 
ATOM      8  C   UNL     1     138.546 134.008 118.049  1.00  0.00     0.123 A 
ATOM      9  C   UNL     1     137.221 133.989 117.608  1.00  0.00     0.094 A 
ATOM     10  C   UNL     1     136.918 134.237 116.268  1.00  0.00     0.146 A 
ATOM     11  O   UNL     1     135.647 134.199 115.887  1.00  0.00    -0.452 OA
ENDROOT
BRANCH   1  12
ATOM     12  C   UNL     1     133.799 134.354 114.347  1.00  0.00     0.025 A 
ATOM     13  C   UNL     1     133.157 133.153 114.001  1.00  0.00     0.016 A 
ATOM     14  C   UNL     1     131.790 133.140 113.710  1.00  0.00     0.051 A 
ATOM     15  C   UNL     1     131.049 134.328 113.748  1.00  0.00     0.157 A 
ATOM     16  C   UNL     1     133.055 135.546 114.363  1.00  0.00     0.062 A 
ATOM     17  C   UNL     1     131.683 135.534 114.072  1.00  0.00     0.158 A 
BRANCH  15  18
ATOM     18  O   UNL     1     129.686 134.319 113.460  1.00  0.00    -0.504 OA
ATOM     19  H   UNL     1     129.286 134.944 112.769  1.00  0.00     0.293 HD
ENDBRANCH  15  18
BRANCH  17  20
ATOM     20  O   UNL     1     130.945 136.716 114.101  1.00  0.00    -0.504 OA
ATOM     21  H   UNL     1     130.040 136.766 114.554  1.00  0.00     0.293 HD
ENDBRANCH  17  20
ENDBRANCH   1  12
BRANCH   2  22
ATOM     22  O   UNL     1     135.808 134.732 112.294  1.00  0.00    -0.502 OA
ATOM     23  H   UNL     1     136.364 134.375 111.526  1.00  0.00     0.293 HD
ENDBRANCH   2  22
BRANCH   6  24
ATOM     24  O   UNL     1     140.380 134.976 115.015  1.00  0.00    -0.507 OA
ATOM     25  H   UNL     1     141.260 135.317 115.371  1.00  0.00     0.293 HD
ENDBRANCH   6  24
BRANCH   8  26
ATOM     26  O   UNL     1     138.856 133.741 119.380  1.00  0.00    -0.508 OA
ATOM     27  H   UNL     1     138.154 133.410 120.032  1.00  0.00     0.293 HD
ENDBRANCH   8  26
TORSDOF 6
ENDMDL
MODEL 3
REMARK VINA RESULT:    -8.591      8.504     10.232
REMARK INTER + INTRA:         -10.664
REMARK INTER:                 -10.855
REMARK INTRA:                   0.191
REMARK UNBOUND:                -0.315
REMARK SMILES O=c1c(O)c(-c2ccc(O)c(O)c2)oc2cc(O)cc(O)c12
REMARK SMILES IDX 5 1 3 2 2 3 1 4 22 5 20 6 19 7 17 8 16 9 15 10 14 11 6 12
REMARK SMILES IDX 7 13 8 14 9 15 13 16 11 17 10 18 12 20 4 22 21 24 18 26
REMARK H PARENT 10 19 12 21 4 23 21 25 18 27
REMARK Flexibility Score: inf
ROOT
ATOM      1  C   UNL     1     134.623 134.348 113.174  1.00  0.00     0.180 A 
ATOM      2  C   UNL     1     134.235 133.395 112.216  1.00  0.00     0.208 A 
ATOM      3  C   UNL     1     132.879 133.296 111.866  1.00  0.00     0.238 A 
ATOM      4  O   UNL     1     132.544 132.478 110.969  1.00  0.00    -0.285 OA
ATOM      5  C   UNL     1     131.927 134.139 112.487  1.00  0.00     0.111 A 
ATOM      6  C   UNL     1     130.522 134.098 112.237  1.00  0.00     0.134 A 
ATOM      7  C   UNL     1     129.689 135.066 112.812  1.00  0.00     0.093 A 
ATOM      8  C   UNL     1     130.199 136.034 113.676  1.00  0.00     0.123 A 
ATOM      9  C   UNL     1     131.563 136.046 113.975  1.00  0.00     0.094 A 
ATOM     10  C   UNL     1     132.424 135.116 113.389  1.00  0.00     0.146 A 
ATOM     11  O   UNL     1     133.716 135.169 113.691  1.00  0.00    -0.452 OA
ENDROOT
BRANCH   1  12
ATOM     12  C   UNL     1     136.029 134.495 113.614  1.00  0.00     0.025 A 
ATOM     13  C   UNL     1     136.352 134.765 114.955  1.00  0.00     0.016 A 
ATOM     14  C   UNL     1     137.685 134.924 115.344  1.00  0.00     0.051 A 
ATOM     15  C   UNL     1     138.712 134.827 114.396  1.00  0.00     0.157 A 
ATOM     16  C   UNL     1     137.062 134.420 112.665  1.00  0.00     0.062 A 
ATOM     17  C   UNL     1     138.401 134.578 113.054  1.00  0.00     0.158 A 
BRANCH  15  18
ATOM     18  O   UNL     1     140.043 134.983 114.780  1.00  0.00    -0.504 OA
ATOM     19  H   UNL     1     140.529 134.267 115.308  1.00  0.00     0.293 HD
ENDBRANCH  15  18
BRANCH  17  20
ATOM     20  O   UNL     1     139.424 134.491 112.112  1.00  0.00    -0.504 OA
ATOM     21  H   UNL     1     140.382 134.302 112.385  1.00  0.00     0.293 HD
ENDBRANCH  17  20
ENDBRANCH   1  12
BRANCH   2  22
ATOM     22  O   UNL     1     135.194 132.588 111.600  1.00  0.00    -0.502 OA
ATOM     23  H   UNL     1     135.447 132.692 110.624  1.00  0.00     0.293 HD
ENDBRANCH   2  22
BRANCH   6  24
ATOM     24  O   UNL     1     129.896 133.117 111.462  1.00  0.00    -0.507 OA
ATOM     25  H   UNL     1     130.040 132.125 111.563  1.00  0.00     0.293 HD
ENDBRANCH   6  24
BRANCH   8  26
ATOM     26  O   UNL     1     129.339 136.972 114.242  1.00  0.00    -0.508 OA
ATOM     27  H   UNL     1     129.484 137.325 115.182  1.00  0.00     0.293 HD
ENDBRANCH   8  26
TORSDOF 6
ENDMDL
MODEL 4
REMARK VINA RESULT:    -8.536      5.144      7.658
REMARK INTER + INTRA:         -10.597
REMARK INTER:                 -10.297
REMARK INTRA:                  -0.300
REMARK UNBOUND:                -0.315
REMARK SMILES O=c1c(O)c(-c2ccc(O)c(O)c2)oc2cc(O)cc(O)c12
REMARK SMILES IDX 5 1 3 2 2 3 1 4 22 5 20 6 19 7 17 8 16 9 15 10 14 11 6 12
REMARK SMILES IDX 7 13 8 14 9 15 13 16 11 17 10 18 12 20 4 22 21 24 18 26
REMARK H PARENT 10 19 12 21 4 23 21 25 18 27
REMARK Flexibility Score: inf
ROOT
ATOM      1  C   UNL     1     130.704 134.561 111.028  1.00  0.00     0.180 A 
ATOM      2  C   UNL     1     129.936 135.155 112.044  1.00  0.00     0.208 A 
ATOM      3  C   UNL     1     130.560 135.509 113.251  1.00  0.00     0.238 A 
ATOM      4  O   UNL     1     129.880 136.089 114.137  1.00  0.00    -0.285 OA
ATOM      5  C   UNL     1     131.940 135.251 113.433  1.00  0.00     0.111 A 
ATOM      6  C   UNL     1     132.667 135.531 114.629  1.00  0.00     0.134 A 
ATOM      7  C   UNL     1     134.056 135.354 114.652  1.00  0.00     0.093 A 
ATOM      8  C   UNL     1     134.735 134.847 113.545  1.00  0.00     0.123 A 
ATOM      9  C   UNL     1     134.026 134.513 112.390  1.00  0.00     0.094 A 
ATOM     10  C   UNL     1     132.645 134.712 112.325  1.00  0.00     0.146 A 
ATOM     11  O   UNL     1     132.009 134.391 111.204  1.00  0.00    -0.452 OA
ENDROOT
BRANCH   1  12
ATOM     12  C   UNL     1     130.112 134.137 109.739  1.00  0.00     0.025 A 
ATOM     13  C   UNL     1     129.773 132.796 109.495  1.00  0.00     0.016 A 
ATOM     14  C   UNL     1     129.237 132.414 108.262  1.00  0.00     0.051 A 
ATOM     15  C   UNL     1     129.046 133.365 107.251  1.00  0.00     0.157 A 
ATOM     16  C   UNL     1     129.938 135.082 108.715  1.00  0.00     0.062 A 
ATOM     17  C   UNL     1     129.399 134.701 107.476  1.00  0.00     0.158 A 
BRANCH  15  18
ATOM     18  O   UNL     1     128.511 132.989 106.021  1.00  0.00    -0.504 OA
ATOM     19  H   UNL     1     127.984 132.130 105.912  1.00  0.00     0.293 HD
ENDBRANCH  15  18
BRANCH  17  20
ATOM     20  O   UNL     1     129.216 135.644 106.466  1.00  0.00    -0.504 OA
ATOM     21  H   UNL     1     129.982 135.942 105.874  1.00  0.00     0.293 HD
ENDBRANCH  17  20
ENDBRANCH   1  12
BRANCH   2  22
ATOM     22  O   UNL     1     128.580 135.421 111.836  1.00  0.00    -0.502 OA
ATOM     23  H   UNL     1     128.258 136.215 111.295  1.00  0.00     0.293 HD
ENDBRANCH   2  22
BRANCH   6  24
ATOM     24  O   UNL     1     132.072 135.955 115.822  1.00  0.00    -0.507 OA
ATOM     25  H   UNL     1     131.825 136.909 116.034  1.00  0.00     0.293 HD
ENDBRANCH   6  24
BRANCH   8  26
ATOM     26  O   UNL     1     136.115 134.669 113.608  1.00  0.00    -0.508 OA
ATOM     27  H   UNL     1     136.717 135.349 114.058  1.00  0.00     0.293 HD
ENDBRANCH   8  26
TORSDOF 6
ENDMDL
MODEL 5
REMARK VINA RESULT:    -8.392      7.181      8.483
REMARK INTER + INTRA:         -10.425
REMARK INTER:                 -10.519
REMARK INTRA:                   0.095
REMARK UNBOUND:                -0.315
REMARK SMILES O=c1c(O)c(-c2ccc(O)c(O)c2)oc2cc(O)cc(O)c12
REMARK SMILES IDX 5 1 3 2 2 3 1 4 22 5 20 6 19 7 17 8 16 9 15 10 14 11 6 12
REMARK SMILES IDX 7 13 8 14 9 15 13 16 11 17 10 18 12 20 4 22 21 24 18 26
REMARK H PARENT 10 19 12 21 4 23 21 25 18 27
REMARK Flexibility Score: inf
ROOT
ATOM      1  C   UNL     1     133.053 134.762 113.121  1.00  0.00     0.180 A 
ATOM      2  C   UNL     1     132.121 135.645 113.690  1.00  0.00     0.208 A 
ATOM      3  C   UNL     1     130.807 135.662 113.193  1.00  0.00     0.238 A 
ATOM      4  O   UNL     1     129.962 136.416 113.742  1.00  0.00    -0.285 OA
ATOM      5  C   UNL     1     130.447 134.807 112.125  1.00  0.00     0.111 A 
ATOM      6  C   UNL     1     129.157 134.768 111.516  1.00  0.00     0.134 A 
ATOM      7  C   UNL     1     128.876 133.791 110.553  1.00  0.00     0.093 A 
ATOM      8  C   UNL     1     129.855 132.894 110.130  1.00  0.00     0.123 A 
ATOM      9  C   UNL     1     131.139 132.961 110.675  1.00  0.00     0.094 A 
ATOM     10  C   UNL     1     131.439 133.901 111.664  1.00  0.00     0.146 A 
ATOM     11  O   UNL     1     132.668 133.926 112.164  1.00  0.00    -0.452 OA
ENDROOT
BRANCH   1  12
ATOM     12  C   UNL     1     134.462 134.705 113.573  1.00  0.00     0.025 A 
ATOM     13  C   UNL     1     134.793 134.704 114.939  1.00  0.00     0.016 A 
ATOM     14  C   UNL     1     136.130 134.673 115.343  1.00  0.00     0.051 A 
ATOM     15  C   UNL     1     137.156 134.657 114.388  1.00  0.00     0.157 A 
ATOM     16  C   UNL     1     135.494 134.709 112.621  1.00  0.00     0.062 A 
ATOM     17  C   UNL     1     136.838 134.678 113.025  1.00  0.00     0.158 A 
BRANCH  15  18
ATOM     18  O   UNL     1     138.491 134.625 114.786  1.00  0.00    -0.504 OA
ATOM     19  H   UNL     1     138.756 134.722 115.760  1.00  0.00     0.293 HD
ENDBRANCH  15  18
BRANCH  17  20
ATOM     20  O   UNL     1     137.859 134.669 112.077  1.00  0.00    -0.504 OA
ATOM     21  H   UNL     1     138.498 135.451 111.978  1.00  0.00     0.293 HD
ENDBRANCH  17  20
ENDBRANCH   1  12
BRANCH   2  22
ATOM     22  O   UNL     1     132.491 136.466 114.759  1.00  0.00    -0.502 OA
ATOM     23  H   UNL     1     133.152 137.226 114.657  1.00  0.00     0.293 HD
ENDBRANCH   2  22
BRANCH   6  24
ATOM     24  O   UNL     1     128.133 135.677 111.800  1.00  0.00    -0.507 OA
ATOM     25  H   UNL     1     127.595 136.173 111.106  1.00  0.00     0.293 HD
ENDBRANCH   6  24
BRANCH   8  26
ATOM     26  O   UNL     1     129.545 131.945 109.158  1.00  0.00    -0.508 OA
ATOM     27  H   UNL     1     130.252 131.578 108.532  1.00  0.00     0.293 HD
ENDBRANCH   8  26
TORSDOF 6
ENDMDL
MODEL 6
REMARK VINA RESULT:    -8.372      4.331      4.964
REMARK INTER + INTRA:         -10.400
REMARK INTER:                 -10.072
REMARK INTRA:                  -0.328
REMARK UNBOUND:                -0.315
REMARK SMILES O=c1c(O)c(-c2ccc(O)c(O)c2)oc2cc(O)cc(O)c12
REMARK SMILES IDX 5 1 3 2 2 3 1 4 22 5 20 6 19 7 17 8 16 9 15 10 14 11 6 12
REMARK SMILES IDX 7 13 8 14 9 15 13 16 11 17 10 18 12 20 4 22 21 24 18 26
REMARK H PARENT 10 19 12 21 4 23 21 25 18 27
REMARK Flexibility Score: inf
ROOT
ATOM      1  C   UNL     1     129.063 134.719 113.128  1.00  0.00     0.180 A 
ATOM      2  C   UNL     1     129.964 135.684 113.609  1.00  0.00     0.208 A 
ATOM      3  C   UNL     1     131.315 135.601 113.234  1.00  0.00     0.238 A 
ATOM      4  O   UNL     1     132.107 136.498 113.624  1.00  0.00    -0.285 OA
ATOM      5  C   UNL     1     131.750 134.548 112.395  1.00  0.00     0.111 A 
ATOM      6  C   UNL     1     133.101 134.344 111.984  1.00  0.00     0.134 A 
ATOM      7  C   UNL     1     133.396 133.344 111.048  1.00  0.00     0.093 A 
ATOM      8  C   UNL     1     132.400 132.501 110.557  1.00  0.00     0.123 A 
ATOM      9  C   UNL     1     131.084 132.653 110.999  1.00  0.00     0.094 A 
ATOM     10  C   UNL     1     130.753 133.664 111.904  1.00  0.00     0.146 A 
ATOM     11  O   UNL     1     129.489 133.780 112.290  1.00  0.00    -0.452 OA
ENDROOT
BRANCH   1  12
ATOM     12  C   UNL     1     127.630 134.725 113.500  1.00  0.00     0.025 A 
ATOM     13  C   UNL     1     127.158 133.997 114.606  1.00  0.00     0.016 A 
ATOM     14  C   UNL     1     125.797 133.997 114.925  1.00  0.00     0.051 A 
ATOM     15  C   UNL     1     124.888 134.713 114.136  1.00  0.00     0.157 A 
ATOM     16  C   UNL     1     126.711 135.424 112.701  1.00  0.00     0.062 A 
ATOM     17  C   UNL     1     125.344 135.426 113.020  1.00  0.00     0.158 A 
BRANCH  15  18
ATOM     18  O   UNL     1     123.531 134.718 114.451  1.00  0.00    -0.504 OA
ATOM     19  H   UNL     1     123.000 135.581 114.495  1.00  0.00     0.293 HD
ENDBRANCH  15  18
BRANCH  17  20
ATOM     20  O   UNL     1     124.437 136.131 112.232  1.00  0.00    -0.504 OA
ATOM     21  H   UNL     1     124.622 136.326 111.255  1.00  0.00     0.293 HD
ENDBRANCH  17  20
ENDBRANCH   1  12
BRANCH   2  22
ATOM     22  O   UNL     1     129.510 136.728 114.419  1.00  0.00    -0.502 OA
ATOM     23  H   UNL     1     130.136 137.410 114.831  1.00  0.00     0.293 HD
ENDBRANCH   2  22
BRANCH   6  24
ATOM     24  O   UNL     1     134.187 135.071 112.482  1.00  0.00    -0.507 OA
ATOM     25  H   UNL     1     134.793 134.763 113.226  1.00  0.00     0.293 HD
ENDBRANCH   6  24
BRANCH   8  26
ATOM     26  O   UNL     1     132.732 131.507 109.639  1.00  0.00    -0.508 OA
ATOM     27  H   UNL     1     133.623 131.027 109.677  1.00  0.00     0.293 HD
ENDBRANCH   8  26
TORSDOF 6
ENDMDL
MODEL 7
REMARK VINA RESULT:    -8.365      5.014      8.183
REMARK INTER + INTRA:         -10.392
REMARK INTER:                 -10.164
REMARK INTRA:                  -0.228
REMARK UNBOUND:                -0.315
REMARK SMILES O=c1c(O)c(-c2ccc(O)c(O)c2)oc2cc(O)cc(O)c12
REMARK SMILES IDX 5 1 3 2 2 3 1 4 22 5 20 6 19 7 17 8 16 9 15 10 14 11 6 12
REMARK SMILES IDX 7 13 8 14 9 15 13 16 11 17 10 18 12 20 4 22 21 24 18 26
REMARK H PARENT 10 19 12 21 4 23 21 25 18 27
REMARK Flexibility Score: inf
ROOT
ATOM      1  C   UNL     1     131.009 133.658 111.457  1.00  0.00     0.180 A 
ATOM      2  C   UNL     1     132.278 133.088 111.655  1.00  0.00     0.208 A 
ATOM      3  C   UNL     1     132.885 133.201 112.916  1.00  0.00     0.238 A 
ATOM      4  O   UNL     1     133.998 132.642 113.104  1.00  0.00    -0.285 OA
ATOM      5  C   UNL     1     132.225 133.896 113.957  1.00  0.00     0.111 A 
ATOM      6  C   UNL     1     132.765 134.106 115.262  1.00  0.00     0.134 A 
ATOM      7  C   UNL     1     131.969 134.695 116.252  1.00  0.00     0.093 A 
ATOM      8  C   UNL     1     130.678 135.139 115.969  1.00  0.00     0.123 A 
ATOM      9  C   UNL     1     130.162 134.993 114.680  1.00  0.00     0.094 A 
ATOM     10  C   UNL     1     130.918 134.377 113.681  1.00  0.00     0.146 A 
ATOM     11  O   UNL     1     130.387 134.248 112.471  1.00  0.00    -0.452 OA
ENDROOT
BRANCH   1  12
ATOM     12  C   UNL     1     130.316 133.603 110.150  1.00  0.00     0.025 A 
ATOM     13  C   UNL     1     129.784 132.400 109.653  1.00  0.00     0.016 A 
ATOM     14  C   UNL     1     129.154 132.367 108.407  1.00  0.00     0.051 A 
ATOM     15  C   UNL     1     129.059 133.530 107.632  1.00  0.00     0.157 A 
ATOM     16  C   UNL     1     130.236 134.762 109.360  1.00  0.00     0.062 A 
ATOM     17  C   UNL     1     129.603 134.730 108.108  1.00  0.00     0.158 A 
BRANCH  15  18
ATOM     18  O   UNL     1     128.431 133.502 106.389  1.00  0.00    -0.504 OA
ATOM     19  H   UNL     1     128.819 133.986 105.587  1.00  0.00     0.293 HD
ENDBRANCH  15  18
BRANCH  17  20
ATOM     20  O   UNL     1     129.514 135.884 107.332  1.00  0.00    -0.504 OA
ATOM     21  H   UNL     1     128.766 136.555 107.463  1.00  0.00     0.293 HD
ENDBRANCH  17  20
ENDBRANCH   1  12
BRANCH   2  22
ATOM     22  O   UNL     1     132.903 132.387 110.620  1.00  0.00    -0.502 OA
ATOM     23  H   UNL     1     133.861 132.564 110.345  1.00  0.00     0.293 HD
ENDBRANCH   2  22
BRANCH   6  24
ATOM     24  O   UNL     1     134.076 133.783 115.625  1.00  0.00    -0.507 OA
ATOM     25  H   UNL     1     134.350 132.933 116.094  1.00  0.00     0.293 HD
ENDBRANCH   6  24
BRANCH   8  26
ATOM     26  O   UNL     1     129.920 135.735 116.975  1.00  0.00    -0.508 OA
ATOM     27  H   UNL     1     129.309 135.189 117.572  1.00  0.00     0.293 HD
ENDBRANCH   8  26
TORSDOF 6
ENDMDL
MODEL 8
REMARK VINA RESULT:    -8.293      4.231      5.597
REMARK INTER + INTRA:         -10.305
REMARK INTER:                  -9.994
REMARK INTRA:                  -0.312
REMARK UNBOUND:                -0.315
REMARK SMILES O=c1c(O)c(-c2ccc(O)c(O)c2)oc2cc(O)cc(O)c12
REMARK SMILES IDX 5 1 3 2 2 3 1 4 22 5 20 6 19 7 17 8 16 9 15 10 14 11 6 12
REMARK SMILES IDX 7 13 8 14 9 15 13 16 11 17 10 18 12 20 4 22 21 24 18 26
REMARK H PARENT 10 19 12 21 4 23 21 25 18 27
REMARK Flexibility Score: inf
ROOT
ATOM      1  C   UNL     1     129.895 134.627 111.813  1.00  0.00     0.180 A 
ATOM      2  C   UNL     1     128.550 134.548 112.212  1.00  0.00     0.208 A 
ATOM      3  C   UNL     1     127.543 134.738 111.251  1.00  0.00     0.238 A 
ATOM      4  O   UNL     1     126.341 134.614 111.603  1.00  0.00    -0.285 OA
ATOM      5  C   UNL     1     127.893 135.020 109.909  1.00  0.00     0.111 A 
ATOM      6  C   UNL     1     126.956 135.269 108.862  1.00  0.00     0.134 A 
ATOM      7  C   UNL     1     127.412 135.408 107.545  1.00  0.00     0.093 A 
ATOM      8  C   UNL     1     128.774 135.370 107.246  1.00  0.00     0.123 A 
ATOM      9  C   UNL     1     129.703 135.187 108.272  1.00  0.00     0.094 A 
ATOM     10  C   UNL     1     129.276 135.009 109.590  1.00  0.00     0.146 A 
ATOM     11  O   UNL     1     130.192 134.827 110.534  1.00  0.00    -0.452 OA
ENDROOT
BRANCH   1  12
ATOM     12  C   UNL     1     131.011 134.463 112.772  1.00  0.00     0.025 A 
ATOM     13  C   UNL     1     131.636 133.219 112.963  1.00  0.00     0.016 A 
ATOM     14  C   UNL     1     132.673 133.083 113.890  1.00  0.00     0.051 A 
ATOM     15  C   UNL     1     133.090 134.184 114.649  1.00  0.00     0.157 A 
ATOM     16  C   UNL     1     131.420 135.559 113.551  1.00  0.00     0.062 A 
ATOM     17  C   UNL     1     132.461 135.424 114.481  1.00  0.00     0.158 A 
BRANCH  15  18
ATOM     18  O   UNL     1     134.124 134.053 115.573  1.00  0.00    -0.504 OA
ATOM     19  H   UNL     1     135.021 134.504 115.433  1.00  0.00     0.293 HD
ENDBRANCH  15  18
BRANCH  17  20
ATOM     20  O   UNL     1     132.872 136.516 115.243  1.00  0.00    -0.504 OA
ATOM     21  H   UNL     1     133.057 137.418 114.820  1.00  0.00     0.293 HD
ENDBRANCH  17  20
ENDBRANCH   1  12
BRANCH   2  22
ATOM     22  O   UNL     1     128.226 134.248 113.537  1.00  0.00    -0.502 OA
ATOM     23  H   UNL     1     128.834 133.702 114.136  1.00  0.00     0.293 HD
ENDBRANCH   2  22
BRANCH   6  24
ATOM     24  O   UNL     1     125.581 135.416 109.064  1.00  0.00    -0.507 OA
ATOM     25  H   UNL     1     124.940 134.657 109.235  1.00  0.00     0.293 HD
ENDBRANCH   6  24
BRANCH   8  26
ATOM     26  O   UNL     1     129.193 135.527 105.928  1.00  0.00    -0.508 OA
ATOM     27  H   UNL     1     129.633 134.770 105.417  1.00  0.00     0.293 HD
ENDBRANCH   8  26
TORSDOF 6
ENDMDL
MODEL 9
REMARK VINA RESULT:    -8.276      4.933      7.175
REMARK INTER + INTRA:         -10.284
REMARK INTER:                  -9.980
REMARK INTRA:                  -0.305
REMARK UNBOUND:                -0.315
REMARK SMILES O=c1c(O)c(-c2ccc(O)c(O)c2)oc2cc(O)cc(O)c12
REMARK SMILES IDX 5 1 3 2 2 3 1 4 22 5 20 6 19 7 17 8 16 9 15 10 14 11 6 12
REMARK SMILES IDX 7 13 8 14 9 15 13 16 11 17 10 18 12 20 4 22 21 24 18 26
REMARK H PARENT 10 19 12 21 4 23 21 25 18 27
REMARK Flexibility Score: inf
ROOT
ATOM      1  C   UNL     1     130.169 134.206 110.710  1.00  0.00     0.180 A 
ATOM      2  C   UNL     1     130.533 132.853 110.609  1.00  0.00     0.208 A 
ATOM      3  C   UNL     1     131.563 132.362 111.428  1.00  0.00     0.238 A 
ATOM      4  O   UNL     1     131.848 131.137 111.372  1.00  0.00    -0.285 OA
ATOM      5  C   UNL     1     132.226 133.233 112.325  1.00  0.00     0.111 A 
ATOM      6  C   UNL     1     133.309 132.853 113.173  1.00  0.00     0.134 A 
ATOM      7  C   UNL     1     133.803 133.765 114.115  1.00  0.00     0.093 A 
ATOM      8  C   UNL     1     133.297 135.061 114.196  1.00  0.00     0.123 A 
ATOM      9  C   UNL     1     132.277 135.463 113.330  1.00  0.00     0.094 A 
ATOM     10  C   UNL     1     131.740 134.565 112.406  1.00  0.00     0.146 A 
ATOM     11  O   UNL     1     130.765 134.983 111.608  1.00  0.00    -0.452 OA
ENDROOT
BRANCH   1  12
ATOM     12  C   UNL     1     129.111 134.803 109.863  1.00  0.00     0.025 A 
ATOM     13  C   UNL     1     127.790 134.933 110.324  1.00  0.00     0.016 A 
ATOM     14  C   UNL     1     126.803 135.477 109.499  1.00  0.00     0.051 A 
ATOM     15  C   UNL     1     127.119 135.888 108.197  1.00  0.00     0.157 A 
ATOM     16  C   UNL     1     129.417 135.197 108.550  1.00  0.00     0.062 A 
ATOM     17  C   UNL     1     128.427 135.745 107.720  1.00  0.00     0.158 A 
BRANCH  15  18
ATOM     18  O   UNL     1     126.138 136.433 107.371  1.00  0.00    -0.504 OA
ATOM     19  H   UNL     1     125.153 136.239 107.518  1.00  0.00     0.293 HD
ENDBRANCH  15  18
BRANCH  17  20
ATOM     20  O   UNL     1     128.737 136.146 106.422  1.00  0.00    -0.504 OA
ATOM     21  H   UNL     1     128.188 136.847 105.938  1.00  0.00     0.293 HD
ENDBRANCH  17  20
ENDBRANCH   1  12
BRANCH   2  22
ATOM     22  O   UNL     1     129.851 132.005 109.732  1.00  0.00    -0.502 OA
ATOM     23  H   UNL     1     129.843 132.153 108.730  1.00  0.00     0.293 HD
ENDBRANCH   2  22
BRANCH   6  24
ATOM     24  O   UNL     1     133.949 131.611 113.112  1.00  0.00    -0.507 OA
ATOM     25  H   UNL     1     134.487 131.204 113.861  1.00  0.00     0.293 HD
ENDBRANCH   6  24
BRANCH   8  26
ATOM     26  O   UNL     1     133.822 135.946 115.134  1.00  0.00    -0.508 OA
ATOM     27  H   UNL     1     133.415 136.044 116.057  1.00  0.00     0.293 HD
ENDBRANCH   8  26
TORSDOF 6
ENDMDL
