MODEL 1
REMARK VINA RESULT:    -3.029      0.000      0.000
REMARK INTER + INTRA:         -10.943
REMARK INTER:                  -7.632
REMARK INTRA:                  -3.311
REMARK UNBOUND:                -3.311
REMARK SMILES CCCCCCCCCCCCCCCCCCCCCCCCCCCC(=O)[O-]
REMARK SMILES IDX 15 1 16 2 17 3 18 4 19 5 20 6 21 7 22 8 23 9 24 10 25 11
REMARK SMILES IDX 26 12 27 13 28 14 29 15 30 16 14 17 13 18 12 19 11 20 10 21
REMARK SMILES IDX 9 22 8 23 7 24 6 25 5 26 4 27 3 28 2 29 1 30
REMARK H PARENT
REMARK Flexibility Score: inf
ROOT
ATOM      1  C   UNL     1      21.294  10.086  18.458  1.00  0.00     0.000 C 
ENDROOT
BRANCH   1   2
ATOM      2  C   UNL     1      21.441  10.635  17.022  1.00  0.00     0.000 C 
BRANCH   2   3
ATOM      3  C   UNL     1      21.129  12.139  16.879  1.00  0.00     0.000 C 
BRANCH   3   4
ATOM      4  C   UNL     1      21.244  12.932  18.197  1.00  0.00     0.000 C 
BRANCH   4   5
ATOM      5  C   UNL     1      19.917  13.601  18.596  1.00  0.00     0.000 C 
BRANCH   5   6
ATOM      6  C   UNL     1      19.631  13.516  20.106  1.00  0.00     0.000 C 
BRANCH   6   7
ATOM      7  C   UNL     1      19.413  14.886  20.779  1.00  0.00     0.000 C 
BRANCH   7   8
ATOM      8  C   UNL     1      20.122  16.029  20.034  1.00  0.00     0.000 C 
BRANCH   8   9
ATOM      9  C   UNL     1      20.554  17.173  20.968  1.00  0.00     0.000 C 
BRANCH   9  10
ATOM     10  C   UNL     1      20.064  18.563  20.505  1.00  0.00     0.000 C 
BRANCH  10  11
ATOM     11  C   UNL     1      21.146  19.643  20.655  1.00  0.00     0.000 C 
BRANCH  11  12
ATOM     12  C   UNL     1      21.592  20.164  19.281  1.00  0.00     0.006 C 
BRANCH  12  13
ATOM     13  C   UNL     1      22.682  21.239  19.390  1.00  0.00     0.053 C 
BRANCH  13  14
ATOM     14  C   UNL     1      22.154  22.604  19.068  1.00  0.00     0.041 C 
ATOM     15  O   UNL     1      22.920  23.603  19.086  1.00  0.00    -0.550 OA
ATOM     16  O   UNL     1      20.811  22.775  18.754  1.00  0.00    -0.550 OA
ENDBRANCH  13  14
ENDBRANCH  12  13
ENDBRANCH  11  12
ENDBRANCH  10  11
ENDBRANCH   9  10
ENDBRANCH   8   9
ENDBRANCH   7   8
ENDBRANCH   6   7
ENDBRANCH   5   6
ENDBRANCH   4   5
ENDBRANCH   3   4
ENDBRANCH   2   3
ENDBRANCH   1   2
BRANCH   1  17
ATOM     17  C   UNL     1      22.355   9.042  18.861  1.00  0.00     0.000 C 
BRANCH  17  18
ATOM     18  C   UNL     1      21.791   7.747  19.471  1.00  0.00     0.000 C 
BRANCH  18  19
ATOM     19  C   UNL     1      22.852   6.645  19.642  1.00  0.00     0.000 C 
BRANCH  19  20
ATOM     20  C   UNL     1      24.271   7.212  19.810  1.00  0.00     0.000 C 
BRANCH  20  21
ATOM     21  C   UNL     1      25.255   6.675  18.755  1.00  0.00     0.000 C 
BRANCH  21  22
ATOM     22  C   UNL     1      25.750   7.774  17.802  1.00  0.00    -0.000 C 
BRANCH  22  23
ATOM     23  C   UNL     1      24.925   7.856  16.507  1.00  0.00    -0.000 C 
BRANCH  23  24
ATOM     24  C   UNL     1      24.985   6.558  15.679  1.00  0.00    -0.000 C 
BRANCH  24  25
ATOM     25  C   UNL     1      23.623   6.054  15.162  1.00  0.00    -0.000 C 
BRANCH  25  26
ATOM     26  C   UNL     1      22.877   5.189  16.191  1.00  0.00    -0.000 C 
BRANCH  26  27
ATOM     27  C   UNL     1      21.415   5.626  16.389  1.00  0.00    -0.000 C 
BRANCH  27  28
ATOM     28  C   UNL     1      21.127   7.061  15.901  1.00  0.00    -0.000 C 
BRANCH  28  29
ATOM     29  C   UNL     1      19.639   7.273  15.589  1.00  0.00    -0.003 C 
ATOM     30  C   UNL     1      18.899   7.843  16.795  1.00  0.00     0.004 C 
ENDBRANCH  28  29
ENDBRANCH  27  28
ENDBRANCH  26  27
ENDBRANCH  25  26
ENDBRANCH  24  25
ENDBRANCH  23  24
ENDBRANCH  22  23
ENDBRANCH  21  22
ENDBRANCH  20  21
ENDBRANCH  19  20
ENDBRANCH  18  19
ENDBRANCH  17  18
ENDBRANCH   1  17
TORSDOF 26
ENDMDL
MODEL 2
REMARK VINA RESULT:    -2.993      4.385     12.038
REMARK INTER + INTRA:         -10.854
REMARK INTER:                  -8.248
REMARK INTRA:                  -2.606
REMARK UNBOUND:                -3.311
REMARK SMILES CCCCCCCCCCCCCCCCCCCCCCCCCCCC(=O)[O-]
REMARK SMILES IDX 15 1 16 2 17 3 18 4 19 5 20 6 21 7 22 8 23 9 24 10 25 11
REMARK SMILES IDX 26 12 27 13 28 14 29 15 30 16 14 17 13 18 12 19 11 20 10 21
REMARK SMILES IDX 9 22 8 23 7 24 6 25 5 26 4 27 3 28 2 29 1 30
REMARK H PARENT
REMARK Flexibility Score: inf
ROOT
ATOM      1  C   UNL     1      21.206  12.354  20.484  1.00  0.00     0.000 C 
ENDROOT
BRANCH   1   2
ATOM      2  C   UNL     1      21.042  10.822  20.372  1.00  0.00     0.000 C 
BRANCH   2   3
ATOM      3  C   UNL     1      20.968  10.294  18.923  1.00  0.00     0.000 C 
BRANCH   3   4
ATOM      4  C   UNL     1      19.536   9.978  18.444  1.00  0.00     0.000 C 
BRANCH   4   5
ATOM      5  C   UNL     1      19.329  10.314  16.957  1.00  0.00     0.000 C 
BRANCH   5   6
ATOM      6  C   UNL     1      18.363   9.345  16.252  1.00  0.00     0.000 C 
BRANCH   6   7
ATOM      7  C   UNL     1      18.760   7.860  16.383  1.00  0.00     0.000 C 
BRANCH   7   8
ATOM      8  C   UNL     1      20.010   7.510  15.557  1.00  0.00     0.000 C 
BRANCH   8   9
ATOM      9  C   UNL     1      20.858   6.400  16.202  1.00  0.00     0.000 C 
BRANCH   9  10
ATOM     10  C   UNL     1      21.067   6.588  17.720  1.00  0.00     0.000 C 
BRANCH  10  11
ATOM     11  C   UNL     1      22.531   6.892  18.075  1.00  0.00     0.000 C 
BRANCH  11  12
ATOM     12  C   UNL     1      23.378   7.056  16.805  1.00  0.00     0.006 C 
BRANCH  12  13
ATOM     13  C   UNL     1      24.365   8.227  16.909  1.00  0.00     0.053 C 
BRANCH  13  14
ATOM     14  C   UNL     1      25.726   7.773  17.339  1.00  0.00     0.041 C 
ATOM     15  O   UNL     1      26.245   6.745  16.828  1.00  0.00    -0.550 OA
ATOM     16  O   UNL     1      26.422   8.481  18.312  1.00  0.00    -0.550 OA
ENDBRANCH  13  14
ENDBRANCH  12  13
ENDBRANCH  11  12
ENDBRANCH  10  11
ENDBRANCH   9  10
ENDBRANCH   8   9
ENDBRANCH   7   8
ENDBRANCH   6   7
ENDBRANCH   5   6
ENDBRANCH   4   5
ENDBRANCH   3   4
ENDBRANCH   2   3
ENDBRANCH   1   2
BRANCH   1  17
ATOM     17  C   UNL     1      21.664  13.049  19.187  1.00  0.00     0.000 C 
BRANCH  17  18
ATOM     18  C   UNL     1      20.547  13.756  18.400  1.00  0.00     0.000 C 
BRANCH  18  19
ATOM     19  C   UNL     1      19.246  13.919  19.206  1.00  0.00     0.000 C 
BRANCH  19  20
ATOM     20  C   UNL     1      18.868  15.393  19.424  1.00  0.00     0.000 C 
BRANCH  20  21
ATOM     21  C   UNL     1      19.780  16.097  20.446  1.00  0.00     0.000 C 
BRANCH  21  22
ATOM     22  C   UNL     1      19.563  17.618  20.475  1.00  0.00    -0.000 C 
BRANCH  22  23
ATOM     23  C   UNL     1      20.865  18.402  20.712  1.00  0.00    -0.000 C 
BRANCH  23  24
ATOM     24  C   UNL     1      20.907  19.734  19.940  1.00  0.00    -0.000 C 
BRANCH  24  25
ATOM     25  C   UNL     1      22.009  19.829  18.866  1.00  0.00    -0.000 C 
BRANCH  25  26
ATOM     26  C   UNL     1      22.808  21.140  18.945  1.00  0.00    -0.000 C 
BRANCH  26  27
ATOM     27  C   UNL     1      21.925  22.359  19.262  1.00  0.00    -0.000 C 
BRANCH  27  28
ATOM     28  C   UNL     1      22.678  23.500  19.978  1.00  0.00    -0.000 C 
BRANCH  28  29
ATOM     29  C   UNL     1      22.622  24.812  19.183  1.00  0.00    -0.003 C 
ATOM     30  C   UNL     1      21.608  24.724  18.047  1.00  0.00     0.004 C 
ENDBRANCH  28  29
ENDBRANCH  27  28
ENDBRANCH  26  27
ENDBRANCH  25  26
ENDBRANCH  24  25
ENDBRANCH  23  24
ENDBRANCH  22  23
ENDBRANCH  21  22
ENDBRANCH  20  21
ENDBRANCH  19  20
ENDBRANCH  18  19
ENDBRANCH  17  18
ENDBRANCH   1  17
TORSDOF 26
ENDMDL
MODEL 3
REMARK VINA RESULT:    -2.975      1.779      4.901
REMARK INTER + INTRA:         -10.809
REMARK INTER:                  -7.480
REMARK INTRA:                  -3.329
REMARK UNBOUND:                -3.311
REMARK SMILES CCCCCCCCCCCCCCCCCCCCCCCCCCCC(=O)[O-]
REMARK SMILES IDX 15 1 16 2 17 3 18 4 19 5 20 6 21 7 22 8 23 9 24 10 25 11
REMARK SMILES IDX 26 12 27 13 28 14 29 15 30 16 14 17 13 18 12 19 11 20 10 21
REMARK SMILES IDX 9 22 8 23 7 24 6 25 5 26 4 27 3 28 2 29 1 30
REMARK H PARENT
REMARK Flexibility Score: inf
ROOT
ATOM      1  C   UNL     1      21.605  12.936  19.048  1.00  0.00     0.000 C 
ENDROOT
BRANCH   1   2
ATOM      2  C   UNL     1      20.864  13.895  20.005  1.00  0.00     0.000 C 
BRANCH   2   3
ATOM      3  C   UNL     1      19.446  14.290  19.541  1.00  0.00     0.000 C 
BRANCH   3   4
ATOM      4  C   UNL     1      19.226  15.813  19.426  1.00  0.00     0.000 C 
BRANCH   4   5
ATOM      5  C   UNL     1      20.158  16.611  20.355  1.00  0.00     0.000 C 
BRANCH   5   6
ATOM      6  C   UNL     1      19.741  18.085  20.500  1.00  0.00     0.000 C 
BRANCH   6   7
ATOM      7  C   UNL     1      20.909  19.035  20.839  1.00  0.00     0.000 C 
BRANCH   7   8
ATOM      8  C   UNL     1      20.970  20.251  19.900  1.00  0.00     0.000 C 
BRANCH   8   9
ATOM      9  C   UNL     1      21.865  21.379  20.443  1.00  0.00     0.000 C 
BRANCH   9  10
ATOM     10  C   UNL     1      22.675  22.104  19.346  1.00  0.00     0.000 C 
BRANCH  10  11
ATOM     11  C   UNL     1      22.808  23.611  19.617  1.00  0.00     0.000 C 
BRANCH  11  12
ATOM     12  C   UNL     1      22.189  24.428  18.474  1.00  0.00     0.006 C 
BRANCH  12  13
ATOM     13  C   UNL     1      20.869  25.097  18.883  1.00  0.00     0.053 C 
BRANCH  13  14
ATOM     14  C   UNL     1      19.687  24.441  18.237  1.00  0.00     0.041 C 
ATOM     15  O   UNL     1      19.192  24.919  17.183  1.00  0.00    -0.550 OA
ATOM     16  O   UNL     1      19.126  23.303  18.805  1.00  0.00    -0.550 OA
ENDBRANCH  13  14
ENDBRANCH  12  13
ENDBRANCH  11  12
ENDBRANCH  10  11
ENDBRANCH   9  10
ENDBRANCH   8   9
ENDBRANCH   7   8
ENDBRANCH   6   7
ENDBRANCH   5   6
ENDBRANCH   4   5
ENDBRANCH   3   4
ENDBRANCH   2   3
ENDBRANCH   1   2
BRANCH   1  17
ATOM     17  C   UNL     1      21.200  13.066  17.566  1.00  0.00     0.000 C 
BRANCH  17  18
ATOM     18  C   UNL     1      20.526  11.820  16.965  1.00  0.00     0.000 C 
BRANCH  18  19
ATOM     19  C   UNL     1      19.027  12.021  16.675  1.00  0.00     0.000 C 
BRANCH  19  20
ATOM     20  C   UNL     1      18.180  10.803  17.080  1.00  0.00     0.000 C 
BRANCH  20  21
ATOM     21  C   UNL     1      18.929   9.470  16.899  1.00  0.00     0.000 C 
BRANCH  21  22
ATOM     22  C   UNL     1      18.760   8.535  18.106  1.00  0.00    -0.000 C 
BRANCH  22  23
ATOM     23  C   UNL     1      18.546   9.296  19.425  1.00  0.00    -0.000 C 
BRANCH  23  24
ATOM     24  C   UNL     1      19.863   9.818  20.032  1.00  0.00    -0.000 C 
BRANCH  24  25
ATOM     25  C   UNL     1      21.015   8.794  20.064  1.00  0.00    -0.000 C 
BRANCH  25  26
ATOM     26  C   UNL     1      22.307   9.330  19.424  1.00  0.00    -0.000 C 
BRANCH  26  27
ATOM     27  C   UNL     1      22.516   8.823  17.987  1.00  0.00    -0.000 C 
BRANCH  27  28
ATOM     28  C   UNL     1      22.322   7.299  17.835  1.00  0.00    -0.000 C 
BRANCH  28  29
ATOM     29  C   UNL     1      22.421   6.852  16.369  1.00  0.00    -0.003 C 
ATOM     30  C   UNL     1      21.037   6.653  15.759  1.00  0.00     0.004 C 
ENDBRANCH  28  29
ENDBRANCH  27  28
ENDBRANCH  26  27
ENDBRANCH  25  26
ENDBRANCH  24  25
ENDBRANCH  23  24
ENDBRANCH  22  23
ENDBRANCH  21  22
ENDBRANCH  20  21
ENDBRANCH  19  20
ENDBRANCH  18  19
ENDBRANCH  17  18
ENDBRANCH   1  17
TORSDOF 26
ENDMDL
MODEL 4
REMARK VINA RESULT:    -2.944      4.525     10.805
REMARK INTER + INTRA:         -10.730
REMARK INTER:                  -7.157
REMARK INTRA:                  -3.573
REMARK UNBOUND:                -3.311
REMARK SMILES CCCCCCCCCCCCCCCCCCCCCCCCCCCC(=O)[O-]
REMARK SMILES IDX 15 1 16 2 17 3 18 4 19 5 20 6 21 7 22 8 23 9 24 10 25 11
REMARK SMILES IDX 26 12 27 13 28 14 29 15 30 16 14 17 13 18 12 19 11 20 10 21
REMARK SMILES IDX 9 22 8 23 7 24 6 25 5 26 4 27 3 28 2 29 1 30
REMARK H PARENT
REMARK Flexibility Score: inf
ROOT
ATOM      1  C   UNL     1      21.621   9.445  20.766  1.00  0.00     0.000 C 
ENDROOT
BRANCH   1   2
ATOM      2  C   UNL     1      20.079   9.516  20.800  1.00  0.00     0.000 C 
BRANCH   2   3
ATOM      3  C   UNL     1      19.510  10.939  20.986  1.00  0.00     0.000 C 
BRANCH   3   4
ATOM      4  C   UNL     1      18.893  11.540  19.706  1.00  0.00     0.000 C 
BRANCH   4   5
ATOM      5  C   UNL     1      18.128  10.493  18.877  1.00  0.00     0.000 C 
BRANCH   5   6
ATOM      6  C   UNL     1      18.620  10.404  17.422  1.00  0.00     0.000 C 
BRANCH   6   7
ATOM      7  C   UNL     1      19.977  11.095  17.176  1.00  0.00     0.000 C 
BRANCH   7   8
ATOM      8  C   UNL     1      21.110  10.089  16.913  1.00  0.00     0.000 C 
BRANCH   8   9
ATOM      9  C   UNL     1      20.690   8.633  17.180  1.00  0.00     0.000 C 
BRANCH   9  10
ATOM     10  C   UNL     1      21.569   7.594  16.449  1.00  0.00     0.000 C 
BRANCH  10  11
ATOM     11  C   UNL     1      22.622   6.965  17.374  1.00  0.00     0.000 C 
BRANCH  11  12
ATOM     12  C   UNL     1      23.971   7.685  17.237  1.00  0.00     0.006 C 
BRANCH  12  13
ATOM     13  C   UNL     1      24.580   8.048  18.599  1.00  0.00     0.053 C 
BRANCH  13  14
ATOM     14  C   UNL     1      26.075   7.947  18.585  1.00  0.00     0.041 C 
ATOM     15  O   UNL     1      26.782   8.985  18.662  1.00  0.00    -0.550 OA
ATOM     16  O   UNL     1      26.688   6.704  18.480  1.00  0.00    -0.550 OA
ENDBRANCH  13  14
ENDBRANCH  12  13
ENDBRANCH  11  12
ENDBRANCH  10  11
ENDBRANCH   9  10
ENDBRANCH   8   9
ENDBRANCH   7   8
ENDBRANCH   6   7
ENDBRANCH   5   6
ENDBRANCH   4   5
ENDBRANCH   3   4
ENDBRANCH   2   3
ENDBRANCH   1   2
BRANCH   1  17
ATOM     17  C   UNL     1      22.305  10.635  20.067  1.00  0.00     0.000 C 
BRANCH  17  18
ATOM     18  C   UNL     1      23.230  11.473  20.968  1.00  0.00     0.000 C 
BRANCH  18  19
ATOM     19  C   UNL     1      23.348  12.941  20.520  1.00  0.00     0.000 C 
BRANCH  19  20
ATOM     20  C   UNL     1      22.145  13.400  19.680  1.00  0.00     0.000 C 
BRANCH  20  21
ATOM     21  C   UNL     1      21.190  14.320  20.460  1.00  0.00     0.000 C 
BRANCH  21  22
ATOM     22  C   UNL     1      20.096  14.923  19.565  1.00  0.00    -0.000 C 
BRANCH  22  23
ATOM     23  C   UNL     1      19.303  16.041  20.262  1.00  0.00    -0.000 C 
BRANCH  23  24
ATOM     24  C   UNL     1      20.149  17.303  20.516  1.00  0.00    -0.000 C 
BRANCH  24  25
ATOM     25  C   UNL     1      19.347  18.617  20.605  1.00  0.00    -0.000 C 
BRANCH  25  26
ATOM     26  C   UNL     1      20.185  19.854  20.242  1.00  0.00    -0.000 C 
BRANCH  26  27
ATOM     27  C   UNL     1      21.631  19.501  19.855  1.00  0.00    -0.000 C 
BRANCH  27  28
ATOM     28  C   UNL     1      22.186  20.354  18.694  1.00  0.00    -0.000 C 
BRANCH  28  29
ATOM     29  C   UNL     1      21.820  21.838  18.845  1.00  0.00    -0.003 C 
ATOM     30  C   UNL     1      22.905  22.597  19.602  1.00  0.00     0.004 C 
ENDBRANCH  28  29
ENDBRANCH  27  28
ENDBRANCH  26  27
ENDBRANCH  25  26
ENDBRANCH  24  25
ENDBRANCH  23  24
ENDBRANCH  22  23
ENDBRANCH  21  22
ENDBRANCH  20  21
ENDBRANCH  19  20
ENDBRANCH  18  19
ENDBRANCH  17  18
ENDBRANCH   1  17
TORSDOF 26
ENDMDL
MODEL 5
REMARK VINA RESULT:    -2.890      4.996      9.619
REMARK INTER + INTRA:         -10.594
REMARK INTER:                  -5.775
REMARK INTRA:                  -4.819
REMARK UNBOUND:                -3.311
REMARK SMILES CCCCCCCCCCCCCCCCCCCCCCCCCCCC(=O)[O-]
REMARK SMILES IDX 15 1 16 2 17 3 18 4 19 5 20 6 21 7 22 8 23 9 24 10 25 11
REMARK SMILES IDX 26 12 27 13 28 14 29 15 30 16 14 17 13 18 12 19 11 20 10 21
REMARK SMILES IDX 9 22 8 23 7 24 6 25 5 26 4 27 3 28 2 29 1 30
REMARK H PARENT
REMARK Flexibility Score: inf
ROOT
ATOM      1  C   UNL     1      25.393   7.774  20.063  1.00  0.00     0.000 C 
ENDROOT
BRANCH   1   2
ATOM      2  C   UNL     1      26.272   8.439  18.982  1.00  0.00     0.000 C 
BRANCH   2   3
ATOM      3  C   UNL     1      25.774   8.226  17.536  1.00  0.00     0.000 C 
BRANCH   3   4
ATOM      4  C   UNL     1      25.701   6.745  17.111  1.00  0.00     0.000 C 
BRANCH   4   5
ATOM      5  C   UNL     1      25.001   6.560  15.753  1.00  0.00     0.000 C 
BRANCH   5   6
ATOM      6  C   UNL     1      23.604   5.927  15.880  1.00  0.00     0.000 C 
BRANCH   6   7
ATOM      7  C   UNL     1      23.208   5.569  17.327  1.00  0.00     0.000 C 
BRANCH   7   8
ATOM      8  C   UNL     1      21.693   5.683  17.568  1.00  0.00     0.000 C 
BRANCH   8   9
ATOM      9  C   UNL     1      20.907   5.999  16.284  1.00  0.00     0.000 C 
BRANCH   9  10
ATOM     10  C   UNL     1      19.428   5.558  16.345  1.00  0.00     0.000 C 
BRANCH  10  11
ATOM     11  C   UNL     1      18.793   5.828  17.718  1.00  0.00     0.000 C 
BRANCH  11  12
ATOM     12  C   UNL     1      18.378   7.300  17.848  1.00  0.00     0.006 C 
BRANCH  12  13
ATOM     13  C   UNL     1      18.099   7.701  19.303  1.00  0.00     0.053 C 
BRANCH  13  14
ATOM     14  C   UNL     1      19.321   7.574  20.161  1.00  0.00     0.041 C 
ATOM     15  O   UNL     1      20.224   8.451  20.116  1.00  0.00    -0.550 OA
ATOM     16  O   UNL     1      19.468   6.480  21.006  1.00  0.00    -0.550 OA
ENDBRANCH  13  14
ENDBRANCH  12  13
ENDBRANCH  11  12
ENDBRANCH  10  11
ENDBRANCH   9  10
ENDBRANCH   8   9
ENDBRANCH   7   8
ENDBRANCH   6   7
ENDBRANCH   5   6
ENDBRANCH   4   5
ENDBRANCH   3   4
ENDBRANCH   2   3
ENDBRANCH   1   2
BRANCH   1  17
ATOM     17  C   UNL     1      23.896   8.134  19.988  1.00  0.00     0.000 C 
BRANCH  17  18
ATOM     18  C   UNL     1      23.443   9.232  20.966  1.00  0.00     0.000 C 
BRANCH  18  19
ATOM     19  C   UNL     1      23.574  10.652  20.388  1.00  0.00     0.000 C 
BRANCH  19  20
ATOM     20  C   UNL     1      22.368  11.542  20.731  1.00  0.00     0.000 C 
BRANCH  20  21
ATOM     21  C   UNL     1      22.495  12.965  20.157  1.00  0.00     0.000 C 
BRANCH  21  22
ATOM     22  C   UNL     1      21.185  13.760  20.267  1.00  0.00    -0.000 C 
BRANCH  22  23
ATOM     23  C   UNL     1      20.047  12.949  20.908  1.00  0.00    -0.000 C 
BRANCH  23  24
ATOM     24  C   UNL     1      18.812  12.829  19.995  1.00  0.00    -0.000 C 
BRANCH  24  25
ATOM     25  C   UNL     1      18.571  11.424  19.408  1.00  0.00    -0.000 C 
BRANCH  25  26
ATOM     26  C   UNL     1      18.210  11.455  17.914  1.00  0.00    -0.000 C 
BRANCH  26  27
ATOM     27  C   UNL     1      19.389  11.887  17.025  1.00  0.00    -0.000 C 
BRANCH  27  28
ATOM     28  C   UNL     1      20.735  11.250  17.430  1.00  0.00    -0.000 C 
BRANCH  28  29
ATOM     29  C   UNL     1      20.821   9.775  17.012  1.00  0.00    -0.003 C 
ATOM     30  C   UNL     1      22.264   9.280  17.036  1.00  0.00     0.004 C 
ENDBRANCH  28  29
ENDBRANCH  27  28
ENDBRANCH  26  27
ENDBRANCH  25  26
ENDBRANCH  24  25
ENDBRANCH  23  24
ENDBRANCH  22  23
ENDBRANCH  21  22
ENDBRANCH  20  21
ENDBRANCH  19  20
ENDBRANCH  18  19
ENDBRANCH  17  18
ENDBRANCH   1  17
TORSDOF 26
ENDMDL
MODEL 6
REMARK VINA RESULT:    -2.885      1.489      4.171
REMARK INTER + INTRA:         -10.582
REMARK INTER:                  -8.099
REMARK INTRA:                  -2.483
REMARK UNBOUND:                -3.311
REMARK SMILES CCCCCCCCCCCCCCCCCCCCCCCCCCCC(=O)[O-]
REMARK SMILES IDX 15 1 16 2 17 3 18 4 19 5 20 6 21 7 22 8 23 9 24 10 25 11
REMARK SMILES IDX 26 12 27 13 28 14 29 15 30 16 14 17 13 18 12 19 11 20 10 21
REMARK SMILES IDX 9 22 8 23 7 24 6 25 5 26 4 27 3 28 2 29 1 30
REMARK H PARENT
REMARK Flexibility Score: inf
ROOT
ATOM      1  C   UNL     1      21.295  11.701  18.573  1.00  0.00     0.000 C 
ENDROOT
BRANCH   1   2
ATOM      2  C   UNL     1      21.823  13.055  19.096  1.00  0.00     0.000 C 
BRANCH   2   3
ATOM      3  C   UNL     1      21.543  13.314  20.592  1.00  0.00     0.000 C 
BRANCH   3   4
ATOM      4  C   UNL     1      21.270  14.793  20.931  1.00  0.00     0.000 C 
BRANCH   4   5
ATOM      5  C   UNL     1      20.123  15.385  20.093  1.00  0.00     0.000 C 
BRANCH   5   6
ATOM      6  C   UNL     1      19.727  16.804  20.536  1.00  0.00     0.000 C 
BRANCH   6   7
ATOM      7  C   UNL     1      20.862  17.840  20.408  1.00  0.00     0.000 C 
BRANCH   7   8
ATOM      8  C   UNL     1      20.498  19.194  21.040  1.00  0.00     0.000 C 
BRANCH   8   9
ATOM      9  C   UNL     1      20.562  20.358  20.035  1.00  0.00     0.000 C 
BRANCH   9  10
ATOM     10  C   UNL     1      21.740  20.249  19.042  1.00  0.00     0.000 C 
BRANCH  10  11
ATOM     11  C   UNL     1      22.897  21.193  19.402  1.00  0.00     0.000 C 
BRANCH  11  12
ATOM     12  C   UNL     1      22.474  22.183  20.497  1.00  0.00     0.006 C 
BRANCH  12  13
ATOM     13  C   UNL     1      22.603  23.644  20.044  1.00  0.00     0.053 C 
BRANCH  13  14
ATOM     14  C   UNL     1      21.534  24.021  19.065  1.00  0.00     0.041 C 
ATOM     15  O   UNL     1      21.836  24.576  17.976  1.00  0.00    -0.550 OA
ATOM     16  O   UNL     1      20.200  23.766  19.358  1.00  0.00    -0.550 OA
ENDBRANCH  13  14
ENDBRANCH  12  13
ENDBRANCH  11  12
ENDBRANCH  10  11
ENDBRANCH   9  10
ENDBRANCH   8   9
ENDBRANCH   7   8
ENDBRANCH   6   7
ENDBRANCH   5   6
ENDBRANCH   4   5
ENDBRANCH   3   4
ENDBRANCH   2   3
ENDBRANCH   1   2
BRANCH   1  17
ATOM     17  C   UNL     1      19.786  11.472  18.790  1.00  0.00     0.000 C 
BRANCH  17  18
ATOM     18  C   UNL     1      18.867  12.242  17.826  1.00  0.00     0.000 C 
BRANCH  18  19
ATOM     19  C   UNL     1      18.053  11.323  16.898  1.00  0.00     0.000 C 
BRANCH  19  20
ATOM     20  C   UNL     1      18.320   9.832  17.162  1.00  0.00     0.000 C 
BRANCH  20  21
ATOM     21  C   UNL     1      18.490   9.020  15.865  1.00  0.00     0.000 C 
BRANCH  21  22
ATOM     22  C   UNL     1      19.533   7.900  16.009  1.00  0.00    -0.000 C 
BRANCH  22  23
ATOM     23  C   UNL     1      20.057   7.754  17.447  1.00  0.00    -0.000 C 
BRANCH  23  24
ATOM     24  C   UNL     1      21.538   7.332  17.502  1.00  0.00    -0.000 C 
BRANCH  24  25
ATOM     25  C   UNL     1      22.547   8.467  17.243  1.00  0.00    -0.000 C 
BRANCH  25  26
ATOM     26  C   UNL     1      23.900   8.233  17.935  1.00  0.00    -0.000 C 
BRANCH  26  27
ATOM     27  C   UNL     1      24.983   7.719  16.971  1.00  0.00    -0.000 C 
BRANCH  27  28
ATOM     28  C   UNL     1      24.697   6.307  16.416  1.00  0.00    -0.000 C 
BRANCH  28  29
ATOM     29  C   UNL     1      24.429   6.328  14.905  1.00  0.00    -0.003 C 
ATOM     30  C   UNL     1      23.304   5.367  14.532  1.00  0.00     0.004 C 
ENDBRANCH  28  29
ENDBRANCH  27  28
ENDBRANCH  26  27
ENDBRANCH  25  26
ENDBRANCH  24  25
ENDBRANCH  23  24
ENDBRANCH  22  23
ENDBRANCH  21  22
ENDBRANCH  20  21
ENDBRANCH  19  20
ENDBRANCH  18  19
ENDBRANCH  17  18
ENDBRANCH   1  17
TORSDOF 26
ENDMDL
MODEL 7
REMARK VINA RESULT:    -2.765      4.329     12.058
REMARK INTER + INTRA:         -10.279
REMARK INTER:                  -7.669
REMARK INTRA:                  -2.609
REMARK UNBOUND:                -3.311
REMARK SMILES CCCCCCCCCCCCCCCCCCCCCCCCCCCC(=O)[O-]
REMARK SMILES IDX 15 1 16 2 17 3 18 4 19 5 20 6 21 7 22 8 23 9 24 10 25 11
REMARK SMILES IDX 26 12 27 13 28 14 29 15 30 16 14 17 13 18 12 19 11 20 10 21
REMARK SMILES IDX 9 22 8 23 7 24 6 25 5 26 4 27 3 28 2 29 1 30
REMARK H PARENT
REMARK Flexibility Score: inf
ROOT
ATOM      1  C   UNL     1      21.619  10.300  17.521  1.00  0.00     0.000 C 
ENDROOT
BRANCH   1   2
ATOM      2  C   UNL     1      20.744   9.709  18.648  1.00  0.00     0.000 C 
BRANCH   2   3
ATOM      3  C   UNL     1      21.540   9.113  19.828  1.00  0.00     0.000 C 
BRANCH   3   4
ATOM      4  C   UNL     1      23.062   9.048  19.588  1.00  0.00     0.000 C 
BRANCH   4   5
ATOM      5  C   UNL     1      23.673   7.715  20.054  1.00  0.00     0.000 C 
BRANCH   5   6
ATOM      6  C   UNL     1      25.202   7.778  20.209  1.00  0.00     0.000 C 
BRANCH   6   7
ATOM      7  C   UNL     1      25.917   8.529  19.067  1.00  0.00     0.000 C 
BRANCH   7   8
ATOM      8  C   UNL     1      26.070   7.668  17.802  1.00  0.00     0.000 C 
BRANCH   8   9
ATOM      9  C   UNL     1      25.040   8.017  16.714  1.00  0.00     0.000 C 
BRANCH   9  10
ATOM     10  C   UNL     1      24.534   6.788  15.928  1.00  0.00     0.000 C 
BRANCH  10  11
ATOM     11  C   UNL     1      23.955   5.703  16.850  1.00  0.00     0.000 C 
BRANCH  11  12
ATOM     12  C   UNL     1      22.500   5.387  16.474  1.00  0.00     0.006 C 
BRANCH  12  13
ATOM     13  C   UNL     1      21.504   6.345  17.142  1.00  0.00     0.053 C 
BRANCH  13  14
ATOM     14  C   UNL     1      20.540   6.925  16.152  1.00  0.00     0.041 C 
ATOM     15  O   UNL     1      19.357   7.187  16.495  1.00  0.00    -0.550 OA
ATOM     16  O   UNL     1      20.946   7.169  14.846  1.00  0.00    -0.550 OA
ENDBRANCH  13  14
ENDBRANCH  12  13
ENDBRANCH  11  12
ENDBRANCH  10  11
ENDBRANCH   9  10
ENDBRANCH   8   9
ENDBRANCH   7   8
ENDBRANCH   6   7
ENDBRANCH   5   6
ENDBRANCH   4   5
ENDBRANCH   3   4
ENDBRANCH   2   3
ENDBRANCH   1   2
BRANCH   1  17
ATOM     17  C   UNL     1      21.115  11.640  16.950  1.00  0.00     0.000 C 
BRANCH  17  18
ATOM     18  C   UNL     1      20.024  12.332  17.786  1.00  0.00     0.000 C 
BRANCH  18  19
ATOM     19  C   UNL     1      20.575  13.427  18.718  1.00  0.00     0.000 C 
BRANCH  19  20
ATOM     20  C   UNL     1      19.507  13.978  19.676  1.00  0.00     0.000 C 
BRANCH  20  21
ATOM     21  C   UNL     1      20.063  15.043  20.638  1.00  0.00     0.000 C 
BRANCH  21  22
ATOM     22  C   UNL     1      19.886  16.471  20.098  1.00  0.00    -0.000 C 
BRANCH  22  23
ATOM     23  C   UNL     1      20.821  17.486  20.776  1.00  0.00    -0.000 C 
BRANCH  23  24
ATOM     24  C   UNL     1      20.186  18.882  20.914  1.00  0.00    -0.000 C 
BRANCH  24  25
ATOM     25  C   UNL     1      21.118  20.058  20.562  1.00  0.00    -0.000 C 
BRANCH  25  26
ATOM     26  C   UNL     1      21.749  19.924  19.166  1.00  0.00    -0.000 C 
BRANCH  26  27
ATOM     27  C   UNL     1      22.833  20.981  18.898  1.00  0.00    -0.000 C 
BRANCH  27  28
ATOM     28  C   UNL     1      22.615  22.301  19.667  1.00  0.00    -0.000 C 
BRANCH  28  29
ATOM     29  C   UNL     1      21.801  23.314  18.850  1.00  0.00    -0.003 C 
ATOM     30  C   UNL     1      22.513  24.661  18.778  1.00  0.00     0.004 C 
ENDBRANCH  28  29
ENDBRANCH  27  28
ENDBRANCH  26  27
ENDBRANCH  25  26
ENDBRANCH  24  25
ENDBRANCH  23  24
ENDBRANCH  22  23
ENDBRANCH  21  22
ENDBRANCH  20  21
ENDBRANCH  19  20
ENDBRANCH  18  19
ENDBRANCH  17  18
ENDBRANCH   1  17
TORSDOF 26
ENDMDL
MODEL 8
REMARK VINA RESULT:    -2.724      4.286     12.445
REMARK INTER + INTRA:         -10.175
REMARK INTER:                  -7.918
REMARK INTRA:                  -2.256
REMARK UNBOUND:                -3.311
REMARK SMILES CCCCCCCCCCCCCCCCCCCCCCCCCCCC(=O)[O-]
REMARK SMILES IDX 15 1 16 2 17 3 18 4 19 5 20 6 21 7 22 8 23 9 24 10 25 11
REMARK SMILES IDX 26 12 27 13 28 14 29 15 30 16 14 17 13 18 12 19 11 20 10 21
REMARK SMILES IDX 9 22 8 23 7 24 6 25 5 26 4 27 3 28 2 29 1 30
REMARK H PARENT
REMARK Flexibility Score: inf
ROOT
ATOM      1  C   UNL     1      20.561  13.556  18.575  1.00  0.00     0.000 C 
ENDROOT
BRANCH   1   2
ATOM      2  C   UNL     1      21.524  12.617  17.817  1.00  0.00     0.000 C 
BRANCH   2   3
ATOM      3  C   UNL     1      20.827  11.489  17.027  1.00  0.00     0.000 C 
BRANCH   3   4
ATOM      4  C   UNL     1      19.291  11.483  17.168  1.00  0.00     0.000 C 
BRANCH   4   5
ATOM      5  C   UNL     1      18.662  10.169  16.672  1.00  0.00     0.000 C 
BRANCH   5   6
ATOM      6  C   UNL     1      19.498   8.929  17.037  1.00  0.00     0.000 C 
BRANCH   6   7
ATOM      7  C   UNL     1      19.920   8.079  15.821  1.00  0.00     0.000 C 
BRANCH   7   8
ATOM      8  C   UNL     1      20.445   6.691  16.226  1.00  0.00     0.000 C 
BRANCH   8   9
ATOM      9  C   UNL     1      21.841   6.391  15.654  1.00  0.00     0.000 C 
BRANCH   9  10
ATOM     10  C   UNL     1      22.976   6.537  16.691  1.00  0.00     0.000 C 
BRANCH  10  11
ATOM     11  C   UNL     1      22.472   6.379  18.134  1.00  0.00     0.000 C 
BRANCH  11  12
ATOM     12  C   UNL     1      22.955   7.544  19.012  1.00  0.00     0.006 C 
BRANCH  12  13
ATOM     13  C   UNL     1      24.207   8.223  18.442  1.00  0.00     0.053 C 
BRANCH  13  14
ATOM     14  C   UNL     1      25.356   8.172  19.402  1.00  0.00     0.041 C 
ATOM     15  O   UNL     1      26.487   8.608  19.065  1.00  0.00    -0.550 OA
ATOM     16  O   UNL     1      25.179   7.632  20.671  1.00  0.00    -0.550 OA
ENDBRANCH  13  14
ENDBRANCH  12  13
ENDBRANCH  11  12
ENDBRANCH  10  11
ENDBRANCH   9  10
ENDBRANCH   8   9
ENDBRANCH   7   8
ENDBRANCH   6   7
ENDBRANCH   5   6
ENDBRANCH   4   5
ENDBRANCH   3   4
ENDBRANCH   2   3
ENDBRANCH   1   2
BRANCH   1  17
ATOM     17  C   UNL     1      20.817  13.654  20.092  1.00  0.00     0.000 C 
BRANCH  17  18
ATOM     18  C   UNL     1      20.213  14.895  20.773  1.00  0.00     0.000 C 
BRANCH  18  19
ATOM     19  C   UNL     1      19.518  15.851  19.788  1.00  0.00     0.000 C 
BRANCH  19  20
ATOM     20  C   UNL     1      19.185  17.211  20.422  1.00  0.00     0.000 C 
BRANCH  20  21
ATOM     21  C   UNL     1      20.435  18.074  20.671  1.00  0.00     0.000 C 
BRANCH  21  22
ATOM     22  C   UNL     1      20.122  19.579  20.654  1.00  0.00    -0.000 C 
BRANCH  22  23
ATOM     23  C   UNL     1      20.951  20.349  19.613  1.00  0.00    -0.000 C 
BRANCH  23  24
ATOM     24  C   UNL     1      22.134  21.111  20.239  1.00  0.00    -0.000 C 
BRANCH  24  25
ATOM     25  C   UNL     1      22.868  22.073  19.284  1.00  0.00    -0.000 C 
BRANCH  25  26
ATOM     26  C   UNL     1      22.678  23.551  19.663  1.00  0.00    -0.000 C 
BRANCH  26  27
ATOM     27  C   UNL     1      22.060  24.383  18.528  1.00  0.00    -0.000 C 
BRANCH  27  28
ATOM     28  C   UNL     1      20.650  23.913  18.112  1.00  0.00    -0.000 C 
BRANCH  28  29
ATOM     29  C   UNL     1      19.641  24.036  19.263  1.00  0.00    -0.003 C 
ATOM     30  C   UNL     1      18.482  23.060  19.086  1.00  0.00     0.004 C 
ENDBRANCH  28  29
ENDBRANCH  27  28
ENDBRANCH  26  27
ENDBRANCH  25  26
ENDBRANCH  24  25
ENDBRANCH  23  24
ENDBRANCH  22  23
ENDBRANCH  21  22
ENDBRANCH  20  21
ENDBRANCH  19  20
ENDBRANCH  18  19
ENDBRANCH  17  18
ENDBRANCH   1  17
TORSDOF 26
ENDMDL
MODEL 9
REMARK VINA RESULT:    -2.665      5.425      9.652
REMARK INTER + INTRA:         -10.028
REMARK INTER:                  -4.856
REMARK INTRA:                  -5.172
REMARK UNBOUND:                -3.311
REMARK SMILES CCCCCCCCCCCCCCCCCCCCCCCCCCCC(=O)[O-]
REMARK SMILES IDX 15 1 16 2 17 3 18 4 19 5 20 6 21 7 22 8 23 9 24 10 25 11
REMARK SMILES IDX 26 12 27 13 28 14 29 15 30 16 14 17 13 18 12 19 11 20 10 21
REMARK SMILES IDX 9 22 8 23 7 24 6 25 5 26 4 27 3 28 2 29 1 30
REMARK H PARENT
REMARK Flexibility Score: inf
ROOT
ATOM      1  C   UNL     1      24.666   8.215  16.963  1.00  0.00     0.000 C 
ENDROOT
BRANCH   1   2
ATOM      2  C   UNL     1      26.073   7.737  17.385  1.00  0.00     0.000 C 
BRANCH   2   3
ATOM      3  C   UNL     1      26.473   8.126  18.824  1.00  0.00     0.000 C 
BRANCH   3   4
ATOM      4  C   UNL     1      26.785   6.921  19.735  1.00  0.00     0.000 C 
BRANCH   4   5
ATOM      5  C   UNL     1      25.547   6.437  20.510  1.00  0.00     0.000 C 
BRANCH   5   6
ATOM      6  C   UNL     1      25.080   5.035  20.080  1.00  0.00     0.000 C 
BRANCH   6   7
ATOM      7  C   UNL     1      23.547   4.875  20.026  1.00  0.00     0.000 C 
BRANCH   7   8
ATOM      8  C   UNL     1      22.817   5.897  20.914  1.00  0.00     0.000 C 
BRANCH   8   9
ATOM      9  C   UNL     1      21.299   5.654  20.978  1.00  0.00     0.000 C 
BRANCH   9  10
ATOM     10  C   UNL     1      20.589   5.837  19.619  1.00  0.00     0.000 C 
BRANCH  10  11
ATOM     11  C   UNL     1      19.160   6.380  19.775  1.00  0.00     0.000 C 
BRANCH  11  12
ATOM     12  C   UNL     1      18.510   6.611  18.403  1.00  0.00     0.006 C 
BRANCH  12  13
ATOM     13  C   UNL     1      19.191   7.741  17.618  1.00  0.00     0.053 C 
BRANCH  13  14
ATOM     14  C   UNL     1      19.513   7.329  16.214  1.00  0.00     0.041 C 
ATOM     15  O   UNL     1      20.644   7.581  15.721  1.00  0.00    -0.550 OA
ATOM     16  O   UNL     1      18.560   6.672  15.445  1.00  0.00    -0.550 OA
ENDBRANCH  13  14
ENDBRANCH  12  13
ENDBRANCH  11  12
ENDBRANCH  10  11
ENDBRANCH   9  10
ENDBRANCH   8   9
ENDBRANCH   7   8
ENDBRANCH   6   7
ENDBRANCH   5   6
ENDBRANCH   4   5
ENDBRANCH   3   4
ENDBRANCH   2   3
ENDBRANCH   1   2
BRANCH   1  17
ATOM     17  C   UNL     1      23.507   7.594  17.768  1.00  0.00     0.000 C 
BRANCH  17  18
ATOM     18  C   UNL     1      22.608   8.608  18.497  1.00  0.00     0.000 C 
BRANCH  18  19
ATOM     19  C   UNL     1      23.337   9.369  19.620  1.00  0.00     0.000 C 
BRANCH  19  20
ATOM     20  C   UNL     1      22.475   9.524  20.883  1.00  0.00     0.000 C 
BRANCH  20  21
ATOM     21  C   UNL     1      20.969   9.390  20.597  1.00  0.00     0.000 C 
BRANCH  21  22
ATOM     22  C   UNL     1      20.208  10.704  20.832  1.00  0.00    -0.000 C 
BRANCH  22  23
ATOM     23  C   UNL     1      21.136  11.929  20.884  1.00  0.00    -0.000 C 
BRANCH  23  24
ATOM     24  C   UNL     1      20.489  13.193  20.284  1.00  0.00    -0.000 C 
BRANCH  24  25
ATOM     25  C   UNL     1      18.948  13.177  20.245  1.00  0.00    -0.000 C 
BRANCH  25  26
ATOM     26  C   UNL     1      18.388  13.196  18.813  1.00  0.00    -0.000 C 
BRANCH  26  27
ATOM     27  C   UNL     1      17.886  11.818  18.351  1.00  0.00    -0.000 C 
BRANCH  27  28
ATOM     28  C   UNL     1      18.443  11.385  16.978  1.00  0.00    -0.000 C 
BRANCH  28  29
ATOM     29  C   UNL     1      19.805  12.028  16.682  1.00  0.00    -0.003 C 
ATOM     30  C   UNL     1      20.949  11.134  17.151  1.00  0.00     0.004 C 
ENDBRANCH  28  29
ENDBRANCH  27  28
ENDBRANCH  26  27
ENDBRANCH  25  26
ENDBRANCH  24  25
ENDBRANCH  23  24
ENDBRANCH  22  23
ENDBRANCH  21  22
ENDBRANCH  20  21
ENDBRANCH  19  20
ENDBRANCH  18  19
ENDBRANCH  17  18
ENDBRANCH   1  17
TORSDOF 26
ENDMDL
