MODEL 1
REMARK VINA RESULT:    -5.541      0.000      0.000
REMARK INTER + INTRA:          -6.641
REMARK INTER:                  -6.513
REMARK INTRA:                  -0.128
REMARK UNBOUND:                -0.128
REMARK SMILES O=C([O-])C=Cc1ccc(O)c(O)c1
REMARK SMILES IDX 6 1 13 2 7 3 11 4 8 5 9 6 5 7 4 8 2 9 1 10 3 11 12 12 10 14
REMARK H PARENT 12 13 10 15
REMARK Flexibility Score: inf
ROOT
ATOM      1  C   UNL     1      32.043  20.943  13.120  1.00  0.00    -0.022 A 
ATOM      2  C   UNL     1      33.307  20.342  13.004  1.00  0.00     0.058 A 
ATOM      3  C   UNL     1      31.889  22.035  13.994  1.00  0.00     0.012 A 
ATOM      4  C   UNL     1      34.396  20.795  13.759  1.00  0.00     0.157 A 
ATOM      5  C   UNL     1      32.970  22.492  14.750  1.00  0.00     0.051 A 
ATOM      6  C   UNL     1      34.224  21.882  14.646  1.00  0.00     0.157 A 
ENDROOT
BRANCH   1   7
ATOM      7  C   UNL     1      30.930  20.424  12.286  1.00  0.00     0.010 C 
ATOM      8  C   UNL     1      30.721  19.122  12.048  1.00  0.00     0.025 C 
BRANCH   8   9
ATOM      9  C   UNL     1      29.610  18.654  11.205  1.00  0.00     0.064 C 
ATOM     10  O   UNL     1      29.845  17.876  10.244  1.00  0.00    -0.545 OA
ATOM     11  O   UNL     1      28.302  19.057  11.452  1.00  0.00    -0.545 OA
ENDBRANCH   8   9
ENDBRANCH   1   7
BRANCH   4  12
ATOM     12  O   UNL     1      35.619  20.140  13.596  1.00  0.00    -0.504 OA
ATOM     13  H   UNL     1      36.201  20.229  12.776  1.00  0.00     0.293 HD
ENDBRANCH   4  12
BRANCH   6  14
ATOM     14  O   UNL     1      35.262  22.387  15.433  1.00  0.00    -0.504 OA
ATOM     15  H   UNL     1      35.410  23.369  15.610  1.00  0.00     0.293 HD
ENDBRANCH   6  14
TORSDOF 4
ENDMDL
MODEL 2
REMARK VINA RESULT:    -5.406      1.259      5.973
REMARK INTER + INTRA:          -6.483
REMARK INTER:                  -6.347
REMARK INTRA:                  -0.135
REMARK UNBOUND:                -0.128
REMARK SMILES O=C([O-])C=Cc1ccc(O)c(O)c1
REMARK SMILES IDX 6 1 13 2 7 3 11 4 8 5 9 6 5 7 4 8 2 9 1 10 3 11 12 12 10 14
REMARK H PARENT 12 13 10 15
REMARK Flexibility Score: inf
ROOT
ATOM      1  C   UNL     1      32.192  19.575  11.962  1.00  0.00    -0.022 A 
ATOM      2  C   UNL     1      31.039  19.187  12.665  1.00  0.00     0.058 A 
ATOM      3  C   UNL     1      32.223  19.404  10.566  1.00  0.00     0.012 A 
ATOM      4  C   UNL     1      29.945  18.616  12.004  1.00  0.00     0.157 A 
ATOM      5  C   UNL     1      31.136  18.835   9.899  1.00  0.00     0.051 A 
ATOM      6  C   UNL     1      29.996  18.434  10.602  1.00  0.00     0.157 A 
ENDROOT
BRANCH   1   7
ATOM      7  C   UNL     1      33.314  20.184  12.718  1.00  0.00     0.010 C 
ATOM      8  C   UNL     1      33.196  20.676  13.959  1.00  0.00     0.025 C 
BRANCH   8   9
ATOM      9  C   UNL     1      34.335  21.282  14.666  1.00  0.00     0.064 C 
ATOM     10  O   UNL     1      35.508  21.020  14.295  1.00  0.00    -0.545 OA
ATOM     11  O   UNL     1      34.136  22.143  15.741  1.00  0.00    -0.545 OA
ENDBRANCH   8   9
ENDBRANCH   1   7
BRANCH   4  12
ATOM     12  O   UNL     1      28.839  18.247  12.772  1.00  0.00    -0.504 OA
ATOM     13  H   UNL     1      28.848  18.183  13.780  1.00  0.00     0.293 HD
ENDBRANCH   4  12
BRANCH   6  14
ATOM     14  O   UNL     1      28.946  17.869   9.875  1.00  0.00    -0.504 OA
ATOM     15  H   UNL     1      28.607  16.928  10.012  1.00  0.00     0.293 HD
ENDBRANCH   6  14
TORSDOF 4
ENDMDL
MODEL 3
REMARK VINA RESULT:    -4.654     16.993     18.490
REMARK INTER + INTRA:          -5.598
REMARK INTER:                  -5.463
REMARK INTRA:                  -0.136
REMARK UNBOUND:                -0.128
REMARK SMILES O=C([O-])C=Cc1ccc(O)c(O)c1
REMARK SMILES IDX 6 1 13 2 7 3 11 4 8 5 9 6 5 7 4 8 2 9 1 10 3 11 12 12 10 14
REMARK H PARENT 12 13 10 15
REMARK Flexibility Score: inf
ROOT
ATOM      1  C   UNL     1      35.298  12.742  29.030  1.00  0.00    -0.022 A 
ATOM      2  C   UNL     1      34.213  12.034  29.570  1.00  0.00     0.058 A 
ATOM      3  C   UNL     1      36.355  12.020  28.446  1.00  0.00     0.012 A 
ATOM      4  C   UNL     1      34.184  10.634  29.559  1.00  0.00     0.157 A 
ATOM      5  C   UNL     1      36.334  10.624  28.431  1.00  0.00     0.051 A 
ATOM      6  C   UNL     1      35.260   9.920  28.985  1.00  0.00     0.157 A 
ENDROOT
BRANCH   1   7
ATOM      7  C   UNL     1      35.267  14.226  29.062  1.00  0.00     0.010 C 
ATOM      8  C   UNL     1      35.435  14.998  27.980  1.00  0.00     0.025 C 
BRANCH   8   9
ATOM      9  C   UNL     1      35.407  16.467  28.060  1.00  0.00     0.064 C 
ATOM     10  O   UNL     1      34.859  17.129  27.142  1.00  0.00    -0.545 OA
ATOM     11  O   UNL     1      35.977  17.137  29.138  1.00  0.00    -0.545 OA
ENDBRANCH   8   9
ENDBRANCH   1   7
BRANCH   4  12
ATOM     12  O   UNL     1      33.074  10.001  30.125  1.00  0.00    -0.504 OA
ATOM     13  H   UNL     1      32.433   9.419  29.607  1.00  0.00     0.293 HD
ENDBRANCH   4  12
BRANCH   6  14
ATOM     14  O   UNL     1      35.302   8.524  28.940  1.00  0.00    -0.504 OA
ATOM     15  H   UNL     1      36.155   7.985  28.948  1.00  0.00     0.293 HD
ENDBRANCH   6  14
TORSDOF 4
ENDMDL
MODEL 4
REMARK VINA RESULT:    -4.639     16.494     18.749
REMARK INTER + INTRA:          -5.581
REMARK INTER:                  -5.445
REMARK INTRA:                  -0.135
REMARK UNBOUND:                -0.128
REMARK SMILES O=C([O-])C=Cc1ccc(O)c(O)c1
REMARK SMILES IDX 6 1 13 2 7 3 11 4 8 5 9 6 5 7 4 8 2 9 1 10 3 11 12 12 10 14
REMARK H PARENT 12 13 10 15
REMARK Flexibility Score: inf
ROOT
ATOM      1  C   UNL     1      45.472  11.907  22.746  1.00  0.00    -0.022 A 
ATOM      2  C   UNL     1      45.316  11.384  21.452  1.00  0.00     0.058 A 
ATOM      3  C   UNL     1      45.647  11.014  23.820  1.00  0.00     0.012 A 
ATOM      4  C   UNL     1      45.306  10.003  21.224  1.00  0.00     0.157 A 
ATOM      5  C   UNL     1      45.639   9.635  23.601  1.00  0.00     0.051 A 
ATOM      6  C   UNL     1      45.467   9.116  22.314  1.00  0.00     0.157 A 
ENDROOT
BRANCH   1   7
ATOM      7  C   UNL     1      45.483  13.380  22.922  1.00  0.00     0.010 C 
ATOM      8  C   UNL     1      45.042  14.244  21.998  1.00  0.00     0.025 C 
BRANCH   8   9
ATOM      9  C   UNL     1      45.083  15.699  22.211  1.00  0.00     0.064 C 
ATOM     10  O   UNL     1      45.230  16.153  23.376  1.00  0.00    -0.545 OA
ATOM     11  O   UNL     1      44.964  16.584  21.145  1.00  0.00    -0.545 OA
ENDBRANCH   8   9
ENDBRANCH   1   7
BRANCH   4  12
ATOM     12  O   UNL     1      45.137   9.560  19.911  1.00  0.00    -0.504 OA
ATOM     13  H   UNL     1      45.568   9.997  19.108  1.00  0.00     0.293 HD
ENDBRANCH   4  12
BRANCH   6  14
ATOM     14  O   UNL     1      45.465   7.727  22.165  1.00  0.00    -0.504 OA
ATOM     15  H   UNL     1      46.148   7.217  21.625  1.00  0.00     0.293 HD
ENDBRANCH   6  14
TORSDOF 4
ENDMDL
MODEL 5
REMARK VINA RESULT:    -4.626     16.117     18.177
REMARK INTER + INTRA:          -5.565
REMARK INTER:                  -5.430
REMARK INTRA:                  -0.135
REMARK UNBOUND:                -0.128
REMARK SMILES O=C([O-])C=Cc1ccc(O)c(O)c1
REMARK SMILES IDX 6 1 13 2 7 3 11 4 8 5 9 6 5 7 4 8 2 9 1 10 3 11 12 12 10 14
REMARK H PARENT 12 13 10 15
REMARK Flexibility Score: inf
ROOT
ATOM      1  C   UNL     1      43.621  10.877  23.238  1.00  0.00    -0.022 A 
ATOM      2  C   UNL     1      43.948  10.707  21.884  1.00  0.00     0.058 A 
ATOM      3  C   UNL     1      44.162   9.984  24.183  1.00  0.00     0.012 A 
ATOM      4  C   UNL     1      44.774   9.657  21.463  1.00  0.00     0.157 A 
ATOM      5  C   UNL     1      44.986   8.935  23.772  1.00  0.00     0.051 A 
ATOM      6  C   UNL     1      45.297   8.757  22.420  1.00  0.00     0.157 A 
ENDROOT
BRANCH   1   7
ATOM      7  C   UNL     1      42.749  12.015  23.623  1.00  0.00     0.010 C 
ATOM      8  C   UNL     1      42.557  13.097  22.857  1.00  0.00     0.025 C 
BRANCH   8   9
ATOM      9  C   UNL     1      41.692  14.208  23.284  1.00  0.00     0.064 C 
ATOM     10  O   UNL     1      40.927  14.056  24.271  1.00  0.00    -0.545 OA
ATOM     11  O   UNL     1      41.705  15.427  22.614  1.00  0.00    -0.545 OA
ENDBRANCH   8   9
ENDBRANCH   1   7
BRANCH   4  12
ATOM     12  O   UNL     1      45.046   9.549  20.098  1.00  0.00    -0.504 OA
ATOM     13  H   UNL     1      45.128  10.338  19.474  1.00  0.00     0.293 HD
ENDBRANCH   4  12
BRANCH   6  14
ATOM     14  O   UNL     1      46.125   7.686  22.076  1.00  0.00    -0.504 OA
ATOM     15  H   UNL     1      46.944   7.415  22.599  1.00  0.00     0.293 HD
ENDBRANCH   6  14
TORSDOF 4
ENDMDL
MODEL 6
REMARK VINA RESULT:    -4.599     16.023     17.627
REMARK INTER + INTRA:          -5.534
REMARK INTER:                  -5.399
REMARK INTRA:                  -0.136
REMARK UNBOUND:                -0.128
REMARK SMILES O=C([O-])C=Cc1ccc(O)c(O)c1
REMARK SMILES IDX 6 1 13 2 7 3 11 4 8 5 9 6 5 7 4 8 2 9 1 10 3 11 12 12 10 14
REMARK H PARENT 12 13 10 15
REMARK Flexibility Score: inf
ROOT
ATOM      1  C   UNL     1      45.109  12.999  21.931  1.00  0.00    -0.022 A 
ATOM      2  C   UNL     1      44.134  13.845  22.482  1.00  0.00     0.058 A 
ATOM      3  C   UNL     1      46.115  13.561  21.124  1.00  0.00     0.012 A 
ATOM      4  C   UNL     1      44.135  15.220  22.221  1.00  0.00     0.157 A 
ATOM      5  C   UNL     1      46.124  14.932  20.858  1.00  0.00     0.051 A 
ATOM      6  C   UNL     1      45.142  15.771  21.395  1.00  0.00     0.157 A 
ENDROOT
BRANCH   1   7
ATOM      7  C   UNL     1      45.060  11.551  22.253  1.00  0.00     0.010 C 
ATOM      8  C   UNL     1      45.379  10.583  21.384  1.00  0.00     0.025 C 
BRANCH   8   9
ATOM      9  C   UNL     1      45.305   9.158  21.744  1.00  0.00     0.064 C 
ATOM     10  O   UNL     1      46.039   8.711  22.662  1.00  0.00    -0.545 OA
ATOM     11  O   UNL     1      44.434   8.296  21.086  1.00  0.00    -0.545 OA
ENDBRANCH   8   9
ENDBRANCH   1   7
BRANCH   4  12
ATOM     12  O   UNL     1      43.127  15.995  22.798  1.00  0.00    -0.504 OA
ATOM     13  H   UNL     1      42.140  15.821  22.674  1.00  0.00     0.293 HD
ENDBRANCH   4  12
BRANCH   6  14
ATOM     14  O   UNL     1      45.207  17.132  21.087  1.00  0.00    -0.504 OA
ATOM     15  H   UNL     1      45.584  17.498  20.225  1.00  0.00     0.293 HD
ENDBRANCH   6  14
TORSDOF 4
ENDMDL
MODEL 7
REMARK VINA RESULT:    -4.541     14.299     15.819
REMARK INTER + INTRA:          -5.466
REMARK INTER:                  -5.333
REMARK INTRA:                  -0.133
REMARK UNBOUND:                -0.128
REMARK SMILES O=C([O-])C=Cc1ccc(O)c(O)c1
REMARK SMILES IDX 6 1 13 2 7 3 11 4 8 5 9 6 5 7 4 8 2 9 1 10 3 11 12 12 10 14
REMARK H PARENT 12 13 10 15
REMARK Flexibility Score: inf
ROOT
ATOM      1  C   UNL     1      29.879   5.621  12.220  1.00  0.00    -0.022 A 
ATOM      2  C   UNL     1      28.795   6.239  12.864  1.00  0.00     0.058 A 
ATOM      3  C   UNL     1      30.055   5.832  10.840  1.00  0.00     0.012 A 
ATOM      4  C   UNL     1      27.884   7.030  12.153  1.00  0.00     0.157 A 
ATOM      5  C   UNL     1      29.152   6.620  10.124  1.00  0.00     0.051 A 
ATOM      6  C   UNL     1      28.064   7.220  10.764  1.00  0.00     0.157 A 
ENDROOT
BRANCH   1   7
ATOM      7  C   UNL     1      30.815   4.803  13.029  1.00  0.00     0.010 C 
ATOM      8  C   UNL     1      30.983   4.951  14.351  1.00  0.00     0.025 C 
BRANCH   8   9
ATOM      9  C   UNL     1      31.933   4.124  15.112  1.00  0.00     0.064 C 
ATOM     10  O   UNL     1      32.350   4.527  16.228  1.00  0.00    -0.545 OA
ATOM     11  O   UNL     1      32.376   2.902  14.618  1.00  0.00    -0.545 OA
ENDBRANCH   8   9
ENDBRANCH   1   7
BRANCH   4  12
ATOM     12  O   UNL     1      26.826   7.603  12.863  1.00  0.00    -0.504 OA
ATOM     13  H   UNL     1      26.264   7.106  13.538  1.00  0.00     0.293 HD
ENDBRANCH   4  12
BRANCH   6  14
ATOM     14  O   UNL     1      27.196   7.993   9.989  1.00  0.00    -0.504 OA
ATOM     15  H   UNL     1      27.140   7.941   8.982  1.00  0.00     0.293 HD
ENDBRANCH   6  14
TORSDOF 4
ENDMDL
MODEL 8
REMARK VINA RESULT:    -4.522     16.193     17.776
REMARK INTER + INTRA:          -5.444
REMARK INTER:                  -5.319
REMARK INTRA:                  -0.124
REMARK UNBOUND:                -0.128
REMARK SMILES O=C([O-])C=Cc1ccc(O)c(O)c1
REMARK SMILES IDX 6 1 13 2 7 3 11 4 8 5 9 6 5 7 4 8 2 9 1 10 3 11 12 12 10 14
REMARK H PARENT 12 13 10 15
REMARK Flexibility Score: inf
ROOT
ATOM      1  C   UNL     1      45.853  13.593  22.217  1.00  0.00    -0.022 A 
ATOM      2  C   UNL     1      45.530  14.501  21.195  1.00  0.00     0.058 A 
ATOM      3  C   UNL     1      45.912  14.061  23.543  1.00  0.00     0.012 A 
ATOM      4  C   UNL     1      45.295  15.853  21.473  1.00  0.00     0.157 A 
ATOM      5  C   UNL     1      45.679  15.407  23.829  1.00  0.00     0.051 A 
ATOM      6  C   UNL     1      45.373  16.312  22.808  1.00  0.00     0.157 A 
ENDROOT
BRANCH   1   7
ATOM      7  C   UNL     1      46.081  12.171  21.860  1.00  0.00     0.010 C 
ATOM      8  C   UNL     1      45.125  11.233  21.889  1.00  0.00     0.025 C 
BRANCH   8   9
ATOM      9  C   UNL     1      45.399   9.831  21.538  1.00  0.00     0.064 C 
ATOM     10  O   UNL     1      45.036   9.389  20.417  1.00  0.00    -0.545 OA
ATOM     11  O   UNL     1      46.056   8.984  22.424  1.00  0.00    -0.545 OA
ENDBRANCH   8   9
ENDBRANCH   1   7
BRANCH   4  12
ATOM     12  O   UNL     1      44.988  16.694  20.402  1.00  0.00    -0.504 OA
ATOM     13  H   UNL     1      45.202  16.483  19.439  1.00  0.00     0.293 HD
ENDBRANCH   4  12
BRANCH   6  14
ATOM     14  O   UNL     1      45.155  17.646  23.162  1.00  0.00    -0.504 OA
ATOM     15  H   UNL     1      44.460  18.237  22.731  1.00  0.00     0.293 HD
ENDBRANCH   6  14
TORSDOF 4
ENDMDL
MODEL 9
REMARK VINA RESULT:    -4.520     17.290     18.662
REMARK INTER + INTRA:          -5.441
REMARK INTER:                  -5.309
REMARK INTRA:                  -0.132
REMARK UNBOUND:                -0.128
REMARK SMILES O=C([O-])C=Cc1ccc(O)c(O)c1
REMARK SMILES IDX 6 1 13 2 7 3 11 4 8 5 9 6 5 7 4 8 2 9 1 10 3 11 12 12 10 14
REMARK H PARENT 12 13 10 15
REMARK Flexibility Score: inf
ROOT
ATOM      1  C   UNL     1      35.015  12.287  29.232  1.00  0.00    -0.022 A 
ATOM      2  C   UNL     1      36.150  11.689  28.661  1.00  0.00     0.058 A 
ATOM      3  C   UNL     1      34.104  11.476  29.935  1.00  0.00     0.012 A 
ATOM      4  C   UNL     1      36.371  10.310  28.759  1.00  0.00     0.157 A 
ATOM      5  C   UNL     1      34.317  10.100  30.037  1.00  0.00     0.051 A 
ATOM      6  C   UNL     1      35.439   9.504  29.454  1.00  0.00     0.157 A 
ENDROOT
BRANCH   1   7
ATOM      7  C   UNL     1      34.842  13.755  29.103  1.00  0.00     0.010 C 
ATOM      8  C   UNL     1      35.493  14.505  28.204  1.00  0.00     0.025 C 
BRANCH   8   9
ATOM      9  C   UNL     1      35.299  15.961  28.119  1.00  0.00     0.064 C 
ATOM     10  O   UNL     1      34.689  16.451  27.134  1.00  0.00    -0.545 OA
ATOM     11  O   UNL     1      35.778  16.808  29.114  1.00  0.00    -0.545 OA
ENDBRANCH   8   9
ENDBRANCH   1   7
BRANCH   4  12
ATOM     12  O   UNL     1      37.518   9.789  28.157  1.00  0.00    -0.504 OA
ATOM     13  H   UNL     1      38.445  10.167  28.289  1.00  0.00     0.293 HD
ENDBRANCH   4  12
BRANCH   6  14
ATOM     14  O   UNL     1      35.590   8.122  29.590  1.00  0.00    -0.504 OA
ATOM     15  H   UNL     1      36.430   7.619  29.344  1.00  0.00     0.293 HD
ENDBRANCH   6  14
TORSDOF 4
ENDMDL
