MODEL 1
REMARK VINA RESULT:    -7.066      0.000      0.000
REMARK INTER + INTRA:          -8.458
REMARK INTER:                  -8.305
REMARK INTRA:                  -0.154
REMARK UNBOUND:                -0.154
REMARK SMILES O=c1c(O)c(-c2ccc(O)cc2)oc2cc(O)cc(O)c12
REMARK SMILES IDX 5 1 3 2 2 3 1 4 21 5 19 6 18 7 16 8 15 9 14 10 13 11 6 12
REMARK SMILES IDX 7 13 8 14 9 15 12 16 11 17 10 18 4 20 20 22 17 24
REMARK H PARENT 10 19 4 21 20 23 17 25
REMARK Flexibility Score: inf
ROOT
ATOM      1  C   UNL     1      32.363  -0.236 165.345  1.00  0.00     0.180 A 
ATOM      2  C   UNL     1      32.161  -0.936 164.140  1.00  0.00     0.208 A 
ATOM      3  C   UNL     1      31.036  -1.766 164.018  1.00  0.00     0.238 A 
ATOM      4  O   UNL     1      30.851  -2.407 162.948  1.00  0.00    -0.285 OA
ATOM      5  C   UNL     1      30.124  -1.867 165.089  1.00  0.00     0.111 A 
ATOM      6  C   UNL     1      28.965  -2.678 165.046  1.00  0.00     0.134 A 
ATOM      7  C   UNL     1      28.101  -2.717 166.150  1.00  0.00     0.093 A 
ATOM      8  C   UNL     1      28.373  -1.963 167.294  1.00  0.00     0.123 A 
ATOM      9  C   UNL     1      29.518  -1.161 167.343  1.00  0.00     0.094 A 
ATOM     10  C   UNL     1      30.392  -1.110 166.254  1.00  0.00     0.146 A 
ATOM     11  O   UNL     1      31.473  -0.344 166.328  1.00  0.00    -0.452 OA
ENDROOT
BRANCH   1  12
ATOM     12  C   UNL     1      33.535   0.644 165.557  1.00  0.00     0.021 A 
ATOM     13  C   UNL     1      33.336   2.011 165.810  1.00  0.00     0.016 A 
ATOM     14  C   UNL     1      34.426   2.856 166.036  1.00  0.00     0.047 A 
ATOM     15  C   UNL     1      35.727   2.343 166.028  1.00  0.00     0.115 A 
ATOM     16  C   UNL     1      34.845   0.130 165.571  1.00  0.00     0.016 A 
ATOM     17  C   UNL     1      35.933   0.978 165.798  1.00  0.00     0.047 A 
BRANCH  15  18
ATOM     18  O   UNL     1      36.805   3.197 166.254  1.00  0.00    -0.508 OA
ATOM     19  H   UNL     1      36.785   3.890 166.994  1.00  0.00     0.293 HD
ENDBRANCH  15  18
ENDBRANCH   1  12
BRANCH   2  20
ATOM     20  O   UNL     1      33.053  -0.781 163.076  1.00  0.00    -0.502 OA
ATOM     21  H   UNL     1      33.419  -1.569 162.556  1.00  0.00     0.293 HD
ENDBRANCH   2  20
BRANCH   6  22
ATOM     22  O   UNL     1      28.663  -3.441 163.916  1.00  0.00    -0.507 OA
ATOM     23  H   UNL     1      28.286  -4.378 163.991  1.00  0.00     0.293 HD
ENDBRANCH   6  22
BRANCH   8  24
ATOM     24  O   UNL     1      27.499  -2.019 168.378  1.00  0.00    -0.508 OA
ATOM     25  H   UNL     1      27.719  -1.572 169.259  1.00  0.00     0.293 HD
ENDBRANCH   8  24
TORSDOF 5
ENDMDL
MODEL 2
REMARK VINA RESULT:    -6.931      1.338      3.176
REMARK INTER + INTRA:          -8.300
REMARK INTER:                  -8.160
REMARK INTRA:                  -0.140
REMARK UNBOUND:                -0.154
REMARK SMILES O=c1c(O)c(-c2ccc(O)cc2)oc2cc(O)cc(O)c12
REMARK SMILES IDX 5 1 3 2 2 3 1 4 21 5 19 6 18 7 16 8 15 9 14 10 13 11 6 12
REMARK SMILES IDX 7 13 8 14 9 15 12 16 11 17 10 18 4 20 20 22 17 24
REMARK H PARENT 10 19 4 21 20 23 17 25
REMARK Flexibility Score: inf
ROOT
ATOM      1  C   UNL     1      31.716   0.008 166.292  1.00  0.00     0.180 A 
ATOM      2  C   UNL     1      31.036   0.252 167.501  1.00  0.00     0.208 A 
ATOM      3  C   UNL     1      29.856  -0.458 167.771  1.00  0.00     0.238 A 
ATOM      4  O   UNL     1      29.233  -0.240 168.845  1.00  0.00    -0.285 OA
ATOM      5  C   UNL     1      29.387  -1.410 166.842  1.00  0.00     0.111 A 
ATOM      6  C   UNL     1      28.209  -2.170 167.040  1.00  0.00     0.134 A 
ATOM      7  C   UNL     1      27.814  -3.105 166.073  1.00  0.00     0.093 A 
ATOM      8  C   UNL     1      28.571  -3.296 164.915  1.00  0.00     0.123 A 
ATOM      9  C   UNL     1      29.736  -2.548 164.714  1.00  0.00     0.094 A 
ATOM     10  C   UNL     1      30.145  -1.609 165.665  1.00  0.00     0.146 A 
ATOM     11  O   UNL     1      31.252  -0.909 165.447  1.00  0.00    -0.452 OA
ENDROOT
BRANCH   1  12
ATOM     12  C   UNL     1      32.956   0.729 165.927  1.00  0.00     0.021 A 
ATOM     13  C   UNL     1      34.138   0.003 165.702  1.00  0.00     0.016 A 
ATOM     14  C   UNL     1      35.315   0.661 165.335  1.00  0.00     0.047 A 
ATOM     15  C   UNL     1      35.323   2.050 165.171  1.00  0.00     0.115 A 
ATOM     16  C   UNL     1      32.966   2.124 165.741  1.00  0.00     0.016 A 
ATOM     17  C   UNL     1      34.145   2.779 165.372  1.00  0.00     0.047 A 
BRANCH  15  18
ATOM     18  O   UNL     1      36.504   2.693 164.805  1.00  0.00    -0.508 OA
ATOM     19  H   UNL     1      37.382   2.191 164.744  1.00  0.00     0.293 HD
ENDBRANCH  15  18
ENDBRANCH   1  12
BRANCH   2  20
ATOM     20  O   UNL     1      31.549   1.165 168.427  1.00  0.00    -0.502 OA
ATOM     21  H   UNL     1      30.971   1.598 169.138  1.00  0.00     0.293 HD
ENDBRANCH   2  20
BRANCH   6  22
ATOM     22  O   UNL     1      27.432  -2.005 168.188  1.00  0.00    -0.507 OA
ATOM     23  H   UNL     1      27.588  -1.239 168.832  1.00  0.00     0.293 HD
ENDBRANCH   6  22
BRANCH   8  24
ATOM     24  O   UNL     1      28.157  -4.232 163.969  1.00  0.00    -0.508 OA
ATOM     25  H   UNL     1      28.508  -5.182 163.978  1.00  0.00     0.293 HD
ENDBRANCH   8  24
TORSDOF 5
ENDMDL
MODEL 3
REMARK VINA RESULT:    -6.549      1.940      6.807
REMARK INTER + INTRA:          -7.851
REMARK INTER:                  -8.234
REMARK INTRA:                   0.383
REMARK UNBOUND:                -0.154
REMARK SMILES O=c1c(O)c(-c2ccc(O)cc2)oc2cc(O)cc(O)c12
REMARK SMILES IDX 5 1 3 2 2 3 1 4 21 5 19 6 18 7 16 8 15 9 14 10 13 11 6 12
REMARK SMILES IDX 7 13 8 14 9 15 12 16 11 17 10 18 4 20 20 22 17 24
REMARK H PARENT 10 19 4 21 20 23 17 25
REMARK Flexibility Score: inf
ROOT
ATOM      1  C   UNL     1      31.883   0.198 165.992  1.00  0.00     0.180 A 
ATOM      2  C   UNL     1      32.344   1.468 166.390  1.00  0.00     0.208 A 
ATOM      3  C   UNL     1      33.455   2.022 165.736  1.00  0.00     0.238 A 
ATOM      4  O   UNL     1      33.883   3.154 166.092  1.00  0.00    -0.285 OA
ATOM      5  C   UNL     1      34.073   1.311 164.687  1.00  0.00     0.111 A 
ATOM      6  C   UNL     1      35.194   1.800 163.975  1.00  0.00     0.134 A 
ATOM      7  C   UNL     1      35.746   1.036 162.936  1.00  0.00     0.093 A 
ATOM      8  C   UNL     1      35.201  -0.204 162.596  1.00  0.00     0.123 A 
ATOM      9  C   UNL     1      34.093  -0.692 163.296  1.00  0.00     0.094 A 
ATOM     10  C   UNL     1      33.530   0.053 164.336  1.00  0.00     0.146 A 
ATOM     11  O   UNL     1      32.481  -0.436 164.988  1.00  0.00    -0.452 OA
ENDROOT
BRANCH   1  12
ATOM     12  C   UNL     1      30.729  -0.461 166.645  1.00  0.00     0.021 A 
ATOM     13  C   UNL     1      30.406  -0.134 167.973  1.00  0.00     0.016 A 
ATOM     14  C   UNL     1      29.307  -0.727 168.601  1.00  0.00     0.047 A 
ATOM     15  C   UNL     1      28.508  -1.640 167.906  1.00  0.00     0.115 A 
ATOM     16  C   UNL     1      29.909  -1.365 165.945  1.00  0.00     0.016 A 
ATOM     17  C   UNL     1      28.809  -1.955 166.576  1.00  0.00     0.047 A 
BRANCH  15  18
ATOM     18  O   UNL     1      27.416  -2.224 168.546  1.00  0.00    -0.508 OA
ATOM     19  H   UNL     1      27.498  -2.625 169.473  1.00  0.00     0.293 HD
ENDBRANCH  15  18
ENDBRANCH   1  12
BRANCH   2  20
ATOM     20  O   UNL     1      31.683   2.174 167.399  1.00  0.00    -0.502 OA
ATOM     21  H   UNL     1      31.327   1.721 168.233  1.00  0.00     0.293 HD
ENDBRANCH   2  20
BRANCH   6  22
ATOM     22  O   UNL     1      35.762   3.036 164.289  1.00  0.00    -0.507 OA
ATOM     23  H   UNL     1      36.758   3.144 164.435  1.00  0.00     0.293 HD
ENDBRANCH   6  22
BRANCH   8  24
ATOM     24  O   UNL     1      35.767  -0.943 161.560  1.00  0.00    -0.508 OA
ATOM     25  H   UNL     1      36.533  -1.584 161.725  1.00  0.00     0.293 HD
ENDBRANCH   8  24
TORSDOF 5
ENDMDL
MODEL 4
REMARK VINA RESULT:    -6.480      1.522      6.507
REMARK INTER + INTRA:          -7.770
REMARK INTER:                  -8.026
REMARK INTRA:                   0.256
REMARK UNBOUND:                -0.154
REMARK SMILES O=c1c(O)c(-c2ccc(O)cc2)oc2cc(O)cc(O)c12
REMARK SMILES IDX 5 1 3 2 2 3 1 4 21 5 19 6 18 7 16 8 15 9 14 10 13 11 6 12
REMARK SMILES IDX 7 13 8 14 9 15 12 16 11 17 10 18 4 20 20 22 17 24
REMARK H PARENT 10 19 4 21 20 23 17 25
REMARK Flexibility Score: inf
ROOT
ATOM      1  C   UNL     1      32.070  -0.159 165.784  1.00  0.00     0.180 A 
ATOM      2  C   UNL     1      32.721  -0.871 164.759  1.00  0.00     0.208 A 
ATOM      3  C   UNL     1      33.845  -0.299 164.143  1.00  0.00     0.238 A 
ATOM      4  O   UNL     1      34.430  -0.922 163.217  1.00  0.00    -0.285 OA
ATOM      5  C   UNL     1      34.310   0.961 164.574  1.00  0.00     0.111 A 
ATOM      6  C   UNL     1      35.437   1.606 164.009  1.00  0.00     0.134 A 
ATOM      7  C   UNL     1      35.842   2.855 164.500  1.00  0.00     0.093 A 
ATOM      8  C   UNL     1      35.145   3.472 165.541  1.00  0.00     0.123 A 
ATOM      9  C   UNL     1      34.031   2.840 166.103  1.00  0.00     0.094 A 
ATOM     10  C   UNL     1      33.610   1.596 165.627  1.00  0.00     0.146 A 
ATOM     11  O   UNL     1      32.546   1.020 166.175  1.00  0.00    -0.452 OA
ENDROOT
BRANCH   1  12
ATOM     12  C   UNL     1      30.869  -0.687 166.469  1.00  0.00     0.021 A 
ATOM     13  C   UNL     1      30.610  -0.315 167.799  1.00  0.00     0.016 A 
ATOM     14  C   UNL     1      29.471  -0.784 168.458  1.00  0.00     0.047 A 
ATOM     15  C   UNL     1      28.565  -1.617 167.792  1.00  0.00     0.115 A 
ATOM     16  C   UNL     1      29.944  -1.509 165.798  1.00  0.00     0.016 A 
ATOM     17  C   UNL     1      28.804  -1.976 166.460  1.00  0.00     0.047 A 
BRANCH  15  18
ATOM     18  O   UNL     1      27.434  -2.078 168.461  1.00  0.00    -0.508 OA
ATOM     19  H   UNL     1      26.633  -1.477 168.622  1.00  0.00     0.293 HD
ENDBRANCH  15  18
ENDBRANCH   1  12
BRANCH   2  20
ATOM     20  O   UNL     1      32.270  -2.140 164.385  1.00  0.00    -0.502 OA
ATOM     21  H   UNL     1      32.835  -2.775 163.834  1.00  0.00     0.293 HD
ENDBRANCH   2  20
BRANCH   6  22
ATOM     22  O   UNL     1      36.156   1.015 162.968  1.00  0.00    -0.507 OA
ATOM     23  H   UNL     1      35.719   0.376 162.315  1.00  0.00     0.293 HD
ENDBRANCH   6  22
BRANCH   8  24
ATOM     24  O   UNL     1      35.569   4.714 166.011  1.00  0.00    -0.508 OA
ATOM     25  H   UNL     1      35.347   5.029 166.947  1.00  0.00     0.293 HD
ENDBRANCH   8  24
TORSDOF 5
ENDMDL
MODEL 5
REMARK VINA RESULT:    -6.363      2.215      2.733
REMARK INTER + INTRA:          -7.633
REMARK INTER:                  -7.380
REMARK INTRA:                  -0.252
REMARK UNBOUND:                -0.154
REMARK SMILES O=c1c(O)c(-c2ccc(O)cc2)oc2cc(O)cc(O)c12
REMARK SMILES IDX 5 1 3 2 2 3 1 4 21 5 19 6 18 7 16 8 15 9 14 10 13 11 6 12
REMARK SMILES IDX 7 13 8 14 9 15 12 16 11 17 10 18 4 20 20 22 17 24
REMARK H PARENT 10 19 4 21 20 23 17 25
REMARK Flexibility Score: inf
ROOT
ATOM      1  C   UNL     1      33.437   0.967 164.887  1.00  0.00     0.180 A 
ATOM      2  C   UNL     1      32.952  -0.197 164.258  1.00  0.00     0.208 A 
ATOM      3  C   UNL     1      31.875  -0.883 164.840  1.00  0.00     0.238 A 
ATOM      4  O   UNL     1      31.440  -1.932 164.293  1.00  0.00    -0.285 OA
ATOM      5  C   UNL     1      31.290  -0.387 166.023  1.00  0.00     0.111 A 
ATOM      6  C   UNL     1      30.199  -1.017 166.671  1.00  0.00     0.134 A 
ATOM      7  C   UNL     1      29.666  -0.456 167.840  1.00  0.00     0.093 A 
ATOM      8  C   UNL     1      30.200   0.720 168.374  1.00  0.00     0.123 A 
ATOM      9  C   UNL     1      31.277   1.346 167.739  1.00  0.00     0.094 A 
ATOM     10  C   UNL     1      31.824   0.802 166.574  1.00  0.00     0.146 A 
ATOM     11  O   UNL     1      32.849   1.414 165.994  1.00  0.00    -0.452 OA
ENDROOT
BRANCH   1  12
ATOM     12  C   UNL     1      34.580   1.736 164.345  1.00  0.00     0.021 A 
ATOM     13  C   UNL     1      35.861   1.548 164.891  1.00  0.00     0.016 A 
ATOM     14  C   UNL     1      36.959   2.247 164.381  1.00  0.00     0.047 A 
ATOM     15  C   UNL     1      36.794   3.128 163.307  1.00  0.00     0.115 A 
ATOM     16  C   UNL     1      34.425   2.609 163.253  1.00  0.00     0.016 A 
ATOM     17  C   UNL     1      35.525   3.306 162.743  1.00  0.00     0.047 A 
BRANCH  15  18
ATOM     18  O   UNL     1      37.897   3.819 162.809  1.00  0.00    -0.508 OA
ATOM     19  H   UNL     1      37.796   4.719 162.353  1.00  0.00     0.293 HD
ENDBRANCH  15  18
ENDBRANCH   1  12
BRANCH   2  20
ATOM     20  O   UNL     1      33.518  -0.639 163.060  1.00  0.00    -0.502 OA
ATOM     21  H   UNL     1      34.386  -0.262 162.699  1.00  0.00     0.293 HD
ENDBRANCH   2  20
BRANCH   6  22
ATOM     22  O   UNL     1      29.642  -2.191 166.162  1.00  0.00    -0.507 OA
ATOM     23  H   UNL     1      29.115  -2.828 166.747  1.00  0.00     0.293 HD
ENDBRANCH   6  22
BRANCH   8  24
ATOM     24  O   UNL     1      29.651   1.257 169.537  1.00  0.00    -0.508 OA
ATOM     25  H   UNL     1      29.873   0.880 170.450  1.00  0.00     0.293 HD
ENDBRANCH   8  24
TORSDOF 5
ENDMDL
MODEL 6
REMARK VINA RESULT:    -6.272      2.438      2.937
REMARK INTER + INTRA:          -7.526
REMARK INTER:                  -7.351
REMARK INTRA:                  -0.175
REMARK UNBOUND:                -0.154
REMARK SMILES O=c1c(O)c(-c2ccc(O)cc2)oc2cc(O)cc(O)c12
REMARK SMILES IDX 5 1 3 2 2 3 1 4 21 5 19 6 18 7 16 8 15 9 14 10 13 11 6 12
REMARK SMILES IDX 7 13 8 14 9 15 12 16 11 17 10 18 4 20 20 22 17 24
REMARK H PARENT 10 19 4 21 20 23 17 25
REMARK Flexibility Score: inf
ROOT
ATOM      1  C   UNL     1      32.481  -0.017 164.476  1.00  0.00     0.180 A 
ATOM      2  C   UNL     1      31.703  -1.147 164.158  1.00  0.00     0.208 A 
ATOM      3  C   UNL     1      30.704  -1.558 165.055  1.00  0.00     0.238 A 
ATOM      4  O   UNL     1      30.009  -2.575 164.786  1.00  0.00    -0.285 OA
ATOM      5  C   UNL     1      30.487  -0.824 166.239  1.00  0.00     0.111 A 
ATOM      6  C   UNL     1      29.500  -1.169 167.193  1.00  0.00     0.134 A 
ATOM      7  C   UNL     1      29.339  -0.383 168.343  1.00  0.00     0.093 A 
ATOM      8  C   UNL     1      30.143   0.739 168.558  1.00  0.00     0.123 A 
ATOM      9  C   UNL     1      31.120   1.084 167.619  1.00  0.00     0.094 A 
ATOM     10  C   UNL     1      31.298   0.312 166.468  1.00  0.00     0.146 A 
ATOM     11  O   UNL     1      32.236   0.659 165.595  1.00  0.00    -0.452 OA
ENDROOT
BRANCH   1  12
ATOM     12  C   UNL     1      33.564   0.468 163.590  1.00  0.00     0.021 A 
ATOM     13  C   UNL     1      33.238   1.070 162.364  1.00  0.00     0.016 A 
ATOM     14  C   UNL     1      34.243   1.555 161.523  1.00  0.00     0.047 A 
ATOM     15  C   UNL     1      35.585   1.459 161.903  1.00  0.00     0.115 A 
ATOM     16  C   UNL     1      34.915   0.393 163.976  1.00  0.00     0.016 A 
ATOM     17  C   UNL     1      35.919   0.879 163.133  1.00  0.00     0.047 A 
BRANCH  15  18
ATOM     18  O   UNL     1      36.577   1.946 161.054  1.00  0.00    -0.508 OA
ATOM     19  H   UNL     1      36.414   2.058 160.060  1.00  0.00     0.293 HD
ENDBRANCH  15  18
ENDBRANCH   1  12
BRANCH   2  20
ATOM     20  O   UNL     1      31.906  -1.827 162.954  1.00  0.00    -0.502 OA
ATOM     21  H   UNL     1      31.140  -2.087 162.343  1.00  0.00     0.293 HD
ENDBRANCH   2  20
BRANCH   6  22
ATOM     22  O   UNL     1      28.678  -2.283 167.007  1.00  0.00    -0.507 OA
ATOM     23  H   UNL     1      27.767  -2.352 167.444  1.00  0.00     0.293 HD
ENDBRANCH   6  22
BRANCH   8  24
ATOM     24  O   UNL     1      29.962   1.504 169.709  1.00  0.00    -0.508 OA
ATOM     25  H   UNL     1      30.504   2.343 169.877  1.00  0.00     0.293 HD
ENDBRANCH   8  24
TORSDOF 5
ENDMDL
MODEL 7
REMARK VINA RESULT:    -6.170      2.249      3.132
REMARK INTER + INTRA:          -7.406
REMARK INTER:                  -7.108
REMARK INTRA:                  -0.297
REMARK UNBOUND:                -0.154
REMARK SMILES O=c1c(O)c(-c2ccc(O)cc2)oc2cc(O)cc(O)c12
REMARK SMILES IDX 5 1 3 2 2 3 1 4 21 5 19 6 18 7 16 8 15 9 14 10 13 11 6 12
REMARK SMILES IDX 7 13 8 14 9 15 12 16 11 17 10 18 4 20 20 22 17 24
REMARK H PARENT 10 19 4 21 20 23 17 25
REMARK Flexibility Score: inf
ROOT
ATOM      1  C   UNL     1      33.633   2.226 165.446  1.00  0.00     0.180 A 
ATOM      2  C   UNL     1      33.514   1.070 164.649  1.00  0.00     0.208 A 
ATOM      3  C   UNL     1      32.577   0.090 165.011  1.00  0.00     0.238 A 
ATOM      4  O   UNL     1      32.469  -0.954 164.313  1.00  0.00    -0.285 OA
ATOM      5  C   UNL     1      31.763   0.289 166.146  1.00  0.00     0.111 A 
ATOM      6  C   UNL     1      30.792  -0.647 166.577  1.00  0.00     0.134 A 
ATOM      7  C   UNL     1      30.015  -0.371 167.711  1.00  0.00     0.093 A 
ATOM      8  C   UNL     1      30.188   0.819 168.421  1.00  0.00     0.123 A 
ATOM      9  C   UNL     1      31.146   1.747 168.001  1.00  0.00     0.094 A 
ATOM     10  C   UNL     1      31.932   1.490 166.874  1.00  0.00     0.146 A 
ATOM     11  O   UNL     1      32.837   2.386 166.500  1.00  0.00    -0.452 OA
ENDROOT
BRANCH   1  12
ATOM     12  C   UNL     1      34.610   3.295 165.140  1.00  0.00     0.021 A 
ATOM     13  C   UNL     1      34.206   4.405 164.379  1.00  0.00     0.016 A 
ATOM     14  C   UNL     1      35.105   5.437 164.098  1.00  0.00     0.047 A 
ATOM     15  C   UNL     1      36.414   5.382 164.586  1.00  0.00     0.115 A 
ATOM     16  C   UNL     1      35.923   3.255 165.644  1.00  0.00     0.016 A 
ATOM     17  C   UNL     1      36.820   4.290 165.362  1.00  0.00     0.047 A 
BRANCH  15  18
ATOM     18  O   UNL     1      37.301   6.417 164.296  1.00  0.00    -0.508 OA
ATOM     19  H   UNL     1      37.754   6.947 165.032  1.00  0.00     0.293 HD
ENDBRANCH  15  18
ENDBRANCH   1  12
BRANCH   2  20
ATOM     20  O   UNL     1      34.298   0.920 163.502  1.00  0.00    -0.502 OA
ATOM     21  H   UNL     1      35.279   1.172 163.479  1.00  0.00     0.293 HD
ENDBRANCH   2  20
BRANCH   6  22
ATOM     22  O   UNL     1      30.593  -1.844 165.887  1.00  0.00    -0.507 OA
ATOM     23  H   UNL     1      30.853  -1.949 164.914  1.00  0.00     0.293 HD
ENDBRANCH   6  22
BRANCH   8  24
ATOM     24  O   UNL     1      29.402   1.069 169.545  1.00  0.00    -0.508 OA
ATOM     25  H   UNL     1      28.522   1.564 169.474  1.00  0.00     0.293 HD
ENDBRANCH   8  24
TORSDOF 5
ENDMDL
MODEL 8
REMARK VINA RESULT:    -6.157      1.311      3.244
REMARK INTER + INTRA:          -7.390
REMARK INTER:                  -7.179
REMARK INTRA:                  -0.211
REMARK UNBOUND:                -0.154
REMARK SMILES O=c1c(O)c(-c2ccc(O)cc2)oc2cc(O)cc(O)c12
REMARK SMILES IDX 5 1 3 2 2 3 1 4 21 5 19 6 18 7 16 8 15 9 14 10 13 11 6 12
REMARK SMILES IDX 7 13 8 14 9 15 12 16 11 17 10 18 4 20 20 22 17 24
REMARK H PARENT 10 19 4 21 20 23 17 25
REMARK Flexibility Score: inf
ROOT
ATOM      1  C   UNL     1      32.448   0.215 165.636  1.00  0.00     0.180 A 
ATOM      2  C   UNL     1      31.562  -0.141 166.671  1.00  0.00     0.208 A 
ATOM      3  C   UNL     1      30.478  -0.982 166.377  1.00  0.00     0.238 A 
ATOM      4  O   UNL     1      29.672  -1.298 167.294  1.00  0.00    -0.285 OA
ATOM      5  C   UNL     1      30.309  -1.468 165.064  1.00  0.00     0.111 A 
ATOM      6  C   UNL     1      29.246  -2.323 164.686  1.00  0.00     0.134 A 
ATOM      7  C   UNL     1      29.152  -2.772 163.361  1.00  0.00     0.093 A 
ATOM      8  C   UNL     1      30.097  -2.385 162.409  1.00  0.00     0.123 A 
ATOM      9  C   UNL     1      31.150  -1.541 162.776  1.00  0.00     0.094 A 
ATOM     10  C   UNL     1      31.260  -1.081 164.091  1.00  0.00     0.146 A 
ATOM     11  O   UNL     1      32.266  -0.276 164.413  1.00  0.00    -0.452 OA
ENDROOT
BRANCH   1  12
ATOM     12  C   UNL     1      33.604   1.112 165.862  1.00  0.00     0.021 A 
ATOM     13  C   UNL     1      34.908   0.600 165.760  1.00  0.00     0.016 A 
ATOM     14  C   UNL     1      36.014   1.433 165.947  1.00  0.00     0.047 A 
ATOM     15  C   UNL     1      35.832   2.792 166.223  1.00  0.00     0.115 A 
ATOM     16  C   UNL     1      33.428   2.484 166.121  1.00  0.00     0.016 A 
ATOM     17  C   UNL     1      34.536   3.316 166.307  1.00  0.00     0.047 A 
BRANCH  15  18
ATOM     18  O   UNL     1      36.943   3.612 166.409  1.00  0.00    -0.508 OA
ATOM     19  H   UNL     1      37.047   4.485 165.904  1.00  0.00     0.293 HD
ENDBRANCH  15  18
ENDBRANCH   1  12
BRANCH   2  20
ATOM     20  O   UNL     1      31.780   0.315 167.974  1.00  0.00    -0.502 OA
ATOM     21  H   UNL     1      31.612   1.276 168.247  1.00  0.00     0.293 HD
ENDBRANCH   2  20
BRANCH   6  22
ATOM     22  O   UNL     1      28.286  -2.730 165.614  1.00  0.00    -0.507 OA
ATOM     23  H   UNL     1      28.304  -2.411 166.575  1.00  0.00     0.293 HD
ENDBRANCH   6  22
BRANCH   8  24
ATOM     24  O   UNL     1      29.982  -2.846 161.099  1.00  0.00    -0.508 OA
ATOM     25  H   UNL     1      29.626  -3.772 160.894  1.00  0.00     0.293 HD
ENDBRANCH   8  24
TORSDOF 5
ENDMDL
MODEL 9
REMARK VINA RESULT:    -6.097      2.138      3.403
REMARK INTER + INTRA:          -7.319
REMARK INTER:                  -7.262
REMARK INTRA:                  -0.057
REMARK UNBOUND:                -0.154
REMARK SMILES O=c1c(O)c(-c2ccc(O)cc2)oc2cc(O)cc(O)c12
REMARK SMILES IDX 5 1 3 2 2 3 1 4 21 5 19 6 18 7 16 8 15 9 14 10 13 11 6 12
REMARK SMILES IDX 7 13 8 14 9 15 12 16 11 17 10 18 4 20 20 22 17 24
REMARK H PARENT 10 19 4 21 20 23 17 25
REMARK Flexibility Score: inf
ROOT
ATOM      1  C   UNL     1      32.317   0.082 164.889  1.00  0.00     0.180 A 
ATOM      2  C   UNL     1      32.230   0.765 166.118  1.00  0.00     0.208 A 
ATOM      3  C   UNL     1      31.194   0.434 167.006  1.00  0.00     0.238 A 
ATOM      4  O   UNL     1      31.100   1.046 168.104  1.00  0.00    -0.285 OA
ATOM      5  C   UNL     1      30.279  -0.582 166.661  1.00  0.00     0.111 A 
ATOM      6  C   UNL     1      29.210  -0.978 167.501  1.00  0.00     0.134 A 
ATOM      7  C   UNL     1      28.347  -2.005 167.091  1.00  0.00     0.093 A 
ATOM      8  C   UNL     1      28.531  -2.642 165.862  1.00  0.00     0.123 A 
ATOM      9  C   UNL     1      29.586  -2.256 165.028  1.00  0.00     0.094 A 
ATOM     10  C   UNL     1      30.455  -1.233 165.418  1.00  0.00     0.146 A 
ATOM     11  O   UNL     1      31.445  -0.882 164.605  1.00  0.00    -0.452 OA
ENDROOT
BRANCH   1  12
ATOM     12  C   UNL     1      33.369   0.386 163.893  1.00  0.00     0.021 A 
ATOM     13  C   UNL     1      33.002   0.837 162.614  1.00  0.00     0.016 A 
ATOM     14  C   UNL     1      33.979   1.152 161.665  1.00  0.00     0.047 A 
ATOM     15  C   UNL     1      35.335   1.036 161.987  1.00  0.00     0.115 A 
ATOM     16  C   UNL     1      34.735   0.291 164.216  1.00  0.00     0.016 A 
ATOM     17  C   UNL     1      35.710   0.607 163.266  1.00  0.00     0.047 A 
BRANCH  15  18
ATOM     18  O   UNL     1      36.298   1.351 161.031  1.00  0.00    -0.508 OA
ATOM     19  H   UNL     1      36.716   2.274 160.986  1.00  0.00     0.293 HD
ENDBRANCH  15  18
ENDBRANCH   1  12
BRANCH   2  20
ATOM     20  O   UNL     1      33.179   1.733 166.456  1.00  0.00    -0.502 OA
ATOM     21  H   UNL     1      33.470   1.895 167.412  1.00  0.00     0.293 HD
ENDBRANCH   2  20
BRANCH   6  22
ATOM     22  O   UNL     1      29.000  -0.362 168.736  1.00  0.00    -0.507 OA
ATOM     23  H   UNL     1      28.088  -0.017 169.011  1.00  0.00     0.293 HD
ENDBRANCH   6  22
BRANCH   8  24
ATOM     24  O   UNL     1      27.660  -3.661 165.479  1.00  0.00    -0.508 OA
ATOM     25  H   UNL     1      27.319  -4.343 166.145  1.00  0.00     0.293 HD
ENDBRANCH   8  24
TORSDOF 5
ENDMDL
