MODEL 1
REMARK VINA RESULT:    -4.900      0.000      0.000
REMARK INTER + INTRA:          -8.473
REMARK INTER:                  -7.764
REMARK INTRA:                  -0.708
REMARK UNBOUND:                -0.708
REMARK SMILES CCCCCCCCCCCC(=O)[O-]
REMARK SMILES IDX 7 1 8 2 9 3 10 4 11 5 12 6 13 7 14 8 6 9 5 10 4 11 3 12 2 13
REMARK SMILES IDX 1 14
REMARK H PARENT
REMARK Flexibility Score: inf
ROOT
ATOM      1  C   UNL     1      22.023  59.322  37.286  1.00  0.00     0.000 C 
ENDROOT
BRANCH   1   2
ATOM      2  C   UNL     1      22.667  58.632  36.067  1.00  0.00     0.000 C 
BRANCH   2   3
ATOM      3  C   UNL     1      21.740  58.452  34.848  1.00  0.00     0.000 C 
BRANCH   3   4
ATOM      4  C   UNL     1      22.402  57.802  33.621  1.00  0.00     0.006 C 
BRANCH   4   5
ATOM      5  C   UNL     1      23.929  57.713  33.745  1.00  0.00     0.053 C 
BRANCH   5   6
ATOM      6  C   UNL     1      24.585  58.700  32.832  1.00  0.00     0.041 C 
ATOM      7  O   UNL     1      24.782  58.411  31.622  1.00  0.00    -0.550 OA
ATOM      8  O   UNL     1      24.935  59.959  33.305  1.00  0.00    -0.550 OA
ENDBRANCH   5   6
ENDBRANCH   4   5
ENDBRANCH   3   4
ENDBRANCH   2   3
ENDBRANCH   1   2
BRANCH   1   9
ATOM      9  C   UNL     1      22.905  60.379  37.976  1.00  0.00     0.000 C 
BRANCH   9  10
ATOM     10  C   UNL     1      22.718  60.409  39.500  1.00  0.00    -0.000 C 
BRANCH  10  11
ATOM     11  C   UNL     1      22.376  59.013  40.040  1.00  0.00    -0.000 C 
BRANCH  11  12
ATOM     12  C   UNL     1      21.292  59.041  41.131  1.00  0.00    -0.000 C 
BRANCH  12  13
ATOM     13  C   UNL     1      19.861  58.777  40.630  1.00  0.00    -0.003 C 
ATOM     14  C   UNL     1      19.775  57.603  39.656  1.00  0.00     0.004 C 
ENDBRANCH  12  13
ENDBRANCH  11  12
ENDBRANCH  10  11
ENDBRANCH   9  10
ENDBRANCH   1   9
TORSDOF 10
ENDMDL
MODEL 2
REMARK VINA RESULT:    -4.885     11.300     13.862
REMARK INTER + INTRA:          -8.448
REMARK INTER:                  -7.460
REMARK INTRA:                  -0.988
REMARK UNBOUND:                -0.708
REMARK SMILES CCCCCCCCCCCC(=O)[O-]
REMARK SMILES IDX 7 1 8 2 9 3 10 4 11 5 12 6 13 7 14 8 6 9 5 10 4 11 3 12 2 13
REMARK SMILES IDX 1 14
REMARK H PARENT
REMARK Flexibility Score: inf
ROOT
ATOM      1  C   UNL     1      35.983  57.462  29.592  1.00  0.00     0.000 C 
ENDROOT
BRANCH   1   2
ATOM      2  C   UNL     1      35.701  57.947  28.156  1.00  0.00     0.000 C 
BRANCH   2   3
ATOM      3  C   UNL     1      34.946  56.943  27.261  1.00  0.00     0.000 C 
BRANCH   3   4
ATOM      4  C   UNL     1      34.465  55.670  27.979  1.00  0.00     0.006 C 
BRANCH   4   5
ATOM      5  C   UNL     1      33.005  55.321  27.660  1.00  0.00     0.053 C 
BRANCH   5   6
ATOM      6  C   UNL     1      32.765  53.857  27.848  1.00  0.00     0.041 C 
ATOM      7  O   UNL     1      31.694  53.333  27.443  1.00  0.00    -0.550 OA
ATOM      8  O   UNL     1      33.746  53.060  28.426  1.00  0.00    -0.550 OA
ENDBRANCH   5   6
ENDBRANCH   4   5
ENDBRANCH   3   4
ENDBRANCH   2   3
ENDBRANCH   1   2
BRANCH   1   9
ATOM      9  C   UNL     1      35.186  58.188  30.692  1.00  0.00     0.000 C 
BRANCH   9  10
ATOM     10  C   UNL     1      35.069  57.368  31.985  1.00  0.00    -0.000 C 
BRANCH  10  11
ATOM     11  C   UNL     1      34.539  55.956  31.695  1.00  0.00    -0.000 C 
BRANCH  11  12
ATOM     12  C   UNL     1      33.006  55.906  31.567  1.00  0.00    -0.000 C 
BRANCH  12  13
ATOM     13  C   UNL     1      32.237  56.544  32.737  1.00  0.00    -0.003 C 
ATOM     14  C   UNL     1      32.193  55.656  33.979  1.00  0.00     0.004 C 
ENDBRANCH  12  13
ENDBRANCH  11  12
ENDBRANCH  10  11
ENDBRANCH   9  10
ENDBRANCH   1   9
TORSDOF 10
ENDMDL
MODEL 3
REMARK VINA RESULT:    -4.863      3.677      7.013
REMARK INTER + INTRA:          -8.414
REMARK INTER:                  -7.662
REMARK INTRA:                  -0.752
REMARK UNBOUND:                -0.708
REMARK SMILES CCCCCCCCCCCC(=O)[O-]
REMARK SMILES IDX 7 1 8 2 9 3 10 4 11 5 12 6 13 7 14 8 6 9 5 10 4 11 3 12 2 13
REMARK SMILES IDX 1 14
REMARK H PARENT
REMARK Flexibility Score: inf
ROOT
ATOM      1  C   UNL     1      23.666  58.323  34.957  1.00  0.00     0.000 C 
ENDROOT
BRANCH   1   2
ATOM      2  C   UNL     1      22.319  58.718  35.593  1.00  0.00     0.000 C 
BRANCH   2   3
ATOM      3  C   UNL     1      22.402  59.222  37.048  1.00  0.00     0.000 C 
BRANCH   3   4
ATOM      4  C   UNL     1      21.152  58.946  37.901  1.00  0.00     0.006 C 
BRANCH   4   5
ATOM      5  C   UNL     1      21.383  59.203  39.396  1.00  0.00     0.053 C 
BRANCH   5   6
ATOM      6  C   UNL     1      20.200  58.748  40.192  1.00  0.00     0.041 C 
ATOM      7  O   UNL     1      19.228  58.189  39.619  1.00  0.00    -0.550 OA
ATOM      8  O   UNL     1      20.193  58.897  41.573  1.00  0.00    -0.550 OA
ENDBRANCH   5   6
ENDBRANCH   4   5
ENDBRANCH   3   4
ENDBRANCH   2   3
ENDBRANCH   1   2
BRANCH   1   9
ATOM      9  C   UNL     1      24.114  59.209  33.779  1.00  0.00     0.000 C 
BRANCH   9  10
ATOM     10  C   UNL     1      24.524  58.395  32.542  1.00  0.00    -0.000 C 
BRANCH  10  11
ATOM     11  C   UNL     1      23.912  56.988  32.583  1.00  0.00    -0.000 C 
BRANCH  11  12
ATOM     12  C   UNL     1      22.591  56.884  31.800  1.00  0.00    -0.000 C 
BRANCH  12  13
ATOM     13  C   UNL     1      21.351  56.578  32.658  1.00  0.00    -0.003 C 
ATOM     14  C   UNL     1      20.349  57.731  32.694  1.00  0.00     0.004 C 
ENDBRANCH  12  13
ENDBRANCH  11  12
ENDBRANCH  10  11
ENDBRANCH   9  10
ENDBRANCH   1   9
TORSDOF 10
ENDMDL
MODEL 4
REMARK VINA RESULT:    -4.819      2.021      2.602
REMARK INTER + INTRA:          -8.344
REMARK INTER:                  -7.636
REMARK INTRA:                  -0.708
REMARK UNBOUND:                -0.708
REMARK SMILES CCCCCCCCCCCC(=O)[O-]
REMARK SMILES IDX 7 1 8 2 9 3 10 4 11 5 12 6 13 7 14 8 6 9 5 10 4 11 3 12 2 13
REMARK SMILES IDX 1 14
REMARK H PARENT
REMARK Flexibility Score: inf
ROOT
ATOM      1  C   UNL     1      21.888  58.783  35.692  1.00  0.00     0.000 C 
ENDROOT
BRANCH   1   2
ATOM      2  C   UNL     1      23.323  58.501  35.204  1.00  0.00     0.000 C 
BRANCH   2   3
ATOM      3  C   UNL     1      23.566  58.748  33.702  1.00  0.00     0.000 C 
BRANCH   3   4
ATOM      4  C   UNL     1      23.962  57.498  32.895  1.00  0.00     0.006 C 
BRANCH   4   5
ATOM      5  C   UNL     1      22.841  57.007  31.970  1.00  0.00     0.053 C 
BRANCH   5   6
ATOM      6  C   UNL     1      21.723  56.420  32.772  1.00  0.00     0.041 C 
ATOM      7  O   UNL     1      21.877  55.319  33.365  1.00  0.00    -0.550 OA
ATOM      8  O   UNL     1      20.526  57.112  32.907  1.00  0.00    -0.550 OA
ENDBRANCH   5   6
ENDBRANCH   4   5
ENDBRANCH   3   4
ENDBRANCH   2   3
ENDBRANCH   1   2
BRANCH   1   9
ATOM      9  C   UNL     1      21.767  59.127  37.188  1.00  0.00     0.000 C 
BRANCH   9  10
ATOM     10  C   UNL     1      22.861  60.092  37.670  1.00  0.00    -0.000 C 
BRANCH  10  11
ATOM     11  C   UNL     1      22.776  60.304  39.188  1.00  0.00    -0.000 C 
BRANCH  11  12
ATOM     12  C   UNL     1      22.459  59.010  39.958  1.00  0.00    -0.000 C 
BRANCH  12  13
ATOM     13  C   UNL     1      21.296  59.120  40.960  1.00  0.00    -0.003 C 
ATOM     14  C   UNL     1      20.007  58.472  40.455  1.00  0.00     0.004 C 
ENDBRANCH  12  13
ENDBRANCH  11  12
ENDBRANCH  10  11
ENDBRANCH   9  10
ENDBRANCH   1   9
TORSDOF 10
ENDMDL
MODEL 5
REMARK VINA RESULT:    -4.809     11.874     14.714
REMARK INTER + INTRA:          -8.329
REMARK INTER:                  -7.250
REMARK INTRA:                  -1.079
REMARK UNBOUND:                -0.708
REMARK SMILES CCCCCCCCCCCC(=O)[O-]
REMARK SMILES IDX 7 1 8 2 9 3 10 4 11 5 12 6 13 7 14 8 6 9 5 10 4 11 3 12 2 13
REMARK SMILES IDX 1 14
REMARK H PARENT
REMARK Flexibility Score: inf
ROOT
ATOM      1  C   UNL     1      33.683  56.076  26.390  1.00  0.00     0.000 C 
ENDROOT
BRANCH   1   2
ATOM      2  C   UNL     1      34.638  57.195  26.851  1.00  0.00     0.000 C 
BRANCH   2   3
ATOM      3  C   UNL     1      35.993  56.714  27.409  1.00  0.00     0.000 C 
BRANCH   3   4
ATOM      4  C   UNL     1      36.466  57.443  28.679  1.00  0.00     0.006 C 
BRANCH   4   5
ATOM      5  C   UNL     1      35.312  57.800  29.626  1.00  0.00     0.053 C 
BRANCH   5   6
ATOM      6  C   UNL     1      35.814  57.949  31.027  1.00  0.00     0.041 C 
ATOM      7  O   UNL     1      36.243  59.063  31.431  1.00  0.00    -0.550 OA
ATOM      8  O   UNL     1      35.764  56.873  31.903  1.00  0.00    -0.550 OA
ENDBRANCH   5   6
ENDBRANCH   4   5
ENDBRANCH   3   4
ENDBRANCH   2   3
ENDBRANCH   1   2
BRANCH   1   9
ATOM      9  C   UNL     1      32.718  55.558  27.472  1.00  0.00     0.000 C 
BRANCH   9  10
ATOM     10  C   UNL     1      32.974  54.092  27.850  1.00  0.00    -0.000 C 
BRANCH  10  11
ATOM     11  C   UNL     1      33.252  53.953  29.354  1.00  0.00    -0.000 C 
BRANCH  11  12
ATOM     12  C   UNL     1      33.046  55.268  30.126  1.00  0.00    -0.000 C 
BRANCH  12  13
ATOM     13  C   UNL     1      32.725  55.097  31.622  1.00  0.00    -0.003 C 
ATOM     14  C   UNL     1      32.290  56.400  32.293  1.00  0.00     0.004 C 
ENDBRANCH  12  13
ENDBRANCH  11  12
ENDBRANCH  10  11
ENDBRANCH   9  10
ENDBRANCH   1   9
TORSDOF 10
ENDMDL
MODEL 6
REMARK VINA RESULT:    -4.798     13.106     15.181
REMARK INTER + INTRA:          -8.312
REMARK INTER:                  -7.109
REMARK INTRA:                  -1.202
REMARK UNBOUND:                -0.708
REMARK SMILES CCCCCCCCCCCC(=O)[O-]
REMARK SMILES IDX 7 1 8 2 9 3 10 4 11 5 12 6 13 7 14 8 6 9 5 10 4 11 3 12 2 13
REMARK SMILES IDX 1 14
REMARK H PARENT
REMARK Flexibility Score: inf
ROOT
ATOM      1  C   UNL     1      32.736  54.080  27.887  1.00  0.00     0.000 C 
ENDROOT
BRANCH   1   2
ATOM      2  C   UNL     1      33.185  53.983  29.358  1.00  0.00     0.000 C 
BRANCH   2   3
ATOM      3  C   UNL     1      32.929  55.244  30.207  1.00  0.00     0.000 C 
BRANCH   3   4
ATOM      4  C   UNL     1      34.192  56.039  30.584  1.00  0.00     0.006 C 
BRANCH   4   5
ATOM      5  C   UNL     1      33.966  56.991  31.766  1.00  0.00     0.053 C 
BRANCH   5   6
ATOM      6  C   UNL     1      35.192  57.809  32.019  1.00  0.00     0.041 C 
ATOM      7  O   UNL     1      35.426  58.832  31.323  1.00  0.00    -0.550 OA
ATOM      8  O   UNL     1      36.052  57.471  33.056  1.00  0.00    -0.550 OA
ENDBRANCH   5   6
ENDBRANCH   4   5
ENDBRANCH   3   4
ENDBRANCH   2   3
ENDBRANCH   1   2
BRANCH   1   9
ATOM      9  C   UNL     1      31.709  55.189  27.592  1.00  0.00     0.000 C 
BRANCH   9  10
ATOM     10  C   UNL     1      32.234  56.241  26.603  1.00  0.00    -0.000 C 
BRANCH  10  11
ATOM     11  C   UNL     1      33.730  56.036  26.325  1.00  0.00    -0.000 C 
BRANCH  11  12
ATOM     12  C   UNL     1      34.616  57.105  26.989  1.00  0.00    -0.000 C 
BRANCH  12  13
ATOM     13  C   UNL     1      35.992  56.604  27.462  1.00  0.00    -0.003 C 
ATOM     14  C   UNL     1      36.732  57.620  28.331  1.00  0.00     0.004 C 
ENDBRANCH  12  13
ENDBRANCH  11  12
ENDBRANCH  10  11
ENDBRANCH   9  10
ENDBRANCH   1   9
TORSDOF 10
ENDMDL
MODEL 7
REMARK VINA RESULT:    -4.784     13.261     15.188
REMARK INTER + INTRA:          -8.290
REMARK INTER:                  -7.274
REMARK INTRA:                  -1.016
REMARK UNBOUND:                -0.708
REMARK SMILES CCCCCCCCCCCC(=O)[O-]
REMARK SMILES IDX 7 1 8 2 9 3 10 4 11 5 12 6 13 7 14 8 6 9 5 10 4 11 3 12 2 13
REMARK SMILES IDX 1 14
REMARK H PARENT
REMARK Flexibility Score: inf
ROOT
ATOM      1  C   UNL     1      35.576  56.730  27.046  1.00  0.00     0.000 C 
ENDROOT
BRANCH   1   2
ATOM      2  C   UNL     1      35.631  57.769  28.184  1.00  0.00     0.000 C 
BRANCH   2   3
ATOM      3  C   UNL     1      35.629  57.181  29.610  1.00  0.00     0.000 C 
BRANCH   3   4
ATOM      4  C   UNL     1      35.088  58.126  30.698  1.00  0.00     0.006 C 
BRANCH   4   5
ATOM      5  C   UNL     1      34.363  57.380  31.826  1.00  0.00     0.053 C 
BRANCH   5   6
ATOM      6  C   UNL     1      35.191  57.386  33.072  1.00  0.00     0.041 C 
ATOM      7  O   UNL     1      34.948  58.213  33.991  1.00  0.00    -0.550 OA
ATOM      8  O   UNL     1      36.200  56.446  33.241  1.00  0.00    -0.550 OA
ENDBRANCH   5   6
ENDBRANCH   4   5
ENDBRANCH   3   4
ENDBRANCH   2   3
ENDBRANCH   1   2
BRANCH   1   9
ATOM      9  C   UNL     1      34.504  56.996  25.974  1.00  0.00     0.000 C 
BRANCH   9  10
ATOM     10  C   UNL     1      33.464  55.869  25.877  1.00  0.00    -0.000 C 
BRANCH  10  11
ATOM     11  C   UNL     1      32.174  56.247  26.618  1.00  0.00    -0.000 C 
BRANCH  11  12
ATOM     12  C   UNL     1      31.737  55.184  27.642  1.00  0.00    -0.000 C 
BRANCH  12  13
ATOM     13  C   UNL     1      32.867  54.270  28.149  1.00  0.00    -0.003 C 
ATOM     14  C   UNL     1      33.176  54.469  29.633  1.00  0.00     0.004 C 
ENDBRANCH  12  13
ENDBRANCH  11  12
ENDBRANCH  10  11
ENDBRANCH   9  10
ENDBRANCH   1   9
TORSDOF 10
ENDMDL
MODEL 8
REMARK VINA RESULT:    -4.750     11.195     14.270
REMARK INTER + INTRA:          -8.235
REMARK INTER:                  -7.251
REMARK INTRA:                  -0.984
REMARK UNBOUND:                -0.708
REMARK SMILES CCCCCCCCCCCC(=O)[O-]
REMARK SMILES IDX 7 1 8 2 9 3 10 4 11 5 12 6 13 7 14 8 6 9 5 10 4 11 3 12 2 13
REMARK SMILES IDX 1 14
REMARK H PARENT
REMARK Flexibility Score: inf
ROOT
ATOM      1  C   UNL     1      35.455  58.112  30.343  1.00  0.00     0.000 C 
ENDROOT
BRANCH   1   2
ATOM      2  C   UNL     1      34.738  57.535  31.580  1.00  0.00     0.000 C 
BRANCH   2   3
ATOM      3  C   UNL     1      34.196  56.101  31.414  1.00  0.00     0.000 C 
BRANCH   3   4
ATOM      4  C   UNL     1      32.686  55.946  31.670  1.00  0.00     0.006 C 
BRANCH   4   5
ATOM      5  C   UNL     1      32.264  56.440  33.060  1.00  0.00     0.053 C 
BRANCH   5   6
ATOM      6  C   UNL     1      32.308  55.318  34.048  1.00  0.00     0.041 C 
ATOM      7  O   UNL     1      31.803  54.200  33.761  1.00  0.00    -0.550 OA
ATOM      8  O   UNL     1      32.952  55.489  35.267  1.00  0.00    -0.550 OA
ENDBRANCH   5   6
ENDBRANCH   4   5
ENDBRANCH   3   4
ENDBRANCH   2   3
ENDBRANCH   1   2
BRANCH   1   9
ATOM      9  C   UNL     1      35.716  57.102  29.212  1.00  0.00     0.000 C 
BRANCH   9  10
ATOM     10  C   UNL     1      35.445  57.684  27.816  1.00  0.00    -0.000 C 
BRANCH  10  11
ATOM     11  C   UNL     1      34.404  56.844  27.063  1.00  0.00    -0.000 C 
BRANCH  11  12
ATOM     12  C   UNL     1      34.055  55.531  27.787  1.00  0.00    -0.000 C 
BRANCH  12  13
ATOM     13  C   UNL     1      32.565  55.357  28.131  1.00  0.00    -0.003 C 
ATOM     14  C   UNL     1      31.643  55.615  26.940  1.00  0.00     0.004 C 
ENDBRANCH  12  13
ENDBRANCH  11  12
ENDBRANCH  10  11
ENDBRANCH   9  10
ENDBRANCH   1   9
TORSDOF 10
ENDMDL
MODEL 9
REMARK VINA RESULT:    -4.742     12.147     13.918
REMARK INTER + INTRA:          -8.223
REMARK INTER:                  -7.186
REMARK INTRA:                  -1.037
REMARK UNBOUND:                -0.708
REMARK SMILES CCCCCCCCCCCC(=O)[O-]
REMARK SMILES IDX 7 1 8 2 9 3 10 4 11 5 12 6 13 7 14 8 6 9 5 10 4 11 3 12 2 13
REMARK SMILES IDX 1 14
REMARK H PARENT
REMARK Flexibility Score: inf
ROOT
ATOM      1  C   UNL     1      35.722  57.132  29.557  1.00  0.00     0.000 C 
ENDROOT
BRANCH   1   2
ATOM      2  C   UNL     1      35.573  57.843  28.197  1.00  0.00     0.000 C 
BRANCH   2   3
ATOM      3  C   UNL     1      34.882  57.015  27.095  1.00  0.00     0.000 C 
BRANCH   3   4
ATOM      4  C   UNL     1      33.626  56.251  27.551  1.00  0.00     0.006 C 
BRANCH   4   5
ATOM      5  C   UNL     1      32.858  55.618  26.384  1.00  0.00     0.053 C 
BRANCH   5   6
ATOM      6  C   UNL     1      31.529  55.112  26.847  1.00  0.00     0.041 C 
ATOM      7  O   UNL     1      30.747  55.871  27.479  1.00  0.00    -0.550 OA
ATOM      8  O   UNL     1      31.131  53.817  26.538  1.00  0.00    -0.550 OA
ENDBRANCH   5   6
ENDBRANCH   4   5
ENDBRANCH   3   4
ENDBRANCH   2   3
ENDBRANCH   1   2
BRANCH   1   9
ATOM      9  C   UNL     1      35.179  57.916  30.765  1.00  0.00     0.000 C 
BRANCH   9  10
ATOM     10  C   UNL     1      34.739  57.004  31.920  1.00  0.00    -0.000 C 
BRANCH  10  11
ATOM     11  C   UNL     1      33.211  56.998  32.063  1.00  0.00    -0.000 C 
BRANCH  11  12
ATOM     12  C   UNL     1      32.557  55.739  31.466  1.00  0.00    -0.000 C 
BRANCH  12  13
ATOM     13  C   UNL     1      33.532  54.587  31.158  1.00  0.00    -0.003 C 
ATOM     14  C   UNL     1      32.990  53.607  30.119  1.00  0.00     0.004 C 
ENDBRANCH  12  13
ENDBRANCH  11  12
ENDBRANCH  10  11
ENDBRANCH   9  10
ENDBRANCH   1   9
TORSDOF 10
ENDMDL
