MODEL 1
REMARK VINA RESULT:    -4.343      0.000      0.000
REMARK INTER + INTRA:          -9.159
REMARK INTER:                  -7.390
REMARK INTRA:                  -1.769
REMARK UNBOUND:                -1.769
REMARK SMILES CCCCCCCCCCCCCC(=O)[O-]
REMARK SMILES IDX 8 1 9 2 10 3 11 4 12 5 13 6 14 7 15 8 16 9 7 10 6 11 5 12
REMARK SMILES IDX 4 13 3 14 2 15 1 16
REMARK H PARENT
REMARK Flexibility Score: inf
ROOT
ATOM      1  C   UNL     1      15.255 -34.301  21.687  1.00  0.00     0.000 C 
ENDROOT
BRANCH   1   2
ATOM      2  C   UNL     1      14.598 -33.681  20.441  1.00  0.00     0.000 C 
BRANCH   2   3
ATOM      3  C   UNL     1      13.838 -32.380  20.748  1.00  0.00     0.000 C 
BRANCH   3   4
ATOM      4  C   UNL     1      13.738 -32.085  22.256  1.00  0.00     0.000 C 
BRANCH   4   5
ATOM      5  C   UNL     1      12.839 -30.890  22.635  1.00  0.00     0.006 C 
BRANCH   5   6
ATOM      6  C   UNL     1      13.514 -29.844  23.537  1.00  0.00     0.053 C 
BRANCH   6   7
ATOM      7  C   UNL     1      12.638 -28.650  23.764  1.00  0.00     0.041 C 
ATOM      8  O   UNL     1      13.122 -27.590  24.241  1.00  0.00    -0.550 OA
ATOM      9  O   UNL     1      11.280 -28.720  23.479  1.00  0.00    -0.550 OA
ENDBRANCH   6   7
ENDBRANCH   5   6
ENDBRANCH   4   5
ENDBRANCH   3   4
ENDBRANCH   2   3
ENDBRANCH   1   2
BRANCH   1  10
ATOM     10  C   UNL     1      16.574 -35.062  21.431  1.00  0.00     0.000 C 
BRANCH  10  11
ATOM     11  C   UNL     1      17.853 -34.307  21.832  1.00  0.00    -0.000 C 
BRANCH  11  12
ATOM     12  C   UNL     1      18.511 -33.498  20.698  1.00  0.00    -0.000 C 
BRANCH  12  13
ATOM     13  C   UNL     1      18.685 -31.998  21.025  1.00  0.00    -0.000 C 
BRANCH  13  14
ATOM     14  C   UNL     1      17.367 -31.212  20.906  1.00  0.00    -0.000 C 
BRANCH  14  15
ATOM     15  C   UNL     1      17.113 -30.303  22.118  1.00  0.00    -0.003 C 
ATOM     16  C   UNL     1      17.087 -31.072  23.439  1.00  0.00     0.004 C 
ENDBRANCH  14  15
ENDBRANCH  13  14
ENDBRANCH  12  13
ENDBRANCH  11  12
ENDBRANCH  10  11
ENDBRANCH   1  10
TORSDOF 12
ENDMDL
MODEL 2
REMARK VINA RESULT:    -4.336      3.893      6.114
REMARK INTER + INTRA:          -9.147
REMARK INTER:                  -7.187
REMARK INTRA:                  -1.960
REMARK UNBOUND:                -1.769
REMARK SMILES CCCCCCCCCCCCCC(=O)[O-]
REMARK SMILES IDX 8 1 9 2 10 3 11 4 12 5 13 6 14 7 15 8 16 9 7 10 6 11 5 12
REMARK SMILES IDX 4 13 3 14 2 15 1 16
REMARK H PARENT
REMARK Flexibility Score: inf
ROOT
ATOM      1  C   UNL     1      15.085 -29.678  21.885  1.00  0.00     0.000 C 
ENDROOT
BRANCH   1   2
ATOM      2  C   UNL     1      16.593 -29.888  21.652  1.00  0.00     0.000 C 
BRANCH   2   3
ATOM      3  C   UNL     1      17.212 -30.910  22.620  1.00  0.00     0.000 C 
BRANCH   3   4
ATOM      4  C   UNL     1      18.007 -32.015  21.900  1.00  0.00     0.000 C 
BRANCH   4   5
ATOM      5  C   UNL     1      17.435 -32.454  20.536  1.00  0.00     0.006 C 
BRANCH   5   6
ATOM      6  C   UNL     1      16.669 -33.786  20.563  1.00  0.00     0.053 C 
BRANCH   6   7
ATOM      7  C   UNL     1      17.092 -34.700  19.454  1.00  0.00     0.041 C 
ATOM      8  O   UNL     1      16.455 -35.762  19.229  1.00  0.00    -0.550 OA
ATOM      9  O   UNL     1      18.211 -34.393  18.689  1.00  0.00    -0.550 OA
ENDBRANCH   6   7
ENDBRANCH   5   6
ENDBRANCH   4   5
ENDBRANCH   3   4
ENDBRANCH   2   3
ENDBRANCH   1   2
BRANCH   1  10
ATOM     10  C   UNL     1      14.156 -30.612  21.079  1.00  0.00     0.000 C 
BRANCH  10  11
ATOM     11  C   UNL     1      13.467 -31.716  21.900  1.00  0.00    -0.000 C 
BRANCH  11  12
ATOM     12  C   UNL     1      13.472 -31.489  23.424  1.00  0.00    -0.000 C 
BRANCH  12  13
ATOM     13  C   UNL     1      13.798 -32.759  24.241  1.00  0.00    -0.000 C 
BRANCH  13  14
ATOM     14  C   UNL     1      14.912 -33.604  23.597  1.00  0.00    -0.000 C 
BRANCH  14  15
ATOM     15  C   UNL     1      16.108 -33.815  24.537  1.00  0.00    -0.003 C 
ATOM     16  C   UNL     1      16.936 -35.047  24.171  1.00  0.00     0.004 C 
ENDBRANCH  14  15
ENDBRANCH  13  14
ENDBRANCH  12  13
ENDBRANCH  11  12
ENDBRANCH  10  11
ENDBRANCH   1  10
TORSDOF 12
ENDMDL
MODEL 3
REMARK VINA RESULT:    -4.312      3.784      5.863
REMARK INTER + INTRA:          -9.106
REMARK INTER:                  -7.487
REMARK INTRA:                  -1.619
REMARK UNBOUND:                -1.769
REMARK SMILES CCCCCCCCCCCCCC(=O)[O-]
REMARK SMILES IDX 8 1 9 2 10 3 11 4 12 5 13 6 14 7 15 8 16 9 7 10 6 11 5 12
REMARK SMILES IDX 4 13 3 14 2 15 1 16
REMARK H PARENT
REMARK Flexibility Score: inf
ROOT
ATOM      1  C   UNL     1      13.787 -32.348  24.052  1.00  0.00     0.000 C 
ENDROOT
BRANCH   1   2
ATOM      2  C   UNL     1      14.666 -33.439  23.415  1.00  0.00     0.000 C 
BRANCH   2   3
ATOM      3  C   UNL     1      14.648 -33.400  21.877  1.00  0.00     0.000 C 
BRANCH   3   4
ATOM      4  C   UNL     1      15.399 -34.582  21.238  1.00  0.00     0.000 C 
BRANCH   4   5
ATOM      5  C   UNL     1      16.810 -34.848  21.801  1.00  0.00     0.006 C 
BRANCH   5   6
ATOM      6  C   UNL     1      17.941 -34.745  20.766  1.00  0.00     0.053 C 
BRANCH   6   7
ATOM      7  C   UNL     1      17.471 -35.085  19.385  1.00  0.00     0.041 C 
ATOM      8  O   UNL     1      17.255 -34.172  18.545  1.00  0.00    -0.550 OA
ATOM      9  O   UNL     1      17.240 -36.410  19.036  1.00  0.00    -0.550 OA
ENDBRANCH   6   7
ENDBRANCH   5   6
ENDBRANCH   4   5
ENDBRANCH   3   4
ENDBRANCH   2   3
ENDBRANCH   1   2
BRANCH   1  10
ATOM     10  C   UNL     1      13.098 -31.388  23.058  1.00  0.00     0.000 C 
BRANCH  10  11
ATOM     11  C   UNL     1      13.071 -29.911  23.487  1.00  0.00    -0.000 C 
BRANCH  11  12
ATOM     12  C   UNL     1      14.246 -29.062  22.966  1.00  0.00    -0.000 C 
BRANCH  12  13
ATOM     13  C   UNL     1      14.856 -29.587  21.648  1.00  0.00    -0.000 C 
BRANCH  13  14
ATOM     14  C   UNL     1      16.392 -29.491  21.630  1.00  0.00    -0.000 C 
BRANCH  14  15
ATOM     15  C   UNL     1      17.069 -30.854  21.842  1.00  0.00    -0.003 C 
ATOM     16  C   UNL     1      17.387 -31.134  23.311  1.00  0.00     0.004 C 
ENDBRANCH  14  15
ENDBRANCH  13  14
ENDBRANCH  12  13
ENDBRANCH  11  12
ENDBRANCH  10  11
ENDBRANCH   1  10
TORSDOF 12
ENDMDL
MODEL 4
REMARK VINA RESULT:    -4.270      1.386      2.048
REMARK INTER + INTRA:          -9.035
REMARK INTER:                  -7.571
REMARK INTRA:                  -1.464
REMARK UNBOUND:                -1.769
REMARK SMILES CCCCCCCCCCCCCC(=O)[O-]
REMARK SMILES IDX 8 1 9 2 10 3 11 4 12 5 13 6 14 7 15 8 16 9 7 10 6 11 5 12
REMARK SMILES IDX 4 13 3 14 2 15 1 16
REMARK H PARENT
REMARK Flexibility Score: inf
ROOT
ATOM      1  C   UNL     1      14.695 -34.017  19.824  1.00  0.00     0.000 C 
ENDROOT
BRANCH   1   2
ATOM      2  C   UNL     1      14.212 -33.072  20.940  1.00  0.00     0.000 C 
BRANCH   2   3
ATOM      3  C   UNL     1      14.906 -33.333  22.287  1.00  0.00     0.000 C 
BRANCH   3   4
ATOM      4  C   UNL     1      15.012 -32.071  23.162  1.00  0.00     0.000 C 
BRANCH   4   5
ATOM      5  C   UNL     1      14.741 -30.739  22.433  1.00  0.00     0.006 C 
BRANCH   5   6
ATOM      6  C   UNL     1      14.009 -29.685  23.277  1.00  0.00     0.053 C 
BRANCH   6   7
ATOM      7  C   UNL     1      12.530 -29.705  23.041  1.00  0.00     0.041 C 
ATOM      8  O   UNL     1      11.774 -28.932  23.687  1.00  0.00    -0.550 OA
ATOM      9  O   UNL     1      11.983 -30.601  22.130  1.00  0.00    -0.550 OA
ENDBRANCH   6   7
ENDBRANCH   5   6
ENDBRANCH   4   5
ENDBRANCH   3   4
ENDBRANCH   2   3
ENDBRANCH   1   2
BRANCH   1  10
ATOM     10  C   UNL     1      15.578 -35.195  20.291  1.00  0.00     0.000 C 
BRANCH  10  11
ATOM     11  C   UNL     1      16.790 -35.499  19.392  1.00  0.00    -0.000 C 
BRANCH  11  12
ATOM     12  C   UNL     1      17.698 -34.291  19.097  1.00  0.00    -0.000 C 
BRANCH  12  13
ATOM     13  C   UNL     1      18.325 -33.661  20.360  1.00  0.00    -0.000 C 
BRANCH  13  14
ATOM     14  C   UNL     1      17.919 -32.188  20.548  1.00  0.00    -0.000 C 
BRANCH  14  15
ATOM     15  C   UNL     1      18.843 -31.443  21.523  1.00  0.00    -0.003 C 
ATOM     16  C   UNL     1      20.288 -31.371  21.030  1.00  0.00     0.004 C 
ENDBRANCH  14  15
ENDBRANCH  13  14
ENDBRANCH  12  13
ENDBRANCH  11  12
ENDBRANCH  10  11
ENDBRANCH   1  10
TORSDOF 12
ENDMDL
MODEL 5
REMARK VINA RESULT:    -4.270      2.369      4.765
REMARK INTER + INTRA:          -9.035
REMARK INTER:                  -7.542
REMARK INTRA:                  -1.492
REMARK UNBOUND:                -1.769
REMARK SMILES CCCCCCCCCCCCCC(=O)[O-]
REMARK SMILES IDX 8 1 9 2 10 3 11 4 12 5 13 6 14 7 15 8 16 9 7 10 6 11 5 12
REMARK SMILES IDX 4 13 3 14 2 15 1 16
REMARK H PARENT
REMARK Flexibility Score: inf
ROOT
ATOM      1  C   UNL     1      14.987 -34.641  20.415  1.00  0.00     0.000 C 
ENDROOT
BRANCH   1   2
ATOM      2  C   UNL     1      16.175 -35.132  19.568  1.00  0.00     0.000 C 
BRANCH   2   3
ATOM      3  C   UNL     1      17.178 -34.014  19.237  1.00  0.00     0.000 C 
BRANCH   3   4
ATOM      4  C   UNL     1      18.422 -34.035  20.144  1.00  0.00     0.000 C 
BRANCH   4   5
ATOM      5  C   UNL     1      18.692 -32.732  20.923  1.00  0.00     0.006 C 
BRANCH   5   6
ATOM      6  C   UNL     1      17.719 -31.585  20.608  1.00  0.00     0.053 C 
BRANCH   6   7
ATOM      7  C   UNL     1      17.631 -30.599  21.732  1.00  0.00     0.041 C 
ATOM      8  O   UNL     1      17.610 -30.998  22.926  1.00  0.00    -0.550 OA
ATOM      9  O   UNL     1      17.538 -29.240  21.459  1.00  0.00    -0.550 OA
ENDBRANCH   6   7
ENDBRANCH   5   6
ENDBRANCH   4   5
ENDBRANCH   3   4
ENDBRANCH   2   3
ENDBRANCH   1   2
BRANCH   1  10
ATOM     10  C   UNL     1      15.337 -34.204  21.854  1.00  0.00     0.000 C 
BRANCH  10  11
ATOM     11  C   UNL     1      14.635 -32.923  22.337  1.00  0.00    -0.000 C 
BRANCH  11  12
ATOM     12  C   UNL     1      13.811 -32.190  21.262  1.00  0.00    -0.000 C 
BRANCH  12  13
ATOM     13  C   UNL     1      14.106 -30.676  21.176  1.00  0.00    -0.000 C 
BRANCH  13  14
ATOM     14  C   UNL     1      13.925 -29.963  22.528  1.00  0.00    -0.000 C 
BRANCH  14  15
ATOM     15  C   UNL     1      12.449 -29.839  22.935  1.00  0.00    -0.003 C 
ATOM     16  C   UNL     1      12.210 -28.732  23.962  1.00  0.00     0.004 C 
ENDBRANCH  14  15
ENDBRANCH  13  14
ENDBRANCH  12  13
ENDBRANCH  11  12
ENDBRANCH  10  11
ENDBRANCH   1  10
TORSDOF 12
ENDMDL
MODEL 6
REMARK VINA RESULT:    -4.268      3.801      5.873
REMARK INTER + INTRA:          -9.031
REMARK INTER:                  -7.022
REMARK INTRA:                  -2.010
REMARK UNBOUND:                -1.769
REMARK SMILES CCCCCCCCCCCCCC(=O)[O-]
REMARK SMILES IDX 8 1 9 2 10 3 11 4 12 5 13 6 14 7 15 8 16 9 7 10 6 11 5 12
REMARK SMILES IDX 4 13 3 14 2 15 1 16
REMARK H PARENT
REMARK Flexibility Score: inf
ROOT
ATOM      1  C   UNL     1      17.492 -32.651  24.270  1.00  0.00     0.000 C 
ENDROOT
BRANCH   1   2
ATOM      2  C   UNL     1      17.234 -31.421  23.379  1.00  0.00     0.000 C 
BRANCH   2   3
ATOM      3  C   UNL     1      18.320 -31.219  22.309  1.00  0.00     0.000 C 
BRANCH   3   4
ATOM      4  C   UNL     1      17.780 -31.354  20.873  1.00  0.00     0.000 C 
BRANCH   4   5
ATOM      5  C   UNL     1      17.260 -32.756  20.494  1.00  0.00     0.006 C 
BRANCH   5   6
ATOM      6  C   UNL     1      18.282 -33.889  20.682  1.00  0.00     0.053 C 
BRANCH   6   7
ATOM      7  C   UNL     1      17.641 -35.241  20.611  1.00  0.00     0.041 C 
ATOM      8  O   UNL     1      17.284 -35.829  21.665  1.00  0.00    -0.550 OA
ATOM      9  O   UNL     1      17.468 -35.864  19.381  1.00  0.00    -0.550 OA
ENDBRANCH   6   7
ENDBRANCH   5   6
ENDBRANCH   4   5
ENDBRANCH   3   4
ENDBRANCH   2   3
ENDBRANCH   1   2
BRANCH   1  10
ATOM     10  C   UNL     1      16.322 -33.654  24.366  1.00  0.00     0.000 C 
BRANCH  10  11
ATOM     11  C   UNL     1      15.145 -33.379  23.413  1.00  0.00    -0.000 C 
BRANCH  11  12
ATOM     12  C   UNL     1      13.920 -32.716  24.070  1.00  0.00    -0.000 C 
BRANCH  12  13
ATOM     13  C   UNL     1      13.466 -31.416  23.369  1.00  0.00    -0.000 C 
BRANCH  13  14
ATOM     14  C   UNL     1      13.584 -31.501  21.837  1.00  0.00    -0.000 C 
BRANCH  14  15
ATOM     15  C   UNL     1      14.253 -30.260  21.228  1.00  0.00    -0.003 C 
ATOM     16  C   UNL     1      14.581 -29.193  22.273  1.00  0.00     0.004 C 
ENDBRANCH  14  15
ENDBRANCH  13  14
ENDBRANCH  12  13
ENDBRANCH  11  12
ENDBRANCH  10  11
ENDBRANCH   1  10
TORSDOF 12
ENDMDL
MODEL 7
REMARK VINA RESULT:    -4.266      3.456      5.508
REMARK INTER + INTRA:          -9.028
REMARK INTER:                  -7.282
REMARK INTRA:                  -1.746
REMARK UNBOUND:                -1.769
REMARK SMILES CCCCCCCCCCCCCC(=O)[O-]
REMARK SMILES IDX 8 1 9 2 10 3 11 4 12 5 13 6 14 7 15 8 16 9 7 10 6 11 5 12
REMARK SMILES IDX 4 13 3 14 2 15 1 16
REMARK H PARENT
REMARK Flexibility Score: inf
ROOT
ATOM      1  C   UNL     1      12.478 -31.023  21.344  1.00  0.00     0.000 C 
ENDROOT
BRANCH   1   2
ATOM      2  C   UNL     1      13.245 -31.955  20.388  1.00  0.00     0.000 C 
BRANCH   2   3
ATOM      3  C   UNL     1      14.250 -32.864  21.115  1.00  0.00     0.000 C 
BRANCH   3   4
ATOM      4  C   UNL     1      14.749 -34.029  20.241  1.00  0.00     0.000 C 
BRANCH   4   5
ATOM      5  C   UNL     1      16.196 -34.487  20.517  1.00  0.00     0.006 C 
BRANCH   5   6
ATOM      6  C   UNL     1      16.497 -34.799  21.991  1.00  0.00     0.053 C 
BRANCH   6   7
ATOM      7  C   UNL     1      17.968 -34.809  22.273  1.00  0.00     0.041 C 
ATOM      8  O   UNL     1      18.388 -35.014  23.442  1.00  0.00    -0.550 OA
ATOM      9  O   UNL     1      18.874 -34.557  21.250  1.00  0.00    -0.550 OA
ENDBRANCH   6   7
ENDBRANCH   5   6
ENDBRANCH   4   5
ENDBRANCH   3   4
ENDBRANCH   2   3
ENDBRANCH   1   2
BRANCH   1  10
ATOM     10  C   UNL     1      12.790 -31.213  22.845  1.00  0.00     0.000 C 
BRANCH  10  11
ATOM     11  C   UNL     1      13.647 -30.103  23.480  1.00  0.00    -0.000 C 
BRANCH  11  12
ATOM     12  C   UNL     1      14.277 -29.117  22.478  1.00  0.00    -0.000 C 
BRANCH  12  13
ATOM     13  C   UNL     1      15.688 -29.530  22.003  1.00  0.00    -0.000 C 
BRANCH  13  14
ATOM     14  C   UNL     1      16.402 -30.452  23.008  1.00  0.00    -0.000 C 
BRANCH  14  15
ATOM     15  C   UNL     1      17.630 -31.146  22.400  1.00  0.00    -0.003 C 
ATOM     16  C   UNL     1      17.616 -31.139  20.872  1.00  0.00     0.004 C 
ENDBRANCH  14  15
ENDBRANCH  13  14
ENDBRANCH  12  13
ENDBRANCH  11  12
ENDBRANCH  10  11
ENDBRANCH   1  10
TORSDOF 12
ENDMDL
MODEL 8
REMARK VINA RESULT:    -4.244      1.674      3.419
REMARK INTER + INTRA:          -8.990
REMARK INTER:                  -7.567
REMARK INTRA:                  -1.423
REMARK UNBOUND:                -1.769
REMARK SMILES CCCCCCCCCCCCCC(=O)[O-]
REMARK SMILES IDX 8 1 9 2 10 3 11 4 12 5 13 6 14 7 15 8 16 9 7 10 6 11 5 12
REMARK SMILES IDX 4 13 3 14 2 15 1 16
REMARK H PARENT
REMARK Flexibility Score: inf
ROOT
ATOM      1  C   UNL     1      15.048 -33.935  22.313  1.00  0.00     0.000 C 
ENDROOT
BRANCH   1   2
ATOM      2  C   UNL     1      15.939 -32.900  23.023  1.00  0.00     0.000 C 
BRANCH   2   3
ATOM      3  C   UNL     1      16.131 -31.613  22.203  1.00  0.00     0.000 C 
BRANCH   3   4
ATOM      4  C   UNL     1      15.387 -30.404  22.800  1.00  0.00     0.000 C 
BRANCH   4   5
ATOM      5  C   UNL     1      14.098 -29.993  22.058  1.00  0.00     0.006 C 
BRANCH   5   6
ATOM      6  C   UNL     1      12.796 -30.363  22.786  1.00  0.00     0.053 C 
BRANCH   6   7
ATOM      7  C   UNL     1      12.126 -29.163  23.382  1.00  0.00     0.041 C 
ATOM      8  O   UNL     1      11.046 -28.734  22.897  1.00  0.00    -0.550 OA
ATOM      9  O   UNL     1      12.712 -28.498  24.452  1.00  0.00    -0.550 OA
ENDBRANCH   6   7
ENDBRANCH   5   6
ENDBRANCH   4   5
ENDBRANCH   3   4
ENDBRANCH   2   3
ENDBRANCH   1   2
BRANCH   1  10
ATOM     10  C   UNL     1      14.682 -33.602  20.850  1.00  0.00     0.000 C 
BRANCH  10  11
ATOM     11  C   UNL     1      15.208 -34.598  19.802  1.00  0.00    -0.000 C 
BRANCH  11  12
ATOM     12  C   UNL     1      16.531 -34.191  19.127  1.00  0.00    -0.000 C 
BRANCH  12  13
ATOM     13  C   UNL     1      17.691 -35.178  19.387  1.00  0.00    -0.000 C 
BRANCH  13  14
ATOM     14  C   UNL     1      17.202 -36.624  19.581  1.00  0.00    -0.000 C 
BRANCH  14  15
ATOM     15  C   UNL     1      17.709 -37.246  20.891  1.00  0.00    -0.003 C 
ATOM     16  C   UNL     1      18.015 -36.200  21.962  1.00  0.00     0.004 C 
ENDBRANCH  14  15
ENDBRANCH  13  14
ENDBRANCH  12  13
ENDBRANCH  11  12
ENDBRANCH  10  11
ENDBRANCH   1  10
TORSDOF 12
ENDMDL
MODEL 9
REMARK VINA RESULT:    -4.228      2.485      5.077
REMARK INTER + INTRA:          -8.963
REMARK INTER:                  -7.778
REMARK INTRA:                  -1.185
REMARK UNBOUND:                -1.769
REMARK SMILES CCCCCCCCCCCCCC(=O)[O-]
REMARK SMILES IDX 8 1 9 2 10 3 11 4 12 5 13 6 14 7 15 8 16 9 7 10 6 11 5 12
REMARK SMILES IDX 4 13 3 14 2 15 1 16
REMARK H PARENT
REMARK Flexibility Score: inf
ROOT
ATOM      1  C   UNL     1      18.001 -32.002  20.883  1.00  0.00     0.000 C 
ENDROOT
BRANCH   1   2
ATOM      2  C   UNL     1      18.478 -33.415  20.500  1.00  0.00     0.000 C 
BRANCH   2   3
ATOM      3  C   UNL     1      17.738 -33.987  19.279  1.00  0.00     0.000 C 
BRANCH   3   4
ATOM      4  C   UNL     1      17.218 -35.419  19.508  1.00  0.00     0.000 C 
BRANCH   4   5
ATOM      5  C   UNL     1      15.738 -35.522  19.929  1.00  0.00     0.006 C 
BRANCH   5   6
ATOM      6  C   UNL     1      14.969 -34.192  19.895  1.00  0.00     0.053 C 
BRANCH   6   7
ATOM      7  C   UNL     1      14.712 -33.658  21.271  1.00  0.00     0.041 C 
ATOM      8  O   UNL     1      13.928 -32.687  21.438  1.00  0.00    -0.550 OA
ATOM      9  O   UNL     1      15.364 -34.213  22.365  1.00  0.00    -0.550 OA
ENDBRANCH   6   7
ENDBRANCH   5   6
ENDBRANCH   4   5
ENDBRANCH   3   4
ENDBRANCH   2   3
ENDBRANCH   1   2
BRANCH   1  10
ATOM     10  C   UNL     1      17.831 -31.749  22.396  1.00  0.00     0.000 C 
BRANCH  10  11
ATOM     11  C   UNL     1      16.683 -30.798  22.776  1.00  0.00    -0.000 C 
BRANCH  11  12
ATOM     12  C   UNL     1      16.297 -29.780  21.685  1.00  0.00    -0.000 C 
BRANCH  12  13
ATOM     13  C   UNL     1      14.811 -29.359  21.725  1.00  0.00    -0.000 C 
BRANCH  13  14
ATOM     14  C   UNL     1      14.296 -29.147  23.159  1.00  0.00    -0.000 C 
BRANCH  14  15
ATOM     15  C   UNL     1      12.820 -29.541  23.319  1.00  0.00    -0.003 C 
ATOM     16  C   UNL     1      11.931 -28.356  23.697  1.00  0.00     0.004 C 
ENDBRANCH  14  15
ENDBRANCH  13  14
ENDBRANCH  12  13
ENDBRANCH  11  12
ENDBRANCH  10  11
ENDBRANCH   1  10
TORSDOF 12
ENDMDL
