MODEL 1
REMARK VINA RESULT:    -4.596      0.000      0.000
REMARK INTER + INTRA:         -10.501
REMARK INTER:                  -8.626
REMARK INTRA:                  -1.875
REMARK UNBOUND:                -1.875
REMARK SMILES CCCCCCCCC=CCCCCCCCC(=O)[O-]
REMARK SMILES IDX 10 1 9 2 11 3 12 4 13 5 14 6 15 7 16 8 17 9 18 10 19 11
REMARK SMILES IDX 20 12 8 13 7 14 6 15 5 16 4 17 3 18 2 19 1 20
REMARK H PARENT
REMARK Flexibility Score: inf
ROOT
ATOM      1  C   UNL     1       9.384   5.378  20.050  1.00  0.00    -0.031 C 
ATOM      2  C   UNL     1       9.172   6.020  21.207  1.00  0.00    -0.031 C 
ENDROOT
BRANCH   1   3
ATOM      3  C   UNL     1      10.143   4.080  20.020  1.00  0.00     0.027 C 
BRANCH   3   4
ATOM      4  C   UNL     1       9.935   3.289  21.319  1.00  0.00     0.004 C 
BRANCH   4   5
ATOM      5  C   UNL     1       8.694   2.381  21.272  1.00  0.00     0.000 C 
BRANCH   5   6
ATOM      6  C   UNL     1       7.501   2.873  22.114  1.00  0.00     0.000 C 
BRANCH   6   7
ATOM      7  C   UNL     1       6.211   3.094  21.295  1.00  0.00     0.000 C 
BRANCH   7   8
ATOM      8  C   UNL     1       6.493   3.222  19.789  1.00  0.00     0.006 C 
BRANCH   8   9
ATOM      9  C   UNL     1       5.837   2.078  19.010  1.00  0.00     0.053 C 
BRANCH   9  10
ATOM     10  C   UNL     1       6.651   1.734  17.803  1.00  0.00     0.041 C 
ATOM     11  O   UNL     1       6.250   0.850  17.000  1.00  0.00    -0.550 OA
ATOM     12  O   UNL     1       7.874   2.357  17.587  1.00  0.00    -0.550 OA
ENDBRANCH   9  10
ENDBRANCH   8   9
ENDBRANCH   7   8
ENDBRANCH   6   7
ENDBRANCH   5   6
ENDBRANCH   4   5
ENDBRANCH   3   4
ENDBRANCH   1   3
BRANCH   2  13
ATOM     13  C   UNL     1       8.391   7.305  21.266  1.00  0.00     0.027 C 
BRANCH  13  14
ATOM     14  C   UNL     1       7.091   7.201  20.454  1.00  0.00     0.004 C 
BRANCH  14  15
ATOM     15  C   UNL     1       6.838   8.441  19.582  1.00  0.00     0.000 C 
BRANCH  15  16
ATOM     16  C   UNL     1       8.132   9.033  19.003  1.00  0.00     0.000 C 
BRANCH  16  17
ATOM     17  C   UNL     1       7.840   9.873  17.749  1.00  0.00    -0.000 C 
BRANCH  17  18
ATOM     18  C   UNL     1       8.714   9.452  16.548  1.00  0.00    -0.000 C 
BRANCH  18  19
ATOM     19  C   UNL     1       7.926   9.292  15.237  1.00  0.00    -0.003 C 
ATOM     20  C   UNL     1       6.433   9.064  15.458  1.00  0.00     0.004 C 
ENDBRANCH  18  19
ENDBRANCH  17  18
ENDBRANCH  16  17
ENDBRANCH  15  16
ENDBRANCH  14  15
ENDBRANCH  13  14
ENDBRANCH   2  13
TORSDOF 15
ENDMDL
MODEL 2
REMARK VINA RESULT:    -4.489      2.594      6.446
REMARK INTER + INTRA:         -10.301
REMARK INTER:                  -8.539
REMARK INTRA:                  -1.762
REMARK UNBOUND:                -1.875
REMARK SMILES CCCCCCCCC=CCCCCCCCC(=O)[O-]
REMARK SMILES IDX 10 1 9 2 11 3 12 4 13 5 14 6 15 7 16 8 17 9 18 10 19 11
REMARK SMILES IDX 20 12 8 13 7 14 6 15 5 16 4 17 3 18 2 19 1 20
REMARK H PARENT
REMARK Flexibility Score: inf
ROOT
ATOM      1  C   UNL     1       9.085   6.324  21.066  1.00  0.00    -0.031 C 
ATOM      2  C   UNL     1       9.784   5.287  21.550  1.00  0.00    -0.031 C 
ENDROOT
BRANCH   1   3
ATOM      3  C   UNL     1       8.468   7.334  21.995  1.00  0.00     0.027 C 
BRANCH   3   4
ATOM      4  C   UNL     1       7.053   7.713  21.537  1.00  0.00     0.004 C 
BRANCH   4   5
ATOM      5  C   UNL     1       6.947   7.887  20.012  1.00  0.00     0.000 C 
BRANCH   5   6
ATOM      6  C   UNL     1       7.028   9.345  19.520  1.00  0.00     0.000 C 
BRANCH   6   7
ATOM      7  C   UNL     1       8.430   9.755  19.020  1.00  0.00     0.000 C 
BRANCH   7   8
ATOM      8  C   UNL     1       8.862   8.956  17.780  1.00  0.00     0.006 C 
BRANCH   8   9
ATOM      9  C   UNL     1       8.782   9.818  16.517  1.00  0.00     0.053 C 
BRANCH   9  10
ATOM     10  C   UNL     1       7.728   9.296  15.593  1.00  0.00     0.041 C 
ATOM     11  O   UNL     1       8.013   9.024  14.396  1.00  0.00    -0.550 OA
ATOM     12  O   UNL     1       6.421   9.149  16.040  1.00  0.00    -0.550 OA
ENDBRANCH   9  10
ENDBRANCH   8   9
ENDBRANCH   7   8
ENDBRANCH   6   7
ENDBRANCH   5   6
ENDBRANCH   4   5
ENDBRANCH   3   4
ENDBRANCH   1   3
BRANCH   2  13
ATOM     13  C   UNL     1      10.434   4.280  20.640  1.00  0.00     0.027 C 
BRANCH  13  14
ATOM     14  C   UNL     1       9.383   3.482  19.855  1.00  0.00     0.004 C 
BRANCH  14  15
ATOM     15  C   UNL     1       8.524   2.585  20.759  1.00  0.00     0.000 C 
BRANCH  15  16
ATOM     16  C   UNL     1       7.143   3.190  21.055  1.00  0.00     0.000 C 
BRANCH  16  17
ATOM     17  C   UNL     1       6.373   3.467  19.754  1.00  0.00    -0.000 C 
BRANCH  17  18
ATOM     18  C   UNL     1       5.919   2.167  19.056  1.00  0.00    -0.000 C 
BRANCH  18  19
ATOM     19  C   UNL     1       5.983   2.235  17.521  1.00  0.00    -0.003 C 
ATOM     20  C   UNL     1       7.396   2.050  16.970  1.00  0.00     0.004 C 
ENDBRANCH  18  19
ENDBRANCH  17  18
ENDBRANCH  16  17
ENDBRANCH  15  16
ENDBRANCH  14  15
ENDBRANCH  13  14
ENDBRANCH   2  13
TORSDOF 15
ENDMDL
MODEL 3
REMARK VINA RESULT:    -4.439      2.710      6.548
REMARK INTER + INTRA:         -10.207
REMARK INTER:                  -8.448
REMARK INTRA:                  -1.759
REMARK UNBOUND:                -1.875
REMARK SMILES CCCCCCCCC=CCCCCCCCC(=O)[O-]
REMARK SMILES IDX 10 1 9 2 11 3 12 4 13 5 14 6 15 7 16 8 17 9 18 10 19 11
REMARK SMILES IDX 20 12 8 13 7 14 6 15 5 16 4 17 3 18 2 19 1 20
REMARK H PARENT
REMARK Flexibility Score: inf
ROOT
ATOM      1  C   UNL     1       6.927   6.549  20.549  1.00  0.00    -0.031 C 
ATOM      2  C   UNL     1       6.886   5.850  21.692  1.00  0.00    -0.031 C 
ENDROOT
BRANCH   1   3
ATOM      3  C   UNL     1       5.661   6.901  19.818  1.00  0.00     0.027 C 
BRANCH   3   4
ATOM      4  C   UNL     1       5.713   8.340  19.285  1.00  0.00     0.004 C 
BRANCH   4   5
ATOM      5  C   UNL     1       6.815   9.183  19.951  1.00  0.00     0.000 C 
BRANCH   5   6
ATOM      6  C   UNL     1       7.761   9.901  18.970  1.00  0.00     0.000 C 
BRANCH   6   7
ATOM      7  C   UNL     1       8.833   8.978  18.352  1.00  0.00     0.000 C 
BRANCH   7   8
ATOM      8  C   UNL     1       9.085   9.291  16.869  1.00  0.00     0.006 C 
BRANCH   8   9
ATOM      9  C   UNL     1       7.921  10.084  16.269  1.00  0.00     0.053 C 
BRANCH   9  10
ATOM     10  C   UNL     1       7.206   9.267  15.240  1.00  0.00     0.041 C 
ATOM     11  O   UNL     1       7.730   9.071  14.112  1.00  0.00    -0.550 OA
ATOM     12  O   UNL     1       5.943   8.757  15.511  1.00  0.00    -0.550 OA
ENDBRANCH   9  10
ENDBRANCH   8   9
ENDBRANCH   7   8
ENDBRANCH   6   7
ENDBRANCH   5   6
ENDBRANCH   4   5
ENDBRANCH   3   4
ENDBRANCH   1   3
BRANCH   2  13
ATOM     13  C   UNL     1       8.136   5.510  22.456  1.00  0.00     0.027 C 
BRANCH  13  14
ATOM     14  C   UNL     1       9.393   5.879  21.654  1.00  0.00     0.004 C 
BRANCH  14  15
ATOM     15  C   UNL     1      10.156   4.645  21.149  1.00  0.00     0.000 C 
BRANCH  15  16
ATOM     16  C   UNL     1       9.683   4.183  19.762  1.00  0.00     0.000 C 
BRANCH  16  17
ATOM     17  C   UNL     1       8.813   2.921  19.869  1.00  0.00    -0.000 C 
BRANCH  17  18
ATOM     18  C   UNL     1       8.089   2.595  18.544  1.00  0.00    -0.000 C 
BRANCH  18  19
ATOM     19  C   UNL     1       6.637   2.126  18.733  1.00  0.00    -0.003 C 
ATOM     20  C   UNL     1       5.802   2.231  17.460  1.00  0.00     0.004 C 
ENDBRANCH  18  19
ENDBRANCH  17  18
ENDBRANCH  16  17
ENDBRANCH  15  16
ENDBRANCH  14  15
ENDBRANCH  13  14
ENDBRANCH   2  13
TORSDOF 15
ENDMDL
MODEL 4
REMARK VINA RESULT:    -4.412      1.530      3.475
REMARK INTER + INTRA:         -10.156
REMARK INTER:                  -8.015
REMARK INTRA:                  -2.142
REMARK UNBOUND:                -1.875
REMARK SMILES CCCCCCCCC=CCCCCCCCC(=O)[O-]
REMARK SMILES IDX 10 1 9 2 11 3 12 4 13 5 14 6 15 7 16 8 17 9 18 10 19 11
REMARK SMILES IDX 20 12 8 13 7 14 6 15 5 16 4 17 3 18 2 19 1 20
REMARK H PARENT
REMARK Flexibility Score: inf
ROOT
ATOM      1  C   UNL     1       5.962   7.048  19.562  1.00  0.00    -0.031 C 
ATOM      2  C   UNL     1       4.955   7.919  19.404  1.00  0.00    -0.031 C 
ENDROOT
BRANCH   1   3
ATOM      3  C   UNL     1       5.825   5.877  20.496  1.00  0.00     0.027 C 
BRANCH   3   4
ATOM      4  C   UNL     1       7.052   5.752  21.410  1.00  0.00     0.004 C 
BRANCH   4   5
ATOM      5  C   UNL     1       8.340   6.281  20.754  1.00  0.00     0.000 C 
BRANCH   5   6
ATOM      6  C   UNL     1       9.467   5.240  20.614  1.00  0.00     0.000 C 
BRANCH   6   7
ATOM      7  C   UNL     1       9.345   4.357  19.354  1.00  0.00     0.000 C 
BRANCH   7   8
ATOM      8  C   UNL     1       8.514   3.089  19.610  1.00  0.00     0.006 C 
BRANCH   8   9
ATOM      9  C   UNL     1       7.956   2.525  18.300  1.00  0.00     0.053 C 
BRANCH   9  10
ATOM     10  C   UNL     1       6.501   2.211  18.444  1.00  0.00     0.041 C 
ATOM     11  O   UNL     1       5.828   1.855  17.441  1.00  0.00    -0.550 OA
ATOM     12  O   UNL     1       5.877   2.352  19.677  1.00  0.00    -0.550 OA
ENDBRANCH   9  10
ENDBRANCH   8   9
ENDBRANCH   7   8
ENDBRANCH   6   7
ENDBRANCH   5   6
ENDBRANCH   4   5
ENDBRANCH   3   4
ENDBRANCH   1   3
BRANCH   2  13
ATOM     13  C   UNL     1       5.058   9.082  18.455  1.00  0.00     0.027 C 
BRANCH  13  14
ATOM     14  C   UNL     1       5.302   8.603  17.016  1.00  0.00     0.004 C 
BRANCH  14  15
ATOM     15  C   UNL     1       5.248   9.748  15.993  1.00  0.00     0.000 C 
BRANCH  15  16
ATOM     16  C   UNL     1       6.638  10.310  15.658  1.00  0.00     0.000 C 
BRANCH  16  17
ATOM     17  C   UNL     1       7.712   9.214  15.754  1.00  0.00    -0.000 C 
BRANCH  17  18
ATOM     18  C   UNL     1       8.911   9.645  16.626  1.00  0.00    -0.000 C 
BRANCH  18  19
ATOM     19  C   UNL     1       9.034   8.856  17.940  1.00  0.00    -0.003 C 
ATOM     20  C   UNL     1       8.612   9.662  19.167  1.00  0.00     0.004 C 
ENDBRANCH  18  19
ENDBRANCH  17  18
ENDBRANCH  16  17
ENDBRANCH  15  16
ENDBRANCH  14  15
ENDBRANCH  13  14
ENDBRANCH   2  13
TORSDOF 15
ENDMDL
MODEL 5
REMARK VINA RESULT:    -4.309      2.606      6.760
REMARK INTER + INTRA:          -9.964
REMARK INTER:                  -7.965
REMARK INTRA:                  -1.999
REMARK UNBOUND:                -1.875
REMARK SMILES CCCCCCCCC=CCCCCCCCC(=O)[O-]
REMARK SMILES IDX 10 1 9 2 11 3 12 4 13 5 14 6 15 7 16 8 17 9 18 10 19 11
REMARK SMILES IDX 20 12 8 13 7 14 6 15 5 16 4 17 3 18 2 19 1 20
REMARK H PARENT
REMARK Flexibility Score: inf
ROOT
ATOM      1  C   UNL     1       9.382   5.942  21.652  1.00  0.00    -0.031 C 
ATOM      2  C   UNL     1      10.179   5.048  22.255  1.00  0.00    -0.031 C 
ENDROOT
BRANCH   1   3
ATOM      3  C   UNL     1       8.719   7.035  22.444  1.00  0.00     0.027 C 
BRANCH   3   4
ATOM      4  C   UNL     1       7.984   8.017  21.522  1.00  0.00     0.004 C 
BRANCH   4   5
ATOM      5  C   UNL     1       8.085   7.629  20.036  1.00  0.00     0.000 C 
BRANCH   5   6
ATOM      6  C   UNL     1       7.949   8.805  19.050  1.00  0.00     0.000 C 
BRANCH   6   7
ATOM      7  C   UNL     1       9.257   9.145  18.304  1.00  0.00     0.000 C 
BRANCH   7   8
ATOM      8  C   UNL     1       9.045   9.282  16.788  1.00  0.00     0.006 C 
BRANCH   8   9
ATOM      9  C   UNL     1       7.706   9.959  16.480  1.00  0.00     0.053 C 
BRANCH   9  10
ATOM     10  C   UNL     1       7.037   9.291  15.321  1.00  0.00     0.041 C 
ATOM     11  O   UNL     1       7.540   9.369  14.169  1.00  0.00    -0.550 OA
ATOM     12  O   UNL     1       5.834   8.620  15.503  1.00  0.00    -0.550 OA
ENDBRANCH   9  10
ENDBRANCH   8   9
ENDBRANCH   7   8
ENDBRANCH   6   7
ENDBRANCH   5   6
ENDBRANCH   4   5
ENDBRANCH   3   4
ENDBRANCH   1   3
BRANCH   2  13
ATOM     13  C   UNL     1      10.876   3.963  21.480  1.00  0.00     0.027 C 
BRANCH  13  14
ATOM     14  C   UNL     1      10.254   2.588  21.769  1.00  0.00     0.004 C 
BRANCH  14  15
ATOM     15  C   UNL     1       9.700   1.912  20.505  1.00  0.00     0.000 C 
BRANCH  15  16
ATOM     16  C   UNL     1       9.042   2.910  19.539  1.00  0.00     0.000 C 
BRANCH  16  17
ATOM     17  C   UNL     1       7.520   2.701  19.485  1.00  0.00    -0.000 C 
BRANCH  17  18
ATOM     18  C   UNL     1       6.761   3.700  20.385  1.00  0.00    -0.000 C 
BRANCH  18  19
ATOM     19  C   UNL     1       6.114   3.050  21.620  1.00  0.00    -0.003 C 
ATOM     20  C   UNL     1       6.866   3.343  22.916  1.00  0.00     0.004 C 
ENDBRANCH  18  19
ENDBRANCH  17  18
ENDBRANCH  16  17
ENDBRANCH  15  16
ENDBRANCH  14  15
ENDBRANCH  13  14
ENDBRANCH   2  13
TORSDOF 15
ENDMDL
MODEL 6
REMARK VINA RESULT:    -4.307      3.935      7.691
REMARK INTER + INTRA:          -9.960
REMARK INTER:                  -8.872
REMARK INTRA:                  -1.088
REMARK UNBOUND:                -1.875
REMARK SMILES CCCCCCCCC=CCCCCCCCC(=O)[O-]
REMARK SMILES IDX 10 1 9 2 11 3 12 4 13 5 14 6 15 7 16 8 17 9 18 10 19 11
REMARK SMILES IDX 20 12 8 13 7 14 6 15 5 16 4 17 3 18 2 19 1 20
REMARK H PARENT
REMARK Flexibility Score: inf
ROOT
ATOM      1  C   UNL     1       7.510   9.876  14.237  1.00  0.00    -0.031 C 
ATOM      2  C   UNL     1       7.517  11.216  14.197  1.00  0.00    -0.031 C 
ENDROOT
BRANCH   1   3
ATOM      3  C   UNL     1       7.597   9.148  15.550  1.00  0.00     0.027 C 
BRANCH   3   4
ATOM      4  C   UNL     1       8.473   9.915  16.550  1.00  0.00     0.004 C 
BRANCH   4   5
ATOM      5  C   UNL     1       7.699  10.354  17.806  1.00  0.00     0.000 C 
BRANCH   5   6
ATOM      6  C   UNL     1       8.244   9.789  19.132  1.00  0.00     0.000 C 
BRANCH   6   7
ATOM      7  C   UNL     1       8.872   8.385  18.998  1.00  0.00     0.000 C 
BRANCH   7   8
ATOM      8  C   UNL     1       8.392   7.426  20.098  1.00  0.00     0.006 C 
BRANCH   8   9
ATOM      9  C   UNL     1       9.260   6.165  20.143  1.00  0.00     0.053 C 
BRANCH   9  10
ATOM     10  C   UNL     1       9.360   5.647  21.542  1.00  0.00     0.041 C 
ATOM     11  O   UNL     1       8.542   6.032  22.419  1.00  0.00    -0.550 OA
ATOM     12  O   UNL     1      10.382   4.773  21.890  1.00  0.00    -0.550 OA
ENDBRANCH   9  10
ENDBRANCH   8   9
ENDBRANCH   7   8
ENDBRANCH   6   7
ENDBRANCH   5   6
ENDBRANCH   4   5
ENDBRANCH   3   4
ENDBRANCH   1   3
BRANCH   2  13
ATOM     13  C   UNL     1       7.402  11.968  12.898  1.00  0.00     0.027 C 
BRANCH  13  14
ATOM     14  C   UNL     1       7.838  11.095  11.712  1.00  0.00     0.004 C 
BRANCH  14  15
ATOM     15  C   UNL     1       8.280  11.926  10.497  1.00  0.00     0.000 C 
BRANCH  15  16
ATOM     16  C   UNL     1       7.859  11.293   9.162  1.00  0.00     0.000 C 
BRANCH  16  17
ATOM     17  C   UNL     1       7.219   9.914   9.385  1.00  0.00    -0.000 C 
BRANCH  17  18
ATOM     18  C   UNL     1       8.080   8.770   8.808  1.00  0.00    -0.000 C 
BRANCH  18  19
ATOM     19  C   UNL     1       8.034   7.480   9.644  1.00  0.00    -0.003 C 
ATOM     20  C   UNL     1       7.464   7.693  11.045  1.00  0.00     0.004 C 
ENDBRANCH  18  19
ENDBRANCH  17  18
ENDBRANCH  16  17
ENDBRANCH  15  16
ENDBRANCH  14  15
ENDBRANCH  13  14
ENDBRANCH   2  13
TORSDOF 15
ENDMDL
MODEL 7
REMARK VINA RESULT:    -4.301      3.126      5.954
REMARK INTER + INTRA:          -9.948
REMARK INTER:                  -7.561
REMARK INTRA:                  -2.387
REMARK UNBOUND:                -1.875
REMARK SMILES CCCCCCCCC=CCCCCCCCC(=O)[O-]
REMARK SMILES IDX 10 1 9 2 11 3 12 4 13 5 14 6 15 7 16 8 17 9 18 10 19 11
REMARK SMILES IDX 20 12 8 13 7 14 6 15 5 16 4 17 3 18 2 19 1 20
REMARK H PARENT
REMARK Flexibility Score: inf
ROOT
ATOM      1  C   UNL     1      11.354   3.482  21.665  1.00  0.00    -0.031 C 
ATOM      2  C   UNL     1      10.613   2.367  21.601  1.00  0.00    -0.031 C 
ENDROOT
BRANCH   1   3
ATOM      3  C   UNL     1      12.211   3.766  22.868  1.00  0.00     0.027 C 
BRANCH   3   4
ATOM      4  C   UNL     1      11.350   4.151  24.080  1.00  0.00     0.004 C 
BRANCH   4   5
ATOM      5  C   UNL     1      10.538   5.437  23.850  1.00  0.00     0.000 C 
BRANCH   5   6
ATOM      6  C   UNL     1       9.022   5.222  23.676  1.00  0.00     0.000 C 
BRANCH   6   7
ATOM      7  C   UNL     1       8.338   6.293  22.800  1.00  0.00     0.000 C 
BRANCH   7   8
ATOM      8  C   UNL     1       9.039   6.470  21.444  1.00  0.00     0.006 C 
BRANCH   8   9
ATOM      9  C   UNL     1       8.037   6.865  20.355  1.00  0.00     0.053 C 
BRANCH   9  10
ATOM     10  C   UNL     1       8.262   8.279  19.924  1.00  0.00     0.041 C 
ATOM     11  O   UNL     1       8.006   9.229  20.710  1.00  0.00    -0.550 OA
ATOM     12  O   UNL     1       8.715   8.551  18.639  1.00  0.00    -0.550 OA
ENDBRANCH   9  10
ENDBRANCH   8   9
ENDBRANCH   7   8
ENDBRANCH   6   7
ENDBRANCH   5   6
ENDBRANCH   4   5
ENDBRANCH   3   4
ENDBRANCH   1   3
BRANCH   2  13
ATOM     13  C   UNL     1       9.771   2.046  20.396  1.00  0.00     0.027 C 
BRANCH  13  14
ATOM     14  C   UNL     1       8.743   3.155  20.127  1.00  0.00     0.004 C 
BRANCH  14  15
ATOM     15  C   UNL     1       7.476   3.007  20.983  1.00  0.00     0.000 C 
BRANCH  15  16
ATOM     16  C   UNL     1       6.196   3.368  20.213  1.00  0.00     0.000 C 
BRANCH  16  17
ATOM     17  C   UNL     1       5.300   2.132  20.026  1.00  0.00    -0.000 C 
BRANCH  17  18
ATOM     18  C   UNL     1       5.775   1.238  18.860  1.00  0.00    -0.000 C 
BRANCH  18  19
ATOM     19  C   UNL     1       5.888   1.981  17.518  1.00  0.00    -0.003 C 
ATOM     20  C   UNL     1       7.310   2.006  16.963  1.00  0.00     0.004 C 
ENDBRANCH  18  19
ENDBRANCH  17  18
ENDBRANCH  16  17
ENDBRANCH  15  16
ENDBRANCH  14  15
ENDBRANCH  13  14
ENDBRANCH   2  13
TORSDOF 15
ENDMDL
MODEL 8
REMARK VINA RESULT:    -4.297      3.353      6.335
REMARK INTER + INTRA:          -9.940
REMARK INTER:                  -8.750
REMARK INTRA:                  -1.190
REMARK UNBOUND:                -1.875
REMARK SMILES CCCCCCCCC=CCCCCCCCC(=O)[O-]
REMARK SMILES IDX 10 1 9 2 11 3 12 4 13 5 14 6 15 7 16 8 17 9 18 10 19 11
REMARK SMILES IDX 20 12 8 13 7 14 6 15 5 16 4 17 3 18 2 19 1 20
REMARK H PARENT
REMARK Flexibility Score: inf
ROOT
ATOM      1  C   UNL     1       8.734   9.703  16.270  1.00  0.00    -0.031 C 
ATOM      2  C   UNL     1       7.807   9.156  15.471  1.00  0.00    -0.031 C 
ENDROOT
BRANCH   1   3
ATOM      3  C   UNL     1       9.021   9.117  17.626  1.00  0.00     0.027 C 
BRANCH   3   4
ATOM      4  C   UNL     1       8.223   9.840  18.720  1.00  0.00     0.004 C 
BRANCH   4   5
ATOM      5  C   UNL     1       7.372   8.880  19.569  1.00  0.00     0.000 C 
BRANCH   5   6
ATOM      6  C   UNL     1       8.096   7.594  20.013  1.00  0.00     0.000 C 
BRANCH   6   7
ATOM      7  C   UNL     1       7.142   6.462  20.450  1.00  0.00     0.000 C 
BRANCH   7   8
ATOM      8  C   UNL     1       7.880   5.133  20.675  1.00  0.00     0.006 C 
BRANCH   8   9
ATOM      9  C   UNL     1       9.355   5.250  20.282  1.00  0.00     0.053 C 
BRANCH   9  10
ATOM     10  C   UNL     1      10.234   4.834  21.418  1.00  0.00     0.041 C 
ATOM     11  O   UNL     1      10.244   5.500  22.487  1.00  0.00    -0.550 OA
ATOM     12  O   UNL     1      11.075   3.736  21.282  1.00  0.00    -0.550 OA
ENDBRANCH   9  10
ENDBRANCH   8   9
ENDBRANCH   7   8
ENDBRANCH   6   7
ENDBRANCH   5   6
ENDBRANCH   4   5
ENDBRANCH   3   4
ENDBRANCH   1   3
BRANCH   2  13
ATOM     13  C   UNL     1       7.522   9.706  14.100  1.00  0.00     0.027 C 
BRANCH  13  14
ATOM     14  C   UNL     1       7.439  11.239  14.124  1.00  0.00     0.004 C 
BRANCH  14  15
ATOM     15  C   UNL     1       7.222  11.843  12.727  1.00  0.00     0.000 C 
BRANCH  15  16
ATOM     16  C   UNL     1       8.263  11.360  11.706  1.00  0.00     0.000 C 
BRANCH  16  17
ATOM     17  C   UNL     1       7.698  11.413  10.277  1.00  0.00    -0.000 C 
BRANCH  17  18
ATOM     18  C   UNL     1       6.791  10.203   9.962  1.00  0.00    -0.000 C 
BRANCH  18  19
ATOM     19  C   UNL     1       7.569   8.914   9.648  1.00  0.00    -0.003 C 
ATOM     20  C   UNL     1       7.535   7.899  10.788  1.00  0.00     0.004 C 
ENDBRANCH  18  19
ENDBRANCH  17  18
ENDBRANCH  16  17
ENDBRANCH  15  16
ENDBRANCH  14  15
ENDBRANCH  13  14
ENDBRANCH   2  13
TORSDOF 15
ENDMDL
MODEL 9
REMARK VINA RESULT:    -4.252      2.666      6.627
REMARK INTER + INTRA:          -9.857
REMARK INTER:                  -7.579
REMARK INTRA:                  -2.278
REMARK UNBOUND:                -1.875
REMARK SMILES CCCCCCCCC=CCCCCCCCC(=O)[O-]
REMARK SMILES IDX 10 1 9 2 11 3 12 4 13 5 14 6 15 7 16 8 17 9 18 10 19 11
REMARK SMILES IDX 20 12 8 13 7 14 6 15 5 16 4 17 3 18 2 19 1 20
REMARK H PARENT
REMARK Flexibility Score: inf
ROOT
ATOM      1  C   UNL     1       6.006   5.368  20.799  1.00  0.00    -0.031 C 
ATOM      2  C   UNL     1       5.892   4.163  21.375  1.00  0.00    -0.031 C 
ENDROOT
BRANCH   1   3
ATOM      3  C   UNL     1       5.984   6.621  21.632  1.00  0.00     0.027 C 
BRANCH   3   4
ATOM      4  C   UNL     1       7.270   7.437  21.435  1.00  0.00     0.004 C 
BRANCH   4   5
ATOM      5  C   UNL     1       7.321   8.148  20.071  1.00  0.00     0.000 C 
BRANCH   5   6
ATOM      6  C   UNL     1       8.605   7.894  19.257  1.00  0.00     0.000 C 
BRANCH   6   7
ATOM      7  C   UNL     1       9.067   9.112  18.429  1.00  0.00     0.000 C 
BRANCH   7   8
ATOM      8  C   UNL     1       7.942   9.676  17.547  1.00  0.00     0.006 C 
BRANCH   8   9
ATOM      9  C   UNL     1       8.428   9.894  16.111  1.00  0.00     0.053 C 
BRANCH   9  10
ATOM     10  C   UNL     1       7.464   9.297  15.136  1.00  0.00     0.041 C 
ATOM     11  O   UNL     1       6.339   8.887  15.528  1.00  0.00    -0.550 OA
ATOM     12  O   UNL     1       7.822   9.154  13.801  1.00  0.00    -0.550 OA
ENDBRANCH   9  10
ENDBRANCH   8   9
ENDBRANCH   7   8
ENDBRANCH   6   7
ENDBRANCH   5   6
ENDBRANCH   4   5
ENDBRANCH   3   4
ENDBRANCH   1   3
BRANCH   2  13
ATOM     13  C   UNL     1       5.940   2.894  20.568  1.00  0.00     0.027 C 
BRANCH  13  14
ATOM     14  C   UNL     1       6.468   3.159  19.150  1.00  0.00     0.004 C 
BRANCH  14  15
ATOM     15  C   UNL     1       7.746   2.366  18.837  1.00  0.00     0.000 C 
BRANCH  15  16
ATOM     16  C   UNL     1       8.918   2.744  19.756  1.00  0.00     0.000 C 
BRANCH  16  17
ATOM     17  C   UNL     1       9.312   4.217  19.568  1.00  0.00    -0.000 C 
BRANCH  17  18
ATOM     18  C   UNL     1      10.150   4.754  20.749  1.00  0.00    -0.000 C 
BRANCH  18  19
ATOM     19  C   UNL     1       9.510   4.501  22.124  1.00  0.00    -0.003 C 
ATOM     20  C   UNL     1       9.960   5.500  23.188  1.00  0.00     0.004 C 
ENDBRANCH  18  19
ENDBRANCH  17  18
ENDBRANCH  16  17
ENDBRANCH  15  16
ENDBRANCH  14  15
ENDBRANCH  13  14
ENDBRANCH   2  13
TORSDOF 15
ENDMDL
