MODEL 1
REMARK VINA RESULT:     8.761      0.000      0.000
REMARK INTER + INTRA:          13.906
REMARK INTER:                  11.578
REMARK INTRA:                   2.328
REMARK UNBOUND:                 2.328
REMARK SMILES CC[C@@H](C=C[C@H](C)[C@@H]1CC[C@H]2[C@H]3CC=C4C[C@@H](O)CC[C@@]4(C)[C@@H]3CC[C@]21C)C(C)C
REMARK SMILES IDX 6 1 7 2 5 3 4 4 3 5 2 6 1 7 28 8 29 9 30 10 8 11 9 12 26 13
REMARK SMILES IDX 10 14 11 15 25 16 27 17 12 18 24 19 23 20 13 21 21 22 14 23
REMARK SMILES IDX 15 24 20 25 22 26 16 27 19 28 17 29 18 30
REMARK H PARENT 18 31
REMARK Flexibility Score: inf
ROOT
ATOM      1  C   UNL     1      87.094  33.352  66.778  1.00  0.00     0.012 C 
ATOM      2  C   UNL     1      87.136  34.875  66.502  1.00  0.00     0.012 C 
ENDROOT
BRANCH   1   3
ATOM      3  C   UNL     1      85.642  32.965  66.999  1.00  0.00    -0.028 C 
ATOM      4  C   UNL     1      84.772  32.810  65.985  1.00  0.00    -0.027 C 
BRANCH   4   5
ATOM      5  C   UNL     1      83.330  32.407  66.222  1.00  0.00     0.014 C 
BRANCH   5   6
ATOM      6  C   UNL     1      83.253  31.496  67.472  1.00  0.00     0.004 C 
ATOM      7  C   UNL     1      82.023  30.584  67.469  1.00  0.00     0.004 C 
ENDBRANCH   5   6
BRANCH   5   8
ATOM      8  C   UNL     1      82.754  31.707  64.950  1.00  0.00    -0.011 C 
ATOM      9  C   UNL     1      83.581  32.017  63.689  1.00  0.00     0.008 C 
ATOM     10  C   UNL     1      82.683  30.179  65.133  1.00  0.00     0.008 C 
ENDBRANCH   5   8
ENDBRANCH   4   5
ENDBRANCH   1   3
BRANCH   1  11
ATOM     11  C   UNL     1      87.772  32.488  65.643  1.00  0.00     0.002 C 
ATOM     12  C   UNL     1      86.997  32.576  64.297  1.00  0.00     0.005 C 
ATOM     13  C   UNL     1      87.887  30.938  65.890  1.00  0.00    -0.026 C 
ATOM     14  C   UNL     1      86.296  31.242  64.067  1.00  0.00     0.005 C 
ATOM     15  C   UNL     1      86.575  30.382  65.304  1.00  0.00    -0.001 C 
ATOM     16  C   UNL     1      89.106  30.399  65.077  1.00  0.00     0.007 C 
ATOM     17  C   UNL     1      88.036  30.528  67.375  1.00  0.00     0.012 C 
ATOM     18  C   UNL     1      86.577  28.839  65.063  1.00  0.00     0.000 C 
ATOM     19  C   UNL     1      89.123  28.874  64.932  1.00  0.00     0.005 C 
ATOM     20  C   UNL     1      87.820  28.332  64.288  1.00  0.00     0.003 C 
ATOM     21  C   UNL     1      85.288  28.397  64.352  1.00  0.00     0.031 C 
ATOM     22  C   UNL     1      87.812  26.756  64.132  1.00  0.00    -0.008 C 
ATOM     23  C   UNL     1      85.292  26.943  63.986  1.00  0.00    -0.027 C 
ATOM     24  C   UNL     1      86.417  26.243  63.736  1.00  0.00    -0.065 C 
ATOM     25  C   UNL     1      88.821  26.359  63.009  1.00  0.00     0.014 C 
ATOM     26  C   UNL     1      88.218  26.051  65.458  1.00  0.00     0.016 C 
ATOM     27  C   UNL     1      86.279  24.821  63.218  1.00  0.00     0.063 C 
ATOM     28  C   UNL     1      88.718  24.888  62.571  1.00  0.00     0.033 C 
ATOM     29  C   UNL     1      87.299  24.535  62.108  1.00  0.00     0.118 C 
BRANCH  29  30
ATOM     30  O   UNL     1      86.982  25.270  60.953  1.00  0.00    -0.393 OA
ATOM     31  H   UNL     1      85.996  25.216  60.840  1.00  0.00     0.210 HD
ENDBRANCH  29  30
ENDBRANCH   1  11
TORSDOF 6
ENDMDL
