MODEL 1
REMARK VINA RESULT:    -7.258      0.000      0.000
REMARK INTER + INTRA:          -8.960
REMARK INTER:                  -8.743
REMARK INTRA:                  -0.216
REMARK UNBOUND:                -0.216
REMARK SMILES O=c1c(O)c(-c2ccc(O)c(O)c2)oc2cc(O)cc(O)c12
REMARK SMILES IDX 5 1 3 2 2 3 1 4 22 5 20 6 19 7 17 8 16 9 15 10 14 11 6 12
REMARK SMILES IDX 7 13 8 14 9 15 13 16 11 17 10 18 12 20 4 22 21 24 18 26
REMARK H PARENT 10 19 12 21 4 23 21 25 18 27
REMARK Flexibility Score: inf
ROOT
ATOM      1  C   UNL     1      18.293  45.750  57.652  1.00  0.00     0.180 A 
ATOM      2  C   UNL     1      19.346  46.679  57.715  1.00  0.00     0.208 A 
ATOM      3  C   UNL     1      20.609  46.310  57.224  1.00  0.00     0.238 A 
ATOM      4  O   UNL     1      21.533  47.163  57.232  1.00  0.00    -0.285 OA
ATOM      5  C   UNL     1      20.806  45.013  56.692  1.00  0.00     0.111 A 
ATOM      6  C   UNL     1      22.053  44.519  56.202  1.00  0.00     0.134 A 
ATOM      7  C   UNL     1      22.102  43.267  55.578  1.00  0.00     0.093 A 
ATOM      8  C   UNL     1      20.963  42.463  55.485  1.00  0.00     0.123 A 
ATOM      9  C   UNL     1      19.755  42.911  56.012  1.00  0.00     0.094 A 
ATOM     10  C   UNL     1      19.666  44.172  56.608  1.00  0.00     0.146 A 
ATOM     11  O   UNL     1      18.493  44.566  57.088  1.00  0.00    -0.452 OA
ENDROOT
BRANCH   1  12
ATOM     12  C   UNL     1      16.940  46.057  58.174  1.00  0.00     0.025 A 
ATOM     13  C   UNL     1      16.101  46.984  57.531  1.00  0.00     0.016 A 
ATOM     14  C   UNL     1      14.840  47.276  58.055  1.00  0.00     0.051 A 
ATOM     15  C   UNL     1      14.401  46.659  59.231  1.00  0.00     0.157 A 
ATOM     16  C   UNL     1      16.506  45.455  59.366  1.00  0.00     0.062 A 
ATOM     17  C   UNL     1      15.239  45.747  59.892  1.00  0.00     0.158 A 
BRANCH  15  18
ATOM     18  O   UNL     1      13.136  46.969  59.728  1.00  0.00    -0.504 OA
ATOM     19  H   UNL     1      12.326  46.392  59.535  1.00  0.00     0.293 HD
ENDBRANCH  15  18
BRANCH  17  20
ATOM     20  O   UNL     1      14.812  45.133  61.070  1.00  0.00    -0.504 OA
ATOM     21  H   UNL     1      14.084  45.538  61.646  1.00  0.00     0.293 HD
ENDBRANCH  17  20
ENDBRANCH   1  12
BRANCH   2  22
ATOM     22  O   UNL     1      19.124  47.961  58.224  1.00  0.00    -0.502 OA
ATOM     23  H   UNL     1      19.457  48.797  57.759  1.00  0.00     0.293 HD
ENDBRANCH   2  22
BRANCH   6  24
ATOM     24  O   UNL     1      23.266  45.202  56.329  1.00  0.00    -0.507 OA
ATOM     25  H   UNL     1      23.395  46.185  56.142  1.00  0.00     0.293 HD
ENDBRANCH   6  24
BRANCH   8  26
ATOM     26  O   UNL     1      21.024  41.212  54.876  1.00  0.00    -0.508 OA
ATOM     27  H   UNL     1      21.143  40.363  55.419  1.00  0.00     0.293 HD
ENDBRANCH   8  26
TORSDOF 6
ENDMDL
MODEL 2
REMARK VINA RESULT:    -7.185      1.387      3.071
REMARK INTER + INTRA:          -8.871
REMARK INTER:                  -8.551
REMARK INTRA:                  -0.321
REMARK UNBOUND:                -0.216
REMARK SMILES O=c1c(O)c(-c2ccc(O)c(O)c2)oc2cc(O)cc(O)c12
REMARK SMILES IDX 5 1 3 2 2 3 1 4 22 5 20 6 19 7 17 8 16 9 15 10 14 11 6 12
REMARK SMILES IDX 7 13 8 14 9 15 13 16 11 17 10 18 12 20 4 22 21 24 18 26
REMARK H PARENT 10 19 12 21 4 23 21 25 18 27
REMARK Flexibility Score: inf
ROOT
ATOM      1  C   UNL     1      17.802  44.375  57.079  1.00  0.00     0.180 A 
ATOM      2  C   UNL     1      17.978  43.117  56.475  1.00  0.00     0.208 A 
ATOM      3  C   UNL     1      19.264  42.739  56.054  1.00  0.00     0.238 A 
ATOM      4  O   UNL     1      19.426  41.591  55.564  1.00  0.00    -0.285 OA
ATOM      5  C   UNL     1      20.351  43.629  56.226  1.00  0.00     0.111 A 
ATOM      6  C   UNL     1      21.689  43.366  55.801  1.00  0.00     0.134 A 
ATOM      7  C   UNL     1      22.710  44.262  56.140  1.00  0.00     0.093 A 
ATOM      8  C   UNL     1      22.431  45.443  56.832  1.00  0.00     0.123 A 
ATOM      9  C   UNL     1      21.121  45.737  57.199  1.00  0.00     0.094 A 
ATOM     10  C   UNL     1      20.086  44.845  56.907  1.00  0.00     0.146 A 
ATOM     11  O   UNL     1      18.852  45.159  57.285  1.00  0.00    -0.452 OA
ENDROOT
BRANCH   1  12
ATOM     12  C   UNL     1      16.473  44.854  57.525  1.00  0.00     0.025 A 
ATOM     13  C   UNL     1      15.566  45.440  56.625  1.00  0.00     0.016 A 
ATOM     14  C   UNL     1      14.328  45.906  57.075  1.00  0.00     0.051 A 
ATOM     15  C   UNL     1      13.982  45.808  58.426  1.00  0.00     0.157 A 
ATOM     16  C   UNL     1      16.131  44.775  58.885  1.00  0.00     0.062 A 
ATOM     17  C   UNL     1      14.889  45.242  59.337  1.00  0.00     0.158 A 
BRANCH  15  18
ATOM     18  O   UNL     1      12.738  46.280  58.844  1.00  0.00    -0.504 OA
ATOM     19  H   UNL     1      12.082  45.695  59.347  1.00  0.00     0.293 HD
ENDBRANCH  15  18
BRANCH  17  20
ATOM     20  O   UNL     1      14.555  45.148  60.688  1.00  0.00    -0.504 OA
ATOM     21  H   UNL     1      13.924  44.433  61.030  1.00  0.00     0.293 HD
ENDBRANCH  17  20
ENDBRANCH   1  12
BRANCH   2  22
ATOM     22  O   UNL     1      16.895  42.246  56.335  1.00  0.00    -0.502 OA
ATOM     23  H   UNL     1      16.369  41.899  57.128  1.00  0.00     0.293 HD
ENDBRANCH   2  22
BRANCH   6  24
ATOM     24  O   UNL     1      22.058  42.263  55.025  1.00  0.00    -0.507 OA
ATOM     25  H   UNL     1      22.695  41.539  55.322  1.00  0.00     0.293 HD
ENDBRANCH   6  24
BRANCH   8  26
ATOM     26  O   UNL     1      23.451  46.336  57.152  1.00  0.00    -0.508 OA
ATOM     27  H   UNL     1      23.395  46.935  57.968  1.00  0.00     0.293 HD
ENDBRANCH   8  26
TORSDOF 6
ENDMDL
MODEL 3
REMARK VINA RESULT:    -7.099      1.670      3.420
REMARK INTER + INTRA:          -8.767
REMARK INTER:                  -8.484
REMARK INTRA:                  -0.284
REMARK UNBOUND:                -0.216
REMARK SMILES O=c1c(O)c(-c2ccc(O)c(O)c2)oc2cc(O)cc(O)c12
REMARK SMILES IDX 5 1 3 2 2 3 1 4 22 5 20 6 19 7 17 8 16 9 15 10 14 11 6 12
REMARK SMILES IDX 7 13 8 14 9 15 13 16 11 17 10 18 12 20 4 22 21 24 18 26
REMARK H PARENT 10 19 12 21 4 23 21 25 18 27
REMARK Flexibility Score: inf
ROOT
ATOM      1  C   UNL     1      17.867  44.352  57.122  1.00  0.00     0.180 A 
ATOM      2  C   UNL     1      18.013  43.193  56.339  1.00  0.00     0.208 A 
ATOM      3  C   UNL     1      19.304  42.780  55.969  1.00  0.00     0.238 A 
ATOM      4  O   UNL     1      19.433  41.713  55.316  1.00  0.00    -0.285 OA
ATOM      5  C   UNL     1      20.428  43.540  56.371  1.00  0.00     0.111 A 
ATOM      6  C   UNL     1      21.779  43.237  56.020  1.00  0.00     0.134 A 
ATOM      7  C   UNL     1      22.822  43.982  56.583  1.00  0.00     0.093 A 
ATOM      8  C   UNL     1      22.561  45.061  57.432  1.00  0.00     0.123 A 
ATOM      9  C   UNL     1      21.245  45.401  57.733  1.00  0.00     0.094 A 
ATOM     10  C   UNL     1      20.184  44.654  57.216  1.00  0.00     0.146 A 
ATOM     11  O   UNL     1      18.945  45.005  57.537  1.00  0.00    -0.452 OA
ENDROOT
BRANCH   1  12
ATOM     12  C   UNL     1      16.538  44.864  57.530  1.00  0.00     0.025 A 
ATOM     13  C   UNL     1      15.821  44.277  58.587  1.00  0.00     0.016 A 
ATOM     14  C   UNL     1      14.558  44.761  58.938  1.00  0.00     0.051 A 
ATOM     15  C   UNL     1      13.987  45.825  58.234  1.00  0.00     0.157 A 
ATOM     16  C   UNL     1      15.953  45.918  56.811  1.00  0.00     0.062 A 
ATOM     17  C   UNL     1      14.686  46.406  57.162  1.00  0.00     0.158 A 
BRANCH  15  18
ATOM     18  O   UNL     1      12.726  46.288  58.609  1.00  0.00    -0.504 OA
ATOM     19  H   UNL     1      12.072  46.670  57.936  1.00  0.00     0.293 HD
ENDBRANCH  15  18
BRANCH  17  20
ATOM     20  O   UNL     1      14.119  47.463  56.449  1.00  0.00    -0.504 OA
ATOM     21  H   UNL     1      14.665  48.019  55.802  1.00  0.00     0.293 HD
ENDBRANCH  17  20
ENDBRANCH   1  12
BRANCH   2  22
ATOM     22  O   UNL     1      16.891  42.446  55.971  1.00  0.00    -0.502 OA
ATOM     23  H   UNL     1      16.898  41.434  55.937  1.00  0.00     0.293 HD
ENDBRANCH   2  22
BRANCH   6  24
ATOM     24  O   UNL     1      22.143  42.241  55.110  1.00  0.00    -0.507 OA
ATOM     25  H   UNL     1      22.120  41.250  55.301  1.00  0.00     0.293 HD
ENDBRANCH   6  24
BRANCH   8  26
ATOM     26  O   UNL     1      23.605  45.807  57.974  1.00  0.00    -0.508 OA
ATOM     27  H   UNL     1      24.222  46.359  57.388  1.00  0.00     0.293 HD
ENDBRANCH   8  26
TORSDOF 6
ENDMDL
MODEL 4
REMARK VINA RESULT:    -7.076      0.840      1.587
REMARK INTER + INTRA:          -8.740
REMARK INTER:                  -8.432
REMARK INTRA:                  -0.308
REMARK UNBOUND:                -0.216
REMARK SMILES O=c1c(O)c(-c2ccc(O)c(O)c2)oc2cc(O)cc(O)c12
REMARK SMILES IDX 5 1 3 2 2 3 1 4 22 5 20 6 19 7 17 8 16 9 15 10 14 11 6 12
REMARK SMILES IDX 7 13 8 14 9 15 13 16 11 17 10 18 12 20 4 22 21 24 18 26
REMARK H PARENT 10 19 12 21 4 23 21 25 18 27
REMARK Flexibility Score: inf
ROOT
ATOM      1  C   UNL     1      18.055  45.658  57.504  1.00  0.00     0.180 A 
ATOM      2  C   UNL     1      19.082  46.603  57.676  1.00  0.00     0.208 A 
ATOM      3  C   UNL     1      20.390  46.264  57.293  1.00  0.00     0.238 A 
ATOM      4  O   UNL     1      21.295  47.132  57.397  1.00  0.00    -0.285 OA
ATOM      5  C   UNL     1      20.657  44.980  56.760  1.00  0.00     0.111 A 
ATOM      6  C   UNL     1      21.951  44.515  56.375  1.00  0.00     0.134 A 
ATOM      7  C   UNL     1      22.078  43.274  55.738  1.00  0.00     0.093 A 
ATOM      8  C   UNL     1      20.966  42.454  55.530  1.00  0.00     0.123 A 
ATOM      9  C   UNL     1      19.708  42.873  55.955  1.00  0.00     0.094 A 
ATOM     10  C   UNL     1      19.544  44.121  56.561  1.00  0.00     0.146 A 
ATOM     11  O   UNL     1      18.326  44.488  56.941  1.00  0.00    -0.452 OA
ENDROOT
BRANCH   1  12
ATOM     12  C   UNL     1      16.657  45.934  57.907  1.00  0.00     0.025 A 
ATOM     13  C   UNL     1      16.145  45.475  59.134  1.00  0.00     0.016 A 
ATOM     14  C   UNL     1      14.815  45.726  59.481  1.00  0.00     0.051 A 
ATOM     15  C   UNL     1      13.975  46.426  58.609  1.00  0.00     0.157 A 
ATOM     16  C   UNL     1      15.805  46.617  57.024  1.00  0.00     0.062 A 
ATOM     17  C   UNL     1      14.470  46.871  57.372  1.00  0.00     0.158 A 
BRANCH  15  18
ATOM     18  O   UNL     1      12.653  46.663  58.985  1.00  0.00    -0.504 OA
ATOM     19  H   UNL     1      12.405  47.376  59.661  1.00  0.00     0.293 HD
ENDBRANCH  15  18
BRANCH  17  20
ATOM     20  O   UNL     1      13.636  47.562  56.493  1.00  0.00    -0.504 OA
ATOM     21  H   UNL     1      13.235  48.459  56.736  1.00  0.00     0.293 HD
ENDBRANCH  17  20
ENDBRANCH   1  12
BRANCH   2  22
ATOM     22  O   UNL     1      18.793  47.873  58.183  1.00  0.00    -0.502 OA
ATOM     23  H   UNL     1      19.435  48.652  58.100  1.00  0.00     0.293 HD
ENDBRANCH   2  22
BRANCH   6  24
ATOM     24  O   UNL     1      23.136  45.215  56.621  1.00  0.00    -0.507 OA
ATOM     25  H   UNL     1      23.510  45.939  56.027  1.00  0.00     0.293 HD
ENDBRANCH   6  24
BRANCH   8  26
ATOM     26  O   UNL     1      21.104  41.215  54.910  1.00  0.00    -0.508 OA
ATOM     27  H   UNL     1      20.329  40.774  54.427  1.00  0.00     0.293 HD
ENDBRANCH   8  26
TORSDOF 6
ENDMDL
MODEL 5
REMARK VINA RESULT:    -6.771      1.932      7.281
REMARK INTER + INTRA:          -8.372
REMARK INTER:                  -8.250
REMARK INTRA:                  -0.123
REMARK UNBOUND:                -0.216
REMARK SMILES O=c1c(O)c(-c2ccc(O)c(O)c2)oc2cc(O)cc(O)c12
REMARK SMILES IDX 5 1 3 2 2 3 1 4 22 5 20 6 19 7 17 8 16 9 15 10 14 11 6 12
REMARK SMILES IDX 7 13 8 14 9 15 13 16 11 17 10 18 12 20 4 22 21 24 18 26
REMARK H PARENT 10 19 12 21 4 23 21 25 18 27
REMARK Flexibility Score: inf
ROOT
ATOM      1  C   UNL     1      18.174  44.275  56.622  1.00  0.00     0.180 A 
ATOM      2  C   UNL     1      16.996  43.973  55.917  1.00  0.00     0.208 A 
ATOM      3  C   UNL     1      15.819  44.673  56.228  1.00  0.00     0.238 A 
ATOM      4  O   UNL     1      14.780  44.438  55.557  1.00  0.00    -0.285 OA
ATOM      5  C   UNL     1      15.831  45.652  57.250  1.00  0.00     0.111 A 
ATOM      6  C   UNL     1      14.688  46.395  57.675  1.00  0.00     0.134 A 
ATOM      7  C   UNL     1      14.844  47.431  58.604  1.00  0.00     0.093 A 
ATOM      8  C   UNL     1      16.090  47.708  59.172  1.00  0.00     0.123 A 
ATOM      9  C   UNL     1      17.200  46.950  58.808  1.00  0.00     0.094 A 
ATOM     10  C   UNL     1      17.083  45.934  57.856  1.00  0.00     0.146 A 
ATOM     11  O   UNL     1      18.168  45.243  57.529  1.00  0.00    -0.452 OA
ENDROOT
BRANCH   1  12
ATOM     12  C   UNL     1      19.448  43.562  56.367  1.00  0.00     0.025 A 
ATOM     13  C   UNL     1      19.546  42.166  56.509  1.00  0.00     0.016 A 
ATOM     14  C   UNL     1      20.764  41.518  56.288  1.00  0.00     0.051 A 
ATOM     15  C   UNL     1      21.902  42.251  55.936  1.00  0.00     0.157 A 
ATOM     16  C   UNL     1      20.597  44.297  56.035  1.00  0.00     0.062 A 
ATOM     17  C   UNL     1      21.820  43.648  55.812  1.00  0.00     0.158 A 
BRANCH  15  18
ATOM     18  O   UNL     1      23.103  41.576  55.719  1.00  0.00    -0.504 OA
ATOM     19  H   UNL     1      23.208  40.588  55.916  1.00  0.00     0.293 HD
ENDBRANCH  15  18
BRANCH  17  20
ATOM     20  O   UNL     1      22.952  44.386  55.469  1.00  0.00    -0.504 OA
ATOM     21  H   UNL     1      22.929  45.085  54.737  1.00  0.00     0.293 HD
ENDBRANCH  17  20
ENDBRANCH   1  12
BRANCH   2  22
ATOM     22  O   UNL     1      17.011  43.018  54.897  1.00  0.00    -0.502 OA
ATOM     23  H   UNL     1      17.067  42.024  55.083  1.00  0.00     0.293 HD
ENDBRANCH   2  22
BRANCH   6  24
ATOM     24  O   UNL     1      13.384  46.137  57.240  1.00  0.00    -0.507 OA
ATOM     25  H   UNL     1      12.865  46.721  56.603  1.00  0.00     0.293 HD
ENDBRANCH   6  24
BRANCH   8  26
ATOM     26  O   UNL     1      16.233  48.730  60.107  1.00  0.00    -0.508 OA
ATOM     27  H   UNL     1      16.980  49.412  60.038  1.00  0.00     0.293 HD
ENDBRANCH   8  26
TORSDOF 6
ENDMDL
MODEL 6
REMARK VINA RESULT:    -6.703      1.509      6.605
REMARK INTER + INTRA:          -8.290
REMARK INTER:                  -8.116
REMARK INTRA:                  -0.174
REMARK UNBOUND:                -0.216
REMARK SMILES O=c1c(O)c(-c2ccc(O)c(O)c2)oc2cc(O)cc(O)c12
REMARK SMILES IDX 5 1 3 2 2 3 1 4 22 5 20 6 19 7 17 8 16 9 15 10 14 11 6 12
REMARK SMILES IDX 7 13 8 14 9 15 13 16 11 17 10 18 12 20 4 22 21 24 18 26
REMARK H PARENT 10 19 12 21 4 23 21 25 18 27
REMARK Flexibility Score: inf
ROOT
ATOM      1  C   UNL     1      19.036  45.145  57.036  1.00  0.00     0.180 A 
ATOM      2  C   UNL     1      19.313  46.523  57.087  1.00  0.00     0.208 A 
ATOM      3  C   UNL     1      18.280  47.412  57.424  1.00  0.00     0.238 A 
ATOM      4  O   UNL     1      18.545  48.638  57.523  1.00  0.00    -0.285 OA
ATOM      5  C   UNL     1      16.981  46.915  57.688  1.00  0.00     0.111 A 
ATOM      6  C   UNL     1      15.850  47.728  58.001  1.00  0.00     0.134 A 
ATOM      7  C   UNL     1      14.644  47.120  58.373  1.00  0.00     0.093 A 
ATOM      8  C   UNL     1      14.511  45.730  58.380  1.00  0.00     0.123 A 
ATOM      9  C   UNL     1      15.591  44.929  58.020  1.00  0.00     0.094 A 
ATOM     10  C   UNL     1      16.817  45.505  57.679  1.00  0.00     0.146 A 
ATOM     11  O   UNL     1      17.825  44.705  57.353  1.00  0.00    -0.452 OA
ENDROOT
BRANCH   1  12
ATOM     12  C   UNL     1      20.068  44.148  56.664  1.00  0.00     0.025 A 
ATOM     13  C   UNL     1      19.956  43.383  55.489  1.00  0.00     0.016 A 
ATOM     14  C   UNL     1      20.928  42.432  55.172  1.00  0.00     0.051 A 
ATOM     15  C   UNL     1      22.017  42.221  56.023  1.00  0.00     0.157 A 
ATOM     16  C   UNL     1      21.151  43.919  57.528  1.00  0.00     0.062 A 
ATOM     17  C   UNL     1      22.128  42.965  57.209  1.00  0.00     0.158 A 
BRANCH  15  18
ATOM     18  O   UNL     1      22.973  41.266  55.678  1.00  0.00    -0.504 OA
ATOM     19  H   UNL     1      23.925  41.519  55.441  1.00  0.00     0.293 HD
ENDBRANCH  15  18
BRANCH  17  20
ATOM     20  O   UNL     1      23.207  42.755  58.068  1.00  0.00    -0.504 OA
ATOM     21  H   UNL     1      23.518  41.822  58.312  1.00  0.00     0.293 HD
ENDBRANCH  17  20
ENDBRANCH   1  12
BRANCH   2  22
ATOM     22  O   UNL     1      20.608  46.990  56.844  1.00  0.00    -0.502 OA
ATOM     23  H   UNL     1      20.956  47.166  55.910  1.00  0.00     0.293 HD
ENDBRANCH   2  22
BRANCH   6  24
ATOM     24  O   UNL     1      15.851  49.125  57.933  1.00  0.00    -0.507 OA
ATOM     25  H   UNL     1      16.340  49.731  58.575  1.00  0.00     0.293 HD
ENDBRANCH   6  24
BRANCH   8  26
ATOM     26  O   UNL     1      13.303  45.135  58.736  1.00  0.00    -0.508 OA
ATOM     27  H   UNL     1      13.216  44.568  59.573  1.00  0.00     0.293 HD
ENDBRANCH   8  26
TORSDOF 6
ENDMDL
MODEL 7
REMARK VINA RESULT:    -6.660      2.173      3.461
REMARK INTER + INTRA:          -8.239
REMARK INTER:                  -8.629
REMARK INTRA:                   0.390
REMARK UNBOUND:                -0.216
REMARK SMILES O=c1c(O)c(-c2ccc(O)c(O)c2)oc2cc(O)cc(O)c12
REMARK SMILES IDX 5 1 3 2 2 3 1 4 22 5 20 6 19 7 17 8 16 9 15 10 14 11 6 12
REMARK SMILES IDX 7 13 8 14 9 15 13 16 11 17 10 18 12 20 4 22 21 24 18 26
REMARK H PARENT 10 19 12 21 4 23 21 25 18 27
REMARK Flexibility Score: inf
ROOT
ATOM      1  C   UNL     1      19.229  45.086  57.043  1.00  0.00     0.180 A 
ATOM      2  C   UNL     1      19.063  44.072  56.083  1.00  0.00     0.208 A 
ATOM      3  C   UNL     1      20.076  43.112  55.927  1.00  0.00     0.238 A 
ATOM      4  O   UNL     1      19.900  42.175  55.105  1.00  0.00    -0.285 OA
ATOM      5  C   UNL     1      21.247  43.188  56.719  1.00  0.00     0.111 A 
ATOM      6  C   UNL     1      22.354  42.291  56.618  1.00  0.00     0.134 A 
ATOM      7  C   UNL     1      23.402  42.381  57.542  1.00  0.00     0.093 A 
ATOM      8  C   UNL     1      23.414  43.376  58.522  1.00  0.00     0.123 A 
ATOM      9  C   UNL     1      22.368  44.292  58.592  1.00  0.00     0.094 A 
ATOM     10  C   UNL     1      21.290  44.206  57.707  1.00  0.00     0.146 A 
ATOM     11  O   UNL     1      20.308  45.092  57.815  1.00  0.00    -0.452 OA
ENDROOT
BRANCH   1  12
ATOM     12  C   UNL     1      18.216  46.149  57.248  1.00  0.00     0.025 A 
ATOM     13  C   UNL     1      18.562  47.391  57.808  1.00  0.00     0.016 A 
ATOM     14  C   UNL     1      17.586  48.368  58.014  1.00  0.00     0.051 A 
ATOM     15  C   UNL     1      16.251  48.118  57.678  1.00  0.00     0.157 A 
ATOM     16  C   UNL     1      16.872  45.893  56.931  1.00  0.00     0.062 A 
ATOM     17  C   UNL     1      15.891  46.873  57.137  1.00  0.00     0.158 A 
BRANCH  15  18
ATOM     18  O   UNL     1      15.299  49.115  57.894  1.00  0.00    -0.504 OA
ATOM     19  H   UNL     1      15.131  49.852  57.221  1.00  0.00     0.293 HD
ENDBRANCH  15  18
BRANCH  17  20
ATOM     20  O   UNL     1      14.561  46.613  56.807  1.00  0.00    -0.504 OA
ATOM     21  H   UNL     1      14.141  46.984  55.964  1.00  0.00     0.293 HD
ENDBRANCH  17  20
ENDBRANCH   1  12
BRANCH   2  22
ATOM     22  O   UNL     1      17.890  44.004  55.326  1.00  0.00    -0.502 OA
ATOM     23  H   UNL     1      17.757  44.544  54.480  1.00  0.00     0.293 HD
ENDBRANCH   2  22
BRANCH   6  24
ATOM     24  O   UNL     1      22.483  41.322  55.618  1.00  0.00    -0.507 OA
ATOM     25  H   UNL     1      22.461  41.512  54.628  1.00  0.00     0.293 HD
ENDBRANCH   6  24
BRANCH   8  26
ATOM     26  O   UNL     1      24.469  43.468  59.427  1.00  0.00    -0.508 OA
ATOM     27  H   UNL     1      25.119  44.247  59.408  1.00  0.00     0.293 HD
ENDBRANCH   8  26
TORSDOF 6
ENDMDL
MODEL 8
REMARK VINA RESULT:    -6.586      3.497      7.166
REMARK INTER + INTRA:          -8.150
REMARK INTER:                  -7.882
REMARK INTRA:                  -0.268
REMARK UNBOUND:                -0.216
REMARK SMILES O=c1c(O)c(-c2ccc(O)c(O)c2)oc2cc(O)cc(O)c12
REMARK SMILES IDX 5 1 3 2 2 3 1 4 22 5 20 6 19 7 17 8 16 9 15 10 14 11 6 12
REMARK SMILES IDX 7 13 8 14 9 15 13 16 11 17 10 18 12 20 4 22 21 24 18 26
REMARK H PARENT 10 19 12 21 4 23 21 25 18 27
REMARK Flexibility Score: inf
ROOT
ATOM      1  C   UNL     1      16.392  46.180  60.334  1.00  0.00     0.180 A 
ATOM      2  C   UNL     1      15.212  46.599  60.974  1.00  0.00     0.208 A 
ATOM      3  C   UNL     1      15.264  46.954  62.332  1.00  0.00     0.238 A 
ATOM      4  O   UNL     1      14.217  47.380  62.885  1.00  0.00    -0.285 OA
ATOM      5  C   UNL     1      16.489  46.871  63.035  1.00  0.00     0.111 A 
ATOM      6  C   UNL     1      16.649  47.169  64.423  1.00  0.00     0.134 A 
ATOM      7  C   UNL     1      17.932  47.179  64.983  1.00  0.00     0.093 A 
ATOM      8  C   UNL     1      19.053  46.838  64.222  1.00  0.00     0.123 A 
ATOM      9  C   UNL     1      18.901  46.488  62.883  1.00  0.00     0.094 A 
ATOM     10  C   UNL     1      17.638  46.505  62.286  1.00  0.00     0.146 A 
ATOM     11  O   UNL     1      17.537  46.176  61.004  1.00  0.00    -0.452 OA
ENDROOT
BRANCH   1  12
ATOM     12  C   UNL     1      16.411  45.765  58.912  1.00  0.00     0.025 A 
ATOM     13  C   UNL     1      15.871  44.534  58.502  1.00  0.00     0.016 A 
ATOM     14  C   UNL     1      15.923  44.153  57.158  1.00  0.00     0.051 A 
ATOM     15  C   UNL     1      16.523  44.986  56.209  1.00  0.00     0.157 A 
ATOM     16  C   UNL     1      17.033  46.589  57.960  1.00  0.00     0.062 A 
ATOM     17  C   UNL     1      17.085  46.209  56.611  1.00  0.00     0.158 A 
BRANCH  15  18
ATOM     18  O   UNL     1      16.558  44.579  54.875  1.00  0.00    -0.504 OA
ATOM     19  H   UNL     1      15.796  44.769  54.235  1.00  0.00     0.293 HD
ENDBRANCH  15  18
BRANCH  17  20
ATOM     20  O   UNL     1      17.693  47.041  55.672  1.00  0.00    -0.504 OA
ATOM     21  H   UNL     1      17.473  48.028  55.615  1.00  0.00     0.293 HD
ENDBRANCH  17  20
ENDBRANCH   1  12
BRANCH   2  22
ATOM     22  O   UNL     1      14.017  46.694  60.255  1.00  0.00    -0.502 OA
ATOM     23  H   UNL     1      13.180  46.191  60.522  1.00  0.00     0.293 HD
ENDBRANCH   2  22
BRANCH   6  24
ATOM     24  O   UNL     1      15.586  47.431  65.292  1.00  0.00    -0.507 OA
ATOM     25  H   UNL     1      14.988  46.727  65.696  1.00  0.00     0.293 HD
ENDBRANCH   6  24
BRANCH   8  26
ATOM     26  O   UNL     1      20.324  46.835  64.792  1.00  0.00    -0.508 OA
ATOM     27  H   UNL     1      20.697  46.012  65.254  1.00  0.00     0.293 HD
ENDBRANCH   8  26
TORSDOF 6
ENDMDL
MODEL 9
REMARK VINA RESULT:    -6.567      1.504      2.811
REMARK INTER + INTRA:          -8.127
REMARK INTER:                  -7.796
REMARK INTRA:                  -0.331
REMARK UNBOUND:                -0.216
REMARK SMILES O=c1c(O)c(-c2ccc(O)c(O)c2)oc2cc(O)cc(O)c12
REMARK SMILES IDX 5 1 3 2 2 3 1 4 22 5 20 6 19 7 17 8 16 9 15 10 14 11 6 12
REMARK SMILES IDX 7 13 8 14 9 15 13 16 11 17 10 18 12 20 4 22 21 24 18 26
REMARK H PARENT 10 19 12 21 4 23 21 25 18 27
REMARK Flexibility Score: inf
ROOT
ATOM      1  C   UNL     1      17.778  45.466  58.172  1.00  0.00     0.180 A 
ATOM      2  C   UNL     1      17.581  44.578  57.100  1.00  0.00     0.208 A 
ATOM      3  C   UNL     1      18.699  44.113  56.388  1.00  0.00     0.238 A 
ATOM      4  O   UNL     1      18.523  43.276  55.466  1.00  0.00    -0.285 OA
ATOM      5  C   UNL     1      19.996  44.555  56.746  1.00  0.00     0.111 A 
ATOM      6  C   UNL     1      21.195  44.180  56.068  1.00  0.00     0.134 A 
ATOM      7  C   UNL     1      22.434  44.573  56.590  1.00  0.00     0.093 A 
ATOM      8  C   UNL     1      22.514  45.383  57.725  1.00  0.00     0.123 A 
ATOM      9  C   UNL     1      21.347  45.803  58.359  1.00  0.00     0.094 A 
ATOM     10  C   UNL     1      20.097  45.397  57.884  1.00  0.00     0.146 A 
ATOM     11  O   UNL     1      19.010  45.810  58.524  1.00  0.00    -0.452 OA
ENDROOT
BRANCH   1  12
ATOM     12  C   UNL     1      16.647  46.019  58.954  1.00  0.00     0.025 A 
ATOM     13  C   UNL     1      16.026  47.226  58.589  1.00  0.00     0.016 A 
ATOM     14  C   UNL     1      14.977  47.740  59.356  1.00  0.00     0.051 A 
ATOM     15  C   UNL     1      14.542  47.067  60.502  1.00  0.00     0.157 A 
ATOM     16  C   UNL     1      16.222  45.357  60.117  1.00  0.00     0.062 A 
ATOM     17  C   UNL     1      15.169  45.871  60.887  1.00  0.00     0.158 A 
BRANCH  15  18
ATOM     18  O   UNL     1      13.491  47.604  61.245  1.00  0.00    -0.504 OA
ATOM     19  H   UNL     1      13.186  48.563  61.130  1.00  0.00     0.293 HD
ENDBRANCH  15  18
BRANCH  17  20
ATOM     20  O   UNL     1      14.746  45.199  62.034  1.00  0.00    -0.504 OA
ATOM     21  H   UNL     1      13.792  45.266  62.367  1.00  0.00     0.293 HD
ENDBRANCH  17  20
ENDBRANCH   1  12
BRANCH   2  22
ATOM     22  O   UNL     1      16.295  44.137  56.779  1.00  0.00    -0.502 OA
ATOM     23  H   UNL     1      15.775  43.498  57.368  1.00  0.00     0.293 HD
ENDBRANCH   2  22
BRANCH   6  24
ATOM     24  O   UNL     1      21.222  43.452  54.875  1.00  0.00    -0.507 OA
ATOM     25  H   UNL     1      21.323  43.858  53.957  1.00  0.00     0.293 HD
ENDBRANCH   6  24
BRANCH   8  26
ATOM     26  O   UNL     1      23.750  45.782  58.227  1.00  0.00    -0.508 OA
ATOM     27  H   UNL     1      24.266  45.208  58.885  1.00  0.00     0.293 HD
ENDBRANCH   8  26
TORSDOF 6
ENDMDL
