MODEL 1
REMARK VINA RESULT:    -6.484      0.000      0.000
REMARK INTER + INTRA:          -7.650
REMARK INTER:                  -7.810
REMARK INTRA:                   0.160
REMARK UNBOUND:                 0.160
REMARK SMILES O=c1c(O)c(-c2ccc(O)c(O)c2)oc2cc(O)cc(O)c12
REMARK SMILES IDX 5 1 3 2 2 3 1 4 22 5 20 6 19 7 17 8 16 9 15 10 14 11 6 12
REMARK SMILES IDX 7 13 8 14 9 15 13 16 11 17 10 18 12 20 4 22 21 24 18 26
REMARK H PARENT 10 19 12 21 4 23 21 25 18 27
REMARK Flexibility Score: inf
ROOT
ATOM      1  C   UNL     1       9.880  31.840  40.979  1.00  0.00     0.180 A 
ATOM      2  C   UNL     1      10.618  31.568  42.144  1.00  0.00     0.208 A 
ATOM      3  C   UNL     1       9.944  31.489  43.374  1.00  0.00     0.238 A 
ATOM      4  O   UNL     1      10.617  31.299  44.421  1.00  0.00    -0.285 OA
ATOM      5  C   UNL     1       8.540  31.666  43.421  1.00  0.00     0.111 A 
ATOM      6  C   UNL     1       7.751  31.568  44.606  1.00  0.00     0.134 A 
ATOM      7  C   UNL     1       6.389  31.890  44.557  1.00  0.00     0.093 A 
ATOM      8  C   UNL     1       5.775  32.245  43.355  1.00  0.00     0.123 A 
ATOM      9  C   UNL     1       6.526  32.287  42.180  1.00  0.00     0.094 A 
ATOM     10  C   UNL     1       7.895  32.005  42.204  1.00  0.00     0.146 A 
ATOM     11  O   UNL     1       8.574  32.066  41.066  1.00  0.00    -0.452 OA
ENDROOT
BRANCH   1  12
ATOM     12  C   UNL     1      10.515  31.914  39.644  1.00  0.00     0.025 A 
ATOM     13  C   UNL     1      10.170  32.920  38.724  1.00  0.00     0.016 A 
ATOM     14  C   UNL     1      10.799  32.984  37.478  1.00  0.00     0.051 A 
ATOM     15  C   UNL     1      11.790  32.056  37.138  1.00  0.00     0.157 A 
ATOM     16  C   UNL     1      11.525  30.999  39.306  1.00  0.00     0.062 A 
ATOM     17  C   UNL     1      12.156  31.060  38.059  1.00  0.00     0.158 A 
BRANCH  15  18
ATOM     18  O   UNL     1      12.415  32.122  35.894  1.00  0.00    -0.504 OA
ATOM     19  H   UNL     1      12.905  31.325  35.503  1.00  0.00     0.293 HD
ENDBRANCH  15  18
BRANCH  17  20
ATOM     20  O   UNL     1      13.145  30.125  37.754  1.00  0.00    -0.504 OA
ATOM     21  H   UNL     1      13.009  29.406  37.053  1.00  0.00     0.293 HD
ENDBRANCH  17  20
ENDBRANCH   1  12
BRANCH   2  22
ATOM     22  O   UNL     1      12.006  31.418  42.078  1.00  0.00    -0.502 OA
ATOM     23  H   UNL     1      12.603  31.512  42.892  1.00  0.00     0.293 HD
ENDBRANCH   2  22
BRANCH   6  24
ATOM     24  O   UNL     1       8.245  31.133  45.840  1.00  0.00    -0.507 OA
ATOM     25  H   UNL     1       8.946  30.418  45.958  1.00  0.00     0.293 HD
ENDBRANCH   6  24
BRANCH   8  26
ATOM     26  O   UNL     1       4.416  32.545  43.341  1.00  0.00    -0.508 OA
ATOM     27  H   UNL     1       3.918  32.707  42.474  1.00  0.00     0.293 HD
ENDBRANCH   8  26
TORSDOF 6
ENDMDL
MODEL 2
REMARK VINA RESULT:    -6.466      1.559      3.328
REMARK INTER + INTRA:          -7.630
REMARK INTER:                  -7.588
REMARK INTRA:                  -0.042
REMARK UNBOUND:                 0.160
REMARK SMILES O=c1c(O)c(-c2ccc(O)c(O)c2)oc2cc(O)cc(O)c12
REMARK SMILES IDX 5 1 3 2 2 3 1 4 22 5 20 6 19 7 17 8 16 9 15 10 14 11 6 12
REMARK SMILES IDX 7 13 8 14 9 15 13 16 11 17 10 18 12 20 4 22 21 24 18 26
REMARK H PARENT 10 19 12 21 4 23 21 25 18 27
REMARK Flexibility Score: inf
ROOT
ATOM      1  C   UNL     1      10.380  31.556  40.787  1.00  0.00     0.180 A 
ATOM      2  C   UNL     1       9.039  31.767  41.149  1.00  0.00     0.208 A 
ATOM      3  C   UNL     1       8.693  31.762  42.510  1.00  0.00     0.238 A 
ATOM      4  O   UNL     1       7.481  31.897  42.825  1.00  0.00    -0.285 OA
ATOM      5  C   UNL     1       9.693  31.564  43.491  1.00  0.00     0.111 A 
ATOM      6  C   UNL     1       9.461  31.579  44.899  1.00  0.00     0.134 A 
ATOM      7  C   UNL     1      10.501  31.242  45.774  1.00  0.00     0.093 A 
ATOM      8  C   UNL     1      11.780  30.953  45.296  1.00  0.00     0.123 A 
ATOM      9  C   UNL     1      12.032  30.993  43.924  1.00  0.00     0.094 A 
ATOM     10  C   UNL     1      11.005  31.291  43.024  1.00  0.00     0.146 A 
ATOM     11  O   UNL     1      11.284  31.308  41.727  1.00  0.00    -0.452 OA
ENDROOT
BRANCH   1  12
ATOM     12  C   UNL     1      10.827  31.572  39.375  1.00  0.00     0.025 A 
ATOM     13  C   UNL     1      10.507  32.639  38.518  1.00  0.00     0.016 A 
ATOM     14  C   UNL     1      10.959  32.643  37.195  1.00  0.00     0.051 A 
ATOM     15  C   UNL     1      11.749  31.592  36.715  1.00  0.00     0.157 A 
ATOM     16  C   UNL     1      11.637  30.530  38.894  1.00  0.00     0.062 A 
ATOM     17  C   UNL     1      12.092  30.531  37.571  1.00  0.00     0.158 A 
BRANCH  15  18
ATOM     18  O   UNL     1      12.198  31.598  35.395  1.00  0.00    -0.504 OA
ATOM     19  H   UNL     1      11.554  31.677  34.616  1.00  0.00     0.293 HD
ENDBRANCH  15  18
BRANCH  17  20
ATOM     20  O   UNL     1      12.883  29.473  37.125  1.00  0.00    -0.504 OA
ATOM     21  H   UNL     1      13.344  29.487  36.224  1.00  0.00     0.293 HD
ENDBRANCH  17  20
ENDBRANCH   1  12
BRANCH   2  22
ATOM     22  O   UNL     1       8.063  31.939  40.163  1.00  0.00    -0.502 OA
ATOM     23  H   UNL     1       7.195  32.433  40.336  1.00  0.00     0.293 HD
ENDBRANCH   2  22
BRANCH   6  24
ATOM     24  O   UNL     1       8.246  31.945  45.487  1.00  0.00    -0.507 OA
ATOM     25  H   UNL     1       7.531  31.295  45.779  1.00  0.00     0.293 HD
ENDBRANCH   6  24
BRANCH   8  26
ATOM     26  O   UNL     1      12.794  30.636  46.196  1.00  0.00    -0.508 OA
ATOM     27  H   UNL     1      12.963  31.198  47.022  1.00  0.00     0.293 HD
ENDBRANCH   8  26
TORSDOF 6
ENDMDL
MODEL 3
REMARK VINA RESULT:    -6.301      4.436      7.026
REMARK INTER + INTRA:          -7.430
REMARK INTER:                  -7.147
REMARK INTRA:                  -0.283
REMARK UNBOUND:                 0.160
REMARK SMILES O=c1c(O)c(-c2ccc(O)c(O)c2)oc2cc(O)cc(O)c12
REMARK SMILES IDX 5 1 3 2 2 3 1 4 22 5 20 6 19 7 17 8 16 9 15 10 14 11 6 12
REMARK SMILES IDX 7 13 8 14 9 15 13 16 11 17 10 18 12 20 4 22 21 24 18 26
REMARK H PARENT 10 19 12 21 4 23 21 25 18 27
REMARK Flexibility Score: inf
ROOT
ATOM      1  C   UNL     1       6.816  31.661  37.941  1.00  0.00     0.180 A 
ATOM      2  C   UNL     1       6.997  32.061  39.275  1.00  0.00     0.208 A 
ATOM      3  C   UNL     1       8.296  32.083  39.810  1.00  0.00     0.238 A 
ATOM      4  O   UNL     1       8.445  32.390  41.022  1.00  0.00    -0.285 OA
ATOM      5  C   UNL     1       9.398  31.722  38.998  1.00  0.00     0.111 A 
ATOM      6  C   UNL     1      10.760  31.747  39.424  1.00  0.00     0.134 A 
ATOM      7  C   UNL     1      11.757  31.245  38.579  1.00  0.00     0.093 A 
ATOM      8  C   UNL     1      11.450  30.779  37.300  1.00  0.00     0.123 A 
ATOM      9  C   UNL     1      10.129  30.805  36.852  1.00  0.00     0.094 A 
ATOM     10  C   UNL     1       9.107  31.267  37.686  1.00  0.00     0.146 A 
ATOM     11  O   UNL     1       7.863  31.265  37.225  1.00  0.00    -0.452 OA
ENDROOT
BRANCH   1  12
ATOM     12  C   UNL     1       5.482  31.635  37.299  1.00  0.00     0.025 A 
ATOM     13  C   UNL     1       4.843  32.819  36.892  1.00  0.00     0.016 A 
ATOM     14  C   UNL     1       3.594  32.769  36.267  1.00  0.00     0.051 A 
ATOM     15  C   UNL     1       2.972  31.537  36.028  1.00  0.00     0.157 A 
ATOM     16  C   UNL     1       4.864  30.402  37.038  1.00  0.00     0.062 A 
ATOM     17  C   UNL     1       3.613  30.348  36.413  1.00  0.00     0.158 A 
BRANCH  15  18
ATOM     18  O   UNL     1       1.725  31.491  35.406  1.00  0.00    -0.504 OA
ATOM     19  H   UNL     1       1.599  31.792  34.447  1.00  0.00     0.293 HD
ENDBRANCH  15  18
BRANCH  17  20
ATOM     20  O   UNL     1       3.024  29.105  36.182  1.00  0.00    -0.504 OA
ATOM     21  H   UNL     1       2.078  28.894  36.477  1.00  0.00     0.293 HD
ENDBRANCH  17  20
ENDBRANCH   1  12
BRANCH   2  22
ATOM     22  O   UNL     1       5.893  32.392  40.066  1.00  0.00    -0.502 OA
ATOM     23  H   UNL     1       5.094  32.898  39.701  1.00  0.00     0.293 HD
ENDBRANCH   2  22
BRANCH   6  24
ATOM     24  O   UNL     1      11.187  32.277  40.645  1.00  0.00    -0.507 OA
ATOM     25  H   UNL     1      10.793  33.095  41.086  1.00  0.00     0.293 HD
ENDBRANCH   6  24
BRANCH   8  26
ATOM     26  O   UNL     1      12.469  30.300  36.481  1.00  0.00    -0.508 OA
ATOM     27  H   UNL     1      12.269  29.803  35.621  1.00  0.00     0.293 HD
ENDBRANCH   8  26
TORSDOF 6
ENDMDL
MODEL 4
REMARK VINA RESULT:    -6.282      3.133      8.014
REMARK INTER + INTRA:          -7.408
REMARK INTER:                  -7.090
REMARK INTRA:                  -0.318
REMARK UNBOUND:                 0.160
REMARK SMILES O=c1c(O)c(-c2ccc(O)c(O)c2)oc2cc(O)cc(O)c12
REMARK SMILES IDX 5 1 3 2 2 3 1 4 22 5 20 6 19 7 17 8 16 9 15 10 14 11 6 12
REMARK SMILES IDX 7 13 8 14 9 15 13 16 11 17 10 18 12 20 4 22 21 24 18 26
REMARK H PARENT 10 19 12 21 4 23 21 25 18 27
REMARK Flexibility Score: inf
ROOT
ATOM      1  C   UNL     1       4.466  32.606  42.238  1.00  0.00     0.180 A 
ATOM      2  C   UNL     1       5.040  32.531  40.958  1.00  0.00     0.208 A 
ATOM      3  C   UNL     1       6.419  32.291  40.843  1.00  0.00     0.238 A 
ATOM      4  O   UNL     1       6.937  32.279  39.696  1.00  0.00    -0.285 OA
ATOM      5  C   UNL     1       7.203  32.113  42.009  1.00  0.00     0.111 A 
ATOM      6  C   UNL     1       8.600  31.826  42.009  1.00  0.00     0.134 A 
ATOM      7  C   UNL     1       9.300  31.798  43.222  1.00  0.00     0.093 A 
ATOM      8  C   UNL     1       8.641  31.984  44.438  1.00  0.00     0.123 A 
ATOM      9  C   UNL     1       7.264  32.207  44.452  1.00  0.00     0.094 A 
ATOM     10  C   UNL     1       6.545  32.276  43.256  1.00  0.00     0.146 A 
ATOM     11  O   UNL     1       5.238  32.500  43.313  1.00  0.00    -0.452 OA
ENDROOT
BRANCH   1  12
ATOM     12  C   UNL     1       3.016  32.831  42.440  1.00  0.00     0.025 A 
ATOM     13  C   UNL     1       2.494  34.125  42.615  1.00  0.00     0.016 A 
ATOM     14  C   UNL     1       1.119  34.315  42.781  1.00  0.00     0.051 A 
ATOM     15  C   UNL     1       0.246  33.220  42.759  1.00  0.00     0.157 A 
ATOM     16  C   UNL     1       2.134  31.739  42.398  1.00  0.00     0.062 A 
ATOM     17  C   UNL     1       0.757  31.926  42.564  1.00  0.00     0.158 A 
BRANCH  15  18
ATOM     18  O   UNL     1      -1.124  33.413  42.926  1.00  0.00    -0.504 OA
ATOM     19  H   UNL     1      -1.495  33.926  43.717  1.00  0.00     0.293 HD
ENDBRANCH  15  18
BRANCH  17  20
ATOM     20  O   UNL     1      -0.086  30.816  42.530  1.00  0.00    -0.504 OA
ATOM     21  H   UNL     1       0.227  29.893  42.805  1.00  0.00     0.293 HD
ENDBRANCH  17  20
ENDBRANCH   1  12
BRANCH   2  22
ATOM     22  O   UNL     1       4.252  32.732  39.821  1.00  0.00    -0.502 OA
ATOM     23  H   UNL     1       3.533  33.445  39.776  1.00  0.00     0.293 HD
ENDBRANCH   2  22
BRANCH   6  24
ATOM     24  O   UNL     1       9.338  31.533  40.857  1.00  0.00    -0.507 OA
ATOM     25  H   UNL     1       8.943  31.417  39.936  1.00  0.00     0.293 HD
ENDBRANCH   6  24
BRANCH   8  26
ATOM     26  O   UNL     1       9.366  31.935  45.625  1.00  0.00    -0.508 OA
ATOM     27  H   UNL     1      10.192  32.506  45.766  1.00  0.00     0.293 HD
ENDBRANCH   8  26
TORSDOF 6
ENDMDL
MODEL 5
REMARK VINA RESULT:    -6.241      6.177      7.853
REMARK INTER + INTRA:          -7.358
REMARK INTER:                  -7.191
REMARK INTRA:                  -0.167
REMARK UNBOUND:                 0.160
REMARK SMILES O=c1c(O)c(-c2ccc(O)c(O)c2)oc2cc(O)cc(O)c12
REMARK SMILES IDX 5 1 3 2 2 3 1 4 22 5 20 6 19 7 17 8 16 9 15 10 14 11 6 12
REMARK SMILES IDX 7 13 8 14 9 15 13 16 11 17 10 18 12 20 4 22 21 24 18 26
REMARK H PARENT 10 19 12 21 4 23 21 25 18 27
REMARK Flexibility Score: inf
ROOT
ATOM      1  C   UNL     1       4.812  31.371  37.451  1.00  0.00     0.180 A 
ATOM      2  C   UNL     1       4.735  31.325  36.048  1.00  0.00     0.208 A 
ATOM      3  C   UNL     1       3.510  30.996  35.445  1.00  0.00     0.238 A 
ATOM      4  O   UNL     1       3.460  30.904  34.190  1.00  0.00    -0.285 OA
ATOM      5  C   UNL     1       2.375  30.734  36.249  1.00  0.00     0.111 A 
ATOM      6  C   UNL     1       1.076  30.431  35.743  1.00  0.00     0.134 A 
ATOM      7  C   UNL     1       0.058  30.061  36.631  1.00  0.00     0.093 A 
ATOM      8  C   UNL     1       0.274  30.046  38.009  1.00  0.00     0.123 A 
ATOM      9  C   UNL     1       1.525  30.399  38.518  1.00  0.00     0.094 A 
ATOM     10  C   UNL     1       2.571  30.737  37.655  1.00  0.00     0.146 A 
ATOM     11  O   UNL     1       3.747  31.056  38.179  1.00  0.00    -0.452 OA
ENDROOT
BRANCH   1  12
ATOM     12  C   UNL     1       6.061  31.733  38.159  1.00  0.00     0.025 A 
ATOM     13  C   UNL     1       6.144  32.896  38.946  1.00  0.00     0.016 A 
ATOM     14  C   UNL     1       7.326  33.206  39.624  1.00  0.00     0.051 A 
ATOM     15  C   UNL     1       8.434  32.354  39.540  1.00  0.00     0.157 A 
ATOM     16  C   UNL     1       7.168  30.872  38.096  1.00  0.00     0.062 A 
ATOM     17  C   UNL     1       8.353  31.180  38.774  1.00  0.00     0.158 A 
BRANCH  15  18
ATOM     18  O   UNL     1       9.612  32.667  40.217  1.00  0.00    -0.504 OA
ATOM     19  H   UNL     1       9.602  33.192  41.084  1.00  0.00     0.293 HD
ENDBRANCH  15  18
BRANCH  17  20
ATOM     20  O   UNL     1       9.436  30.307  38.675  1.00  0.00    -0.504 OA
ATOM     21  H   UNL     1       9.537  29.504  39.284  1.00  0.00     0.293 HD
ENDBRANCH  17  20
ENDBRANCH   1  12
BRANCH   2  22
ATOM     22  O   UNL     1       5.873  31.565  35.273  1.00  0.00    -0.502 OA
ATOM     23  H   UNL     1       6.781  31.182  35.506  1.00  0.00     0.293 HD
ENDBRANCH   2  22
BRANCH   6  24
ATOM     24  O   UNL     1       0.727  30.505  34.391  1.00  0.00    -0.507 OA
ATOM     25  H   UNL     1      -0.049  31.037  34.027  1.00  0.00     0.293 HD
ENDBRANCH   6  24
BRANCH   8  26
ATOM     26  O   UNL     1      -0.765  29.688  38.864  1.00  0.00    -0.508 OA
ATOM     27  H   UNL     1      -1.421  30.375  39.217  1.00  0.00     0.293 HD
ENDBRANCH   8  26
TORSDOF 6
ENDMDL
MODEL 6
REMARK VINA RESULT:    -6.221      3.042      7.909
REMARK INTER + INTRA:          -7.334
REMARK INTER:                  -7.001
REMARK INTRA:                  -0.333
REMARK UNBOUND:                 0.160
REMARK SMILES O=c1c(O)c(-c2ccc(O)c(O)c2)oc2cc(O)cc(O)c12
REMARK SMILES IDX 5 1 3 2 2 3 1 4 22 5 20 6 19 7 17 8 16 9 15 10 14 11 6 12
REMARK SMILES IDX 7 13 8 14 9 15 13 16 11 17 10 18 12 20 4 22 21 24 18 26
REMARK H PARENT 10 19 12 21 4 23 21 25 18 27
REMARK Flexibility Score: inf
ROOT
ATOM      1  C   UNL     1       4.501  32.459  42.832  1.00  0.00     0.180 A 
ATOM      2  C   UNL     1       5.190  32.075  43.995  1.00  0.00     0.208 A 
ATOM      3  C   UNL     1       6.580  31.884  43.931  1.00  0.00     0.238 A 
ATOM      4  O   UNL     1       7.184  31.488  44.963  1.00  0.00    -0.285 OA
ATOM      5  C   UNL     1       7.265  32.094  42.710  1.00  0.00     0.111 A 
ATOM      6  C   UNL     1       8.676  31.968  42.540  1.00  0.00     0.134 A 
ATOM      7  C   UNL     1       9.230  32.072  41.258  1.00  0.00     0.093 A 
ATOM      8  C   UNL     1       8.432  32.361  40.151  1.00  0.00     0.123 A 
ATOM      9  C   UNL     1       7.059  32.545  40.315  1.00  0.00     0.094 A 
ATOM     10  C   UNL     1       6.473  32.412  41.576  1.00  0.00     0.146 A 
ATOM     11  O   UNL     1       5.162  32.585  41.688  1.00  0.00    -0.452 OA
ENDROOT
BRANCH   1  12
ATOM     12  C   UNL     1       3.041  32.704  42.827  1.00  0.00     0.025 A 
ATOM     13  C   UNL     1       2.511  33.975  43.113  1.00  0.00     0.016 A 
ATOM     14  C   UNL     1       1.130  34.188  43.079  1.00  0.00     0.051 A 
ATOM     15  C   UNL     1       0.261  33.143  42.744  1.00  0.00     0.157 A 
ATOM     16  C   UNL     1       2.166  31.665  42.472  1.00  0.00     0.062 A 
ATOM     17  C   UNL     1       0.783  31.875  42.437  1.00  0.00     0.158 A 
BRANCH  15  18
ATOM     18  O   UNL     1      -1.116  33.359  42.713  1.00  0.00    -0.504 OA
ATOM     19  H   UNL     1      -1.660  33.191  41.875  1.00  0.00     0.293 HD
ENDBRANCH  15  18
BRANCH  17  20
ATOM     20  O   UNL     1      -0.055  30.815  42.093  1.00  0.00    -0.504 OA
ATOM     21  H   UNL     1      -0.991  30.962  41.735  1.00  0.00     0.293 HD
ENDBRANCH  17  20
ENDBRANCH   1  12
BRANCH   2  22
ATOM     22  O   UNL     1       4.492  31.852  45.185  1.00  0.00    -0.502 OA
ATOM     23  H   UNL     1       3.504  31.627  45.203  1.00  0.00     0.293 HD
ENDBRANCH   2  22
BRANCH   6  24
ATOM     24  O   UNL     1       9.575  31.770  43.593  1.00  0.00    -0.507 OA
ATOM     25  H   UNL     1       9.720  32.417  44.354  1.00  0.00     0.293 HD
ENDBRANCH   6  24
BRANCH   8  26
ATOM     26  O   UNL     1       9.019  32.472  38.893  1.00  0.00    -0.508 OA
ATOM     27  H   UNL     1       9.031  31.695  38.243  1.00  0.00     0.293 HD
ENDBRANCH   8  26
TORSDOF 6
ENDMDL
MODEL 7
REMARK VINA RESULT:    -6.175      2.282      3.511
REMARK INTER + INTRA:          -7.279
REMARK INTER:                  -6.967
REMARK INTRA:                  -0.313
REMARK UNBOUND:                 0.160
REMARK SMILES O=c1c(O)c(-c2ccc(O)c(O)c2)oc2cc(O)cc(O)c12
REMARK SMILES IDX 5 1 3 2 2 3 1 4 22 5 20 6 19 7 17 8 16 9 15 10 14 11 6 12
REMARK SMILES IDX 7 13 8 14 9 15 13 16 11 17 10 18 12 20 4 22 21 24 18 26
REMARK H PARENT 10 19 12 21 4 23 21 25 18 27
REMARK Flexibility Score: inf
ROOT
ATOM      1  C   UNL     1       6.842  32.388  41.951  1.00  0.00     0.180 A 
ATOM      2  C   UNL     1       7.157  31.769  43.173  1.00  0.00     0.208 A 
ATOM      3  C   UNL     1       6.166  31.670  44.162  1.00  0.00     0.238 A 
ATOM      4  O   UNL     1       6.469  31.164  45.274  1.00  0.00    -0.285 OA
ATOM      5  C   UNL     1       4.867  32.176  43.912  1.00  0.00     0.111 A 
ATOM      6  C   UNL     1       3.776  32.094  44.827  1.00  0.00     0.134 A 
ATOM      7  C   UNL     1       2.572  32.743  44.526  1.00  0.00     0.093 A 
ATOM      8  C   UNL     1       2.399  33.416  43.316  1.00  0.00     0.123 A 
ATOM      9  C   UNL     1       3.441  33.452  42.389  1.00  0.00     0.094 A 
ATOM     10  C   UNL     1       4.666  32.844  42.676  1.00  0.00     0.146 A 
ATOM     11  O   UNL     1       5.634  32.910  41.771  1.00  0.00    -0.452 OA
ENDROOT
BRANCH   1  12
ATOM     12  C   UNL     1       7.825  32.508  40.851  1.00  0.00     0.025 A 
ATOM     13  C   UNL     1       8.611  33.663  40.695  1.00  0.00     0.016 A 
ATOM     14  C   UNL     1       9.549  33.745  39.662  1.00  0.00     0.051 A 
ATOM     15  C   UNL     1       9.728  32.670  38.782  1.00  0.00     0.157 A 
ATOM     16  C   UNL     1       8.023  31.425  39.979  1.00  0.00     0.062 A 
ATOM     17  C   UNL     1       8.962  31.503  38.944  1.00  0.00     0.158 A 
BRANCH  15  18
ATOM     18  O   UNL     1      10.664  32.755  37.753  1.00  0.00    -0.504 OA
ATOM     19  H   UNL     1      11.605  32.395  37.861  1.00  0.00     0.293 HD
ENDBRANCH  15  18
BRANCH  17  20
ATOM     20  O   UNL     1       9.121  30.413  38.090  1.00  0.00    -0.504 OA
ATOM     21  H   UNL     1       8.577  29.565  38.192  1.00  0.00     0.293 HD
ENDBRANCH  17  20
ENDBRANCH   1  12
BRANCH   2  22
ATOM     22  O   UNL     1       8.452  31.297  43.408  1.00  0.00    -0.502 OA
ATOM     23  H   UNL     1       8.635  30.365  43.761  1.00  0.00     0.293 HD
ENDBRANCH   2  22
BRANCH   6  24
ATOM     24  O   UNL     1       3.811  31.369  46.022  1.00  0.00    -0.507 OA
ATOM     25  H   UNL     1       4.320  30.509  46.157  1.00  0.00     0.293 HD
ENDBRANCH   6  24
BRANCH   8  26
ATOM     26  O   UNL     1       1.183  34.038  43.044  1.00  0.00    -0.508 OA
ATOM     27  H   UNL     1       0.987  34.444  42.137  1.00  0.00     0.293 HD
ENDBRANCH   8  26
TORSDOF 6
ENDMDL
MODEL 8
REMARK VINA RESULT:    -6.011      1.313      2.871
REMARK INTER + INTRA:          -7.081
REMARK INTER:                  -6.791
REMARK INTRA:                  -0.291
REMARK UNBOUND:                 0.160
REMARK SMILES O=c1c(O)c(-c2ccc(O)c(O)c2)oc2cc(O)cc(O)c12
REMARK SMILES IDX 5 1 3 2 2 3 1 4 22 5 20 6 19 7 17 8 16 9 15 10 14 11 6 12
REMARK SMILES IDX 7 13 8 14 9 15 13 16 11 17 10 18 12 20 4 22 21 24 18 26
REMARK H PARENT 10 19 12 21 4 23 21 25 18 27
REMARK Flexibility Score: inf
ROOT
ATOM      1  C   UNL     1       8.959  31.809  40.864  1.00  0.00     0.180 A 
ATOM      2  C   UNL     1       7.559  31.720  40.779  1.00  0.00     0.208 A 
ATOM      3  C   UNL     1       6.803  31.746  41.962  1.00  0.00     0.238 A 
ATOM      4  O   UNL     1       5.553  31.612  41.884  1.00  0.00    -0.285 OA
ATOM      5  C   UNL     1       7.454  31.877  43.213  1.00  0.00     0.111 A 
ATOM      6  C   UNL     1       6.785  31.954  44.470  1.00  0.00     0.134 A 
ATOM      7  C   UNL     1       7.535  31.951  45.653  1.00  0.00     0.093 A 
ATOM      8  C   UNL     1       8.929  31.939  45.622  1.00  0.00     0.123 A 
ATOM      9  C   UNL     1       9.595  31.924  44.395  1.00  0.00     0.094 A 
ATOM     10  C   UNL     1       8.873  31.890  43.199  1.00  0.00     0.146 A 
ATOM     11  O   UNL     1       9.544  31.865  42.054  1.00  0.00    -0.452 OA
ENDROOT
BRANCH   1  12
ATOM     12  C   UNL     1       9.822  31.814  39.661  1.00  0.00     0.025 A 
ATOM     13  C   UNL     1       9.952  32.961  38.858  1.00  0.00     0.016 A 
ATOM     14  C   UNL     1      10.790  32.949  37.740  1.00  0.00     0.051 A 
ATOM     15  C   UNL     1      11.522  31.800  37.416  1.00  0.00     0.157 A 
ATOM     16  C   UNL     1      10.574  30.671  39.344  1.00  0.00     0.062 A 
ATOM     17  C   UNL     1      11.414  30.656  38.225  1.00  0.00     0.158 A 
BRANCH  15  18
ATOM     18  O   UNL     1      12.356  31.791  36.300  1.00  0.00    -0.504 OA
ATOM     19  H   UNL     1      12.101  31.302  35.450  1.00  0.00     0.293 HD
ENDBRANCH  15  18
BRANCH  17  20
ATOM     20  O   UNL     1      12.135  29.498  37.935  1.00  0.00    -0.504 OA
ATOM     21  H   UNL     1      13.109  29.390  38.193  1.00  0.00     0.293 HD
ENDBRANCH  17  20
ENDBRANCH   1  12
BRANCH   2  22
ATOM     22  O   UNL     1       6.938  31.569  39.536  1.00  0.00    -0.502 OA
ATOM     23  H   UNL     1       5.964  31.803  39.383  1.00  0.00     0.293 HD
ENDBRANCH   2  22
BRANCH   6  24
ATOM     24  O   UNL     1       5.398  32.064  44.612  1.00  0.00    -0.507 OA
ATOM     25  H   UNL     1       4.905  32.926  44.788  1.00  0.00     0.293 HD
ENDBRANCH   6  24
BRANCH   8  26
ATOM     26  O   UNL     1       9.643  31.952  46.817  1.00  0.00    -0.508 OA
ATOM     27  H   UNL     1       9.703  31.131  47.407  1.00  0.00     0.293 HD
ENDBRANCH   8  26
TORSDOF 6
ENDMDL
MODEL 9
REMARK VINA RESULT:    -5.897      6.028      8.040
REMARK INTER + INTRA:          -6.943
REMARK INTER:                  -6.734
REMARK INTRA:                  -0.209
REMARK UNBOUND:                 0.160
REMARK SMILES O=c1c(O)c(-c2ccc(O)c(O)c2)oc2cc(O)cc(O)c12
REMARK SMILES IDX 5 1 3 2 2 3 1 4 22 5 20 6 19 7 17 8 16 9 15 10 14 11 6 12
REMARK SMILES IDX 7 13 8 14 9 15 13 16 11 17 10 18 12 20 4 22 21 24 18 26
REMARK H PARENT 10 19 12 21 4 23 21 25 18 27
REMARK Flexibility Score: inf
ROOT
ATOM      1  C   UNL     1       5.307  31.633  37.552  1.00  0.00     0.180 A 
ATOM      2  C   UNL     1       4.087  31.264  38.144  1.00  0.00     0.208 A 
ATOM      3  C   UNL     1       2.975  31.027  37.320  1.00  0.00     0.238 A 
ATOM      4  O   UNL     1       1.871  30.750  37.859  1.00  0.00    -0.285 OA
ATOM      5  C   UNL     1       3.101  31.146  35.915  1.00  0.00     0.111 A 
ATOM      6  C   UNL     1       2.050  30.891  34.984  1.00  0.00     0.134 A 
ATOM      7  C   UNL     1       2.250  31.166  33.625  1.00  0.00     0.093 A 
ATOM      8  C   UNL     1       3.481  31.626  33.157  1.00  0.00     0.123 A 
ATOM      9  C   UNL     1       4.534  31.823  34.052  1.00  0.00     0.094 A 
ATOM     10  C   UNL     1       4.353  31.591  35.418  1.00  0.00     0.146 A 
ATOM     11  O   UNL     1       5.376  31.800  36.237  1.00  0.00    -0.452 OA
ENDROOT
BRANCH   1  12
ATOM     12  C   UNL     1       6.530  31.875  38.352  1.00  0.00     0.025 A 
ATOM     13  C   UNL     1       6.641  32.991  39.199  1.00  0.00     0.016 A 
ATOM     14  C   UNL     1       7.795  33.187  39.962  1.00  0.00     0.051 A 
ATOM     15  C   UNL     1       8.847  32.265  39.902  1.00  0.00     0.157 A 
ATOM     16  C   UNL     1       7.579  30.943  38.311  1.00  0.00     0.062 A 
ATOM     17  C   UNL     1       8.736  31.135  39.073  1.00  0.00     0.158 A 
BRANCH  15  18
ATOM     18  O   UNL     1       9.998  32.463  40.663  1.00  0.00    -0.504 OA
ATOM     19  H   UNL     1       9.954  32.833  41.606  1.00  0.00     0.293 HD
ENDBRANCH  15  18
BRANCH  17  20
ATOM     20  O   UNL     1       9.763  30.195  38.996  1.00  0.00    -0.504 OA
ATOM     21  H   UNL     1       9.580  29.200  38.954  1.00  0.00     0.293 HD
ENDBRANCH  17  20
ENDBRANCH   1  12
BRANCH   2  22
ATOM     22  O   UNL     1       3.979  31.174  39.535  1.00  0.00    -0.502 OA
ATOM     23  H   UNL     1       3.131  30.866  39.996  1.00  0.00     0.293 HD
ENDBRANCH   2  22
BRANCH   6  24
ATOM     24  O   UNL     1       0.812  30.344  35.333  1.00  0.00    -0.507 OA
ATOM     25  H   UNL     1       0.422  30.352  36.264  1.00  0.00     0.293 HD
ENDBRANCH   6  24
BRANCH   8  26
ATOM     26  O   UNL     1       3.649  31.875  31.797  1.00  0.00    -0.508 OA
ATOM     27  H   UNL     1       2.904  32.270  31.235  1.00  0.00     0.293 HD
ENDBRANCH   8  26
TORSDOF 6
ENDMDL
