MODEL 1
REMARK VINA RESULT:    -5.652      0.000      0.000
REMARK INTER + INTRA:         -12.336
REMARK INTER:                 -10.940
REMARK INTRA:                  -1.396
REMARK UNBOUND:                -1.396
REMARK SMILES CCCCCCCCCCCCCCCCCC(=O)[O-]
REMARK SMILES IDX 10 1 11 2 12 3 13 4 14 5 15 6 16 7 17 8 18 9 19 10 20 11
REMARK SMILES IDX 9 12 8 13 7 14 6 15 5 16 4 17 3 18 2 19 1 20
REMARK H PARENT
REMARK Flexibility Score: inf
ROOT
ATOM      1  C   UNL     1      10.041 -12.938  28.830  1.00  0.00     0.000 C 
ENDROOT
BRANCH   1   2
ATOM      2  C   UNL     1      10.615 -13.237  30.224  1.00  0.00     0.000 C 
BRANCH   2   3
ATOM      3  C   UNL     1      12.108 -13.600  30.189  1.00  0.00     0.000 C 
BRANCH   3   4
ATOM      4  C   UNL     1      12.636 -13.611  28.748  1.00  0.00     0.000 C 
BRANCH   4   5
ATOM      5  C   UNL     1      14.157 -13.390  28.668  1.00  0.00     0.000 C 
BRANCH   5   6
ATOM      6  C   UNL     1      14.745 -13.415  27.242  1.00  0.00     0.000 C 
BRANCH   6   7
ATOM      7  C   UNL     1      15.170 -14.821  26.767  1.00  0.00     0.006 C 
BRANCH   7   8
ATOM      8  C   UNL     1      16.689 -14.938  26.570  1.00  0.00     0.053 C 
BRANCH   8   9
ATOM      9  C   UNL     1      17.062 -14.586  25.164  1.00  0.00     0.041 C 
ATOM     10  O   UNL     1      16.559 -15.218  24.198  1.00  0.00    -0.550 OA
ATOM     11  O   UNL     1      17.930 -13.529  24.919  1.00  0.00    -0.550 OA
ENDBRANCH   8   9
ENDBRANCH   7   8
ENDBRANCH   6   7
ENDBRANCH   5   6
ENDBRANCH   4   5
ENDBRANCH   3   4
ENDBRANCH   2   3
ENDBRANCH   1   2
BRANCH   1  12
ATOM     12  C   UNL     1       8.506 -12.831  28.768  1.00  0.00     0.000 C 
BRANCH  12  13
ATOM     13  C   UNL     1       7.901 -13.286  27.423  1.00  0.00    -0.000 C 
BRANCH  13  14
ATOM     14  C   UNL     1       8.853 -13.042  26.238  1.00  0.00    -0.000 C 
BRANCH  14  15
ATOM     15  C   UNL     1       8.921 -11.563  25.825  1.00  0.00    -0.000 C 
BRANCH  15  16
ATOM     16  C   UNL     1       9.530 -11.366  24.425  1.00  0.00    -0.000 C 
BRANCH  16  17
ATOM     17  C   UNL     1      10.678 -12.348  24.141  1.00  0.00    -0.000 C 
BRANCH  17  18
ATOM     18  C   UNL     1      11.880 -12.133  25.078  1.00  0.00    -0.000 C 
BRANCH  18  19
ATOM     19  C   UNL     1      13.198 -11.941  24.310  1.00  0.00    -0.003 C 
ATOM     20  C   UNL     1      13.707 -13.235  23.674  1.00  0.00     0.004 C 
ENDBRANCH  18  19
ENDBRANCH  17  18
ENDBRANCH  16  17
ENDBRANCH  15  16
ENDBRANCH  14  15
ENDBRANCH  13  14
ENDBRANCH  12  13
ENDBRANCH   1  12
TORSDOF 16
ENDMDL
MODEL 2
REMARK VINA RESULT:    -5.626      2.288      5.495
REMARK INTER + INTRA:         -12.285
REMARK INTER:                 -10.201
REMARK INTRA:                  -2.084
REMARK UNBOUND:                -1.396
REMARK SMILES CCCCCCCCCCCCCCCCCC(=O)[O-]
REMARK SMILES IDX 10 1 11 2 12 3 13 4 14 5 15 6 16 7 17 8 18 9 19 10 20 11
REMARK SMILES IDX 9 12 8 13 7 14 6 15 5 16 4 17 3 18 2 19 1 20
REMARK H PARENT
REMARK Flexibility Score: inf
ROOT
ATOM      1  C   UNL     1      11.726 -13.681  29.912  1.00  0.00     0.000 C 
ENDROOT
BRANCH   1   2
ATOM      2  C   UNL     1      10.713 -13.303  28.820  1.00  0.00     0.000 C 
BRANCH   2   3
ATOM      3  C   UNL     1       9.430 -12.676  29.388  1.00  0.00     0.000 C 
BRANCH   3   4
ATOM      4  C   UNL     1       8.451 -12.316  28.261  1.00  0.00     0.000 C 
BRANCH   4   5
ATOM      5  C   UNL     1       9.050 -12.527  26.860  1.00  0.00     0.000 C 
BRANCH   5   6
ATOM      6  C   UNL     1       8.840 -11.356  25.878  1.00  0.00     0.000 C 
BRANCH   6   7
ATOM      7  C   UNL     1       9.844 -11.337  24.705  1.00  0.00     0.006 C 
BRANCH   7   8
ATOM      8  C   UNL     1      11.121 -12.132  25.015  1.00  0.00     0.053 C 
BRANCH   8   9
ATOM      9  C   UNL     1      11.433 -13.076  23.896  1.00  0.00     0.041 C 
ATOM     10  O   UNL     1      11.910 -14.215  24.142  1.00  0.00    -0.550 OA
ATOM     11  O   UNL     1      11.153 -12.715  22.584  1.00  0.00    -0.550 OA
ENDBRANCH   8   9
ENDBRANCH   7   8
ENDBRANCH   6   7
ENDBRANCH   5   6
ENDBRANCH   4   5
ENDBRANCH   3   4
ENDBRANCH   2   3
ENDBRANCH   1   2
BRANCH   1  12
ATOM     12  C   UNL     1      13.185 -13.800  29.432  1.00  0.00     0.000 C 
BRANCH  12  13
ATOM     13  C   UNL     1      13.383 -13.454  27.941  1.00  0.00    -0.000 C 
BRANCH  13  14
ATOM     14  C   UNL     1      14.388 -14.392  27.249  1.00  0.00    -0.000 C 
BRANCH  14  15
ATOM     15  C   UNL     1      14.907 -13.828  25.916  1.00  0.00    -0.000 C 
BRANCH  15  16
ATOM     16  C   UNL     1      14.824 -12.292  25.850  1.00  0.00    -0.000 C 
BRANCH  16  17
ATOM     17  C   UNL     1      16.163 -11.617  26.191  1.00  0.00    -0.000 C 
BRANCH  17  18
ATOM     18  C   UNL     1      16.217 -11.122  27.647  1.00  0.00    -0.000 C 
BRANCH  18  19
ATOM     19  C   UNL     1      16.931 -12.114  28.579  1.00  0.00    -0.003 C 
ATOM     20  C   UNL     1      16.461 -12.007  30.031  1.00  0.00     0.004 C 
ENDBRANCH  18  19
ENDBRANCH  17  18
ENDBRANCH  16  17
ENDBRANCH  15  16
ENDBRANCH  14  15
ENDBRANCH  13  14
ENDBRANCH  12  13
ENDBRANCH   1  12
TORSDOF 16
ENDMDL
MODEL 3
REMARK VINA RESULT:    -5.490      2.998      5.499
REMARK INTER + INTRA:         -12.022
REMARK INTER:                 -10.290
REMARK INTRA:                  -1.732
REMARK UNBOUND:                -1.396
REMARK SMILES CCCCCCCCCCCCCCCCCC(=O)[O-]
REMARK SMILES IDX 10 1 11 2 12 3 13 4 14 5 15 6 16 7 17 8 18 9 19 10 20 11
REMARK SMILES IDX 9 12 8 13 7 14 6 15 5 16 4 17 3 18 2 19 1 20
REMARK H PARENT
REMARK Flexibility Score: inf
ROOT
ATOM      1  C   UNL     1       9.160 -12.797  26.513  1.00  0.00     0.000 C 
ENDROOT
BRANCH   1   2
ATOM      2  C   UNL     1       9.912 -11.889  25.527  1.00  0.00     0.000 C 
BRANCH   2   3
ATOM      3  C   UNL     1      11.046 -12.618  24.790  1.00  0.00     0.000 C 
BRANCH   3   4
ATOM      4  C   UNL     1      12.415 -12.052  25.194  1.00  0.00     0.000 C 
BRANCH   4   5
ATOM      5  C   UNL     1      13.405 -11.987  24.018  1.00  0.00     0.000 C 
BRANCH   5   6
ATOM      6  C   UNL     1      13.260 -13.120  22.982  1.00  0.00     0.000 C 
BRANCH   6   7
ATOM      7  C   UNL     1      12.883 -12.629  21.567  1.00  0.00     0.006 C 
BRANCH   7   8
ATOM      8  C   UNL     1      11.609 -13.299  21.035  1.00  0.00     0.053 C 
BRANCH   8   9
ATOM      9  C   UNL     1      10.871 -12.369  20.123  1.00  0.00     0.041 C 
ATOM     10  O   UNL     1      11.163 -12.316  18.900  1.00  0.00    -0.550 OA
ATOM     11  O   UNL     1       9.828 -11.594  20.617  1.00  0.00    -0.550 OA
ENDBRANCH   8   9
ENDBRANCH   7   8
ENDBRANCH   6   7
ENDBRANCH   5   6
ENDBRANCH   4   5
ENDBRANCH   3   4
ENDBRANCH   2   3
ENDBRANCH   1   2
BRANCH   1  12
ATOM     12  C   UNL     1       8.625 -12.087  27.771  1.00  0.00     0.000 C 
BRANCH  12  13
ATOM     13  C   UNL     1       9.315 -12.527  29.080  1.00  0.00    -0.000 C 
BRANCH  13  14
ATOM     14  C   UNL     1      10.606 -13.325  28.822  1.00  0.00    -0.000 C 
BRANCH  14  15
ATOM     15  C   UNL     1      11.379 -13.637  30.114  1.00  0.00    -0.000 C 
BRANCH  15  16
ATOM     16  C   UNL     1      12.903 -13.665  29.901  1.00  0.00    -0.000 C 
BRANCH  16  17
ATOM     17  C   UNL     1      13.288 -13.662  28.412  1.00  0.00    -0.000 C 
BRANCH  17  18
ATOM     18  C   UNL     1      14.807 -13.547  28.198  1.00  0.00    -0.000 C 
BRANCH  18  19
ATOM     19  C   UNL     1      15.231 -13.927  26.770  1.00  0.00    -0.003 C 
ATOM     20  C   UNL     1      14.588 -15.229  26.288  1.00  0.00     0.004 C 
ENDBRANCH  18  19
ENDBRANCH  17  18
ENDBRANCH  16  17
ENDBRANCH  15  16
ENDBRANCH  14  15
ENDBRANCH  13  14
ENDBRANCH  12  13
ENDBRANCH   1  12
TORSDOF 16
ENDMDL
MODEL 4
REMARK VINA RESULT:    -5.473      2.439      4.605
REMARK INTER + INTRA:         -11.988
REMARK INTER:                 -10.384
REMARK INTRA:                  -1.604
REMARK UNBOUND:                -1.396
REMARK SMILES CCCCCCCCCCCCCCCCCC(=O)[O-]
REMARK SMILES IDX 10 1 11 2 12 3 13 4 14 5 15 6 16 7 17 8 18 9 19 10 20 11
REMARK SMILES IDX 9 12 8 13 7 14 6 15 5 16 4 17 3 18 2 19 1 20
REMARK H PARENT
REMARK Flexibility Score: inf
ROOT
ATOM      1  C   UNL     1      13.821 -12.571  25.732  1.00  0.00     0.000 C 
ENDROOT
BRANCH   1   2
ATOM      2  C   UNL     1      13.147 -13.403  26.836  1.00  0.00     0.000 C 
BRANCH   2   3
ATOM      3  C   UNL     1      14.029 -13.566  28.083  1.00  0.00     0.000 C 
BRANCH   3   4
ATOM      4  C   UNL     1      15.477 -13.896  27.692  1.00  0.00     0.000 C 
BRANCH   4   5
ATOM      5  C   UNL     1      16.511 -13.114  28.520  1.00  0.00     0.000 C 
BRANCH   5   6
ATOM      6  C   UNL     1      15.989 -11.805  29.148  1.00  0.00     0.000 C 
BRANCH   6   7
ATOM      7  C   UNL     1      16.028 -10.594  28.190  1.00  0.00     0.006 C 
BRANCH   7   8
ATOM      8  C   UNL     1      17.268  -9.715  28.408  1.00  0.00     0.053 C 
BRANCH   8   9
ATOM      9  C   UNL     1      18.208  -9.841  27.250  1.00  0.00     0.041 C 
ATOM     10  O   UNL     1      19.075 -10.754  27.233  1.00  0.00    -0.550 OA
ATOM     11  O   UNL     1      18.095  -8.978  26.166  1.00  0.00    -0.550 OA
ENDBRANCH   8   9
ENDBRANCH   7   8
ENDBRANCH   6   7
ENDBRANCH   5   6
ENDBRANCH   4   5
ENDBRANCH   3   4
ENDBRANCH   2   3
ENDBRANCH   1   2
BRANCH   1  12
ATOM     12  C   UNL     1      12.850 -11.833  24.792  1.00  0.00     0.000 C 
BRANCH  12  13
ATOM     13  C   UNL     1      12.063 -12.766  23.847  1.00  0.00    -0.000 C 
BRANCH  13  14
ATOM     14  C   UNL     1      10.567 -12.408  23.782  1.00  0.00    -0.000 C 
BRANCH  14  15
ATOM     15  C   UNL     1      10.084 -11.641  25.025  1.00  0.00    -0.000 C 
BRANCH  15  16
ATOM     16  C   UNL     1       8.662 -12.043  25.454  1.00  0.00    -0.000 C 
BRANCH  16  17
ATOM     17  C   UNL     1       8.660 -12.991  26.665  1.00  0.00    -0.000 C 
BRANCH  17  18
ATOM     18  C   UNL     1       9.620 -12.526  27.775  1.00  0.00    -0.000 C 
BRANCH  18  19
ATOM     19  C   UNL     1       9.180 -13.001  29.169  1.00  0.00    -0.003 C 
ATOM     20  C   UNL     1       8.192 -12.044  29.838  1.00  0.00     0.004 C 
ENDBRANCH  18  19
ENDBRANCH  17  18
ENDBRANCH  16  17
ENDBRANCH  15  16
ENDBRANCH  14  15
ENDBRANCH  13  14
ENDBRANCH  12  13
ENDBRANCH   1  12
TORSDOF 16
ENDMDL
MODEL 5
REMARK VINA RESULT:    -5.463      2.045      2.473
REMARK INTER + INTRA:         -11.969
REMARK INTER:                 -10.291
REMARK INTRA:                  -1.678
REMARK UNBOUND:                -1.396
REMARK SMILES CCCCCCCCCCCCCCCCCC(=O)[O-]
REMARK SMILES IDX 10 1 11 2 12 3 13 4 14 5 15 6 16 7 17 8 18 9 19 10 20 11
REMARK SMILES IDX 9 12 8 13 7 14 6 15 5 16 4 17 3 18 2 19 1 20
REMARK H PARENT
REMARK Flexibility Score: inf
ROOT
ATOM      1  C   UNL     1      10.435 -13.015  28.821  1.00  0.00     0.000 C 
ENDROOT
BRANCH   1   2
ATOM      2  C   UNL     1      11.227 -13.744  29.919  1.00  0.00     0.000 C 
BRANCH   2   3
ATOM      3  C   UNL     1      12.743 -13.521  29.809  1.00  0.00     0.000 C 
BRANCH   3   4
ATOM      4  C   UNL     1      13.236 -13.798  28.381  1.00  0.00     0.000 C 
BRANCH   4   5
ATOM      5  C   UNL     1      14.541 -13.055  28.046  1.00  0.00     0.000 C 
BRANCH   5   6
ATOM      6  C   UNL     1      15.399 -12.663  29.266  1.00  0.00     0.000 C 
BRANCH   6   7
ATOM      7  C   UNL     1      16.838 -12.235  28.906  1.00  0.00     0.006 C 
BRANCH   7   8
ATOM      8  C   UNL     1      17.005 -11.944  27.407  1.00  0.00     0.053 C 
BRANCH   8   9
ATOM      9  C   UNL     1      17.147 -10.472  27.174  1.00  0.00     0.041 C 
ATOM     10  O   UNL     1      17.610 -10.045  26.084  1.00  0.00    -0.550 OA
ATOM     11  O   UNL     1      16.726  -9.571  28.144  1.00  0.00    -0.550 OA
ENDBRANCH   8   9
ENDBRANCH   7   8
ENDBRANCH   6   7
ENDBRANCH   5   6
ENDBRANCH   4   5
ENDBRANCH   3   4
ENDBRANCH   2   3
ENDBRANCH   1   2
BRANCH   1  12
ATOM     12  C   UNL     1       8.946 -13.396  28.733  1.00  0.00     0.000 C 
BRANCH  12  13
ATOM     13  C   UNL     1       8.315 -13.138  27.347  1.00  0.00    -0.000 C 
BRANCH  13  14
ATOM     14  C   UNL     1       9.077 -12.066  26.546  1.00  0.00    -0.000 C 
BRANCH  14  15
ATOM     15  C   UNL     1       8.972 -12.274  25.027  1.00  0.00    -0.000 C 
BRANCH  15  16
ATOM     16  C   UNL     1      10.348 -12.311  24.338  1.00  0.00    -0.000 C 
BRANCH  16  17
ATOM     17  C   UNL     1      11.509 -12.324  25.346  1.00  0.00    -0.000 C 
BRANCH  17  18
ATOM     18  C   UNL     1      12.762 -13.024  24.790  1.00  0.00    -0.000 C 
BRANCH  18  19
ATOM     19  C   UNL     1      13.783 -12.030  24.212  1.00  0.00    -0.003 C 
ATOM     20  C   UNL     1      13.929 -12.144  22.694  1.00  0.00     0.004 C 
ENDBRANCH  18  19
ENDBRANCH  17  18
ENDBRANCH  16  17
ENDBRANCH  15  16
ENDBRANCH  14  15
ENDBRANCH  13  14
ENDBRANCH  12  13
ENDBRANCH   1  12
TORSDOF 16
ENDMDL
MODEL 6
REMARK VINA RESULT:    -5.422      1.640      4.304
REMARK INTER + INTRA:         -11.889
REMARK INTER:                 -10.041
REMARK INTRA:                  -1.848
REMARK UNBOUND:                -1.396
REMARK SMILES CCCCCCCCCCCCCCCCCC(=O)[O-]
REMARK SMILES IDX 10 1 11 2 12 3 13 4 14 5 15 6 16 7 17 8 18 9 19 10 20 11
REMARK SMILES IDX 9 12 8 13 7 14 6 15 5 16 4 17 3 18 2 19 1 20
REMARK H PARENT
REMARK Flexibility Score: inf
ROOT
ATOM      1  C   UNL     1       8.923 -12.929  26.972  1.00  0.00     0.000 C 
ENDROOT
BRANCH   1   2
ATOM      2  C   UNL     1       8.696 -12.080  25.711  1.00  0.00     0.000 C 
BRANCH   2   3
ATOM      3  C   UNL     1       9.998 -11.497  25.141  1.00  0.00     0.000 C 
BRANCH   3   4
ATOM      4  C   UNL     1      10.832 -12.588  24.452  1.00  0.00     0.000 C 
BRANCH   4   5
ATOM      5  C   UNL     1      12.233 -12.746  25.069  1.00  0.00     0.000 C 
BRANCH   5   6
ATOM      6  C   UNL     1      13.340 -11.912  24.392  1.00  0.00     0.000 C 
BRANCH   6   7
ATOM      7  C   UNL     1      14.715 -12.614  24.353  1.00  0.00     0.006 C 
BRANCH   7   8
ATOM      8  C   UNL     1      15.882 -11.618  24.405  1.00  0.00     0.053 C 
BRANCH   8   9
ATOM      9  C   UNL     1      16.549 -11.524  23.068  1.00  0.00     0.041 C 
ATOM     10  O   UNL     1      16.567 -10.430  22.445  1.00  0.00    -0.550 OA
ATOM     11  O   UNL     1      17.191 -12.633  22.532  1.00  0.00    -0.550 OA
ENDBRANCH   8   9
ENDBRANCH   7   8
ENDBRANCH   6   7
ENDBRANCH   5   6
ENDBRANCH   4   5
ENDBRANCH   3   4
ENDBRANCH   2   3
ENDBRANCH   1   2
BRANCH   1  12
ATOM     12  C   UNL     1       8.576 -12.228  28.299  1.00  0.00     0.000 C 
BRANCH  12  13
ATOM     13  C   UNL     1       9.475 -12.648  29.482  1.00  0.00    -0.000 C 
BRANCH  13  14
ATOM     14  C   UNL     1      10.727 -13.419  29.023  1.00  0.00    -0.000 C 
BRANCH  14  15
ATOM     15  C   UNL     1      11.651 -13.799  30.191  1.00  0.00    -0.000 C 
BRANCH  15  16
ATOM     16  C   UNL     1      13.140 -13.600  29.858  1.00  0.00    -0.000 C 
BRANCH  16  17
ATOM     17  C   UNL     1      13.394 -13.502  28.344  1.00  0.00    -0.000 C 
BRANCH  17  18
ATOM     18  C   UNL     1      14.880 -13.278  28.012  1.00  0.00    -0.000 C 
BRANCH  18  19
ATOM     19  C   UNL     1      15.545 -14.529  27.416  1.00  0.00    -0.003 C 
ATOM     20  C   UNL     1      14.564 -15.409  26.639  1.00  0.00     0.004 C 
ENDBRANCH  18  19
ENDBRANCH  17  18
ENDBRANCH  16  17
ENDBRANCH  15  16
ENDBRANCH  14  15
ENDBRANCH  13  14
ENDBRANCH  12  13
ENDBRANCH   1  12
TORSDOF 16
ENDMDL
MODEL 7
REMARK VINA RESULT:    -5.401      1.398      4.125
REMARK INTER + INTRA:         -11.850
REMARK INTER:                  -9.857
REMARK INTRA:                  -1.994
REMARK UNBOUND:                -1.396
REMARK SMILES CCCCCCCCCCCCCCCCCC(=O)[O-]
REMARK SMILES IDX 10 1 11 2 12 3 13 4 14 5 15 6 16 7 17 8 18 9 19 10 20 11
REMARK SMILES IDX 9 12 8 13 7 14 6 15 5 16 4 17 3 18 2 19 1 20
REMARK H PARENT
REMARK Flexibility Score: inf
ROOT
ATOM      1  C   UNL     1      14.043 -12.305  23.681  1.00  0.00     0.000 C 
ENDROOT
BRANCH   1   2
ATOM      2  C   UNL     1      13.405 -11.883  25.015  1.00  0.00     0.000 C 
BRANCH   2   3
ATOM      3  C   UNL     1      14.255 -12.275  26.233  1.00  0.00     0.000 C 
BRANCH   3   4
ATOM      4  C   UNL     1      13.602 -13.428  27.009  1.00  0.00     0.000 C 
BRANCH   4   5
ATOM      5  C   UNL     1      14.529 -14.647  27.158  1.00  0.00     0.000 C 
BRANCH   5   6
ATOM      6  C   UNL     1      15.031 -15.250  25.830  1.00  0.00     0.000 C 
BRANCH   6   7
ATOM      7  C   UNL     1      16.569 -15.306  25.712  1.00  0.00     0.006 C 
BRANCH   7   8
ATOM      8  C   UNL     1      17.120 -14.261  24.731  1.00  0.00     0.053 C 
BRANCH   8   9
ATOM      9  C   UNL     1      17.183 -14.826  23.346  1.00  0.00     0.041 C 
ATOM     10  O   UNL     1      16.773 -14.150  22.366  1.00  0.00    -0.550 OA
ATOM     11  O   UNL     1      17.738 -16.082  23.133  1.00  0.00    -0.550 OA
ENDBRANCH   8   9
ENDBRANCH   7   8
ENDBRANCH   6   7
ENDBRANCH   5   6
ENDBRANCH   4   5
ENDBRANCH   3   4
ENDBRANCH   2   3
ENDBRANCH   1   2
BRANCH   1  12
ATOM     12  C   UNL     1      13.054 -12.833  22.626  1.00  0.00     0.000 C 
BRANCH  12  13
ATOM     13  C   UNL     1      11.701 -13.294  23.211  1.00  0.00    -0.000 C 
BRANCH  13  14
ATOM     14  C   UNL     1      10.507 -12.550  22.586  1.00  0.00    -0.000 C 
BRANCH  14  15
ATOM     15  C   UNL     1       9.359 -12.326  23.583  1.00  0.00    -0.000 C 
BRANCH  15  16
ATOM     16  C   UNL     1       9.565 -11.074  24.453  1.00  0.00    -0.000 C 
BRANCH  16  17
ATOM     17  C   UNL     1       8.986 -11.240  25.868  1.00  0.00    -0.000 C 
BRANCH  17  18
ATOM     18  C   UNL     1       9.491 -12.518  26.562  1.00  0.00    -0.000 C 
BRANCH  18  19
ATOM     19  C   UNL     1       9.039 -12.608  28.029  1.00  0.00    -0.003 C 
ATOM     20  C   UNL     1      10.182 -12.969  28.980  1.00  0.00     0.004 C 
ENDBRANCH  18  19
ENDBRANCH  17  18
ENDBRANCH  16  17
ENDBRANCH  15  16
ENDBRANCH  14  15
ENDBRANCH  13  14
ENDBRANCH  12  13
ENDBRANCH   1  12
TORSDOF 16
ENDMDL
MODEL 8
REMARK VINA RESULT:    -5.392      2.508      5.340
REMARK INTER + INTRA:         -11.831
REMARK INTER:                  -9.608
REMARK INTRA:                  -2.223
REMARK UNBOUND:                -1.396
REMARK SMILES CCCCCCCCCCCCCCCCCC(=O)[O-]
REMARK SMILES IDX 10 1 11 2 12 3 13 4 14 5 15 6 16 7 17 8 18 9 19 10 20 11
REMARK SMILES IDX 9 12 8 13 7 14 6 15 5 16 4 17 3 18 2 19 1 20
REMARK H PARENT
REMARK Flexibility Score: inf
ROOT
ATOM      1  C   UNL     1      15.724 -13.451  22.945  1.00  0.00     0.000 C 
ENDROOT
BRANCH   1   2
ATOM      2  C   UNL     1      16.250 -13.986  24.287  1.00  0.00     0.000 C 
BRANCH   2   3
ATOM      3  C   UNL     1      15.690 -15.373  24.637  1.00  0.00     0.000 C 
BRANCH   3   4
ATOM      4  C   UNL     1      14.399 -15.252  25.458  1.00  0.00     0.000 C 
BRANCH   4   5
ATOM      5  C   UNL     1      14.660 -15.187  26.973  1.00  0.00     0.000 C 
BRANCH   5   6
ATOM      6  C   UNL     1      14.597 -13.772  27.585  1.00  0.00     0.000 C 
BRANCH   6   7
ATOM      7  C   UNL     1      15.961 -13.244  28.078  1.00  0.00     0.006 C 
BRANCH   7   8
ATOM      8  C   UNL     1      16.222 -11.796  27.638  1.00  0.00     0.053 C 
BRANCH   8   9
ATOM      9  C   UNL     1      16.151 -10.872  28.813  1.00  0.00     0.041 C 
ATOM     10  O   UNL     1      15.914 -11.326  29.963  1.00  0.00    -0.550 OA
ATOM     11  O   UNL     1      16.391  -9.514  28.645  1.00  0.00    -0.550 OA
ENDBRANCH   8   9
ENDBRANCH   7   8
ENDBRANCH   6   7
ENDBRANCH   5   6
ENDBRANCH   4   5
ENDBRANCH   3   4
ENDBRANCH   2   3
ENDBRANCH   1   2
BRANCH   1  12
ATOM     12  C   UNL     1      14.762 -12.253  23.056  1.00  0.00     0.000 C 
BRANCH  12  13
ATOM     13  C   UNL     1      14.504 -11.790  24.506  1.00  0.00    -0.000 C 
BRANCH  13  14
ATOM     14  C   UNL     1      13.005 -11.772  24.858  1.00  0.00    -0.000 C 
BRANCH  14  15
ATOM     15  C   UNL     1      12.151 -12.575  23.863  1.00  0.00    -0.000 C 
BRANCH  15  16
ATOM     16  C   UNL     1      10.763 -12.931  24.426  1.00  0.00    -0.000 C 
BRANCH  16  17
ATOM     17  C   UNL     1       9.772 -11.759  24.326  1.00  0.00    -0.000 C 
BRANCH  17  18
ATOM     18  C   UNL     1       9.065 -11.473  25.662  1.00  0.00    -0.000 C 
BRANCH  18  19
ATOM     19  C   UNL     1       9.034 -12.701  26.586  1.00  0.00    -0.003 C 
ATOM     20  C   UNL     1       9.152 -12.334  28.066  1.00  0.00     0.004 C 
ENDBRANCH  18  19
ENDBRANCH  17  18
ENDBRANCH  16  17
ENDBRANCH  15  16
ENDBRANCH  14  15
ENDBRANCH  13  14
ENDBRANCH  12  13
ENDBRANCH   1  12
TORSDOF 16
ENDMDL
MODEL 9
REMARK VINA RESULT:    -5.367      2.984      5.025
REMARK INTER + INTRA:         -11.783
REMARK INTER:                 -10.618
REMARK INTRA:                  -1.166
REMARK UNBOUND:                -1.396
REMARK SMILES CCCCCCCCCCCCCCCCCC(=O)[O-]
REMARK SMILES IDX 10 1 11 2 12 3 13 4 14 5 15 6 16 7 17 8 18 9 19 10 20 11
REMARK SMILES IDX 9 12 8 13 7 14 6 15 5 16 4 17 3 18 2 19 1 20
REMARK H PARENT
REMARK Flexibility Score: inf
ROOT
ATOM      1  C   UNL     1      13.925 -13.136  25.539  1.00  0.00     0.000 C 
ENDROOT
BRANCH   1   2
ATOM      2  C   UNL     1      14.390 -14.580  25.787  1.00  0.00     0.000 C 
BRANCH   2   3
ATOM      3  C   UNL     1      14.931 -14.797  27.209  1.00  0.00     0.000 C 
BRANCH   3   4
ATOM      4  C   UNL     1      14.661 -13.570  28.092  1.00  0.00     0.000 C 
BRANCH   4   5
ATOM      5  C   UNL     1      15.942 -12.987  28.712  1.00  0.00     0.000 C 
BRANCH   5   6
ATOM      6  C   UNL     1      16.167 -11.484  28.450  1.00  0.00     0.000 C 
BRANCH   6   7
ATOM      7  C   UNL     1      16.233 -10.629  29.735  1.00  0.00     0.006 C 
BRANCH   7   8
ATOM      8  C   UNL     1      16.559  -9.157  29.443  1.00  0.00     0.053 C 
BRANCH   8   9
ATOM      9  C   UNL     1      18.041  -8.947  29.414  1.00  0.00     0.041 C 
ATOM     10  O   UNL     1      18.688  -8.848  30.490  1.00  0.00    -0.550 OA
ATOM     11  O   UNL     1      18.714  -8.907  28.199  1.00  0.00    -0.550 OA
ENDBRANCH   8   9
ENDBRANCH   7   8
ENDBRANCH   6   7
ENDBRANCH   5   6
ENDBRANCH   4   5
ENDBRANCH   3   4
ENDBRANCH   2   3
ENDBRANCH   1   2
BRANCH   1  12
ATOM     12  C   UNL     1      12.401 -12.925  25.596  1.00  0.00     0.000 C 
BRANCH  12  13
ATOM     13  C   UNL     1      11.876 -11.883  24.585  1.00  0.00    -0.000 C 
BRANCH  13  14
ATOM     14  C   UNL     1      10.518 -12.284  23.980  1.00  0.00    -0.000 C 
BRANCH  14  15
ATOM     15  C   UNL     1       9.375 -11.351  24.412  1.00  0.00    -0.000 C 
BRANCH  15  16
ATOM     16  C   UNL     1       8.915 -11.607  25.858  1.00  0.00    -0.000 C 
BRANCH  16  17
ATOM     17  C   UNL     1       8.354 -13.026  26.052  1.00  0.00    -0.000 C 
BRANCH  17  18
ATOM     18  C   UNL     1       8.201 -13.398  27.537  1.00  0.00    -0.000 C 
BRANCH  18  19
ATOM     19  C   UNL     1       8.952 -12.431  28.466  1.00  0.00    -0.003 C 
ATOM     20  C   UNL     1      10.187 -13.065  29.109  1.00  0.00     0.004 C 
ENDBRANCH  18  19
ENDBRANCH  17  18
ENDBRANCH  16  17
ENDBRANCH  15  16
ENDBRANCH  14  15
ENDBRANCH  13  14
ENDBRANCH  12  13
ENDBRANCH   1  12
TORSDOF 16
ENDMDL
