MODEL 1
REMARK VINA RESULT:    -2.220      0.000      0.000
REMARK INTER + INTRA:          -2.994
REMARK INTER:                  -2.674
REMARK INTRA:                  -0.320
REMARK UNBOUND:                -0.320
REMARK SMILES O=c1c(O)c(-c2ccc(O)c(O)c2)oc2cc(O)cc(O)c12
REMARK SMILES IDX 5 1 3 2 2 3 1 4 22 5 20 6 19 7 17 8 16 9 15 10 14 11 6 12
REMARK SMILES IDX 7 13 8 14 9 15 13 16 11 17 10 18 12 20 4 22 21 24 18 26
REMARK H PARENT 10 19 12 21 4 23 21 25 18 27
REMARK Flexibility Score: inf
ROOT
ATOM      1  C   UNL     1     -21.688 -15.622 -14.179  1.00  0.00     0.180 A 
ATOM      2  C   UNL     1     -22.357 -15.007 -15.251  1.00  0.00     0.208 A 
ATOM      3  C   UNL     1     -23.673 -15.396 -15.546  1.00  0.00     0.238 A 
ATOM      4  O   UNL     1     -24.239 -14.896 -16.552  1.00  0.00    -0.285 OA
ATOM      5  C   UNL     1     -24.325 -16.355 -14.731  1.00  0.00     0.111 A 
ATOM      6  C   UNL     1     -25.672 -16.792 -14.911  1.00  0.00     0.134 A 
ATOM      7  C   UNL     1     -26.175 -17.825 -14.109  1.00  0.00     0.093 A 
ATOM      8  C   UNL     1     -25.404 -18.391 -13.095  1.00  0.00     0.123 A 
ATOM      9  C   UNL     1     -24.105 -17.933 -12.875  1.00  0.00     0.094 A 
ATOM     10  C   UNL     1     -23.561 -16.932 -13.683  1.00  0.00     0.146 A 
ATOM     11  O   UNL     1     -22.313 -16.541 -13.454  1.00  0.00    -0.452 OA
ENDROOT
BRANCH   1  12
ATOM     12  C   UNL     1     -20.295 -15.275 -13.815  1.00  0.00     0.025 A 
ATOM     13  C   UNL     1     -20.057 -14.206 -12.941  1.00  0.00     0.016 A 
ATOM     14  C   UNL     1     -18.752 -13.875 -12.569  1.00  0.00     0.051 A 
ATOM     15  C   UNL     1     -17.664 -14.611 -13.048  1.00  0.00     0.157 A 
ATOM     16  C   UNL     1     -19.207 -16.031 -14.282  1.00  0.00     0.062 A 
ATOM     17  C   UNL     1     -17.894 -15.709 -13.911  1.00  0.00     0.158 A 
BRANCH  15  18
ATOM     18  O   UNL     1     -16.385 -14.224 -12.644  1.00  0.00    -0.504 OA
ATOM     19  H   UNL     1     -15.626 -14.869 -12.478  1.00  0.00     0.293 HD
ENDBRANCH  15  18
BRANCH  17  20
ATOM     20  O   UNL     1     -16.861 -16.502 -14.415  1.00  0.00    -0.504 OA
ATOM     21  H   UNL     1     -16.976 -17.464 -14.700  1.00  0.00     0.293 HD
ENDBRANCH  17  20
ENDBRANCH   1  12
BRANCH   2  22
ATOM     22  O   UNL     1     -21.724 -14.008 -15.995  1.00  0.00    -0.502 OA
ATOM     23  H   UNL     1     -20.807 -13.648 -15.753  1.00  0.00     0.293 HD
ENDBRANCH   2  22
BRANCH   6  24
ATOM     24  O   UNL     1     -26.560 -16.235 -15.836  1.00  0.00    -0.507 OA
ATOM     25  H   UNL     1     -27.516 -16.525 -15.967  1.00  0.00     0.293 HD
ENDBRANCH   6  24
BRANCH   8  26
ATOM     26  O   UNL     1     -25.944 -19.404 -12.305  1.00  0.00    -0.508 OA
ATOM     27  H   UNL     1     -25.464 -20.286 -12.174  1.00  0.00     0.293 HD
ENDBRANCH   8  26
TORSDOF 6
ENDMDL
