MODEL 1
REMARK VINA RESULT:    -1.616      0.000      0.000
REMARK INTER + INTRA:          -3.762
REMARK INTER:                  -2.939
REMARK INTRA:                  -0.824
REMARK UNBOUND:                -0.824
REMARK SMILES CCCCCCCCCCCCCCCC(=O)[O-]
REMARK SMILES IDX 9 1 10 2 11 3 12 4 13 5 14 6 15 7 16 8 17 9 18 10 8 11 7 12
REMARK SMILES IDX 6 13 5 14 4 15 3 16 2 17 1 18
REMARK H PARENT
REMARK Flexibility Score: inf
ROOT
ATOM      1  C   UNL     1       2.390  77.352   5.397  1.00  0.00     0.000 C 
ENDROOT
BRANCH   1   2
ATOM      2  C   UNL     1       3.777  76.790   5.035  1.00  0.00     0.000 C 
BRANCH   2   3
ATOM      3  C   UNL     1       4.529  77.562   3.932  1.00  0.00     0.000 C 
BRANCH   3   4
ATOM      4  C   UNL     1       5.405  76.701   3.005  1.00  0.00     0.000 C 
BRANCH   4   5
ATOM      5  C   UNL     1       5.758  77.411   1.687  1.00  0.00     0.000 C 
BRANCH   5   6
ATOM      6  C   UNL     1       6.424  76.471   0.665  1.00  0.00     0.006 C 
BRANCH   6   7
ATOM      7  C   UNL     1       6.226  74.974   0.955  1.00  0.00     0.053 C 
BRANCH   7   8
ATOM      8  C   UNL     1       5.229  74.350   0.028  1.00  0.00     0.041 C 
ATOM      9  O   UNL     1       5.441  73.207  -0.456  1.00  0.00    -0.550 OA
ATOM     10  O   UNL     1       4.051  75.019  -0.277  1.00  0.00    -0.550 OA
ENDBRANCH   7   8
ENDBRANCH   6   7
ENDBRANCH   5   6
ENDBRANCH   4   5
ENDBRANCH   3   4
ENDBRANCH   2   3
ENDBRANCH   1   2
BRANCH   1  11
ATOM     11  C   UNL     1       2.342  77.958   6.807  1.00  0.00     0.000 C 
BRANCH  11  12
ATOM     12  C   UNL     1       3.071  77.057   7.816  1.00  0.00    -0.000 C 
BRANCH  12  13
ATOM     13  C   UNL     1       4.156  77.806   8.606  1.00  0.00    -0.000 C 
BRANCH  13  14
ATOM     14  C   UNL     1       3.569  78.848   9.575  1.00  0.00    -0.000 C 
BRANCH  14  15
ATOM     15  C   UNL     1       3.043  78.214  10.874  1.00  0.00    -0.000 C 
BRANCH  15  16
ATOM     16  C   UNL     1       3.765  78.747  12.124  1.00  0.00    -0.000 C 
BRANCH  16  17
ATOM     17  C   UNL     1       5.290  78.811  11.941  1.00  0.00    -0.003 C 
ATOM     18  C   UNL     1       5.959  77.442  12.064  1.00  0.00     0.004 C 
ENDBRANCH  16  17
ENDBRANCH  15  16
ENDBRANCH  14  15
ENDBRANCH  13  14
ENDBRANCH  12  13
ENDBRANCH  11  12
ENDBRANCH   1  11
TORSDOF 14
ENDMDL
MODEL 2
REMARK VINA RESULT:    -1.560      4.190      9.325
REMARK INTER + INTRA:          -3.660
REMARK INTER:                  -3.443
REMARK INTRA:                  -0.217
REMARK UNBOUND:                -0.824
REMARK SMILES CCCCCCCCCCCCCCCC(=O)[O-]
REMARK SMILES IDX 9 1 10 2 11 3 12 4 13 5 14 6 15 7 16 8 17 9 18 10 8 11 7 12
REMARK SMILES IDX 6 13 5 14 4 15 3 16 2 17 1 18
REMARK H PARENT
REMARK Flexibility Score: inf
ROOT
ATOM      1  C   UNL     1       4.386  77.238   4.702  1.00  0.00     0.000 C 
ENDROOT
BRANCH   1   2
ATOM      2  C   UNL     1       2.931  76.862   5.039  1.00  0.00     0.000 C 
BRANCH   2   3
ATOM      3  C   UNL     1       2.032  78.041   5.462  1.00  0.00     0.000 C 
BRANCH   3   4
ATOM      4  C   UNL     1       1.963  78.306   6.977  1.00  0.00     0.000 C 
BRANCH   4   5
ATOM      5  C   UNL     1       2.753  77.275   7.800  1.00  0.00     0.000 C 
BRANCH   5   6
ATOM      6  C   UNL     1       3.927  77.906   8.573  1.00  0.00     0.006 C 
BRANCH   6   7
ATOM      7  C   UNL     1       3.512  78.707   9.818  1.00  0.00     0.053 C 
BRANCH   7   8
ATOM      8  C   UNL     1       3.802  77.964  11.085  1.00  0.00     0.041 C 
ATOM      9  O   UNL     1       4.963  77.537  11.318  1.00  0.00    -0.550 OA
ATOM     10  O   UNL     1       2.796  77.772  12.023  1.00  0.00    -0.550 OA
ENDBRANCH   7   8
ENDBRANCH   6   7
ENDBRANCH   5   6
ENDBRANCH   4   5
ENDBRANCH   3   4
ENDBRANCH   2   3
ENDBRANCH   1   2
BRANCH   1  11
ATOM     11  C   UNL     1       4.887  76.582   3.408  1.00  0.00     0.000 C 
BRANCH  11  12
ATOM     12  C   UNL     1       5.772  77.551   2.609  1.00  0.00    -0.000 C 
BRANCH  12  13
ATOM     13  C   UNL     1       5.732  77.284   1.096  1.00  0.00    -0.000 C 
BRANCH  13  14
ATOM     14  C   UNL     1       6.900  76.404   0.619  1.00  0.00    -0.000 C 
BRANCH  14  15
ATOM     15  C   UNL     1       6.562  74.904   0.657  1.00  0.00    -0.000 C 
BRANCH  15  16
ATOM     16  C   UNL     1       5.071  74.641   0.934  1.00  0.00    -0.000 C 
BRANCH  16  17
ATOM     17  C   UNL     1       4.222  74.661  -0.348  1.00  0.00    -0.003 C 
ATOM     18  C   UNL     1       4.609  73.556  -1.332  1.00  0.00     0.004 C 
ENDBRANCH  16  17
ENDBRANCH  15  16
ENDBRANCH  14  15
ENDBRANCH  13  14
ENDBRANCH  12  13
ENDBRANCH  11  12
ENDBRANCH   1  11
TORSDOF 14
ENDMDL
MODEL 3
REMARK VINA RESULT:    -0.596      1.079      2.142
REMARK INTER + INTRA:          -1.907
REMARK INTER:                  -1.307
REMARK INTRA:                  -0.600
REMARK UNBOUND:                -0.824
REMARK SMILES CCCCCCCCCCCCCCCC(=O)[O-]
REMARK SMILES IDX 9 1 10 2 11 3 12 4 13 5 14 6 15 7 16 8 17 9 18 10 8 11 7 12
REMARK SMILES IDX 6 13 5 14 4 15 3 16 2 17 1 18
REMARK H PARENT
REMARK Flexibility Score: inf
ROOT
ATOM      1  C   UNL     1       4.063  76.664   4.119  1.00  0.00     0.000 C 
ENDROOT
BRANCH   1   2
ATOM      2  C   UNL     1       5.337  77.184   3.426  1.00  0.00     0.000 C 
BRANCH   2   3
ATOM      3  C   UNL     1       5.192  77.466   1.917  1.00  0.00     0.000 C 
BRANCH   3   4
ATOM      4  C   UNL     1       6.515  77.552   1.134  1.00  0.00     0.000 C 
BRANCH   4   5
ATOM      5  C   UNL     1       6.696  76.394   0.138  1.00  0.00     0.000 C 
BRANCH   5   6
ATOM      6  C   UNL     1       6.914  75.038   0.836  1.00  0.00     0.006 C 
BRANCH   6   7
ATOM      7  C   UNL     1       5.633  74.215   1.042  1.00  0.00     0.053 C 
BRANCH   7   8
ATOM      8  C   UNL     1       4.749  74.240  -0.168  1.00  0.00     0.041 C 
ATOM      9  O   UNL     1       3.809  75.073  -0.249  1.00  0.00    -0.550 OA
ATOM     10  O   UNL     1       4.985  73.362  -1.218  1.00  0.00    -0.550 OA
ENDBRANCH   7   8
ENDBRANCH   6   7
ENDBRANCH   5   6
ENDBRANCH   4   5
ENDBRANCH   3   4
ENDBRANCH   2   3
ENDBRANCH   1   2
BRANCH   1  11
ATOM     11  C   UNL     1       3.922  77.169   5.562  1.00  0.00     0.000 C 
BRANCH  11  12
ATOM     12  C   UNL     1       2.445  77.402   5.918  1.00  0.00    -0.000 C 
BRANCH  12  13
ATOM     13  C   UNL     1       2.262  78.065   7.293  1.00  0.00    -0.000 C 
BRANCH  13  14
ATOM     14  C   UNL     1       3.555  78.060   8.128  1.00  0.00    -0.000 C 
BRANCH  14  15
ATOM     15  C   UNL     1       3.339  78.596   9.553  1.00  0.00    -0.000 C 
BRANCH  15  16
ATOM     16  C   UNL     1       3.858  77.629  10.632  1.00  0.00    -0.000 C 
BRANCH  16  17
ATOM     17  C   UNL     1       3.144  77.814  11.981  1.00  0.00    -0.003 C 
ATOM     18  C   UNL     1       2.305  79.092  12.037  1.00  0.00     0.004 C 
ENDBRANCH  16  17
ENDBRANCH  15  16
ENDBRANCH  14  15
ENDBRANCH  13  14
ENDBRANCH  12  13
ENDBRANCH  11  12
ENDBRANCH   1  11
TORSDOF 14
ENDMDL
MODEL 4
REMARK VINA RESULT:    -0.391      4.383      9.358
REMARK INTER + INTRA:          -1.535
REMARK INTER:                  -0.703
REMARK INTRA:                  -0.832
REMARK UNBOUND:                -0.824
REMARK SMILES CCCCCCCCCCCCCCCC(=O)[O-]
REMARK SMILES IDX 9 1 10 2 11 3 12 4 13 5 14 6 15 7 16 8 17 9 18 10 8 11 7 12
REMARK SMILES IDX 6 13 5 14 4 15 3 16 2 17 1 18
REMARK H PARENT
REMARK Flexibility Score: inf
ROOT
ATOM      1  C   UNL     1       3.304  76.763   4.919  1.00  0.00     0.000 C 
ENDROOT
BRANCH   1   2
ATOM      2  C   UNL     1       2.081  77.665   5.163  1.00  0.00     0.000 C 
BRANCH   2   3
ATOM      3  C   UNL     1       1.631  77.774   6.634  1.00  0.00     0.000 C 
BRANCH   3   4
ATOM      4  C   UNL     1       2.452  78.744   7.504  1.00  0.00     0.000 C 
BRANCH   4   5
ATOM      5  C   UNL     1       3.513  78.027   8.357  1.00  0.00     0.000 C 
BRANCH   5   6
ATOM      6  C   UNL     1       3.517  78.502   9.822  1.00  0.00     0.006 C 
BRANCH   6   7
ATOM      7  C   UNL     1       3.935  77.427  10.838  1.00  0.00     0.053 C 
BRANCH   7   8
ATOM      8  C   UNL     1       5.109  77.859  11.662  1.00  0.00     0.041 C 
ATOM      9  O   UNL     1       5.263  79.073  11.959  1.00  0.00    -0.550 OA
ATOM     10  O   UNL     1       6.017  76.916  12.125  1.00  0.00    -0.550 OA
ENDBRANCH   7   8
ENDBRANCH   6   7
ENDBRANCH   5   6
ENDBRANCH   4   5
ENDBRANCH   3   4
ENDBRANCH   2   3
ENDBRANCH   1   2
BRANCH   1  11
ATOM     11  C   UNL     1       4.553  77.552   4.501  1.00  0.00     0.000 C 
BRANCH  11  12
ATOM     12  C   UNL     1       5.161  76.974   3.214  1.00  0.00    -0.000 C 
BRANCH  12  13
ATOM     13  C   UNL     1       5.330  78.029   2.109  1.00  0.00    -0.000 C 
BRANCH  13  14
ATOM     14  C   UNL     1       6.140  77.505   0.910  1.00  0.00    -0.000 C 
BRANCH  14  15
ATOM     15  C   UNL     1       6.851  76.176   1.214  1.00  0.00    -0.000 C 
BRANCH  15  16
ATOM     16  C   UNL     1       6.508  75.076   0.194  1.00  0.00    -0.000 C 
BRANCH  16  17
ATOM     17  C   UNL     1       5.135  74.436   0.459  1.00  0.00    -0.003 C 
ATOM     18  C   UNL     1       4.424  74.007  -0.825  1.00  0.00     0.004 C 
ENDBRANCH  16  17
ENDBRANCH  15  16
ENDBRANCH  14  15
ENDBRANCH  13  14
ENDBRANCH  12  13
ENDBRANCH  11  12
ENDBRANCH   1  11
TORSDOF 14
ENDMDL
MODEL 5
REMARK VINA RESULT:     0.399     19.651     22.208
REMARK INTER + INTRA:          -0.098
REMARK INTER:                   0.588
REMARK INTRA:                  -0.686
REMARK UNBOUND:                -0.824
REMARK SMILES CCCCCCCCCCCCCCCC(=O)[O-]
REMARK SMILES IDX 9 1 10 2 11 3 12 4 13 5 14 6 15 7 16 8 17 9 18 10 8 11 7 12
REMARK SMILES IDX 6 13 5 14 4 15 3 16 2 17 1 18
REMARK H PARENT
REMARK Flexibility Score: inf
ROOT
ATOM      1  C   UNL     1       1.558  60.965  -4.385  1.00  0.00     0.000 C 
ENDROOT
BRANCH   1   2
ATOM      2  C   UNL     1       0.828  60.073  -3.364  1.00  0.00     0.000 C 
BRANCH   2   3
ATOM      3  C   UNL     1      -0.447  60.687  -2.752  1.00  0.00     0.000 C 
BRANCH   3   4
ATOM      4  C   UNL     1      -1.766  60.004  -3.156  1.00  0.00     0.000 C 
BRANCH   4   5
ATOM      5  C   UNL     1      -1.570  58.904  -4.213  1.00  0.00     0.000 C 
BRANCH   5   6
ATOM      6  C   UNL     1      -2.193  59.270  -5.573  1.00  0.00     0.006 C 
BRANCH   6   7
ATOM      7  C   UNL     1      -3.545  59.995  -5.480  1.00  0.00     0.053 C 
BRANCH   7   8
ATOM      8  C   UNL     1      -4.221  60.097  -6.813  1.00  0.00     0.041 C 
ATOM      9  O   UNL     1      -4.198  61.180  -7.454  1.00  0.00    -0.550 OA
ATOM     10  O   UNL     1      -4.850  58.986  -7.359  1.00  0.00    -0.550 OA
ENDBRANCH   7   8
ENDBRANCH   6   7
ENDBRANCH   5   6
ENDBRANCH   4   5
ENDBRANCH   3   4
ENDBRANCH   2   3
ENDBRANCH   1   2
BRANCH   1  11
ATOM     11  C   UNL     1       2.801  60.292  -4.984  1.00  0.00     0.000 C 
BRANCH  11  12
ATOM     12  C   UNL     1       2.462  58.891  -5.517  1.00  0.00    -0.000 C 
BRANCH  12  13
ATOM     13  C   UNL     1       1.271  58.897  -6.489  1.00  0.00    -0.000 C 
BRANCH  13  14
ATOM     14  C   UNL     1       1.711  58.883  -7.964  1.00  0.00    -0.000 C 
BRANCH  14  15
ATOM     15  C   UNL     1       3.241  58.905  -8.123  1.00  0.00    -0.000 C 
BRANCH  15  16
ATOM     16  C   UNL     1       3.824  60.325  -8.022  1.00  0.00    -0.000 C 
BRANCH  16  17
ATOM     17  C   UNL     1       5.347  60.322  -7.814  1.00  0.00    -0.003 C 
ATOM     18  C   UNL     1       5.964  58.931  -7.968  1.00  0.00     0.004 C 
ENDBRANCH  16  17
ENDBRANCH  15  16
ENDBRANCH  14  15
ENDBRANCH  13  14
ENDBRANCH  12  13
ENDBRANCH  11  12
ENDBRANCH   1  11
TORSDOF 14
ENDMDL
