MODEL 1
REMARK VINA RESULT:    -4.500      0.000      0.000
REMARK INTER + INTRA:         -10.138
REMARK INTER:                  -8.183
REMARK INTRA:                  -1.956
REMARK UNBOUND:                -1.956
REMARK SMILES CCCCCCCCCCCCCCCC(=O)[O-]
REMARK SMILES IDX 9 1 10 2 11 3 12 4 13 5 14 6 15 7 16 8 17 9 18 10 8 11 7 12
REMARK SMILES IDX 6 13 5 14 4 15 3 16 2 17 1 18
REMARK H PARENT
REMARK Flexibility Score: inf
ROOT
ATOM      1  C   UNL     1      -5.064  -6.654   7.283  1.00  0.00     0.000 C 
ENDROOT
BRANCH   1   2
ATOM      2  C   UNL     1      -4.685  -5.822   6.047  1.00  0.00     0.000 C 
BRANCH   2   3
ATOM      3  C   UNL     1      -5.137  -6.470   4.722  1.00  0.00     0.000 C 
BRANCH   3   4
ATOM      4  C   UNL     1      -6.128  -7.640   4.874  1.00  0.00     0.000 C 
BRANCH   4   5
ATOM      5  C   UNL     1      -5.584  -8.967   4.316  1.00  0.00     0.000 C 
BRANCH   5   6
ATOM      6  C   UNL     1      -4.266  -9.384   4.988  1.00  0.00     0.006 C 
BRANCH   6   7
ATOM      7  C   UNL     1      -3.125  -9.550   3.975  1.00  0.00     0.053 C 
BRANCH   7   8
ATOM      8  C   UNL     1      -1.942  -8.726   4.378  1.00  0.00     0.041 C 
ATOM      9  O   UNL     1      -1.970  -8.056   5.445  1.00  0.00    -0.550 OA
ATOM     10  O   UNL     1      -0.791  -8.736   3.601  1.00  0.00    -0.550 OA
ENDBRANCH   7   8
ENDBRANCH   6   7
ENDBRANCH   5   6
ENDBRANCH   4   5
ENDBRANCH   3   4
ENDBRANCH   2   3
ENDBRANCH   1   2
BRANCH   1  11
ATOM     11  C   UNL     1      -4.889  -5.888   8.605  1.00  0.00     0.000 C 
BRANCH  11  12
ATOM     12  C   UNL     1      -4.298  -4.469   8.466  1.00  0.00    -0.000 C 
BRANCH  12  13
ATOM     13  C   UNL     1      -4.836  -3.428   9.464  1.00  0.00    -0.000 C 
BRANCH  13  14
ATOM     14  C   UNL     1      -6.025  -2.622   8.920  1.00  0.00    -0.000 C 
BRANCH  14  15
ATOM     15  C   UNL     1      -5.947  -2.502   7.391  1.00  0.00    -0.000 C 
BRANCH  15  16
ATOM     16  C   UNL     1      -7.334  -2.508   6.730  1.00  0.00    -0.000 C 
BRANCH  16  17
ATOM     17  C   UNL     1      -7.728  -3.899   6.212  1.00  0.00    -0.003 C 
ATOM     18  C   UNL     1      -7.874  -3.900   4.693  1.00  0.00     0.004 C 
ENDBRANCH  16  17
ENDBRANCH  15  16
ENDBRANCH  14  15
ENDBRANCH  13  14
ENDBRANCH  12  13
ENDBRANCH  11  12
ENDBRANCH   1  11
TORSDOF 14
ENDMDL
MODEL 2
REMARK VINA RESULT:    -4.387      3.461      7.123
REMARK INTER + INTRA:          -9.934
REMARK INTER:                  -8.013
REMARK INTRA:                  -1.921
REMARK UNBOUND:                -1.956
REMARK SMILES CCCCCCCCCCCCCCCC(=O)[O-]
REMARK SMILES IDX 9 1 10 2 11 3 12 4 13 5 14 6 15 7 16 8 17 9 18 10 8 11 7 12
REMARK SMILES IDX 6 13 5 14 4 15 3 16 2 17 1 18
REMARK H PARENT
REMARK Flexibility Score: inf
ROOT
ATOM      1  C   UNL     1      -5.241  -5.992   8.288  1.00  0.00     0.000 C 
ENDROOT
BRANCH   1   2
ATOM      2  C   UNL     1      -4.191  -4.890   8.070  1.00  0.00     0.000 C 
BRANCH   2   3
ATOM      3  C   UNL     1      -4.486  -3.608   8.875  1.00  0.00     0.000 C 
BRANCH   3   4
ATOM      4  C   UNL     1      -5.937  -3.475   9.378  1.00  0.00     0.000 C 
BRANCH   4   5
ATOM      5  C   UNL     1      -6.652  -2.226   8.834  1.00  0.00     0.000 C 
BRANCH   5   6
ATOM      6  C   UNL     1      -6.206  -1.877   7.405  1.00  0.00     0.006 C 
BRANCH   6   7
ATOM      7  C   UNL     1      -7.291  -2.187   6.365  1.00  0.00     0.053 C 
BRANCH   7   8
ATOM      8  C   UNL     1      -7.802  -0.923   5.748  1.00  0.00     0.041 C 
ATOM      9  O   UNL     1      -7.429  -0.586   4.592  1.00  0.00    -0.550 OA
ATOM     10  O   UNL     1      -8.728  -0.143   6.428  1.00  0.00    -0.550 OA
ENDBRANCH   7   8
ENDBRANCH   6   7
ENDBRANCH   5   6
ENDBRANCH   4   5
ENDBRANCH   3   4
ENDBRANCH   2   3
ENDBRANCH   1   2
BRANCH   1  11
ATOM     11  C   UNL     1      -5.999  -6.367   7.003  1.00  0.00     0.000 C 
BRANCH  11  12
ATOM     12  C   UNL     1      -5.629  -5.535   5.757  1.00  0.00    -0.000 C 
BRANCH  12  13
ATOM     13  C   UNL     1      -5.601  -6.311   4.429  1.00  0.00    -0.000 C 
BRANCH  13  14
ATOM     14  C   UNL     1      -5.884  -7.812   4.595  1.00  0.00    -0.000 C 
BRANCH  14  15
ATOM     15  C   UNL     1      -4.861  -8.649   3.814  1.00  0.00    -0.000 C 
BRANCH  15  16
ATOM     16  C   UNL     1      -3.829  -9.324   4.731  1.00  0.00    -0.000 C 
BRANCH  16  17
ATOM     17  C   UNL     1      -2.721  -8.357   5.174  1.00  0.00    -0.003 C 
ATOM     18  C   UNL     1      -2.678  -8.230   6.694  1.00  0.00     0.004 C 
ENDBRANCH  16  17
ENDBRANCH  15  16
ENDBRANCH  14  15
ENDBRANCH  13  14
ENDBRANCH  12  13
ENDBRANCH  11  12
ENDBRANCH   1  11
TORSDOF 14
ENDMDL
MODEL 3
REMARK VINA RESULT:    -4.284      2.687      6.145
REMARK INTER + INTRA:          -9.747
REMARK INTER:                  -7.892
REMARK INTRA:                  -1.855
REMARK UNBOUND:                -1.956
REMARK SMILES CCCCCCCCCCCCCCCC(=O)[O-]
REMARK SMILES IDX 9 1 10 2 11 3 12 4 13 5 14 6 15 7 16 8 17 9 18 10 8 11 7 12
REMARK SMILES IDX 6 13 5 14 4 15 3 16 2 17 1 18
REMARK H PARENT
REMARK Flexibility Score: inf
ROOT
ATOM      1  C   UNL     1      -3.574  -6.713   5.875  1.00  0.00     0.000 C 
ENDROOT
BRANCH   1   2
ATOM      2  C   UNL     1      -4.275  -6.900   7.231  1.00  0.00     0.000 C 
BRANCH   2   3
ATOM      3  C   UNL     1      -4.300  -5.612   8.079  1.00  0.00     0.000 C 
BRANCH   3   4
ATOM      4  C   UNL     1      -5.262  -5.643   9.283  1.00  0.00     0.000 C 
BRANCH   4   5
ATOM      5  C   UNL     1      -5.595  -4.242   9.825  1.00  0.00     0.000 C 
BRANCH   5   6
ATOM      6  C   UNL     1      -5.347  -3.140   8.782  1.00  0.00     0.006 C 
BRANCH   6   7
ATOM      7  C   UNL     1      -6.643  -2.692   8.092  1.00  0.00     0.053 C 
BRANCH   7   8
ATOM      8  C   UNL     1      -6.411  -2.480   6.629  1.00  0.00     0.041 C 
ATOM      9  O   UNL     1      -6.951  -1.508   6.035  1.00  0.00    -0.550 OA
ATOM     10  O   UNL     1      -5.560  -3.327   5.930  1.00  0.00    -0.550 OA
ENDBRANCH   7   8
ENDBRANCH   6   7
ENDBRANCH   5   6
ENDBRANCH   4   5
ENDBRANCH   3   4
ENDBRANCH   2   3
ENDBRANCH   1   2
BRANCH   1  11
ATOM     11  C   UNL     1      -2.623  -7.869   5.521  1.00  0.00     0.000 C 
BRANCH  11  12
ATOM     12  C   UNL     1      -3.301  -9.109   4.902  1.00  0.00    -0.000 C 
BRANCH  12  13
ATOM     13  C   UNL     1      -4.611  -8.836   4.142  1.00  0.00    -0.000 C 
BRANCH  13  14
ATOM     14  C   UNL     1      -5.842  -9.472   4.805  1.00  0.00    -0.000 C 
BRANCH  14  15
ATOM     15  C   UNL     1      -7.089  -8.601   4.590  1.00  0.00    -0.000 C 
BRANCH  15  16
ATOM     16  C   UNL     1      -7.536  -7.888   5.875  1.00  0.00    -0.000 C 
BRANCH  16  17
ATOM     17  C   UNL     1      -7.563  -6.360   5.715  1.00  0.00    -0.003 C 
ATOM     18  C   UNL     1      -7.037  -5.941   4.345  1.00  0.00     0.004 C 
ENDBRANCH  16  17
ENDBRANCH  15  16
ENDBRANCH  14  15
ENDBRANCH  13  14
ENDBRANCH  12  13
ENDBRANCH  11  12
ENDBRANCH   1  11
TORSDOF 14
ENDMDL
MODEL 4
REMARK VINA RESULT:    -4.248      1.227      2.704
REMARK INTER + INTRA:          -9.681
REMARK INTER:                  -7.847
REMARK INTRA:                  -1.834
REMARK UNBOUND:                -1.956
REMARK SMILES CCCCCCCCCCCCCCCC(=O)[O-]
REMARK SMILES IDX 9 1 10 2 11 3 12 4 13 5 14 6 15 7 16 8 17 9 18 10 8 11 7 12
REMARK SMILES IDX 6 13 5 14 4 15 3 16 2 17 1 18
REMARK H PARENT
REMARK Flexibility Score: inf
ROOT
ATOM      1  C   UNL     1      -5.634  -4.642   9.967  1.00  0.00     0.000 C 
ENDROOT
BRANCH   1   2
ATOM      2  C   UNL     1      -5.263  -5.655   8.871  1.00  0.00     0.000 C 
BRANCH   2   3
ATOM      3  C   UNL     1      -4.301  -5.075   7.815  1.00  0.00     0.000 C 
BRANCH   3   4
ATOM      4  C   UNL     1      -3.908  -6.049   6.686  1.00  0.00     0.000 C 
BRANCH   4   5
ATOM      5  C   UNL     1      -4.401  -7.486   6.932  1.00  0.00     0.000 C 
BRANCH   5   6
ATOM      6  C   UNL     1      -3.291  -8.527   6.716  1.00  0.00     0.006 C 
BRANCH   6   7
ATOM      7  C   UNL     1      -3.517  -9.364   5.449  1.00  0.00     0.053 C 
BRANCH   7   8
ATOM      8  C   UNL     1      -2.455  -9.077   4.435  1.00  0.00     0.041 C 
ATOM      9  O   UNL     1      -1.523  -8.272   4.703  1.00  0.00    -0.550 OA
ATOM     10  O   UNL     1      -2.466  -9.735   3.212  1.00  0.00    -0.550 OA
ENDBRANCH   7   8
ENDBRANCH   6   7
ENDBRANCH   5   6
ENDBRANCH   4   5
ENDBRANCH   3   4
ENDBRANCH   2   3
ENDBRANCH   1   2
BRANCH   1  11
ATOM     11  C   UNL     1      -5.374  -3.183   9.555  1.00  0.00     0.000 C 
BRANCH  11  12
ATOM     12  C   UNL     1      -6.628  -2.386   9.140  1.00  0.00    -0.000 C 
BRANCH  12  13
ATOM     13  C   UNL     1      -6.782  -2.138   7.629  1.00  0.00    -0.000 C 
BRANCH  13  14
ATOM     14  C   UNL     1      -7.519  -3.272   6.899  1.00  0.00    -0.000 C 
BRANCH  14  15
ATOM     15  C   UNL     1      -6.705  -3.763   5.693  1.00  0.00    -0.000 C 
BRANCH  15  16
ATOM     16  C   UNL     1      -7.544  -4.611   4.724  1.00  0.00    -0.000 C 
BRANCH  16  17
ATOM     17  C   UNL     1      -6.957  -6.017   4.522  1.00  0.00    -0.003 C 
ATOM     18  C   UNL     1      -7.686  -7.045   5.382  1.00  0.00     0.004 C 
ENDBRANCH  16  17
ENDBRANCH  15  16
ENDBRANCH  14  15
ENDBRANCH  13  14
ENDBRANCH  12  13
ENDBRANCH  11  12
ENDBRANCH   1  11
TORSDOF 14
ENDMDL
MODEL 5
REMARK VINA RESULT:    -4.240      0.915      1.619
REMARK INTER + INTRA:          -9.667
REMARK INTER:                  -7.965
REMARK INTRA:                  -1.702
REMARK UNBOUND:                -1.956
REMARK SMILES CCCCCCCCCCCCCCCC(=O)[O-]
REMARK SMILES IDX 9 1 10 2 11 3 12 4 13 5 14 6 15 7 16 8 17 9 18 10 8 11 7 12
REMARK SMILES IDX 6 13 5 14 4 15 3 16 2 17 1 18
REMARK H PARENT
REMARK Flexibility Score: inf
ROOT
ATOM      1  C   UNL     1      -4.127  -4.849   8.069  1.00  0.00     0.000 C 
ENDROOT
BRANCH   1   2
ATOM      2  C   UNL     1      -4.695  -6.277   8.123  1.00  0.00     0.000 C 
BRANCH   2   3
ATOM      3  C   UNL     1      -5.669  -6.582   6.966  1.00  0.00     0.000 C 
BRANCH   3   4
ATOM      4  C   UNL     1      -5.122  -6.282   5.557  1.00  0.00     0.000 C 
BRANCH   4   5
ATOM      5  C   UNL     1      -5.152  -7.506   4.626  1.00  0.00     0.000 C 
BRANCH   5   6
ATOM      6  C   UNL     1      -4.454  -8.727   5.246  1.00  0.00     0.006 C 
BRANCH   6   7
ATOM      7  C   UNL     1      -3.350  -9.289   4.339  1.00  0.00     0.053 C 
BRANCH   7   8
ATOM      8  C   UNL     1      -2.038  -8.636   4.646  1.00  0.00     0.041 C 
ATOM      9  O   UNL     1      -1.884  -7.997   5.721  1.00  0.00    -0.550 OA
ATOM     10  O   UNL     1      -0.971  -8.775   3.769  1.00  0.00    -0.550 OA
ENDBRANCH   7   8
ENDBRANCH   6   7
ENDBRANCH   5   6
ENDBRANCH   4   5
ENDBRANCH   3   4
ENDBRANCH   2   3
ENDBRANCH   1   2
BRANCH   1  11
ATOM     11  C   UNL     1      -4.827  -3.883   9.039  1.00  0.00     0.000 C 
BRANCH  11  12
ATOM     12  C   UNL     1      -6.099  -4.439   9.713  1.00  0.00    -0.000 C 
BRANCH  12  13
ATOM     13  C   UNL     1      -7.430  -3.975   9.096  1.00  0.00    -0.000 C 
BRANCH  13  14
ATOM     14  C   UNL     1      -7.448  -2.481   8.739  1.00  0.00    -0.000 C 
BRANCH  14  15
ATOM     15  C   UNL     1      -7.842  -2.276   7.269  1.00  0.00    -0.000 C 
BRANCH  15  16
ATOM     16  C   UNL     1      -7.417  -3.452   6.377  1.00  0.00    -0.000 C 
BRANCH  16  17
ATOM     17  C   UNL     1      -7.873  -3.274   4.921  1.00  0.00    -0.003 C 
ATOM     18  C   UNL     1      -8.246  -4.614   4.294  1.00  0.00     0.004 C 
ENDBRANCH  16  17
ENDBRANCH  15  16
ENDBRANCH  14  15
ENDBRANCH  13  14
ENDBRANCH  12  13
ENDBRANCH  11  12
ENDBRANCH   1  11
TORSDOF 14
ENDMDL
MODEL 6
REMARK VINA RESULT:    -4.215      1.288      3.294
REMARK INTER + INTRA:          -9.621
REMARK INTER:                  -7.842
REMARK INTRA:                  -1.778
REMARK UNBOUND:                -1.956
REMARK SMILES CCCCCCCCCCCCCCCC(=O)[O-]
REMARK SMILES IDX 9 1 10 2 11 3 12 4 13 5 14 6 15 7 16 8 17 9 18 10 8 11 7 12
REMARK SMILES IDX 6 13 5 14 4 15 3 16 2 17 1 18
REMARK H PARENT
REMARK Flexibility Score: inf
ROOT
ATOM      1  C   UNL     1      -7.896  -4.127   4.372  1.00  0.00     0.000 C 
ENDROOT
BRANCH   1   2
ATOM      2  C   UNL     1      -7.592  -5.631   4.256  1.00  0.00     0.000 C 
BRANCH   2   3
ATOM      3  C   UNL     1      -6.218  -6.015   4.841  1.00  0.00     0.000 C 
BRANCH   3   4
ATOM      4  C   UNL     1      -6.164  -7.393   5.529  1.00  0.00     0.000 C 
BRANCH   4   5
ATOM      5  C   UNL     1      -5.505  -8.476   4.658  1.00  0.00     0.000 C 
BRANCH   5   6
ATOM      6  C   UNL     1      -4.545  -9.366   5.463  1.00  0.00     0.006 C 
BRANCH   6   7
ATOM      7  C   UNL     1      -3.633  -8.548   6.389  1.00  0.00     0.053 C 
BRANCH   7   8
ATOM      8  C   UNL     1      -2.651  -7.752   5.588  1.00  0.00     0.041 C 
ATOM      9  O   UNL     1      -2.702  -6.493   5.593  1.00  0.00    -0.550 OA
ATOM     10  O   UNL     1      -1.650  -8.398   4.875  1.00  0.00    -0.550 OA
ENDBRANCH   7   8
ENDBRANCH   6   7
ENDBRANCH   5   6
ENDBRANCH   4   5
ENDBRANCH   3   4
ENDBRANCH   2   3
ENDBRANCH   1   2
BRANCH   1  11
ATOM     11  C   UNL     1      -9.215  -3.832   5.106  1.00  0.00     0.000 C 
BRANCH  11  12
ATOM     12  C   UNL     1      -9.094  -2.880   6.315  1.00  0.00    -0.000 C 
BRANCH  12  13
ATOM     13  C   UNL     1      -8.102  -1.716   6.142  1.00  0.00    -0.000 C 
BRANCH  13  14
ATOM     14  C   UNL     1      -7.062  -1.631   7.269  1.00  0.00    -0.000 C 
BRANCH  14  15
ATOM     15  C   UNL     1      -5.907  -2.612   7.018  1.00  0.00    -0.000 C 
BRANCH  15  16
ATOM     16  C   UNL     1      -5.933  -3.810   7.981  1.00  0.00    -0.000 C 
BRANCH  16  17
ATOM     17  C   UNL     1      -4.652  -4.654   7.896  1.00  0.00    -0.003 C 
ATOM     18  C   UNL     1      -4.792  -5.946   8.696  1.00  0.00     0.004 C 
ENDBRANCH  16  17
ENDBRANCH  15  16
ENDBRANCH  14  15
ENDBRANCH  13  14
ENDBRANCH  12  13
ENDBRANCH  11  12
ENDBRANCH   1  11
TORSDOF 14
ENDMDL
MODEL 7
REMARK VINA RESULT:    -4.161      1.697      4.040
REMARK INTER + INTRA:          -9.523
REMARK INTER:                  -7.268
REMARK INTRA:                  -2.255
REMARK UNBOUND:                -1.956
REMARK SMILES CCCCCCCCCCCCCCCC(=O)[O-]
REMARK SMILES IDX 9 1 10 2 11 3 12 4 13 5 14 6 15 7 16 8 17 9 18 10 8 11 7 12
REMARK SMILES IDX 6 13 5 14 4 15 3 16 2 17 1 18
REMARK H PARENT
REMARK Flexibility Score: inf
ROOT
ATOM      1  C   UNL     1      -6.979  -2.025   8.297  1.00  0.00     0.000 C 
ENDROOT
BRANCH   1   2
ATOM      2  C   UNL     1      -5.866  -3.082   8.395  1.00  0.00     0.000 C 
BRANCH   2   3
ATOM      3  C   UNL     1      -6.313  -4.361   9.132  1.00  0.00     0.000 C 
BRANCH   3   4
ATOM      4  C   UNL     1      -5.292  -5.516   9.109  1.00  0.00     0.000 C 
BRANCH   4   5
ATOM      5  C   UNL     1      -4.383  -5.492   7.869  1.00  0.00     0.000 C 
BRANCH   5   6
ATOM      6  C   UNL     1      -4.211  -6.887   7.246  1.00  0.00     0.006 C 
BRANCH   6   7
ATOM      7  C   UNL     1      -3.390  -6.847   5.950  1.00  0.00     0.053 C 
BRANCH   7   8
ATOM      8  C   UNL     1      -2.566  -8.089   5.813  1.00  0.00     0.041 C 
ATOM      9  O   UNL     1      -2.774  -9.074   6.571  1.00  0.00    -0.550 OA
ATOM     10  O   UNL     1      -1.602  -8.178   4.818  1.00  0.00    -0.550 OA
ENDBRANCH   7   8
ENDBRANCH   6   7
ENDBRANCH   5   6
ENDBRANCH   4   5
ENDBRANCH   3   4
ENDBRANCH   2   3
ENDBRANCH   1   2
BRANCH   1  11
ATOM     11  C   UNL     1      -8.385  -2.603   8.533  1.00  0.00     0.000 C 
BRANCH  11  12
ATOM     12  C   UNL     1      -9.269  -2.712   7.273  1.00  0.00    -0.000 C 
BRANCH  12  13
ATOM     13  C   UNL     1      -8.564  -2.399   5.942  1.00  0.00    -0.000 C 
BRANCH  13  14
ATOM     14  C   UNL     1      -9.113  -3.208   4.757  1.00  0.00    -0.000 C 
BRANCH  14  15
ATOM     15  C   UNL     1      -8.026  -4.119   4.168  1.00  0.00    -0.000 C 
BRANCH  15  16
ATOM     16  C   UNL     1      -7.109  -4.714   5.248  1.00  0.00    -0.000 C 
BRANCH  16  17
ATOM     17  C   UNL     1      -7.397  -6.202   5.503  1.00  0.00    -0.003 C 
ATOM     18  C   UNL     1      -8.214  -6.393   6.778  1.00  0.00     0.004 C 
ENDBRANCH  16  17
ENDBRANCH  15  16
ENDBRANCH  14  15
ENDBRANCH  13  14
ENDBRANCH  12  13
ENDBRANCH  11  12
ENDBRANCH   1  11
TORSDOF 14
ENDMDL
MODEL 8
REMARK VINA RESULT:    -4.148      3.112      6.318
REMARK INTER + INTRA:          -9.498
REMARK INTER:                  -7.347
REMARK INTRA:                  -2.151
REMARK UNBOUND:                -1.956
REMARK SMILES CCCCCCCCCCCCCCCC(=O)[O-]
REMARK SMILES IDX 9 1 10 2 11 3 12 4 13 5 14 6 15 7 16 8 17 9 18 10 8 11 7 12
REMARK SMILES IDX 6 13 5 14 4 15 3 16 2 17 1 18
REMARK H PARENT
REMARK Flexibility Score: inf
ROOT
ATOM      1  C   UNL     1      -4.711  -4.900   7.748  1.00  0.00     0.000 C 
ENDROOT
BRANCH   1   2
ATOM      2  C   UNL     1      -4.299  -3.906   8.848  1.00  0.00     0.000 C 
BRANCH   2   3
ATOM      3  C   UNL     1      -5.463  -3.527   9.785  1.00  0.00     0.000 C 
BRANCH   3   4
ATOM      4  C   UNL     1      -6.820  -4.163   9.429  1.00  0.00     0.000 C 
BRANCH   4   5
ATOM      5  C   UNL     1      -7.952  -3.131   9.290  1.00  0.00     0.000 C 
BRANCH   5   6
ATOM      6  C   UNL     1      -7.457  -1.799   8.704  1.00  0.00     0.006 C 
BRANCH   6   7
ATOM      7  C   UNL     1      -8.192  -1.425   7.409  1.00  0.00     0.053 C 
BRANCH   7   8
ATOM      8  C   UNL     1      -7.262  -1.492   6.239  1.00  0.00     0.041 C 
ATOM      9  O   UNL     1      -6.194  -2.156   6.316  1.00  0.00    -0.550 OA
ATOM     10  O   UNL     1      -7.598  -0.863   5.047  1.00  0.00    -0.550 OA
ENDBRANCH   7   8
ENDBRANCH   6   7
ENDBRANCH   5   6
ENDBRANCH   4   5
ENDBRANCH   3   4
ENDBRANCH   2   3
ENDBRANCH   1   2
BRANCH   1  11
ATOM     11  C   UNL     1      -4.483  -6.368   8.144  1.00  0.00     0.000 C 
BRANCH  11  12
ATOM     12  C   UNL     1      -3.872  -7.257   7.041  1.00  0.00    -0.000 C 
BRANCH  12  13
ATOM     13  C   UNL     1      -4.026  -6.728   5.604  1.00  0.00    -0.000 C 
BRANCH  13  14
ATOM     14  C   UNL     1      -4.869  -7.645   4.706  1.00  0.00    -0.000 C 
BRANCH  14  15
ATOM     15  C   UNL     1      -6.355  -7.267   4.782  1.00  0.00    -0.000 C 
BRANCH  15  16
ATOM     16  C   UNL     1      -6.581  -5.749   4.701  1.00  0.00    -0.000 C 
BRANCH  16  17
ATOM     17  C   UNL     1      -7.736  -5.282   5.598  1.00  0.00    -0.003 C 
ATOM     18  C   UNL     1      -8.036  -6.308   6.687  1.00  0.00     0.004 C 
ENDBRANCH  16  17
ENDBRANCH  15  16
ENDBRANCH  14  15
ENDBRANCH  13  14
ENDBRANCH  12  13
ENDBRANCH  11  12
ENDBRANCH   1  11
TORSDOF 14
ENDMDL
MODEL 9
REMARK VINA RESULT:    -4.118      1.890      4.384
REMARK INTER + INTRA:          -9.444
REMARK INTER:                  -7.555
REMARK INTRA:                  -1.888
REMARK UNBOUND:                -1.956
REMARK SMILES CCCCCCCCCCCCCCCC(=O)[O-]
REMARK SMILES IDX 9 1 10 2 11 3 12 4 13 5 14 6 15 7 16 8 17 9 18 10 8 11 7 12
REMARK SMILES IDX 6 13 5 14 4 15 3 16 2 17 1 18
REMARK H PARENT
REMARK Flexibility Score: inf
ROOT
ATOM      1  C   UNL     1      -6.147  -2.495   7.709  1.00  0.00     0.000 C 
ENDROOT
BRANCH   1   2
ATOM      2  C   UNL     1      -5.965  -2.736   9.218  1.00  0.00     0.000 C 
BRANCH   2   3
ATOM      3  C   UNL     1      -5.365  -4.119   9.539  1.00  0.00     0.000 C 
BRANCH   3   4
ATOM      4  C   UNL     1      -4.399  -4.674   8.474  1.00  0.00     0.000 C 
BRANCH   4   5
ATOM      5  C   UNL     1      -4.597  -6.176   8.204  1.00  0.00     0.000 C 
BRANCH   5   6
ATOM      6  C   UNL     1      -5.518  -6.434   7.001  1.00  0.00     0.006 C 
BRANCH   6   7
ATOM      7  C   UNL     1      -4.797  -6.225   5.662  1.00  0.00     0.053 C 
BRANCH   7   8
ATOM      8  C   UNL     1      -3.809  -7.322   5.421  1.00  0.00     0.041 C 
ATOM      9  O   UNL     1      -4.206  -8.472   5.093  1.00  0.00    -0.550 OA
ATOM     10  O   UNL     1      -2.447  -7.064   5.510  1.00  0.00    -0.550 OA
ENDBRANCH   7   8
ENDBRANCH   6   7
ENDBRANCH   5   6
ENDBRANCH   4   5
ENDBRANCH   3   4
ENDBRANCH   2   3
ENDBRANCH   1   2
BRANCH   1  11
ATOM     11  C   UNL     1      -7.393  -3.188   7.132  1.00  0.00     0.000 C 
BRANCH  11  12
ATOM     12  C   UNL     1      -7.385  -3.382   5.601  1.00  0.00    -0.000 C 
BRANCH  12  13
ATOM     13  C   UNL     1      -8.729  -3.128   4.896  1.00  0.00    -0.000 C 
BRANCH  13  14
ATOM     14  C   UNL     1      -9.286  -1.717   5.138  1.00  0.00    -0.000 C 
BRANCH  14  15
ATOM     15  C   UNL     1      -8.228  -0.651   4.814  1.00  0.00    -0.000 C 
BRANCH  15  16
ATOM     16  C   UNL     1      -8.390   0.616   5.667  1.00  0.00    -0.000 C 
BRANCH  16  17
ATOM     17  C   UNL     1      -8.912   0.307   7.079  1.00  0.00    -0.003 C 
ATOM     18  C   UNL     1      -7.888   0.697   8.141  1.00  0.00     0.004 C 
ENDBRANCH  16  17
ENDBRANCH  15  16
ENDBRANCH  14  15
ENDBRANCH  13  14
ENDBRANCH  12  13
ENDBRANCH  11  12
ENDBRANCH   1  11
TORSDOF 14
ENDMDL
