MODEL 1
REMARK VINA RESULT:    -6.226      0.000      0.000
REMARK INTER + INTRA:          -7.629
REMARK INTER:                  -7.318
REMARK INTRA:                  -0.311
REMARK UNBOUND:                -0.311
REMARK SMILES O=c1cc(-c2ccc(O)c(O)c2)oc2cc(O)cc(O)c12
REMARK SMILES IDX 4 1 3 2 2 3 1 4 21 5 19 6 18 7 16 8 15 9 14 10 13 11 5 12
REMARK SMILES IDX 6 13 7 14 8 15 12 16 10 17 9 18 11 20 20 22 17 24
REMARK H PARENT 9 19 11 21 20 23 17 25
REMARK Flexibility Score: inf
ROOT
ATOM      1  C   UNL     1       4.200  -3.333  -3.840  1.00  0.00     0.138 A 
ATOM      2  C   UNL     1       4.816  -4.174  -2.903  1.00  0.00     0.100 A 
ATOM      3  C   UNL     1       6.194  -4.384  -2.966  1.00  0.00     0.197 A 
ATOM      4  O   UNL     1       6.709  -5.193  -2.150  1.00  0.00    -0.289 OA
ATOM      5  C   UNL     1       6.963  -3.723  -3.953  1.00  0.00     0.107 A 
ATOM      6  C   UNL     1       8.379  -3.830  -4.086  1.00  0.00     0.134 A 
ATOM      7  C   UNL     1       9.018  -3.221  -5.174  1.00  0.00     0.093 A 
ATOM      8  C   UNL     1       8.301  -2.461  -6.098  1.00  0.00     0.123 A 
ATOM      9  C   UNL     1       6.923  -2.305  -5.946  1.00  0.00     0.094 A 
ATOM     10  C   UNL     1       6.251  -2.928  -4.892  1.00  0.00     0.146 A 
ATOM     11  O   UNL     1       4.936  -2.768  -4.791  1.00  0.00    -0.456 OA
ENDROOT
BRANCH   1  12
ATOM     12  C   UNL     1       2.737  -3.074  -3.819  1.00  0.00     0.021 A 
ATOM     13  C   UNL     1       1.983  -3.191  -2.636  1.00  0.00     0.016 A 
ATOM     14  C   UNL     1       0.610  -2.931  -2.644  1.00  0.00     0.051 A 
ATOM     15  C   UNL     1      -0.031  -2.542  -3.827  1.00  0.00     0.157 A 
ATOM     16  C   UNL     1       2.089  -2.670  -5.000  1.00  0.00     0.062 A 
ATOM     17  C   UNL     1       0.714  -2.410  -5.009  1.00  0.00     0.158 A 
BRANCH  15  18
ATOM     18  O   UNL     1      -1.401  -2.285  -3.830  1.00  0.00    -0.504 OA
ATOM     19  H   UNL     1      -2.031  -2.768  -4.460  1.00  0.00     0.293 HD
ENDBRANCH  15  18
BRANCH  17  20
ATOM     20  O   UNL     1       0.107  -2.020  -6.203  1.00  0.00    -0.504 OA
ATOM     21  H   UNL     1      -0.804  -1.578  -6.225  1.00  0.00     0.293 HD
ENDBRANCH  17  20
ENDBRANCH   1  12
BRANCH   6  22
ATOM     22  O   UNL     1       9.202  -4.496  -3.173  1.00  0.00    -0.507 OA
ATOM     23  H   UNL     1       8.873  -5.020  -2.376  1.00  0.00     0.293 HD
ENDBRANCH   6  22
BRANCH   8  24
ATOM     24  O   UNL     1       8.971  -1.857  -7.158  1.00  0.00    -0.508 OA
ATOM     25  H   UNL     1       9.770  -2.297  -7.600  1.00  0.00     0.293 HD
ENDBRANCH   8  24
TORSDOF 5
ENDMDL
MODEL 2
REMARK VINA RESULT:    -6.114      1.330      3.061
REMARK INTER + INTRA:          -7.497
REMARK INTER:                  -7.185
REMARK INTRA:                  -0.312
REMARK UNBOUND:                -0.311
REMARK SMILES O=c1cc(-c2ccc(O)c(O)c2)oc2cc(O)cc(O)c12
REMARK SMILES IDX 4 1 3 2 2 3 1 4 21 5 19 6 18 7 16 8 15 9 14 10 13 11 5 12
REMARK SMILES IDX 6 13 7 14 8 15 12 16 10 17 9 18 11 20 20 22 17 24
REMARK H PARENT 9 19 11 21 20 23 17 25
REMARK Flexibility Score: inf
ROOT
ATOM      1  C   UNL     1       4.554  -2.955  -4.701  1.00  0.00     0.138 A 
ATOM      2  C   UNL     1       5.164  -2.249  -5.748  1.00  0.00     0.100 A 
ATOM      3  C   UNL     1       6.556  -2.220  -5.840  1.00  0.00     0.197 A 
ATOM      4  O   UNL     1       7.076  -1.527  -6.754  1.00  0.00    -0.289 OA
ATOM      5  C   UNL     1       7.339  -2.928  -4.898  1.00  0.00     0.107 A 
ATOM      6  C   UNL     1       8.764  -3.003  -4.918  1.00  0.00     0.134 A 
ATOM      7  C   UNL     1       9.437  -3.637  -3.866  1.00  0.00     0.093 A 
ATOM      8  C   UNL     1       8.735  -4.250  -2.828  1.00  0.00     0.123 A 
ATOM      9  C   UNL     1       7.340  -4.230  -2.827  1.00  0.00     0.094 A 
ATOM     10  C   UNL     1       6.641  -3.576  -3.843  1.00  0.00     0.146 A 
ATOM     11  O   UNL     1       5.313  -3.566  -3.798  1.00  0.00    -0.456 OA
ENDROOT
BRANCH   1  12
ATOM     12  C   UNL     1       3.077  -3.020  -4.555  1.00  0.00     0.021 A 
ATOM     13  C   UNL     1       2.217  -2.823  -5.653  1.00  0.00     0.016 A 
ATOM     14  C   UNL     1       0.831  -2.899  -5.488  1.00  0.00     0.051 A 
ATOM     15  C   UNL     1       0.281  -3.181  -4.231  1.00  0.00     0.157 A 
ATOM     16  C   UNL     1       2.518  -3.316  -3.300  1.00  0.00     0.062 A 
ATOM     17  C   UNL     1       1.130  -3.392  -3.133  1.00  0.00     0.158 A 
BRANCH  15  18
ATOM     18  O   UNL     1      -1.101  -3.256  -4.071  1.00  0.00    -0.504 OA
ATOM     19  H   UNL     1      -1.710  -3.529  -4.834  1.00  0.00     0.293 HD
ENDBRANCH  15  18
BRANCH  17  20
ATOM     20  O   UNL     1       0.616  -3.679  -1.869  1.00  0.00    -0.504 OA
ATOM     21  H   UNL     1       0.135  -4.548  -1.668  1.00  0.00     0.293 HD
ENDBRANCH  17  20
ENDBRANCH   1  12
BRANCH   6  22
ATOM     22  O   UNL     1       9.558  -2.497  -5.952  1.00  0.00    -0.507 OA
ATOM     23  H   UNL     1       9.859  -3.023  -6.758  1.00  0.00     0.293 HD
ENDBRANCH   6  22
BRANCH   8  24
ATOM     24  O   UNL     1       9.437  -4.885  -1.806  1.00  0.00    -0.508 OA
ATOM     25  H   UNL     1       9.518  -5.894  -1.766  1.00  0.00     0.293 HD
ENDBRANCH   8  24
TORSDOF 5
ENDMDL
MODEL 3
REMARK VINA RESULT:    -5.836      2.110      7.507
REMARK INTER + INTRA:          -7.170
REMARK INTER:                  -6.900
REMARK INTRA:                  -0.270
REMARK UNBOUND:                -0.311
REMARK SMILES O=c1cc(-c2ccc(O)c(O)c2)oc2cc(O)cc(O)c12
REMARK SMILES IDX 4 1 3 2 2 3 1 4 21 5 19 6 18 7 16 8 15 9 14 10 13 11 5 12
REMARK SMILES IDX 6 13 7 14 8 15 12 16 10 17 9 18 11 20 20 22 17 24
REMARK H PARENT 9 19 11 21 20 23 17 25
REMARK Flexibility Score: inf
ROOT
ATOM      1  C   UNL     1       2.141  -3.329  -4.501  1.00  0.00     0.138 A 
ATOM      2  C   UNL     1       1.659  -4.496  -5.112  1.00  0.00     0.100 A 
ATOM      3  C   UNL     1       0.316  -4.578  -5.481  1.00  0.00     0.197 A 
ATOM      4  O   UNL     1      -0.100  -5.660  -5.969  1.00  0.00    -0.289 OA
ATOM      5  C   UNL     1      -0.541  -3.473  -5.265  1.00  0.00     0.107 A 
ATOM      6  C   UNL     1      -1.917  -3.429  -5.638  1.00  0.00     0.134 A 
ATOM      7  C   UNL     1      -2.697  -2.325  -5.270  1.00  0.00     0.093 A 
ATOM      8  C   UNL     1      -2.137  -1.239  -4.596  1.00  0.00     0.123 A 
ATOM      9  C   UNL     1      -0.779  -1.249  -4.275  1.00  0.00     0.094 A 
ATOM     10  C   UNL     1       0.017  -2.350  -4.598  1.00  0.00     0.146 A 
ATOM     11  O   UNL     1       1.303  -2.327  -4.261  1.00  0.00    -0.456 OA
ENDROOT
BRANCH   1  12
ATOM     12  C   UNL     1       3.561  -3.188  -4.090  1.00  0.00     0.021 A 
ATOM     13  C   UNL     1       4.092  -3.913  -3.005  1.00  0.00     0.016 A 
ATOM     14  C   UNL     1       5.434  -3.767  -2.646  1.00  0.00     0.051 A 
ATOM     15  C   UNL     1       6.271  -2.905  -3.367  1.00  0.00     0.157 A 
ATOM     16  C   UNL     1       4.411  -2.334  -4.816  1.00  0.00     0.062 A 
ATOM     17  C   UNL     1       5.755  -2.187  -4.457  1.00  0.00     0.158 A 
BRANCH  15  18
ATOM     18  O   UNL     1       7.609  -2.762  -3.004  1.00  0.00    -0.504 OA
ATOM     19  H   UNL     1       7.999  -1.861  -2.753  1.00  0.00     0.293 HD
ENDBRANCH  15  18
BRANCH  17  20
ATOM     20  O   UNL     1       6.562  -1.324  -5.198  1.00  0.00    -0.504 OA
ATOM     21  H   UNL     1       6.725  -0.364  -4.916  1.00  0.00     0.293 HD
ENDBRANCH  17  20
ENDBRANCH   1  12
BRANCH   6  22
ATOM     22  O   UNL     1      -2.557  -4.422  -6.386  1.00  0.00    -0.507 OA
ATOM     23  H   UNL     1      -2.436  -5.414  -6.250  1.00  0.00     0.293 HD
ENDBRANCH   6  22
BRANCH   8  24
ATOM     24  O   UNL     1      -2.939  -0.152  -4.259  1.00  0.00    -0.508 OA
ATOM     25  H   UNL     1      -3.234   0.525  -4.954  1.00  0.00     0.293 HD
ENDBRANCH   8  24
TORSDOF 5
ENDMDL
MODEL 4
REMARK VINA RESULT:    -5.767      2.257      7.038
REMARK INTER + INTRA:          -7.089
REMARK INTER:                  -6.821
REMARK INTRA:                  -0.268
REMARK UNBOUND:                -0.311
REMARK SMILES O=c1cc(-c2ccc(O)c(O)c2)oc2cc(O)cc(O)c12
REMARK SMILES IDX 4 1 3 2 2 3 1 4 21 5 19 6 18 7 16 8 15 9 14 10 13 11 5 12
REMARK SMILES IDX 6 13 7 14 8 15 12 16 10 17 9 18 11 20 20 22 17 24
REMARK H PARENT 9 19 11 21 20 23 17 25
REMARK Flexibility Score: inf
ROOT
ATOM      1  C   UNL     1       3.171  -3.888  -3.819  1.00  0.00     0.138 A 
ATOM      2  C   UNL     1       2.299  -3.206  -2.959  1.00  0.00     0.100 A 
ATOM      3  C   UNL     1       1.011  -2.887  -3.392  1.00  0.00     0.197 A 
ATOM      4  O   UNL     1       0.274  -2.220  -2.621  1.00  0.00    -0.289 OA
ATOM      5  C   UNL     1       0.585  -3.283  -4.682  1.00  0.00     0.107 A 
ATOM      6  C   UNL     1      -0.718  -3.050  -5.214  1.00  0.00     0.134 A 
ATOM      7  C   UNL     1      -0.990  -3.384  -6.547  1.00  0.00     0.093 A 
ATOM      8  C   UNL     1      -0.026  -3.997  -7.347  1.00  0.00     0.123 A 
ATOM      9  C   UNL     1       1.234  -4.280  -6.819  1.00  0.00     0.094 A 
ATOM     10  C   UNL     1       1.547  -3.928  -5.505  1.00  0.00     0.146 A 
ATOM     11  O   UNL     1       2.764  -4.200  -5.045  1.00  0.00    -0.456 OA
ENDROOT
BRANCH   1  12
ATOM     12  C   UNL     1       4.551  -4.252  -3.410  1.00  0.00     0.021 A 
ATOM     13  C   UNL     1       5.019  -5.578  -3.486  1.00  0.00     0.016 A 
ATOM     14  C   UNL     1       6.327  -5.890  -3.103  1.00  0.00     0.051 A 
ATOM     15  C   UNL     1       7.190  -4.886  -2.646  1.00  0.00     0.157 A 
ATOM     16  C   UNL     1       5.428  -3.248  -2.963  1.00  0.00     0.062 A 
ATOM     17  C   UNL     1       6.737  -3.559  -2.578  1.00  0.00     0.158 A 
BRANCH  15  18
ATOM     18  O   UNL     1       8.493  -5.203  -2.264  1.00  0.00    -0.504 OA
ATOM     19  H   UNL     1       8.748  -5.315  -1.290  1.00  0.00     0.293 HD
ENDBRANCH  15  18
BRANCH  17  20
ATOM     20  O   UNL     1       7.573  -2.536  -2.132  1.00  0.00    -0.504 OA
ATOM     21  H   UNL     1       8.570  -2.667  -2.013  1.00  0.00     0.293 HD
ENDBRANCH  17  20
ENDBRANCH   1  12
BRANCH   6  22
ATOM     22  O   UNL     1      -1.780  -2.519  -4.475  1.00  0.00    -0.507 OA
ATOM     23  H   UNL     1      -2.152  -2.922  -3.629  1.00  0.00     0.293 HD
ENDBRANCH   6  22
BRANCH   8  24
ATOM     24  O   UNL     1      -0.336  -4.330  -8.663  1.00  0.00    -0.508 OA
ATOM     25  H   UNL     1      -1.246  -4.698  -8.916  1.00  0.00     0.293 HD
ENDBRANCH   8  24
TORSDOF 5
ENDMDL
MODEL 5
REMARK VINA RESULT:    -5.765      2.655      4.448
REMARK INTER + INTRA:          -7.086
REMARK INTER:                  -6.818
REMARK INTRA:                  -0.268
REMARK UNBOUND:                -0.311
REMARK SMILES O=c1cc(-c2ccc(O)c(O)c2)oc2cc(O)cc(O)c12
REMARK SMILES IDX 4 1 3 2 2 3 1 4 21 5 19 6 18 7 16 8 15 9 14 10 13 11 5 12
REMARK SMILES IDX 6 13 7 14 8 15 12 16 10 17 9 18 11 20 20 22 17 24
REMARK H PARENT 9 19 11 21 20 23 17 25
REMARK Flexibility Score: inf
ROOT
ATOM      1  C   UNL     1       1.499  -3.854  -5.443  1.00  0.00     0.138 A 
ATOM      2  C   UNL     1       1.898  -2.635  -6.009  1.00  0.00     0.100 A 
ATOM      3  C   UNL     1       3.134  -2.087  -5.667  1.00  0.00     0.197 A 
ATOM      4  O   UNL     1       3.436  -0.961  -6.143  1.00  0.00    -0.289 OA
ATOM      5  C   UNL     1       3.990  -2.779  -4.778  1.00  0.00     0.107 A 
ATOM      6  C   UNL     1       5.289  -2.336  -4.390  1.00  0.00     0.134 A 
ATOM      7  C   UNL     1       5.997  -3.046  -3.413  1.00  0.00     0.093 A 
ATOM      8  C   UNL     1       5.480  -4.215  -2.854  1.00  0.00     0.123 A 
ATOM      9  C   UNL     1       4.233  -4.687  -3.267  1.00  0.00     0.094 A 
ATOM     10  C   UNL     1       3.487  -3.983  -4.214  1.00  0.00     0.146 A 
ATOM     11  O   UNL     1       2.297  -4.457  -4.568  1.00  0.00    -0.456 OA
ENDROOT
BRANCH   1  12
ATOM     12  C   UNL     1       0.195  -4.484  -5.772  1.00  0.00     0.021 A 
ATOM     13  C   UNL     1       0.112  -5.804  -6.254  1.00  0.00     0.016 A 
ATOM     14  C   UNL     1      -1.130  -6.374  -6.546  1.00  0.00     0.051 A 
ATOM     15  C   UNL     1      -2.309  -5.641  -6.355  1.00  0.00     0.157 A 
ATOM     16  C   UNL     1      -0.993  -3.759  -5.571  1.00  0.00     0.062 A 
ATOM     17  C   UNL     1      -2.238  -4.328  -5.864  1.00  0.00     0.158 A 
BRANCH  15  18
ATOM     18  O   UNL     1      -3.545  -6.213  -6.650  1.00  0.00    -0.504 OA
ATOM     19  H   UNL     1      -3.744  -7.185  -6.442  1.00  0.00     0.293 HD
ENDBRANCH  15  18
BRANCH  17  20
ATOM     20  O   UNL     1      -3.392  -3.573  -5.658  1.00  0.00    -0.504 OA
ATOM     21  H   UNL     1      -3.402  -2.757  -5.057  1.00  0.00     0.293 HD
ENDBRANCH  17  20
ENDBRANCH   1  12
BRANCH   6  22
ATOM     22  O   UNL     1       5.935  -1.228  -4.947  1.00  0.00    -0.507 OA
ATOM     23  H   UNL     1       5.470  -0.458  -5.403  1.00  0.00     0.293 HD
ENDBRANCH   6  22
BRANCH   8  24
ATOM     24  O   UNL     1       6.219  -4.904  -1.896  1.00  0.00    -0.508 OA
ATOM     25  H   UNL     1       5.836  -5.116  -0.982  1.00  0.00     0.293 HD
ENDBRANCH   8  24
TORSDOF 5
ENDMDL
MODEL 6
REMARK VINA RESULT:    -5.710      2.313      7.227
REMARK INTER + INTRA:          -7.022
REMARK INTER:                  -6.750
REMARK INTRA:                  -0.272
REMARK UNBOUND:                -0.311
REMARK SMILES O=c1cc(-c2ccc(O)c(O)c2)oc2cc(O)cc(O)c12
REMARK SMILES IDX 4 1 3 2 2 3 1 4 21 5 19 6 18 7 16 8 15 9 14 10 13 11 5 12
REMARK SMILES IDX 6 13 7 14 8 15 12 16 10 17 9 18 11 20 20 22 17 24
REMARK H PARENT 9 19 11 21 20 23 17 25
REMARK Flexibility Score: inf
ROOT
ATOM      1  C   UNL     1       3.835  -3.017  -4.632  1.00  0.00     0.138 A 
ATOM      2  C   UNL     1       3.925  -1.873  -5.437  1.00  0.00     0.100 A 
ATOM      3  C   UNL     1       2.773  -1.351  -6.026  1.00  0.00     0.197 A 
ATOM      4  O   UNL     1       2.895  -0.361  -6.793  1.00  0.00    -0.289 OA
ATOM      5  C   UNL     1       1.519  -1.960  -5.781  1.00  0.00     0.107 A 
ATOM      6  C   UNL     1       0.274  -1.491  -6.294  1.00  0.00     0.134 A 
ATOM      7  C   UNL     1      -0.888  -2.243  -6.080  1.00  0.00     0.093 A 
ATOM      8  C   UNL     1      -0.860  -3.413  -5.321  1.00  0.00     0.123 A 
ATOM      9  C   UNL     1       0.344  -3.852  -4.768  1.00  0.00     0.094 A 
ATOM     10  C   UNL     1       1.526  -3.143  -4.993  1.00  0.00     0.146 A 
ATOM     11  O   UNL     1       2.654  -3.602  -4.462  1.00  0.00    -0.456 OA
ENDROOT
BRANCH   1  12
ATOM     12  C   UNL     1       5.029  -3.614  -3.980  1.00  0.00     0.021 A 
ATOM     13  C   UNL     1       5.334  -4.983  -4.107  1.00  0.00     0.016 A 
ATOM     14  C   UNL     1       6.469  -5.515  -3.491  1.00  0.00     0.051 A 
ATOM     15  C   UNL     1       7.324  -4.691  -2.747  1.00  0.00     0.157 A 
ATOM     16  C   UNL     1       5.899  -2.791  -3.243  1.00  0.00     0.062 A 
ATOM     17  C   UNL     1       7.036  -3.323  -2.624  1.00  0.00     0.158 A 
BRANCH  15  18
ATOM     18  O   UNL     1       8.455  -5.227  -2.133  1.00  0.00    -0.504 OA
ATOM     19  H   UNL     1       9.377  -4.834  -2.283  1.00  0.00     0.293 HD
ENDBRANCH  15  18
BRANCH  17  20
ATOM     20  O   UNL     1       7.868  -2.474  -1.895  1.00  0.00    -0.504 OA
ATOM     21  H   UNL     1       7.981  -1.496  -2.132  1.00  0.00     0.293 HD
ENDBRANCH  17  20
ENDBRANCH   1  12
BRANCH   6  22
ATOM     22  O   UNL     1       0.120  -0.291  -6.995  1.00  0.00    -0.507 OA
ATOM     23  H   UNL     1       0.849   0.170  -7.518  1.00  0.00     0.293 HD
ENDBRANCH   6  22
BRANCH   8  24
ATOM     24  O   UNL     1      -2.038  -4.127  -5.116  1.00  0.00    -0.508 OA
ATOM     25  H   UNL     1      -2.817  -4.060  -5.760  1.00  0.00     0.293 HD
ENDBRANCH   8  24
TORSDOF 5
ENDMDL
MODEL 7
REMARK VINA RESULT:    -5.648     11.014     13.396
REMARK INTER + INTRA:          -6.949
REMARK INTER:                  -6.686
REMARK INTRA:                  -0.263
REMARK UNBOUND:                -0.311
REMARK SMILES O=c1cc(-c2ccc(O)c(O)c2)oc2cc(O)cc(O)c12
REMARK SMILES IDX 4 1 3 2 2 3 1 4 21 5 19 6 18 7 16 8 15 9 14 10 13 11 5 12
REMARK SMILES IDX 6 13 7 14 8 15 12 16 10 17 9 18 11 20 20 22 17 24
REMARK H PARENT 9 19 11 21 20 23 17 25
REMARK Flexibility Score: inf
ROOT
ATOM      1  C   UNL     1      -1.789   5.564  -0.144  1.00  0.00     0.138 A 
ATOM      2  C   UNL     1      -2.092   5.394  -1.503  1.00  0.00     0.100 A 
ATOM      3  C   UNL     1      -3.136   4.548  -1.876  1.00  0.00     0.197 A 
ATOM      4  O   UNL     1      -3.343   4.369  -3.105  1.00  0.00    -0.289 OA
ATOM      5  C   UNL     1      -3.902   3.894  -0.882  1.00  0.00     0.107 A 
ATOM      6  C   UNL     1      -5.015   3.042  -1.145  1.00  0.00     0.134 A 
ATOM      7  C   UNL     1      -5.624   2.356  -0.086  1.00  0.00     0.093 A 
ATOM      8  C   UNL     1      -5.199   2.538   1.230  1.00  0.00     0.123 A 
ATOM      9  C   UNL     1      -4.146   3.412   1.503  1.00  0.00     0.094 A 
ATOM     10  C   UNL     1      -3.496   4.084   0.466  1.00  0.00     0.146 A 
ATOM     11  O   UNL     1      -2.487   4.895   0.767  1.00  0.00    -0.456 OA
ENDROOT
BRANCH   1  12
ATOM     12  C   UNL     1      -0.688   6.452   0.309  1.00  0.00     0.021 A 
ATOM     13  C   UNL     1      -0.946   7.684   0.943  1.00  0.00     0.016 A 
ATOM     14  C   UNL     1       0.110   8.495   1.368  1.00  0.00     0.051 A 
ATOM     15  C   UNL     1       1.437   8.089   1.177  1.00  0.00     0.157 A 
ATOM     16  C   UNL     1       0.646   6.046   0.133  1.00  0.00     0.062 A 
ATOM     17  C   UNL     1       1.704   6.858   0.558  1.00  0.00     0.158 A 
BRANCH  15  18
ATOM     18  O   UNL     1       2.486   8.902   1.602  1.00  0.00    -0.504 OA
ATOM     19  H   UNL     1       3.363   8.512   1.928  1.00  0.00     0.293 HD
ENDBRANCH  15  18
BRANCH  17  20
ATOM     20  O   UNL     1       3.014   6.423   0.356  1.00  0.00    -0.504 OA
ATOM     21  H   UNL     1       3.705   6.994  -0.115  1.00  0.00     0.293 HD
ENDBRANCH  17  20
ENDBRANCH   1  12
BRANCH   6  22
ATOM     22  O   UNL     1      -5.574   2.854  -2.413  1.00  0.00    -0.507 OA
ATOM     23  H   UNL     1      -6.562   2.857  -2.614  1.00  0.00     0.293 HD
ENDBRANCH   6  22
BRANCH   8  24
ATOM     24  O   UNL     1      -5.838   1.852   2.259  1.00  0.00    -0.508 OA
ATOM     25  H   UNL     1      -5.849   2.208   3.207  1.00  0.00     0.293 HD
ENDBRANCH   8  24
TORSDOF 5
ENDMDL
MODEL 8
REMARK VINA RESULT:    -5.641      2.321      7.879
REMARK INTER + INTRA:          -6.941
REMARK INTER:                  -6.648
REMARK INTRA:                  -0.293
REMARK UNBOUND:                -0.311
REMARK SMILES O=c1cc(-c2ccc(O)c(O)c2)oc2cc(O)cc(O)c12
REMARK SMILES IDX 4 1 3 2 2 3 1 4 21 5 19 6 18 7 16 8 15 9 14 10 13 11 5 12
REMARK SMILES IDX 6 13 7 14 8 15 12 16 10 17 9 18 11 20 20 22 17 24
REMARK H PARENT 9 19 11 21 20 23 17 25
REMARK Flexibility Score: inf
ROOT
ATOM      1  C   UNL     1       2.146  -2.259  -5.630  1.00  0.00     0.138 A 
ATOM      2  C   UNL     1       1.931  -1.348  -6.674  1.00  0.00     0.100 A 
ATOM      3  C   UNL     1       0.662  -1.240  -7.245  1.00  0.00     0.197 A 
ATOM      4  O   UNL     1       0.515  -0.460  -8.221  1.00  0.00    -0.289 OA
ATOM      5  C   UNL     1      -0.404  -2.026  -6.745  1.00  0.00     0.107 A 
ATOM      6  C   UNL     1      -1.747  -1.969  -7.222  1.00  0.00     0.134 A 
ATOM      7  C   UNL     1      -2.693  -2.878  -6.729  1.00  0.00     0.093 A 
ATOM      8  C   UNL     1      -2.358  -3.799  -5.736  1.00  0.00     0.123 A 
ATOM      9  C   UNL     1      -1.061  -3.825  -5.224  1.00  0.00     0.094 A 
ATOM     10  C   UNL     1      -0.086  -2.956  -5.719  1.00  0.00     0.146 A 
ATOM     11  O   UNL     1       1.142  -3.024  -5.216  1.00  0.00    -0.456 OA
ENDROOT
BRANCH   1  12
ATOM     12  C   UNL     1       3.476  -2.414  -4.986  1.00  0.00     0.021 A 
ATOM     13  C   UNL     1       3.647  -3.186  -3.821  1.00  0.00     0.016 A 
ATOM     14  C   UNL     1       4.912  -3.323  -3.243  1.00  0.00     0.051 A 
ATOM     15  C   UNL     1       6.026  -2.700  -3.820  1.00  0.00     0.157 A 
ATOM     16  C   UNL     1       4.601  -1.803  -5.567  1.00  0.00     0.062 A 
ATOM     17  C   UNL     1       5.869  -1.938  -4.988  1.00  0.00     0.158 A 
BRANCH  15  18
ATOM     18  O   UNL     1       7.285  -2.838  -3.239  1.00  0.00    -0.504 OA
ATOM     19  H   UNL     1       7.835  -2.032  -2.964  1.00  0.00     0.293 HD
ENDBRANCH  15  18
BRANCH  17  20
ATOM     20  O   UNL     1       6.957  -1.310  -5.591  1.00  0.00    -0.504 OA
ATOM     21  H   UNL     1       7.569  -0.684  -5.079  1.00  0.00     0.293 HD
ENDBRANCH  17  20
ENDBRANCH   1  12
BRANCH   6  22
ATOM     22  O   UNL     1      -2.208  -1.032  -8.152  1.00  0.00    -0.507 OA
ATOM     23  H   UNL     1      -1.694  -0.218  -8.454  1.00  0.00     0.293 HD
ENDBRANCH   6  22
BRANCH   8  24
ATOM     24  O   UNL     1      -3.328  -4.676  -5.259  1.00  0.00    -0.508 OA
ATOM     25  H   UNL     1      -4.294  -4.390  -5.148  1.00  0.00     0.293 HD
ENDBRANCH   8  24
TORSDOF 5
ENDMDL
MODEL 9
REMARK VINA RESULT:    -5.631     10.196     11.357
REMARK INTER + INTRA:          -6.930
REMARK INTER:                  -6.627
REMARK INTRA:                  -0.302
REMARK UNBOUND:                -0.311
REMARK SMILES O=c1cc(-c2ccc(O)c(O)c2)oc2cc(O)cc(O)c12
REMARK SMILES IDX 4 1 3 2 2 3 1 4 21 5 19 6 18 7 16 8 15 9 14 10 13 11 5 12
REMARK SMILES IDX 6 13 7 14 8 15 12 16 10 17 9 18 11 20 20 22 17 24
REMARK H PARENT 9 19 11 21 20 23 17 25
REMARK Flexibility Score: inf
ROOT
ATOM      1  C   UNL     1      -1.849   4.918  -0.431  1.00  0.00     0.138 A 
ATOM      2  C   UNL     1      -1.980   6.037  -1.265  1.00  0.00     0.100 A 
ATOM      3  C   UNL     1      -0.856   6.804  -1.572  1.00  0.00     0.197 A 
ATOM      4  O   UNL     1      -1.016   7.838  -2.271  1.00  0.00    -0.289 OA
ATOM      5  C   UNL     1       0.412   6.429  -1.066  1.00  0.00     0.107 A 
ATOM      6  C   UNL     1       1.632   7.112  -1.347  1.00  0.00     0.134 A 
ATOM      7  C   UNL     1       2.809   6.717  -0.696  1.00  0.00     0.093 A 
ATOM      8  C   UNL     1       2.820   5.629   0.176  1.00  0.00     0.123 A 
ATOM      9  C   UNL     1       1.642   4.920   0.415  1.00  0.00     0.094 A 
ATOM     10  C   UNL     1       0.446   5.310  -0.191  1.00  0.00     0.146 A 
ATOM     11  O   UNL     1      -0.658   4.619   0.074  1.00  0.00    -0.456 OA
ENDROOT
BRANCH   1  12
ATOM     12  C   UNL     1      -3.012   4.066  -0.073  1.00  0.00     0.021 A 
ATOM     13  C   UNL     1      -4.041   3.793  -0.996  1.00  0.00     0.016 A 
ATOM     14  C   UNL     1      -5.118   2.980  -0.634  1.00  0.00     0.051 A 
ATOM     15  C   UNL     1      -5.184   2.420   0.648  1.00  0.00     0.157 A 
ATOM     16  C   UNL     1      -3.079   3.489   1.207  1.00  0.00     0.062 A 
ATOM     17  C   UNL     1      -4.158   2.675   1.571  1.00  0.00     0.158 A 
BRANCH  15  18
ATOM     18  O   UNL     1      -6.261   1.610   1.004  1.00  0.00    -0.504 OA
ATOM     19  H   UNL     1      -6.353   1.229   1.939  1.00  0.00     0.293 HD
ENDBRANCH  15  18
BRANCH  17  20
ATOM     20  O   UNL     1      -4.191   2.129   2.854  1.00  0.00    -0.504 OA
ATOM     21  H   UNL     1      -4.232   2.707   3.685  1.00  0.00     0.293 HD
ENDBRANCH  17  20
ENDBRANCH   1  12
BRANCH   6  22
ATOM     22  O   UNL     1       1.749   8.159  -2.266  1.00  0.00    -0.507 OA
ATOM     23  H   UNL     1       0.999   8.504  -2.845  1.00  0.00     0.293 HD
ENDBRANCH   6  22
BRANCH   8  24
ATOM     24  O   UNL     1       4.011   5.255   0.793  1.00  0.00    -0.508 OA
ATOM     25  H   UNL     1       4.389   4.320   0.695  1.00  0.00     0.293 HD
ENDBRANCH   8  24
TORSDOF 5
ENDMDL
