MODEL 1
REMARK VINA RESULT:    -4.476      0.000      0.000
REMARK INTER + INTRA:          -7.905
REMARK INTER:                  -7.093
REMARK INTRA:                  -0.812
REMARK UNBOUND:                -0.812
REMARK SMILES CCCCCCCCCCCC(=O)[O-]
REMARK SMILES IDX 7 1 8 2 9 3 10 4 11 5 12 6 13 7 14 8 6 9 5 10 4 11 3 12 2 13
REMARK SMILES IDX 1 14
REMARK H PARENT
REMARK Flexibility Score: inf
ROOT
ATOM      1  C   UNL     1       5.431  52.118   1.150  1.00  0.00     0.000 C 
ENDROOT
BRANCH   1   2
ATOM      2  C   UNL     1       3.935  52.146   1.507  1.00  0.00     0.000 C 
BRANCH   2   3
ATOM      3  C   UNL     1       3.278  50.755   1.450  1.00  0.00     0.000 C 
BRANCH   3   4
ATOM      4  C   UNL     1       2.218  50.570   0.345  1.00  0.00     0.006 C 
BRANCH   4   5
ATOM      5  C   UNL     1       1.876  51.851  -0.433  1.00  0.00     0.053 C 
BRANCH   5   6
ATOM      6  C   UNL     1       2.190  51.720  -1.892  1.00  0.00     0.041 C 
ATOM      7  O   UNL     1       2.234  50.584  -2.432  1.00  0.00    -0.550 OA
ATOM      8  O   UNL     1       2.465  52.853  -2.648  1.00  0.00    -0.550 OA
ENDBRANCH   5   6
ENDBRANCH   4   5
ENDBRANCH   3   4
ENDBRANCH   2   3
ENDBRANCH   1   2
BRANCH   1   9
ATOM      9  C   UNL     1       5.770  52.970  -0.087  1.00  0.00     0.000 C 
BRANCH   9  10
ATOM     10  C   UNL     1       5.745  52.221  -1.432  1.00  0.00    -0.000 C 
BRANCH  10  11
ATOM     11  C   UNL     1       7.141  52.060  -2.057  1.00  0.00    -0.000 C 
BRANCH  11  12
ATOM     12  C   UNL     1       8.262  52.563  -1.133  1.00  0.00    -0.000 C 
BRANCH  12  13
ATOM     13  C   UNL     1       9.424  51.566  -1.014  1.00  0.00    -0.003 C 
ATOM     14  C   UNL     1      10.720  52.168  -1.548  1.00  0.00     0.004 C 
ENDBRANCH  12  13
ENDBRANCH  11  12
ENDBRANCH  10  11
ENDBRANCH   9  10
ENDBRANCH   1   9
TORSDOF 10
ENDMDL
MODEL 2
REMARK VINA RESULT:    -4.402      2.271      3.946
REMARK INTER + INTRA:          -7.788
REMARK INTER:                  -6.640
REMARK INTRA:                  -1.148
REMARK UNBOUND:                -0.812
REMARK SMILES CCCCCCCCCCCC(=O)[O-]
REMARK SMILES IDX 7 1 8 2 9 3 10 4 11 5 12 6 13 7 14 8 6 9 5 10 4 11 3 12 2 13
REMARK SMILES IDX 1 14
REMARK H PARENT
REMARK Flexibility Score: inf
ROOT
ATOM      1  C   UNL     1       1.968  50.455   0.213  1.00  0.00     0.000 C 
ENDROOT
BRANCH   1   2
ATOM      2  C   UNL     1       3.021  50.684   1.311  1.00  0.00     0.000 C 
BRANCH   2   3
ATOM      3  C   UNL     1       4.200  51.557   0.840  1.00  0.00     0.000 C 
BRANCH   3   4
ATOM      4  C   UNL     1       4.285  52.954   1.487  1.00  0.00     0.006 C 
BRANCH   4   5
ATOM      5  C   UNL     1       4.700  54.080   0.526  1.00  0.00     0.053 C 
BRANCH   5   6
ATOM      6  C   UNL     1       3.611  55.093   0.350  1.00  0.00     0.041 C 
ATOM      7  O   UNL     1       2.472  54.738  -0.050  1.00  0.00    -0.550 OA
ATOM      8  O   UNL     1       3.865  56.437   0.598  1.00  0.00    -0.550 OA
ENDBRANCH   5   6
ENDBRANCH   4   5
ENDBRANCH   3   4
ENDBRANCH   2   3
ENDBRANCH   1   2
BRANCH   1   9
ATOM      9  C   UNL     1       2.127  51.414  -0.981  1.00  0.00     0.000 C 
BRANCH   9  10
ATOM     10  C   UNL     1       2.274  50.737  -2.356  1.00  0.00    -0.000 C 
BRANCH  10  11
ATOM     11  C   UNL     1       3.055  51.594  -3.368  1.00  0.00    -0.000 C 
BRANCH  11  12
ATOM     12  C   UNL     1       4.228  52.347  -2.721  1.00  0.00    -0.000 C 
BRANCH  12  13
ATOM     13  C   UNL     1       5.591  51.910  -3.276  1.00  0.00    -0.003 C 
ATOM     14  C   UNL     1       6.712  52.225  -2.290  1.00  0.00     0.004 C 
ENDBRANCH  12  13
ENDBRANCH  11  12
ENDBRANCH  10  11
ENDBRANCH   9  10
ENDBRANCH   1   9
TORSDOF 10
ENDMDL
MODEL 3
REMARK VINA RESULT:    -4.389      3.413      6.498
REMARK INTER + INTRA:          -7.766
REMARK INTER:                  -7.086
REMARK INTRA:                  -0.681
REMARK UNBOUND:                -0.812
REMARK SMILES CCCCCCCCCCCC(=O)[O-]
REMARK SMILES IDX 7 1 8 2 9 3 10 4 11 5 12 6 13 7 14 8 6 9 5 10 4 11 3 12 2 13
REMARK SMILES IDX 1 14
REMARK H PARENT
REMARK Flexibility Score: inf
ROOT
ATOM      1  C   UNL     1       5.407  51.900   1.370  1.00  0.00     0.000 C 
ENDROOT
BRANCH   1   2
ATOM      2  C   UNL     1       5.953  52.396   0.021  1.00  0.00     0.000 C 
BRANCH   2   3
ATOM      3  C   UNL     1       7.470  52.665   0.049  1.00  0.00     0.000 C 
BRANCH   3   4
ATOM      4  C   UNL     1       8.214  52.382  -1.272  1.00  0.00     0.006 C 
BRANCH   4   5
ATOM      5  C   UNL     1       9.649  51.859  -1.099  1.00  0.00     0.053 C 
BRANCH   5   6
ATOM      6  C   UNL     1      10.665  52.945  -1.273  1.00  0.00     0.041 C 
ATOM      7  O   UNL     1      10.410  54.119  -0.899  1.00  0.00    -0.550 OA
ATOM      8  O   UNL     1      11.885  52.665  -1.878  1.00  0.00    -0.550 OA
ENDBRANCH   5   6
ENDBRANCH   4   5
ENDBRANCH   3   4
ENDBRANCH   2   3
ENDBRANCH   1   2
BRANCH   1   9
ATOM      9  C   UNL     1       3.869  51.932   1.445  1.00  0.00     0.000 C 
BRANCH   9  10
ATOM     10  C   UNL     1       3.193  50.573   1.702  1.00  0.00    -0.000 C 
BRANCH  10  11
ATOM     11  C   UNL     1       2.165  50.199   0.621  1.00  0.00    -0.000 C 
BRANCH  11  12
ATOM     12  C   UNL     1       1.882  51.356  -0.350  1.00  0.00    -0.000 C 
BRANCH  12  13
ATOM     13  C   UNL     1       2.194  50.995  -1.810  1.00  0.00    -0.003 C 
ATOM     14  C   UNL     1       3.258  51.923  -2.389  1.00  0.00     0.004 C 
ENDBRANCH  12  13
ENDBRANCH  11  12
ENDBRANCH  10  11
ENDBRANCH   9  10
ENDBRANCH   1   9
TORSDOF 10
ENDMDL
MODEL 4
REMARK VINA RESULT:    -4.354      2.686      4.799
REMARK INTER + INTRA:          -7.712
REMARK INTER:                  -6.708
REMARK INTRA:                  -1.004
REMARK UNBOUND:                -0.812
REMARK SMILES CCCCCCCCCCCC(=O)[O-]
REMARK SMILES IDX 7 1 8 2 9 3 10 4 11 5 12 6 13 7 14 8 6 9 5 10 4 11 3 12 2 13
REMARK SMILES IDX 1 14
REMARK H PARENT
REMARK Flexibility Score: inf
ROOT
ATOM      1  C   UNL     1       2.271  50.675   0.170  1.00  0.00     0.000 C 
ENDROOT
BRANCH   1   2
ATOM      2  C   UNL     1       3.182  50.717   1.408  1.00  0.00     0.000 C 
BRANCH   2   3
ATOM      3  C   UNL     1       3.953  52.044   1.543  1.00  0.00     0.000 C 
BRANCH   3   4
ATOM      4  C   UNL     1       5.460  51.966   1.224  1.00  0.00     0.006 C 
BRANCH   4   5
ATOM      5  C   UNL     1       5.862  52.586  -0.124  1.00  0.00     0.053 C 
BRANCH   5   6
ATOM      6  C   UNL     1       7.347  52.732  -0.251  1.00  0.00     0.041 C 
ATOM      7  O   UNL     1       8.104  52.365   0.685  1.00  0.00    -0.550 OA
ATOM      8  O   UNL     1       7.894  53.304  -1.394  1.00  0.00    -0.550 OA
ENDBRANCH   5   6
ENDBRANCH   4   5
ENDBRANCH   3   4
ENDBRANCH   2   3
ENDBRANCH   1   2
BRANCH   1   9
ATOM      9  C   UNL     1       1.876  52.076  -0.333  1.00  0.00     0.000 C 
BRANCH   9  10
ATOM     10  C   UNL     1       1.995  52.289  -1.854  1.00  0.00    -0.000 C 
BRANCH  10  11
ATOM     11  C   UNL     1       2.899  51.249  -2.537  1.00  0.00    -0.000 C 
BRANCH  11  12
ATOM     12  C   UNL     1       2.802  51.300  -4.070  1.00  0.00    -0.000 C 
BRANCH  12  13
ATOM     13  C   UNL     1       4.171  51.460  -4.746  1.00  0.00    -0.003 C 
ATOM     14  C   UNL     1       5.213  51.977  -3.758  1.00  0.00     0.004 C 
ENDBRANCH  12  13
ENDBRANCH  11  12
ENDBRANCH  10  11
ENDBRANCH   9  10
ENDBRANCH   1   9
TORSDOF 10
ENDMDL
MODEL 5
REMARK VINA RESULT:    -4.340      2.223      5.085
REMARK INTER + INTRA:          -7.688
REMARK INTER:                  -6.486
REMARK INTRA:                  -1.202
REMARK UNBOUND:                -0.812
REMARK SMILES CCCCCCCCCCCC(=O)[O-]
REMARK SMILES IDX 7 1 8 2 9 3 10 4 11 5 12 6 13 7 14 8 6 9 5 10 4 11 3 12 2 13
REMARK SMILES IDX 1 14
REMARK H PARENT
REMARK Flexibility Score: inf
ROOT
ATOM      1  C   UNL     1       5.349  52.067   1.420  1.00  0.00     0.000 C 
ENDROOT
BRANCH   1   2
ATOM      2  C   UNL     1       6.217  52.608   0.272  1.00  0.00     0.000 C 
BRANCH   2   3
ATOM      3  C   UNL     1       5.482  52.620  -1.082  1.00  0.00     0.000 C 
BRANCH   3   4
ATOM      4  C   UNL     1       6.199  51.877  -2.228  1.00  0.00     0.006 C 
BRANCH   4   5
ATOM      5  C   UNL     1       5.626  52.154  -3.627  1.00  0.00     0.053 C 
BRANCH   5   6
ATOM      6  C   UNL     1       5.482  53.621  -3.891  1.00  0.00     0.041 C 
ATOM      7  O   UNL     1       4.343  54.125  -4.070  1.00  0.00    -0.550 OA
ATOM      8  O   UNL     1       6.612  54.427  -3.972  1.00  0.00    -0.550 OA
ENDBRANCH   5   6
ENDBRANCH   4   5
ENDBRANCH   3   4
ENDBRANCH   2   3
ENDBRANCH   1   2
BRANCH   1   9
ATOM      9  C   UNL     1       3.844  52.080   1.095  1.00  0.00     0.000 C 
BRANCH   9  10
ATOM     10  C   UNL     1       3.107  50.748   1.326  1.00  0.00    -0.000 C 
BRANCH  10  11
ATOM     11  C   UNL     1       1.891  50.565   0.402  1.00  0.00    -0.000 C 
BRANCH  11  12
ATOM     12  C   UNL     1       1.937  51.491  -0.824  1.00  0.00    -0.000 C 
BRANCH  12  13
ATOM     13  C   UNL     1       2.343  50.753  -2.109  1.00  0.00    -0.003 C 
ATOM     14  C   UNL     1       1.954  51.555  -3.347  1.00  0.00     0.004 C 
ENDBRANCH  12  13
ENDBRANCH  11  12
ENDBRANCH  10  11
ENDBRANCH   9  10
ENDBRANCH   1   9
TORSDOF 10
ENDMDL
MODEL 6
REMARK VINA RESULT:    -4.339      1.487      2.802
REMARK INTER + INTRA:          -7.688
REMARK INTER:                  -6.636
REMARK INTRA:                  -1.052
REMARK UNBOUND:                -0.812
REMARK SMILES CCCCCCCCCCCC(=O)[O-]
REMARK SMILES IDX 7 1 8 2 9 3 10 4 11 5 12 6 13 7 14 8 6 9 5 10 4 11 3 12 2 13
REMARK SMILES IDX 1 14
REMARK H PARENT
REMARK Flexibility Score: inf
ROOT
ATOM      1  C   UNL     1       3.300  50.749   1.528  1.00  0.00     0.000 C 
ENDROOT
BRANCH   1   2
ATOM      2  C   UNL     1       2.154  51.169   0.593  1.00  0.00     0.000 C 
BRANCH   2   3
ATOM      3  C   UNL     1       2.247  50.518  -0.800  1.00  0.00     0.000 C 
BRANCH   3   4
ATOM      4  C   UNL     1       1.980  51.464  -1.989  1.00  0.00     0.006 C 
BRANCH   4   5
ATOM      5  C   UNL     1       2.121  50.809  -3.372  1.00  0.00     0.053 C 
BRANCH   5   6
ATOM      6  C   UNL     1       2.996  51.614  -4.285  1.00  0.00     0.041 C 
ATOM      7  O   UNL     1       2.530  52.611  -4.894  1.00  0.00    -0.550 OA
ATOM      8  O   UNL     1       4.319  51.240  -4.486  1.00  0.00    -0.550 OA
ENDBRANCH   5   6
ENDBRANCH   4   5
ENDBRANCH   3   4
ENDBRANCH   2   3
ENDBRANCH   1   2
BRANCH   1   9
ATOM      9  C   UNL     1       4.479  51.740   1.519  1.00  0.00     0.000 C 
BRANCH   9  10
ATOM     10  C   UNL     1       4.178  53.116   0.898  1.00  0.00    -0.000 C 
BRANCH  10  11
ATOM     11  C   UNL     1       5.159  53.496  -0.225  1.00  0.00    -0.000 C 
BRANCH  11  12
ATOM     12  C   UNL     1       5.460  52.320  -1.168  1.00  0.00    -0.000 C 
BRANCH  12  13
ATOM     13  C   UNL     1       6.599  52.625  -2.151  1.00  0.00    -0.003 C 
ATOM     14  C   UNL     1       7.910  52.000  -1.683  1.00  0.00     0.004 C 
ENDBRANCH  12  13
ENDBRANCH  11  12
ENDBRANCH  10  11
ENDBRANCH   9  10
ENDBRANCH   1   9
TORSDOF 10
ENDMDL
MODEL 7
REMARK VINA RESULT:    -4.316      2.655      4.190
REMARK INTER + INTRA:          -7.651
REMARK INTER:                  -6.668
REMARK INTRA:                  -0.983
REMARK UNBOUND:                -0.812
REMARK SMILES CCCCCCCCCCCC(=O)[O-]
REMARK SMILES IDX 7 1 8 2 9 3 10 4 11 5 12 6 13 7 14 8 6 9 5 10 4 11 3 12 2 13
REMARK SMILES IDX 1 14
REMARK H PARENT
REMARK Flexibility Score: inf
ROOT
ATOM      1  C   UNL     1       1.957  51.487  -1.003  1.00  0.00     0.000 C 
ENDROOT
BRANCH   1   2
ATOM      2  C   UNL     1       1.927  50.483   0.161  1.00  0.00     0.000 C 
BRANCH   2   3
ATOM      3  C   UNL     1       3.037  50.734   1.200  1.00  0.00     0.000 C 
BRANCH   3   4
ATOM      4  C   UNL     1       3.863  52.018   0.984  1.00  0.00     0.006 C 
BRANCH   4   5
ATOM      5  C   UNL     1       5.338  51.909   1.403  1.00  0.00     0.053 C 
BRANCH   5   6
ATOM      6  C   UNL     1       5.983  53.254   1.536  1.00  0.00     0.041 C 
ATOM      7  O   UNL     1       7.231  53.372   1.427  1.00  0.00    -0.550 OA
ATOM      8  O   UNL     1       5.206  54.373   1.811  1.00  0.00    -0.550 OA
ENDBRANCH   5   6
ENDBRANCH   4   5
ENDBRANCH   3   4
ENDBRANCH   2   3
ENDBRANCH   1   2
BRANCH   1   9
ATOM      9  C   UNL     1       2.297  50.831  -2.354  1.00  0.00     0.000 C 
BRANCH   9  10
ATOM     10  C   UNL     1       2.828  51.788  -3.437  1.00  0.00    -0.000 C 
BRANCH  10  11
ATOM     11  C   UNL     1       4.164  51.328  -4.044  1.00  0.00    -0.000 C 
BRANCH  11  12
ATOM     12  C   UNL     1       5.306  52.323  -3.778  1.00  0.00    -0.000 C 
BRANCH  12  13
ATOM     13  C   UNL     1       5.650  52.446  -2.287  1.00  0.00    -0.003 C 
ATOM     14  C   UNL     1       7.115  52.106  -2.032  1.00  0.00     0.004 C 
ENDBRANCH  12  13
ENDBRANCH  11  12
ENDBRANCH  10  11
ENDBRANCH   9  10
ENDBRANCH   1   9
TORSDOF 10
ENDMDL
MODEL 8
REMARK VINA RESULT:    -4.300      2.705      3.989
REMARK INTER + INTRA:          -7.626
REMARK INTER:                  -6.129
REMARK INTRA:                  -1.497
REMARK UNBOUND:                -0.812
REMARK SMILES CCCCCCCCCCCC(=O)[O-]
REMARK SMILES IDX 7 1 8 2 9 3 10 4 11 5 12 6 13 7 14 8 6 9 5 10 4 11 3 12 2 13
REMARK SMILES IDX 1 14
REMARK H PARENT
REMARK Flexibility Score: inf
ROOT
ATOM      1  C   UNL     1       2.686  50.745   0.099  1.00  0.00     0.000 C 
ENDROOT
BRANCH   1   2
ATOM      2  C   UNL     1       1.875  52.005  -0.246  1.00  0.00     0.000 C 
BRANCH   2   3
ATOM      3  C   UNL     1       2.327  52.670  -1.560  1.00  0.00     0.000 C 
BRANCH   3   4
ATOM      4  C   UNL     1       2.374  54.211  -1.537  1.00  0.00     0.006 C 
BRANCH   4   5
ATOM      5  C   UNL     1       2.037  54.842  -0.177  1.00  0.00     0.053 C 
BRANCH   5   6
ATOM      6  C   UNL     1       2.930  56.003   0.138  1.00  0.00     0.041 C 
ATOM      7  O   UNL     1       4.029  55.818   0.721  1.00  0.00    -0.550 OA
ATOM      8  O   UNL     1       2.530  57.294  -0.187  1.00  0.00    -0.550 OA
ENDBRANCH   5   6
ENDBRANCH   4   5
ENDBRANCH   3   4
ENDBRANCH   2   3
ENDBRANCH   1   2
BRANCH   1   9
ATOM      9  C   UNL     1       3.579  50.925   1.340  1.00  0.00     0.000 C 
BRANCH   9  10
ATOM     10  C   UNL     1       4.313  52.276   1.436  1.00  0.00    -0.000 C 
BRANCH  10  11
ATOM     11  C   UNL     1       5.734  52.230   0.850  1.00  0.00    -0.000 C 
BRANCH  11  12
ATOM     12  C   UNL     1       5.857  53.023  -0.462  1.00  0.00    -0.000 C 
BRANCH  12  13
ATOM     13  C   UNL     1       6.217  52.133  -1.660  1.00  0.00    -0.003 C 
ATOM     14  C   UNL     1       5.780  52.777  -2.972  1.00  0.00     0.004 C 
ENDBRANCH  12  13
ENDBRANCH  11  12
ENDBRANCH  10  11
ENDBRANCH   9  10
ENDBRANCH   1   9
TORSDOF 10
ENDMDL
MODEL 9
REMARK VINA RESULT:    -4.275      1.582      2.369
REMARK INTER + INTRA:          -7.586
REMARK INTER:                  -6.688
REMARK INTRA:                  -0.898
REMARK UNBOUND:                -0.812
REMARK SMILES CCCCCCCCCCCC(=O)[O-]
REMARK SMILES IDX 7 1 8 2 9 3 10 4 11 5 12 6 13 7 14 8 6 9 5 10 4 11 3 12 2 13
REMARK SMILES IDX 1 14
REMARK H PARENT
REMARK Flexibility Score: inf
ROOT
ATOM      1  C   UNL     1       3.951  52.112   1.489  1.00  0.00     0.000 C 
ENDROOT
BRANCH   1   2
ATOM      2  C   UNL     1       3.267  50.753   1.709  1.00  0.00     0.000 C 
BRANCH   2   3
ATOM      3  C   UNL     1       2.214  50.429   0.632  1.00  0.00     0.000 C 
BRANCH   3   4
ATOM      4  C   UNL     1       2.176  51.400  -0.566  1.00  0.00     0.006 C 
BRANCH   4   5
ATOM      5  C   UNL     1       2.184  50.718  -1.943  1.00  0.00     0.053 C 
BRANCH   5   6
ATOM      6  C   UNL     1       2.649  51.646  -3.023  1.00  0.00     0.041 C 
ATOM      7  O   UNL     1       3.196  51.189  -4.060  1.00  0.00    -0.550 OA
ATOM      8  O   UNL     1       2.505  53.020  -2.869  1.00  0.00    -0.550 OA
ENDBRANCH   5   6
ENDBRANCH   4   5
ENDBRANCH   3   4
ENDBRANCH   2   3
ENDBRANCH   1   2
BRANCH   1   9
ATOM      9  C   UNL     1       5.484  52.005   1.385  1.00  0.00     0.000 C 
BRANCH   9  10
ATOM     10  C   UNL     1       6.120  52.758   0.203  1.00  0.00    -0.000 C 
BRANCH  10  11
ATOM     11  C   UNL     1       5.657  52.231  -1.165  1.00  0.00    -0.000 C 
BRANCH  11  12
ATOM     12  C   UNL     1       6.759  52.314  -2.234  1.00  0.00    -0.000 C 
BRANCH  12  13
ATOM     13  C   UNL     1       6.787  53.671  -2.952  1.00  0.00    -0.003 C 
ATOM     14  C   UNL     1       5.779  53.707  -4.097  1.00  0.00     0.004 C 
ENDBRANCH  12  13
ENDBRANCH  11  12
ENDBRANCH  10  11
ENDBRANCH   9  10
ENDBRANCH   1   9
TORSDOF 10
ENDMDL
