MODEL 1
REMARK VINA RESULT:    22.884      0.000      0.000
REMARK INTER + INTRA:          59.972
REMARK INTER:                  60.342
REMARK INTRA:                  -0.371
REMARK UNBOUND:                -0.371
REMARK SMILES CCCCCCCCCCCCCCCCCCCCCCCCCCCCCC(=O)[O-]
REMARK SMILES IDX 16 1 17 2 18 3 19 4 20 5 21 6 22 7 23 8 24 9 25 10 26 11
REMARK SMILES IDX 27 12 28 13 29 14 30 15 31 16 32 17 15 18 14 19 13 20 12 21
REMARK SMILES IDX 11 22 10 23 9 24 8 25 7 26 6 27 5 28 4 29 3 30 2 31 1 32
REMARK H PARENT
REMARK Flexibility Score: inf
ROOT
ATOM      1  C   UNL     1      -9.653  34.356 -20.066  1.00  0.00     0.000 C 
ENDROOT
BRANCH   1   2
ATOM      2  C   UNL     1      -9.219  33.518 -18.849  1.00  0.00     0.000 C 
BRANCH   2   3
ATOM      3  C   UNL     1      -7.731  33.693 -18.503  1.00  0.00     0.000 C 
BRANCH   3   4
ATOM      4  C   UNL     1      -7.265  35.160 -18.543  1.00  0.00     0.000 C 
BRANCH   4   5
ATOM      5  C   UNL     1      -5.956  35.430 -17.774  1.00  0.00     0.000 C 
BRANCH   5   6
ATOM      6  C   UNL     1      -6.033  34.996 -16.298  1.00  0.00     0.000 C 
BRANCH   6   7
ATOM      7  C   UNL     1      -7.484  34.862 -15.796  1.00  0.00     0.000 C 
BRANCH   7   8
ATOM      8  C   UNL     1      -7.786  33.560 -15.031  1.00  0.00     0.000 C 
BRANCH   8   9
ATOM      9  C   UNL     1      -8.024  32.312 -15.907  1.00  0.00     0.000 C 
BRANCH   9  10
ATOM     10  C   UNL     1      -8.044  30.984 -15.123  1.00  0.00     0.000 C 
BRANCH  10  11
ATOM     11  C   UNL     1      -6.982  30.938 -14.010  1.00  0.00     0.000 C 
BRANCH  11  12
ATOM     12  C   UNL     1      -7.159  29.732 -13.068  1.00  0.00     0.000 C 
BRANCH  12  13
ATOM     13  C   UNL     1      -7.168  30.077 -11.564  1.00  0.00     0.006 C 
BRANCH  13  14
ATOM     14  C   UNL     1      -7.110  28.857 -10.628  1.00  0.00     0.053 C 
BRANCH  14  15
ATOM     15  C   UNL     1      -8.409  28.635  -9.911  1.00  0.00     0.041 C 
ATOM     16  O   UNL     1      -8.947  27.498  -9.914  1.00  0.00    -0.550 OA
ATOM     17  O   UNL     1      -9.037  29.694  -9.267  1.00  0.00    -0.550 OA
ENDBRANCH  14  15
ENDBRANCH  13  14
ENDBRANCH  12  13
ENDBRANCH  11  12
ENDBRANCH  10  11
ENDBRANCH   9  10
ENDBRANCH   8   9
ENDBRANCH   7   8
ENDBRANCH   6   7
ENDBRANCH   5   6
ENDBRANCH   4   5
ENDBRANCH   3   4
ENDBRANCH   2   3
ENDBRANCH   1   2
BRANCH   1  18
ATOM     18  C   UNL     1     -10.409  33.571 -21.157  1.00  0.00     0.000 C 
BRANCH  18  19
ATOM     19  C   UNL     1     -11.937  33.498 -20.965  1.00  0.00     0.000 C 
BRANCH  19  20
ATOM     20  C   UNL     1     -12.569  32.141 -21.326  1.00  0.00     0.000 C 
BRANCH  20  21
ATOM     21  C   UNL     1     -13.655  31.676 -20.330  1.00  0.00     0.000 C 
BRANCH  21  22
ATOM     22  C   UNL     1     -14.106  30.227 -20.591  1.00  0.00     0.000 C 
BRANCH  22  23
ATOM     23  C   UNL     1     -15.301  29.814 -19.705  1.00  0.00     0.000 C 
BRANCH  23  24
ATOM     24  C   UNL     1     -15.709  28.336 -19.856  1.00  0.00    -0.000 C 
BRANCH  24  25
ATOM     25  C   UNL     1     -17.071  27.968 -19.244  1.00  0.00    -0.000 C 
BRANCH  25  26
ATOM     26  C   UNL     1     -17.354  26.456 -19.287  1.00  0.00    -0.000 C 
BRANCH  26  27
ATOM     27  C   UNL     1     -16.949  25.731 -17.990  1.00  0.00    -0.000 C 
BRANCH  27  28
ATOM     28  C   UNL     1     -15.932  24.586 -18.159  1.00  0.00    -0.000 C 
BRANCH  28  29
ATOM     29  C   UNL     1     -16.530  23.346 -18.844  1.00  0.00    -0.000 C 
BRANCH  29  30
ATOM     30  C   UNL     1     -16.179  23.261 -20.341  1.00  0.00    -0.000 C 
BRANCH  30  31
ATOM     31  C   UNL     1     -14.711  23.569 -20.686  1.00  0.00    -0.003 C 
ATOM     32  C   UNL     1     -14.336  23.177 -22.116  1.00  0.00     0.004 C 
ENDBRANCH  30  31
ENDBRANCH  29  30
ENDBRANCH  28  29
ENDBRANCH  27  28
ENDBRANCH  26  27
ENDBRANCH  25  26
ENDBRANCH  24  25
ENDBRANCH  23  24
ENDBRANCH  22  23
ENDBRANCH  21  22
ENDBRANCH  20  21
ENDBRANCH  19  20
ENDBRANCH  18  19
ENDBRANCH   1  18
TORSDOF 28
ENDMDL
MODEL 2
REMARK VINA RESULT:    23.456      6.652     10.574
REMARK INTER + INTRA:          61.480
REMARK INTER:                  63.022
REMARK INTRA:                  -1.542
REMARK UNBOUND:                -0.371
REMARK SMILES CCCCCCCCCCCCCCCCCCCCCCCCCCCCCC(=O)[O-]
REMARK SMILES IDX 16 1 17 2 18 3 19 4 20 5 21 6 22 7 23 8 24 9 25 10 26 11
REMARK SMILES IDX 27 12 28 13 29 14 30 15 31 16 32 17 15 18 14 19 13 20 12 21
REMARK SMILES IDX 11 22 10 23 9 24 8 25 7 26 6 27 5 28 4 29 3 30 2 31 1 32
REMARK H PARENT
REMARK Flexibility Score: inf
ROOT
ATOM      1  C   UNL     1      -7.679  37.904 -16.399  1.00  0.00     0.000 C 
ENDROOT
BRANCH   1   2
ATOM      2  C   UNL     1      -7.752  39.432 -16.223  1.00  0.00     0.000 C 
BRANCH   2   3
ATOM      3  C   UNL     1      -8.867  39.869 -15.258  1.00  0.00     0.000 C 
BRANCH   3   4
ATOM      4  C   UNL     1      -8.817  41.367 -14.907  1.00  0.00     0.000 C 
BRANCH   4   5
ATOM      5  C   UNL     1      -7.402  41.901 -14.608  1.00  0.00     0.000 C 
BRANCH   5   6
ATOM      6  C   UNL     1      -6.849  41.398 -13.261  1.00  0.00     0.000 C 
BRANCH   6   7
ATOM      7  C   UNL     1      -7.583  42.013 -12.053  1.00  0.00     0.000 C 
BRANCH   7   8
ATOM      8  C   UNL     1      -8.057  40.997 -10.998  1.00  0.00     0.000 C 
BRANCH   8   9
ATOM      9  C   UNL     1      -9.318  41.400 -10.205  1.00  0.00     0.000 C 
BRANCH   9  10
ATOM     10  C   UNL     1     -10.602  40.667 -10.645  1.00  0.00     0.000 C 
BRANCH  10  11
ATOM     11  C   UNL     1     -11.853  41.558 -10.556  1.00  0.00     0.000 C 
BRANCH  11  12
ATOM     12  C   UNL     1     -12.141  42.313 -11.867  1.00  0.00     0.000 C 
BRANCH  12  13
ATOM     13  C   UNL     1     -12.977  41.527 -12.900  1.00  0.00     0.006 C 
BRANCH  13  14
ATOM     14  C   UNL     1     -13.887  42.398 -13.782  1.00  0.00     0.053 C 
BRANCH  14  15
ATOM     15  C   UNL     1     -13.318  42.597 -15.155  1.00  0.00     0.041 C 
ATOM     16  O   UNL     1     -12.071  42.607 -15.328  1.00  0.00    -0.550 OA
ATOM     17  O   UNL     1     -14.165  42.801 -16.237  1.00  0.00    -0.550 OA
ENDBRANCH  14  15
ENDBRANCH  13  14
ENDBRANCH  12  13
ENDBRANCH  11  12
ENDBRANCH  10  11
ENDBRANCH   9  10
ENDBRANCH   8   9
ENDBRANCH   7   8
ENDBRANCH   6   7
ENDBRANCH   5   6
ENDBRANCH   4   5
ENDBRANCH   3   4
ENDBRANCH   2   3
ENDBRANCH   1   2
BRANCH   1  18
ATOM     18  C   UNL     1      -6.250  37.326 -16.454  1.00  0.00     0.000 C 
BRANCH  18  19
ATOM     19  C   UNL     1      -5.933  36.494 -17.712  1.00  0.00     0.000 C 
BRANCH  19  20
ATOM     20  C   UNL     1      -5.995  34.968 -17.512  1.00  0.00     0.000 C 
BRANCH  20  21
ATOM     21  C   UNL     1      -6.112  34.540 -16.032  1.00  0.00     0.000 C 
BRANCH  21  22
ATOM     22  C   UNL     1      -7.576  34.356 -15.591  1.00  0.00     0.000 C 
BRANCH  22  23
ATOM     23  C   UNL     1      -7.831  32.971 -14.957  1.00  0.00     0.000 C 
BRANCH  23  24
ATOM     24  C   UNL     1      -8.443  31.944 -15.927  1.00  0.00    -0.000 C 
BRANCH  24  25
ATOM     25  C   UNL     1      -8.199  32.227 -17.419  1.00  0.00    -0.000 C 
BRANCH  25  26
ATOM     26  C   UNL     1      -9.273  33.141 -18.035  1.00  0.00    -0.000 C 
BRANCH  26  27
ATOM     27  C   UNL     1      -8.871  33.699 -19.413  1.00  0.00    -0.000 C 
BRANCH  27  28
ATOM     28  C   UNL     1      -9.697  33.180 -20.605  1.00  0.00    -0.000 C 
BRANCH  28  29
ATOM     29  C   UNL     1     -10.970  34.004 -20.859  1.00  0.00    -0.000 C 
BRANCH  29  30
ATOM     30  C   UNL     1     -11.618  33.701 -22.223  1.00  0.00    -0.000 C 
BRANCH  30  31
ATOM     31  C   UNL     1     -12.849  32.778 -22.171  1.00  0.00    -0.003 C 
ATOM     32  C   UNL     1     -12.716  31.658 -21.138  1.00  0.00     0.004 C 
ENDBRANCH  30  31
ENDBRANCH  29  30
ENDBRANCH  28  29
ENDBRANCH  27  28
ENDBRANCH  26  27
ENDBRANCH  25  26
ENDBRANCH  24  25
ENDBRANCH  23  24
ENDBRANCH  22  23
ENDBRANCH  21  22
ENDBRANCH  20  21
ENDBRANCH  19  20
ENDBRANCH  18  19
ENDBRANCH   1  18
TORSDOF 28
ENDMDL
MODEL 3
REMARK VINA RESULT:    23.584      4.010     11.513
REMARK INTER + INTRA:          61.818
REMARK INTER:                  62.435
REMARK INTRA:                  -0.617
REMARK UNBOUND:                -0.371
REMARK SMILES CCCCCCCCCCCCCCCCCCCCCCCCCCCCCC(=O)[O-]
REMARK SMILES IDX 16 1 17 2 18 3 19 4 20 5 21 6 22 7 23 8 24 9 25 10 26 11
REMARK SMILES IDX 27 12 28 13 29 14 30 15 31 16 32 17 15 18 14 19 13 20 12 21
REMARK SMILES IDX 11 22 10 23 9 24 8 25 7 26 6 27 5 28 4 29 3 30 2 31 1 32
REMARK H PARENT
REMARK Flexibility Score: inf
ROOT
ATOM      1  C   UNL     1     -16.462  30.374 -21.018  1.00  0.00     0.000 C 
ENDROOT
BRANCH   1   2
ATOM      2  C   UNL     1     -17.944  30.432 -21.429  1.00  0.00     0.000 C 
BRANCH   2   3
ATOM      3  C   UNL     1     -18.445  29.117 -22.049  1.00  0.00     0.000 C 
BRANCH   3   4
ATOM      4  C   UNL     1     -18.044  27.871 -21.238  1.00  0.00     0.000 C 
BRANCH   4   5
ATOM      5  C   UNL     1     -16.555  27.486 -21.360  1.00  0.00     0.000 C 
BRANCH   5   6
ATOM      6  C   UNL     1     -15.917  27.145 -20.000  1.00  0.00     0.000 C 
BRANCH   6   7
ATOM      7  C   UNL     1     -16.826  26.259 -19.126  1.00  0.00     0.000 C 
BRANCH   7   8
ATOM      8  C   UNL     1     -16.409  26.167 -17.646  1.00  0.00     0.000 C 
BRANCH   8   9
ATOM      9  C   UNL     1     -16.777  24.850 -16.931  1.00  0.00     0.000 C 
BRANCH   9  10
ATOM     10  C   UNL     1     -17.222  23.719 -17.881  1.00  0.00     0.000 C 
BRANCH  10  11
ATOM     11  C   UNL     1     -16.060  23.163 -18.724  1.00  0.00     0.000 C 
BRANCH  11  12
ATOM     12  C   UNL     1     -16.314  23.281 -20.239  1.00  0.00     0.000 C 
BRANCH  12  13
ATOM     13  C   UNL     1     -15.122  22.877 -21.132  1.00  0.00     0.006 C 
BRANCH  13  14
ATOM     14  C   UNL     1     -14.730  23.925 -22.188  1.00  0.00     0.053 C 
BRANCH  14  15
ATOM     15  C   UNL     1     -13.249  23.969 -22.415  1.00  0.00     0.041 C 
ATOM     16  O   UNL     1     -12.744  24.877 -23.124  1.00  0.00    -0.550 OA
ATOM     17  O   UNL     1     -12.432  22.987 -21.867  1.00  0.00    -0.550 OA
ENDBRANCH  14  15
ENDBRANCH  13  14
ENDBRANCH  12  13
ENDBRANCH  11  12
ENDBRANCH  10  11
ENDBRANCH   9  10
ENDBRANCH   8   9
ENDBRANCH   7   8
ENDBRANCH   6   7
ENDBRANCH   5   6
ENDBRANCH   4   5
ENDBRANCH   3   4
ENDBRANCH   2   3
ENDBRANCH   1   2
BRANCH   1  18
ATOM     18  C   UNL     1     -15.465  30.773 -22.126  1.00  0.00     0.000 C 
BRANCH  18  19
ATOM     19  C   UNL     1     -14.392  31.792 -21.700  1.00  0.00     0.000 C 
BRANCH  19  20
ATOM     20  C   UNL     1     -13.155  31.851 -22.615  1.00  0.00     0.000 C 
BRANCH  20  21
ATOM     21  C   UNL     1     -12.424  33.212 -22.587  1.00  0.00     0.000 C 
BRANCH  21  22
ATOM     22  C   UNL     1     -12.020  33.630 -21.161  1.00  0.00     0.000 C 
BRANCH  22  23
ATOM     23  C   UNL     1     -10.568  34.150 -21.089  1.00  0.00     0.000 C 
BRANCH  23  24
ATOM     24  C   UNL     1      -9.577  33.149 -20.465  1.00  0.00    -0.000 C 
BRANCH  24  25
ATOM     25  C   UNL     1      -9.261  33.383 -18.978  1.00  0.00    -0.000 C 
BRANCH  25  26
ATOM     26  C   UNL     1      -7.906  34.079 -18.761  1.00  0.00    -0.000 C 
BRANCH  26  27
ATOM     27  C   UNL     1      -7.192  33.619 -17.476  1.00  0.00    -0.000 C 
BRANCH  27  28
ATOM     28  C   UNL     1      -7.247  34.608 -16.296  1.00  0.00    -0.000 C 
BRANCH  28  29
ATOM     29  C   UNL     1      -8.453  34.373 -15.370  1.00  0.00    -0.000 C 
BRANCH  29  30
ATOM     30  C   UNL     1      -8.190  33.292 -14.306  1.00  0.00    -0.000 C 
BRANCH  30  31
ATOM     31  C   UNL     1      -8.796  31.911 -14.613  1.00  0.00    -0.003 C 
ATOM     32  C   UNL     1      -8.031  31.147 -15.695  1.00  0.00     0.004 C 
ENDBRANCH  30  31
ENDBRANCH  29  30
ENDBRANCH  28  29
ENDBRANCH  27  28
ENDBRANCH  26  27
ENDBRANCH  25  26
ENDBRANCH  24  25
ENDBRANCH  23  24
ENDBRANCH  22  23
ENDBRANCH  21  22
ENDBRANCH  20  21
ENDBRANCH  19  20
ENDBRANCH  18  19
ENDBRANCH   1  18
TORSDOF 28
ENDMDL
MODEL 4
REMARK VINA RESULT:    23.979      3.595      5.463
REMARK INTER + INTRA:          62.860
REMARK INTER:                  62.695
REMARK INTRA:                   0.165
REMARK UNBOUND:                -0.371
REMARK SMILES CCCCCCCCCCCCCCCCCCCCCCCCCCCCCC(=O)[O-]
REMARK SMILES IDX 16 1 17 2 18 3 19 4 20 5 21 6 22 7 23 8 24 9 25 10 26 11
REMARK SMILES IDX 27 12 28 13 29 14 30 15 31 16 32 17 15 18 14 19 13 20 12 21
REMARK SMILES IDX 11 22 10 23 9 24 8 25 7 26 6 27 5 28 4 29 3 30 2 31 1 32
REMARK H PARENT
REMARK Flexibility Score: inf
ROOT
ATOM      1  C   UNL     1     -13.022  31.166 -20.786  1.00  0.00     0.000 C 
ENDROOT
BRANCH   1   2
ATOM      2  C   UNL     1     -13.329  32.373 -21.690  1.00  0.00     0.000 C 
BRANCH   2   3
ATOM      3  C   UNL     1     -12.099  32.860 -22.474  1.00  0.00     0.000 C 
BRANCH   3   4
ATOM      4  C   UNL     1     -11.402  34.069 -21.825  1.00  0.00     0.000 C 
BRANCH   4   5
ATOM      5  C   UNL     1      -9.939  33.811 -21.410  1.00  0.00     0.000 C 
BRANCH   5   6
ATOM      6  C   UNL     1      -9.545  34.561 -20.124  1.00  0.00     0.000 C 
BRANCH   6   7
ATOM      7  C   UNL     1      -8.830  33.652 -19.105  1.00  0.00     0.000 C 
BRANCH   7   8
ATOM      8  C   UNL     1      -9.407  32.228 -18.991  1.00  0.00     0.000 C 
BRANCH   8   9
ATOM      9  C   UNL     1      -8.579  31.240 -18.142  1.00  0.00     0.000 C 
BRANCH   9  10
ATOM     10  C   UNL     1      -7.911  31.876 -16.906  1.00  0.00     0.000 C 
BRANCH  10  11
ATOM     11  C   UNL     1      -8.106  33.401 -16.846  1.00  0.00     0.000 C 
BRANCH  11  12
ATOM     12  C   UNL     1      -7.144  34.086 -15.857  1.00  0.00     0.000 C 
BRANCH  12  13
ATOM     13  C   UNL     1      -5.877  34.693 -16.496  1.00  0.00     0.006 C 
BRANCH  13  14
ATOM     14  C   UNL     1      -6.093  36.060 -17.169  1.00  0.00     0.053 C 
BRANCH  14  15
ATOM     15  C   UNL     1      -7.109  36.890 -16.444  1.00  0.00     0.041 C 
ATOM     16  O   UNL     1      -8.289  36.472 -16.309  1.00  0.00    -0.550 OA
ATOM     17  O   UNL     1      -6.760  38.139 -15.943  1.00  0.00    -0.550 OA
ENDBRANCH  14  15
ENDBRANCH  13  14
ENDBRANCH  12  13
ENDBRANCH  11  12
ENDBRANCH  10  11
ENDBRANCH   9  10
ENDBRANCH   8   9
ENDBRANCH   7   8
ENDBRANCH   6   7
ENDBRANCH   5   6
ENDBRANCH   4   5
ENDBRANCH   3   4
ENDBRANCH   2   3
ENDBRANCH   1   2
BRANCH   1  18
ATOM     18  C   UNL     1     -14.165  30.137 -20.668  1.00  0.00     0.000 C 
BRANCH  18  19
ATOM     19  C   UNL     1     -14.980  30.217 -19.362  1.00  0.00     0.000 C 
BRANCH  19  20
ATOM     20  C   UNL     1     -15.369  28.855 -18.758  1.00  0.00     0.000 C 
BRANCH  20  21
ATOM     21  C   UNL     1     -16.003  27.881 -19.776  1.00  0.00     0.000 C 
BRANCH  21  22
ATOM     22  C   UNL     1     -17.542  27.916 -19.739  1.00  0.00     0.000 C 
BRANCH  22  23
ATOM     23  C   UNL     1     -18.132  26.873 -18.765  1.00  0.00     0.000 C 
BRANCH  23  24
ATOM     24  C   UNL     1     -17.160  26.441 -17.650  1.00  0.00    -0.000 C 
BRANCH  24  25
ATOM     25  C   UNL     1     -16.862  24.933 -17.593  1.00  0.00    -0.000 C 
BRANCH  25  26
ATOM     26  C   UNL     1     -15.640  24.536 -18.440  1.00  0.00    -0.000 C 
BRANCH  26  27
ATOM     27  C   UNL     1     -15.854  23.230 -19.229  1.00  0.00    -0.000 C 
BRANCH  27  28
ATOM     28  C   UNL     1     -16.496  23.394 -20.620  1.00  0.00    -0.000 C 
BRANCH  28  29
ATOM     29  C   UNL     1     -16.045  24.673 -21.344  1.00  0.00    -0.000 C 
BRANCH  29  30
ATOM     30  C   UNL     1     -14.709  24.500 -22.090  1.00  0.00    -0.000 C 
BRANCH  30  31
ATOM     31  C   UNL     1     -14.402  23.066 -22.557  1.00  0.00    -0.003 C 
ATOM     32  C   UNL     1     -12.961  22.886 -23.035  1.00  0.00     0.004 C 
ENDBRANCH  30  31
ENDBRANCH  29  30
ENDBRANCH  28  29
ENDBRANCH  27  28
ENDBRANCH  26  27
ENDBRANCH  25  26
ENDBRANCH  24  25
ENDBRANCH  23  24
ENDBRANCH  22  23
ENDBRANCH  21  22
ENDBRANCH  20  21
ENDBRANCH  19  20
ENDBRANCH  18  19
ENDBRANCH   1  18
TORSDOF 28
ENDMDL
MODEL 5
REMARK VINA RESULT:    24.113      5.961      9.802
REMARK INTER + INTRA:          63.213
REMARK INTER:                  63.369
REMARK INTRA:                  -0.155
REMARK UNBOUND:                -0.371
REMARK SMILES CCCCCCCCCCCCCCCCCCCCCCCCCCCCCC(=O)[O-]
REMARK SMILES IDX 16 1 17 2 18 3 19 4 20 5 21 6 22 7 23 8 24 9 25 10 26 11
REMARK SMILES IDX 27 12 28 13 29 14 30 15 31 16 32 17 15 18 14 19 13 20 12 21
REMARK SMILES IDX 11 22 10 23 9 24 8 25 7 26 6 27 5 28 4 29 3 30 2 31 1 32
REMARK H PARENT
REMARK Flexibility Score: inf
ROOT
ATOM      1  C   UNL     1      -7.768  38.057 -16.219  1.00  0.00     0.000 C 
ENDROOT
BRANCH   1   2
ATOM      2  C   UNL     1      -7.761  39.486 -15.646  1.00  0.00     0.000 C 
BRANCH   2   3
ATOM      3  C   UNL     1      -9.047  39.826 -14.874  1.00  0.00     0.000 C 
BRANCH   3   4
ATOM      4  C   UNL     1      -9.094  41.284 -14.381  1.00  0.00     0.000 C 
BRANCH   4   5
ATOM      5  C   UNL     1      -7.720  41.868 -13.995  1.00  0.00     0.000 C 
BRANCH   5   6
ATOM      6  C   UNL     1      -7.136  41.222 -12.724  1.00  0.00     0.000 C 
BRANCH   6   7
ATOM      7  C   UNL     1      -7.839  41.702 -11.439  1.00  0.00     0.000 C 
BRANCH   7   8
ATOM      8  C   UNL     1      -8.135  40.594 -10.411  1.00  0.00     0.000 C 
BRANCH   8   9
ATOM      9  C   UNL     1      -9.229  40.924  -9.374  1.00  0.00     0.000 C 
BRANCH   9  10
ATOM     10  C   UNL     1     -10.537  41.467  -9.986  1.00  0.00     0.000 C 
BRANCH  10  11
ATOM     11  C   UNL     1     -10.733  41.027 -11.448  1.00  0.00     0.000 C 
BRANCH  11  12
ATOM     12  C   UNL     1     -12.199  40.685 -11.774  1.00  0.00     0.000 C 
BRANCH  12  13
ATOM     13  C   UNL     1     -13.043  40.220 -10.569  1.00  0.00     0.006 C 
BRANCH  13  14
ATOM     14  C   UNL     1     -13.600  38.791 -10.691  1.00  0.00     0.053 C 
BRANCH  14  15
ATOM     15  C   UNL     1     -14.379  38.385  -9.476  1.00  0.00     0.041 C 
ATOM     16  O   UNL     1     -15.637  38.427  -9.488  1.00  0.00    -0.550 OA
ATOM     17  O   UNL     1     -13.714  37.989  -8.323  1.00  0.00    -0.550 OA
ENDBRANCH  14  15
ENDBRANCH  13  14
ENDBRANCH  12  13
ENDBRANCH  11  12
ENDBRANCH  10  11
ENDBRANCH   9  10
ENDBRANCH   8   9
ENDBRANCH   7   8
ENDBRANCH   6   7
ENDBRANCH   5   6
ENDBRANCH   4   5
ENDBRANCH   3   4
ENDBRANCH   2   3
ENDBRANCH   1   2
BRANCH   1  18
ATOM     18  C   UNL     1      -6.376  37.406 -16.353  1.00  0.00     0.000 C 
BRANCH  18  19
ATOM     19  C   UNL     1      -6.104  36.727 -17.710  1.00  0.00     0.000 C 
BRANCH  19  20
ATOM     20  C   UNL     1      -5.879  35.206 -17.638  1.00  0.00     0.000 C 
BRANCH  20  21
ATOM     21  C   UNL     1      -6.034  34.620 -16.217  1.00  0.00     0.000 C 
BRANCH  21  22
ATOM     22  C   UNL     1      -7.510  34.454 -15.810  1.00  0.00     0.000 C 
BRANCH  22  23
ATOM     23  C   UNL     1      -7.763  33.144 -15.034  1.00  0.00     0.000 C 
BRANCH  23  24
ATOM     24  C   UNL     1      -8.081  31.936 -15.935  1.00  0.00    -0.000 C 
BRANCH  24  25
ATOM     25  C   UNL     1      -8.041  32.219 -17.446  1.00  0.00    -0.000 C 
BRANCH  25  26
ATOM     26  C   UNL     1      -8.929  33.409 -17.852  1.00  0.00    -0.000 C 
BRANCH  26  27
ATOM     27  C   UNL     1      -8.759  33.810 -19.329  1.00  0.00    -0.000 C 
BRANCH  27  28
ATOM     28  C   UNL     1      -9.668  33.067 -20.327  1.00  0.00    -0.000 C 
BRANCH  28  29
ATOM     29  C   UNL     1     -11.048  33.726 -20.489  1.00  0.00    -0.000 C 
BRANCH  29  30
ATOM     30  C   UNL     1     -11.556  33.703 -21.942  1.00  0.00    -0.000 C 
BRANCH  30  31
ATOM     31  C   UNL     1     -12.979  33.145 -22.128  1.00  0.00    -0.003 C 
ATOM     32  C   UNL     1     -13.093  31.661 -21.776  1.00  0.00     0.004 C 
ENDBRANCH  30  31
ENDBRANCH  29  30
ENDBRANCH  28  29
ENDBRANCH  27  28
ENDBRANCH  26  27
ENDBRANCH  25  26
ENDBRANCH  24  25
ENDBRANCH  23  24
ENDBRANCH  22  23
ENDBRANCH  21  22
ENDBRANCH  20  21
ENDBRANCH  19  20
ENDBRANCH  18  19
ENDBRANCH   1  18
TORSDOF 28
ENDMDL
MODEL 6
REMARK VINA RESULT:    24.155      5.155     12.947
REMARK INTER + INTRA:          63.323
REMARK INTER:                  64.028
REMARK INTRA:                  -0.705
REMARK UNBOUND:                -0.371
REMARK SMILES CCCCCCCCCCCCCCCCCCCCCCCCCCCCCC(=O)[O-]
REMARK SMILES IDX 16 1 17 2 18 3 19 4 20 5 21 6 22 7 23 8 24 9 25 10 26 11
REMARK SMILES IDX 27 12 28 13 29 14 30 15 31 16 32 17 15 18 14 19 13 20 12 21
REMARK SMILES IDX 11 22 10 23 9 24 8 25 7 26 6 27 5 28 4 29 3 30 2 31 1 32
REMARK H PARENT
REMARK Flexibility Score: inf
ROOT
ATOM      1  C   UNL     1      -8.190  32.884 -16.264  1.00  0.00     0.000 C 
ENDROOT
BRANCH   1   2
ATOM      2  C   UNL     1      -8.268  32.546 -17.764  1.00  0.00     0.000 C 
BRANCH   2   3
ATOM      3  C   UNL     1      -9.017  33.613 -18.579  1.00  0.00     0.000 C 
BRANCH   3   4
ATOM      4  C   UNL     1      -9.619  33.070 -19.887  1.00  0.00     0.000 C 
BRANCH   4   5
ATOM      5  C   UNL     1     -10.629  34.019 -20.564  1.00  0.00     0.000 C 
BRANCH   5   6
ATOM      6  C   UNL     1     -11.373  33.355 -21.737  1.00  0.00     0.000 C 
BRANCH   6   7
ATOM      7  C   UNL     1     -12.828  32.987 -21.383  1.00  0.00     0.000 C 
BRANCH   7   8
ATOM      8  C   UNL     1     -13.022  31.554 -20.854  1.00  0.00     0.000 C 
BRANCH   8   9
ATOM      9  C   UNL     1     -14.482  31.141 -20.572  1.00  0.00     0.000 C 
BRANCH   9  10
ATOM     10  C   UNL     1     -14.645  29.685 -20.089  1.00  0.00     0.000 C 
BRANCH  10  11
ATOM     11  C   UNL     1     -15.494  29.577 -18.810  1.00  0.00     0.000 C 
BRANCH  11  12
ATOM     12  C   UNL     1     -16.026  28.152 -18.568  1.00  0.00     0.000 C 
BRANCH  12  13
ATOM     13  C   UNL     1     -17.185  27.724 -19.492  1.00  0.00     0.006 C 
BRANCH  13  14
ATOM     14  C   UNL     1     -17.404  26.204 -19.582  1.00  0.00     0.053 C 
BRANCH  14  15
ATOM     15  C   UNL     1     -16.807  25.479 -18.413  1.00  0.00     0.041 C 
ATOM     16  O   UNL     1     -15.981  24.549 -18.600  1.00  0.00    -0.550 OA
ATOM     17  O   UNL     1     -17.189  25.813 -17.119  1.00  0.00    -0.550 OA
ENDBRANCH  14  15
ENDBRANCH  13  14
ENDBRANCH  12  13
ENDBRANCH  11  12
ENDBRANCH  10  11
ENDBRANCH   9  10
ENDBRANCH   8   9
ENDBRANCH   7   8
ENDBRANCH   6   7
ENDBRANCH   5   6
ENDBRANCH   4   5
ENDBRANCH   3   4
ENDBRANCH   2   3
ENDBRANCH   1   2
BRANCH   1  18
ATOM     18  C   UNL     1      -7.028  33.818 -15.869  1.00  0.00     0.000 C 
BRANCH  18  19
ATOM     19  C   UNL     1      -6.517  34.734 -16.998  1.00  0.00     0.000 C 
BRANCH  19  20
ATOM     20  C   UNL     1      -5.892  36.059 -16.524  1.00  0.00     0.000 C 
BRANCH  20  21
ATOM     21  C   UNL     1      -6.580  37.315 -17.103  1.00  0.00     0.000 C 
BRANCH  21  22
ATOM     22  C   UNL     1      -6.979  38.321 -16.008  1.00  0.00     0.000 C 
BRANCH  22  23
ATOM     23  C   UNL     1      -8.353  38.972 -16.279  1.00  0.00     0.000 C 
BRANCH  23  24
ATOM     24  C   UNL     1      -8.707  40.111 -15.304  1.00  0.00    -0.000 C 
BRANCH  24  25
ATOM     25  C   UNL     1      -7.616  41.179 -15.122  1.00  0.00    -0.000 C 
BRANCH  25  26
ATOM     26  C   UNL     1      -6.920  41.092 -13.753  1.00  0.00    -0.000 C 
BRANCH  26  27
ATOM     27  C   UNL     1      -6.993  42.408 -12.955  1.00  0.00    -0.000 C 
BRANCH  27  28
ATOM     28  C   UNL     1      -7.862  42.366 -11.684  1.00  0.00    -0.000 C 
BRANCH  28  29
ATOM     29  C   UNL     1      -8.823  41.166 -11.652  1.00  0.00    -0.000 C 
BRANCH  29  30
ATOM     30  C   UNL     1      -9.566  41.029 -10.310  1.00  0.00    -0.000 C 
BRANCH  30  31
ATOM     31  C   UNL     1     -11.027  41.513 -10.320  1.00  0.00    -0.003 C 
ATOM     32  C   UNL     1     -11.966  40.571 -11.075  1.00  0.00     0.004 C 
ENDBRANCH  30  31
ENDBRANCH  29  30
ENDBRANCH  28  29
ENDBRANCH  27  28
ENDBRANCH  26  27
ENDBRANCH  25  26
ENDBRANCH  24  25
ENDBRANCH  23  24
ENDBRANCH  22  23
ENDBRANCH  21  22
ENDBRANCH  20  21
ENDBRANCH  19  20
ENDBRANCH  18  19
ENDBRANCH   1  18
TORSDOF 28
ENDMDL
MODEL 7
REMARK VINA RESULT:    24.607      6.084      9.357
REMARK INTER + INTRA:          64.514
REMARK INTER:                  65.468
REMARK INTRA:                  -0.954
REMARK UNBOUND:                -0.371
REMARK SMILES CCCCCCCCCCCCCCCCCCCCCCCCCCCCCC(=O)[O-]
REMARK SMILES IDX 16 1 17 2 18 3 19 4 20 5 21 6 22 7 23 8 24 9 25 10 26 11
REMARK SMILES IDX 27 12 28 13 29 14 30 15 31 16 32 17 15 18 14 19 13 20 12 21
REMARK SMILES IDX 11 22 10 23 9 24 8 25 7 26 6 27 5 28 4 29 3 30 2 31 1 32
REMARK H PARENT
REMARK Flexibility Score: inf
ROOT
ATOM      1  C   UNL     1      -7.180  37.543 -16.884  1.00  0.00     0.000 C 
ENDROOT
BRANCH   1   2
ATOM      2  C   UNL     1      -7.323  38.534 -15.714  1.00  0.00     0.000 C 
BRANCH   2   3
ATOM      3  C   UNL     1      -8.378  39.621 -15.977  1.00  0.00     0.000 C 
BRANCH   3   4
ATOM      4  C   UNL     1      -8.360  40.753 -14.935  1.00  0.00     0.000 C 
BRANCH   4   5
ATOM      5  C   UNL     1      -6.965  41.053 -14.348  1.00  0.00     0.000 C 
BRANCH   5   6
ATOM      6  C   UNL     1      -6.960  42.289 -13.430  1.00  0.00     0.000 C 
BRANCH   6   7
ATOM      7  C   UNL     1      -8.056  42.226 -12.347  1.00  0.00     0.000 C 
BRANCH   7   8
ATOM      8  C   UNL     1      -8.744  40.855 -12.202  1.00  0.00     0.000 C 
BRANCH   8   9
ATOM      9  C   UNL     1     -10.202  40.892 -11.699  1.00  0.00     0.000 C 
BRANCH   9  10
ATOM     10  C   UNL     1     -10.354  41.361 -10.237  1.00  0.00     0.000 C 
BRANCH  10  11
ATOM     11  C   UNL     1     -11.825  41.434  -9.789  1.00  0.00     0.000 C 
BRANCH  11  12
ATOM     12  C   UNL     1     -12.574  40.102  -9.986  1.00  0.00     0.000 C 
BRANCH  12  13
ATOM     13  C   UNL     1     -13.131  39.471  -8.693  1.00  0.00     0.006 C 
BRANCH  13  14
ATOM     14  C   UNL     1     -13.715  38.059  -8.870  1.00  0.00     0.053 C 
BRANCH  14  15
ATOM     15  C   UNL     1     -15.145  38.094  -9.321  1.00  0.00     0.041 C 
ATOM     16  O   UNL     1     -15.525  37.370 -10.278  1.00  0.00    -0.550 OA
ATOM     17  O   UNL     1     -16.049  38.950  -8.704  1.00  0.00    -0.550 OA
ENDBRANCH  14  15
ENDBRANCH  13  14
ENDBRANCH  12  13
ENDBRANCH  11  12
ENDBRANCH  10  11
ENDBRANCH   9  10
ENDBRANCH   8   9
ENDBRANCH   7   8
ENDBRANCH   6   7
ENDBRANCH   5   6
ENDBRANCH   4   5
ENDBRANCH   3   4
ENDBRANCH   2   3
ENDBRANCH   1   2
BRANCH   1  18
ATOM     18  C   UNL     1      -5.912  36.665 -16.839  1.00  0.00     0.000 C 
BRANCH  18  19
ATOM     19  C   UNL     1      -6.151  35.166 -17.101  1.00  0.00     0.000 C 
BRANCH  19  20
ATOM     20  C   UNL     1      -6.398  34.320 -15.838  1.00  0.00     0.000 C 
BRANCH  20  21
ATOM     21  C   UNL     1      -7.808  33.692 -15.776  1.00  0.00     0.000 C 
BRANCH  21  22
ATOM     22  C   UNL     1      -7.830  32.248 -16.310  1.00  0.00     0.000 C 
BRANCH  22  23
ATOM     23  C   UNL     1      -8.684  32.105 -17.588  1.00  0.00     0.000 C 
BRANCH  23  24
ATOM     24  C   UNL     1      -9.160  33.448 -18.174  1.00  0.00    -0.000 C 
BRANCH  24  25
ATOM     25  C   UNL     1      -9.097  33.551 -19.708  1.00  0.00    -0.000 C 
BRANCH  25  26
ATOM     26  C   UNL     1     -10.443  33.960 -20.332  1.00  0.00    -0.000 C 
BRANCH  26  27
ATOM     27  C   UNL     1     -10.584  33.518 -21.801  1.00  0.00    -0.000 C 
BRANCH  27  28
ATOM     28  C   UNL     1     -11.901  33.921 -22.492  1.00  0.00    -0.000 C 
BRANCH  28  29
ATOM     29  C   UNL     1     -12.882  32.748 -22.649  1.00  0.00    -0.000 C 
BRANCH  29  30
ATOM     30  C   UNL     1     -12.642  31.625 -21.622  1.00  0.00    -0.000 C 
BRANCH  30  31
ATOM     31  C   UNL     1     -13.844  31.298 -20.718  1.00  0.00    -0.003 C 
ATOM     32  C   UNL     1     -14.588  32.545 -20.235  1.00  0.00     0.004 C 
ENDBRANCH  30  31
ENDBRANCH  29  30
ENDBRANCH  28  29
ENDBRANCH  27  28
ENDBRANCH  26  27
ENDBRANCH  25  26
ENDBRANCH  24  25
ENDBRANCH  23  24
ENDBRANCH  22  23
ENDBRANCH  21  22
ENDBRANCH  20  21
ENDBRANCH  19  20
ENDBRANCH  18  19
ENDBRANCH   1  18
TORSDOF 28
ENDMDL
