MODEL 1
REMARK VINA RESULT:    -5.495      0.000      0.000
REMARK INTER + INTRA:         -17.345
REMARK INTER:                 -13.846
REMARK INTRA:                  -3.499
REMARK UNBOUND:                -3.499
REMARK SMILES CCCCCCCCCCCCCCCCCCCCCCCCCCCC(=O)[O-]
REMARK SMILES IDX 15 1 16 2 17 3 18 4 19 5 20 6 21 7 22 8 23 9 24 10 25 11
REMARK SMILES IDX 26 12 27 13 28 14 29 15 30 16 14 17 13 18 12 19 11 20 10 21
REMARK SMILES IDX 9 22 8 23 7 24 6 25 5 26 4 27 3 28 2 29 1 30
REMARK H PARENT
REMARK Flexibility Score: inf
ROOT
ATOM      1  C   UNL     1      49.670  25.909  16.291  1.00  0.00     0.000 C 
ENDROOT
BRANCH   1   2
ATOM      2  C   UNL     1      48.328  26.281  15.641  1.00  0.00     0.000 C 
BRANCH   2   3
ATOM      3  C   UNL     1      48.172  27.806  15.536  1.00  0.00     0.000 C 
BRANCH   3   4
ATOM      4  C   UNL     1      49.413  28.562  16.039  1.00  0.00     0.000 C 
BRANCH   4   5
ATOM      5  C   UNL     1      49.129  30.046  16.311  1.00  0.00     0.000 C 
BRANCH   5   6
ATOM      6  C   UNL     1      47.968  30.212  17.299  1.00  0.00     0.000 C 
BRANCH   6   7
ATOM      7  C   UNL     1      48.031  31.579  17.996  1.00  0.00     0.000 C 
BRANCH   7   8
ATOM      8  C   UNL     1      49.332  32.338  17.697  1.00  0.00     0.000 C 
BRANCH   8   9
ATOM      9  C   UNL     1      49.078  33.782  17.228  1.00  0.00     0.000 C 
BRANCH   9  10
ATOM     10  C   UNL     1      47.611  34.030  16.833  1.00  0.00     0.000 C 
BRANCH  10  11
ATOM     11  C   UNL     1      47.293  33.813  15.340  1.00  0.00     0.000 C 
BRANCH  11  12
ATOM     12  C   UNL     1      48.506  33.472  14.457  1.00  0.00     0.006 C 
BRANCH  12  13
ATOM     13  C   UNL     1      48.765  34.520  13.365  1.00  0.00     0.053 C 
BRANCH  13  14
ATOM     14  C   UNL     1      47.708  34.457  12.307  1.00  0.00     0.041 C 
ATOM     15  O   UNL     1      46.722  35.242  12.347  1.00  0.00    -0.550 OA
ATOM     16  O   UNL     1      47.808  33.530  11.276  1.00  0.00    -0.550 OA
ENDBRANCH  13  14
ENDBRANCH  12  13
ENDBRANCH  11  12
ENDBRANCH  10  11
ENDBRANCH   9  10
ENDBRANCH   8   9
ENDBRANCH   7   8
ENDBRANCH   6   7
ENDBRANCH   5   6
ENDBRANCH   4   5
ENDBRANCH   3   4
ENDBRANCH   2   3
ENDBRANCH   1   2
BRANCH   1  17
ATOM     17  C   UNL     1      49.496  25.047  17.552  1.00  0.00     0.000 C 
BRANCH  17  18
ATOM     18  C   UNL     1      48.579  25.700  18.596  1.00  0.00     0.000 C 
BRANCH  18  19
ATOM     19  C   UNL     1      48.955  25.249  20.013  1.00  0.00     0.000 C 
BRANCH  19  20
ATOM     20  C   UNL     1      48.021  25.878  21.060  1.00  0.00     0.000 C 
BRANCH  20  21
ATOM     21  C   UNL     1      48.751  26.854  21.997  1.00  0.00     0.000 C 
BRANCH  21  22
ATOM     22  C   UNL     1      50.004  26.236  22.637  1.00  0.00    -0.000 C 
BRANCH  22  23
ATOM     23  C   UNL     1      51.185  27.214  22.592  1.00  0.00    -0.000 C 
BRANCH  23  24
ATOM     24  C   UNL     1      52.511  26.462  22.410  1.00  0.00    -0.000 C 
BRANCH  24  25
ATOM     25  C   UNL     1      52.506  25.540  21.182  1.00  0.00    -0.000 C 
BRANCH  25  26
ATOM     26  C   UNL     1      53.302  26.122  20.000  1.00  0.00    -0.000 C 
BRANCH  26  27
ATOM     27  C   UNL     1      52.411  26.905  19.021  1.00  0.00    -0.000 C 
BRANCH  27  28
ATOM     28  C   UNL     1      52.873  26.764  17.561  1.00  0.00    -0.000 C 
BRANCH  28  29
ATOM     29  C   UNL     1      53.235  28.116  16.925  1.00  0.00    -0.003 C 
ATOM     30  C   UNL     1      52.572  29.297  17.634  1.00  0.00     0.004 C 
ENDBRANCH  28  29
ENDBRANCH  27  28
ENDBRANCH  26  27
ENDBRANCH  25  26
ENDBRANCH  24  25
ENDBRANCH  23  24
ENDBRANCH  22  23
ENDBRANCH  21  22
ENDBRANCH  20  21
ENDBRANCH  19  20
ENDBRANCH  18  19
ENDBRANCH  17  18
ENDBRANCH   1  17
TORSDOF 26
ENDMDL
MODEL 2
REMARK VINA RESULT:    -5.482      2.138      4.480
REMARK INTER + INTRA:         -17.313
REMARK INTER:                 -14.751
REMARK INTRA:                  -2.562
REMARK UNBOUND:                -3.499
REMARK SMILES CCCCCCCCCCCCCCCCCCCCCCCCCCCC(=O)[O-]
REMARK SMILES IDX 15 1 16 2 17 3 18 4 19 5 20 6 21 7 22 8 23 9 24 10 25 11
REMARK SMILES IDX 26 12 27 13 28 14 29 15 30 16 14 17 13 18 12 19 11 20 10 21
REMARK SMILES IDX 9 22 8 23 7 24 6 25 5 26 4 27 3 28 2 29 1 30
REMARK H PARENT
REMARK Flexibility Score: inf
ROOT
ATOM      1  C   UNL     1      48.015  30.046  16.127  1.00  0.00     0.000 C 
ENDROOT
BRANCH   1   2
ATOM      2  C   UNL     1      47.714  30.163  17.629  1.00  0.00     0.000 C 
BRANCH   2   3
ATOM      3  C   UNL     1      48.049  31.569  18.150  1.00  0.00     0.000 C 
BRANCH   3   4
ATOM      4  C   UNL     1      49.323  32.146  17.512  1.00  0.00     0.000 C 
BRANCH   4   5
ATOM      5  C   UNL     1      49.133  33.587  17.017  1.00  0.00     0.000 C 
BRANCH   5   6
ATOM      6  C   UNL     1      47.645  33.930  16.880  1.00  0.00     0.000 C 
BRANCH   6   7
ATOM      7  C   UNL     1      47.199  33.864  15.412  1.00  0.00     0.000 C 
BRANCH   7   8
ATOM      8  C   UNL     1      48.372  33.646  14.445  1.00  0.00     0.000 C 
BRANCH   8   9
ATOM      9  C   UNL     1      48.343  34.621  13.255  1.00  0.00     0.000 C 
BRANCH   9  10
ATOM     10  C   UNL     1      46.984  34.640  12.533  1.00  0.00     0.000 C 
BRANCH  10  11
ATOM     11  C   UNL     1      46.171  35.938  12.710  1.00  0.00     0.000 C 
BRANCH  11  12
ATOM     12  C   UNL     1      44.667  35.737  12.966  1.00  0.00     0.006 C 
BRANCH  12  13
ATOM     13  C   UNL     1      43.787  36.679  12.132  1.00  0.00     0.053 C 
BRANCH  13  14
ATOM     14  C   UNL     1      42.346  36.533  12.511  1.00  0.00     0.041 C 
ATOM     15  O   UNL     1      41.888  37.148  13.512  1.00  0.00    -0.550 OA
ATOM     16  O   UNL     1      41.507  35.718  11.761  1.00  0.00    -0.550 OA
ENDBRANCH  13  14
ENDBRANCH  12  13
ENDBRANCH  11  12
ENDBRANCH  10  11
ENDBRANCH   9  10
ENDBRANCH   8   9
ENDBRANCH   7   8
ENDBRANCH   6   7
ENDBRANCH   5   6
ENDBRANCH   4   5
ENDBRANCH   3   4
ENDBRANCH   2   3
ENDBRANCH   1   2
BRANCH   1  17
ATOM     17  C   UNL     1      47.715  28.645  15.572  1.00  0.00     0.000 C 
BRANCH  17  18
ATOM     18  C   UNL     1      48.896  27.676  15.735  1.00  0.00     0.000 C 
BRANCH  18  19
ATOM     19  C   UNL     1      48.420  26.219  15.685  1.00  0.00     0.000 C 
BRANCH  19  20
ATOM     20  C   UNL     1      49.496  25.266  16.229  1.00  0.00     0.000 C 
BRANCH  20  21
ATOM     21  C   UNL     1      49.588  25.289  17.763  1.00  0.00     0.000 C 
BRANCH  21  22
ATOM     22  C   UNL     1      48.235  25.574  18.434  1.00  0.00    -0.000 C 
BRANCH  22  23
ATOM     23  C   UNL     1      48.399  26.538  19.616  1.00  0.00    -0.000 C 
BRANCH  23  24
ATOM     24  C   UNL     1      48.689  25.769  20.913  1.00  0.00    -0.000 C 
BRANCH  24  25
ATOM     25  C   UNL     1      48.537  26.644  22.167  1.00  0.00    -0.000 C 
BRANCH  25  26
ATOM     26  C   UNL     1      49.890  27.110  22.732  1.00  0.00    -0.000 C 
BRANCH  26  27
ATOM     27  C   UNL     1      50.971  26.019  22.642  1.00  0.00    -0.000 C 
BRANCH  27  28
ATOM     28  C   UNL     1      52.355  26.587  22.285  1.00  0.00    -0.000 C 
BRANCH  28  29
ATOM     29  C   UNL     1      52.459  27.001  20.808  1.00  0.00    -0.003 C 
ATOM     30  C   UNL     1      52.711  25.812  19.880  1.00  0.00     0.004 C 
ENDBRANCH  28  29
ENDBRANCH  27  28
ENDBRANCH  26  27
ENDBRANCH  25  26
ENDBRANCH  24  25
ENDBRANCH  23  24
ENDBRANCH  22  23
ENDBRANCH  21  22
ENDBRANCH  20  21
ENDBRANCH  19  20
ENDBRANCH  18  19
ENDBRANCH  17  18
ENDBRANCH   1  17
TORSDOF 26
ENDMDL
MODEL 3
REMARK VINA RESULT:    -5.291      2.936      8.291
REMARK INTER + INTRA:         -16.832
REMARK INTER:                 -13.717
REMARK INTRA:                  -3.115
REMARK UNBOUND:                -3.499
REMARK SMILES CCCCCCCCCCCCCCCCCCCCCCCCCCCC(=O)[O-]
REMARK SMILES IDX 15 1 16 2 17 3 18 4 19 5 20 6 21 7 22 8 23 9 24 10 25 11
REMARK SMILES IDX 26 12 27 13 28 14 29 15 30 16 14 17 13 18 12 19 11 20 10 21
REMARK SMILES IDX 9 22 8 23 7 24 6 25 5 26 4 27 3 28 2 29 1 30
REMARK H PARENT
REMARK Flexibility Score: inf
ROOT
ATOM      1  C   UNL     1      50.336  27.122  15.947  1.00  0.00     0.000 C 
ENDROOT
BRANCH   1   2
ATOM      2  C   UNL     1      48.983  26.493  15.580  1.00  0.00     0.000 C 
BRANCH   2   3
ATOM      3  C   UNL     1      48.491  25.558  16.696  1.00  0.00     0.000 C 
BRANCH   3   4
ATOM      4  C   UNL     1      49.643  24.985  17.537  1.00  0.00     0.000 C 
BRANCH   4   5
ATOM      5  C   UNL     1      49.329  24.980  19.040  1.00  0.00     0.000 C 
BRANCH   5   6
ATOM      6  C   UNL     1      48.737  26.322  19.483  1.00  0.00     0.000 C 
BRANCH   6   7
ATOM      7  C   UNL     1      48.157  26.226  20.902  1.00  0.00     0.000 C 
BRANCH   7   8
ATOM      8  C   UNL     1      49.191  25.753  21.934  1.00  0.00     0.000 C 
BRANCH   8   9
ATOM      9  C   UNL     1      49.871  26.923  22.667  1.00  0.00     0.000 C 
BRANCH   9  10
ATOM     10  C   UNL     1      51.339  27.116  22.246  1.00  0.00     0.000 C 
BRANCH  10  11
ATOM     11  C   UNL     1      51.976  25.906  21.534  1.00  0.00     0.000 C 
BRANCH  11  12
ATOM     12  C   UNL     1      53.103  26.249  20.544  1.00  0.00     0.006 C 
BRANCH  12  13
ATOM     13  C   UNL     1      52.581  26.823  19.219  1.00  0.00     0.053 C 
BRANCH  13  14
ATOM     14  C   UNL     1      53.188  28.164  18.947  1.00  0.00     0.041 C 
ATOM     15  O   UNL     1      53.413  28.964  19.895  1.00  0.00    -0.550 OA
ATOM     16  O   UNL     1      53.505  28.534  17.645  1.00  0.00    -0.550 OA
ENDBRANCH  13  14
ENDBRANCH  12  13
ENDBRANCH  11  12
ENDBRANCH  10  11
ENDBRANCH   9  10
ENDBRANCH   8   9
ENDBRANCH   7   8
ENDBRANCH   6   7
ENDBRANCH   5   6
ENDBRANCH   4   5
ENDBRANCH   3   4
ENDBRANCH   2   3
ENDBRANCH   1   2
BRANCH   1  17
ATOM     17  C   UNL     1      50.216  28.609  16.316  1.00  0.00     0.000 C 
BRANCH  17  18
ATOM     18  C   UNL     1      48.817  29.178  16.037  1.00  0.00     0.000 C 
BRANCH  18  19
ATOM     19  C   UNL     1      48.052  29.416  17.345  1.00  0.00     0.000 C 
BRANCH  19  20
ATOM     20  C   UNL     1      48.068  30.903  17.734  1.00  0.00     0.000 C 
BRANCH  20  21
ATOM     21  C   UNL     1      49.212  31.679  17.061  1.00  0.00     0.000 C 
BRANCH  21  22
ATOM     22  C   UNL     1      49.526  33.005  17.770  1.00  0.00    -0.000 C 
BRANCH  22  23
ATOM     23  C   UNL     1      49.013  34.200  16.956  1.00  0.00    -0.000 C 
BRANCH  23  24
ATOM     24  C   UNL     1      47.493  34.114  16.757  1.00  0.00    -0.000 C 
BRANCH  24  25
ATOM     25  C   UNL     1      47.100  33.872  15.293  1.00  0.00    -0.000 C 
BRANCH  25  26
ATOM     26  C   UNL     1      48.297  33.980  14.332  1.00  0.00    -0.000 C 
BRANCH  26  27
ATOM     27  C   UNL     1      47.905  34.577  12.969  1.00  0.00    -0.000 C 
BRANCH  27  28
ATOM     28  C   UNL     1      48.166  33.608  11.804  1.00  0.00    -0.000 C 
BRANCH  28  29
ATOM     29  C   UNL     1      49.632  33.152  11.734  1.00  0.00    -0.003 C 
ATOM     30  C   UNL     1      50.406  33.831  10.604  1.00  0.00     0.004 C 
ENDBRANCH  28  29
ENDBRANCH  27  28
ENDBRANCH  26  27
ENDBRANCH  25  26
ENDBRANCH  24  25
ENDBRANCH  23  24
ENDBRANCH  22  23
ENDBRANCH  21  22
ENDBRANCH  20  21
ENDBRANCH  19  20
ENDBRANCH  18  19
ENDBRANCH  17  18
ENDBRANCH   1  17
TORSDOF 26
ENDMDL
MODEL 4
REMARK VINA RESULT:    -5.285      2.549      7.778
REMARK INTER + INTRA:         -16.815
REMARK INTER:                 -13.624
REMARK INTRA:                  -3.191
REMARK UNBOUND:                -3.499
REMARK SMILES CCCCCCCCCCCCCCCCCCCCCCCCCCCC(=O)[O-]
REMARK SMILES IDX 15 1 16 2 17 3 18 4 19 5 20 6 21 7 22 8 23 9 24 10 25 11
REMARK SMILES IDX 26 12 27 13 28 14 29 15 30 16 14 17 13 18 12 19 11 20 10 21
REMARK SMILES IDX 9 22 8 23 7 24 6 25 5 26 4 27 3 28 2 29 1 30
REMARK H PARENT
REMARK Flexibility Score: inf
ROOT
ATOM      1  C   UNL     1      48.541  25.595  18.159  1.00  0.00     0.000 C 
ENDROOT
BRANCH   1   2
ATOM      2  C   UNL     1      49.530  25.001  19.173  1.00  0.00     0.000 C 
BRANCH   2   3
ATOM      3  C   UNL     1      48.925  24.982  20.585  1.00  0.00     0.000 C 
BRANCH   3   4
ATOM      4  C   UNL     1      48.243  26.310  20.952  1.00  0.00     0.000 C 
BRANCH   4   5
ATOM      5  C   UNL     1      48.756  26.889  22.278  1.00  0.00     0.000 C 
BRANCH   5   6
ATOM      6  C   UNL     1      50.085  26.241  22.684  1.00  0.00     0.000 C 
BRANCH   6   7
ATOM      7  C   UNL     1      51.240  27.250  22.594  1.00  0.00     0.000 C 
BRANCH   7   8
ATOM      8  C   UNL     1      52.569  26.596  22.189  1.00  0.00     0.000 C 
BRANCH   8   9
ATOM      9  C   UNL     1      52.528  26.009  20.767  1.00  0.00     0.000 C 
BRANCH   9  10
ATOM     10  C   UNL     1      53.540  26.676  19.819  1.00  0.00     0.000 C 
BRANCH  10  11
ATOM     11  C   UNL     1      53.294  28.175  19.555  1.00  0.00     0.000 C 
BRANCH  11  12
ATOM     12  C   UNL     1      53.105  28.557  18.077  1.00  0.00     0.006 C 
BRANCH  12  13
ATOM     13  C   UNL     1      52.264  27.535  17.298  1.00  0.00     0.053 C 
BRANCH  13  14
ATOM     14  C   UNL     1      52.760  27.400  15.892  1.00  0.00     0.041 C 
ATOM     15  O   UNL     1      53.789  26.714  15.645  1.00  0.00    -0.550 OA
ATOM     16  O   UNL     1      52.089  28.032  14.852  1.00  0.00    -0.550 OA
ENDBRANCH  13  14
ENDBRANCH  12  13
ENDBRANCH  11  12
ENDBRANCH  10  11
ENDBRANCH   9  10
ENDBRANCH   8   9
ENDBRANCH   7   8
ENDBRANCH   6   7
ENDBRANCH   5   6
ENDBRANCH   4   5
ENDBRANCH   3   4
ENDBRANCH   2   3
ENDBRANCH   1   2
BRANCH   1  17
ATOM     17  C   UNL     1      48.967  25.345  16.703  1.00  0.00     0.000 C 
BRANCH  17  18
ATOM     18  C   UNL     1      47.993  25.956  15.685  1.00  0.00     0.000 C 
BRANCH  18  19
ATOM     19  C   UNL     1      48.536  27.280  15.134  1.00  0.00     0.000 C 
BRANCH  19  20
ATOM     20  C   UNL     1      47.790  28.479  15.740  1.00  0.00     0.000 C 
BRANCH  20  21
ATOM     21  C   UNL     1      48.152  29.809  15.059  1.00  0.00     0.000 C 
BRANCH  21  22
ATOM     22  C   UNL     1      49.519  30.350  15.502  1.00  0.00    -0.000 C 
BRANCH  22  23
ATOM     23  C   UNL     1      49.466  30.866  16.945  1.00  0.00    -0.000 C 
BRANCH  23  24
ATOM     24  C   UNL     1      48.317  31.868  17.127  1.00  0.00    -0.000 C 
BRANCH  24  25
ATOM     25  C   UNL     1      48.645  33.256  16.558  1.00  0.00    -0.000 C 
BRANCH  25  26
ATOM     26  C   UNL     1      47.792  33.608  15.325  1.00  0.00    -0.000 C 
BRANCH  26  27
ATOM     27  C   UNL     1      48.647  34.072  14.133  1.00  0.00    -0.000 C 
BRANCH  27  28
ATOM     28  C   UNL     1      48.777  32.992  13.045  1.00  0.00    -0.000 C 
BRANCH  28  29
ATOM     29  C   UNL     1      48.870  33.589  11.631  1.00  0.00    -0.003 C 
ATOM     30  C   UNL     1      50.305  33.642  11.107  1.00  0.00     0.004 C 
ENDBRANCH  28  29
ENDBRANCH  27  28
ENDBRANCH  26  27
ENDBRANCH  25  26
ENDBRANCH  24  25
ENDBRANCH  23  24
ENDBRANCH  22  23
ENDBRANCH  21  22
ENDBRANCH  20  21
ENDBRANCH  19  20
ENDBRANCH  18  19
ENDBRANCH  17  18
ENDBRANCH   1  17
TORSDOF 26
ENDMDL
MODEL 5
REMARK VINA RESULT:    -5.249      4.531     11.257
REMARK INTER + INTRA:         -16.726
REMARK INTER:                 -14.265
REMARK INTRA:                  -2.461
REMARK UNBOUND:                -3.499
REMARK SMILES CCCCCCCCCCCCCCCCCCCCCCCCCCCC(=O)[O-]
REMARK SMILES IDX 15 1 16 2 17 3 18 4 19 5 20 6 21 7 22 8 23 9 24 10 25 11
REMARK SMILES IDX 26 12 27 13 28 14 29 15 30 16 14 17 13 18 12 19 11 20 10 21
REMARK SMILES IDX 9 22 8 23 7 24 6 25 5 26 4 27 3 28 2 29 1 30
REMARK H PARENT
REMARK Flexibility Score: inf
ROOT
ATOM      1  C   UNL     1      49.227  32.393  17.746  1.00  0.00     0.000 C 
ENDROOT
BRANCH   1   2
ATOM      2  C   UNL     1      47.930  31.777  18.294  1.00  0.00     0.000 C 
BRANCH   2   3
ATOM      3  C   UNL     1      47.751  30.336  17.792  1.00  0.00     0.000 C 
BRANCH   3   4
ATOM      4  C   UNL     1      48.477  30.080  16.461  1.00  0.00     0.000 C 
BRANCH   4   5
ATOM      5  C   UNL     1      47.516  29.675  15.334  1.00  0.00     0.000 C 
BRANCH   5   6
ATOM      6  C   UNL     1      48.085  28.509  14.518  1.00  0.00     0.000 C 
BRANCH   6   7
ATOM      7  C   UNL     1      48.952  27.594  15.397  1.00  0.00     0.000 C 
BRANCH   7   8
ATOM      8  C   UNL     1      48.513  26.124  15.336  1.00  0.00     0.000 C 
BRANCH   8   9
ATOM      9  C   UNL     1      48.438  25.473  16.728  1.00  0.00     0.000 C 
BRANCH   9  10
ATOM     10  C   UNL     1      48.775  26.456  17.864  1.00  0.00     0.000 C 
BRANCH  10  11
ATOM     11  C   UNL     1      49.534  25.838  19.055  1.00  0.00     0.000 C 
BRANCH  11  12
ATOM     12  C   UNL     1      48.646  25.344  20.210  1.00  0.00     0.006 C 
BRANCH  12  13
ATOM     13  C   UNL     1      49.335  25.441  21.579  1.00  0.00     0.053 C 
BRANCH  13  14
ATOM     14  C   UNL     1      49.117  26.792  22.187  1.00  0.00     0.041 C 
ATOM     15  O   UNL     1      49.880  27.206  23.102  1.00  0.00    -0.550 OA
ATOM     16  O   UNL     1      48.073  27.595  21.745  1.00  0.00    -0.550 OA
ENDBRANCH  13  14
ENDBRANCH  12  13
ENDBRANCH  11  12
ENDBRANCH  10  11
ENDBRANCH   9  10
ENDBRANCH   8   9
ENDBRANCH   7   8
ENDBRANCH   6   7
ENDBRANCH   5   6
ENDBRANCH   4   5
ENDBRANCH   3   4
ENDBRANCH   2   3
ENDBRANCH   1   2
BRANCH   1  17
ATOM     17  C   UNL     1      49.013  33.801  17.166  1.00  0.00     0.000 C 
BRANCH  17  18
ATOM     18  C   UNL     1      47.797  33.880  16.231  1.00  0.00     0.000 C 
BRANCH  18  19
ATOM     19  C   UNL     1      48.154  33.382  14.825  1.00  0.00     0.000 C 
BRANCH  19  20
ATOM     20  C   UNL     1      48.738  34.517  13.968  1.00  0.00     0.000 C 
BRANCH  20  21
ATOM     21  C   UNL     1      48.489  34.313  12.465  1.00  0.00     0.000 C 
BRANCH  21  22
ATOM     22  C   UNL     1      47.010  34.473  12.081  1.00  0.00    -0.000 C 
BRANCH  22  23
ATOM     23  C   UNL     1      46.447  35.801  12.602  1.00  0.00    -0.000 C 
BRANCH  23  24
ATOM     24  C   UNL     1      45.065  35.599  13.238  1.00  0.00    -0.000 C 
BRANCH  24  25
ATOM     25  C   UNL     1      43.916  35.812  12.241  1.00  0.00    -0.000 C 
BRANCH  25  26
ATOM     26  C   UNL     1      42.888  36.847  12.733  1.00  0.00    -0.000 C 
BRANCH  26  27
ATOM     27  C   UNL     1      41.462  36.533  12.250  1.00  0.00    -0.000 C 
BRANCH  27  28
ATOM     28  C   UNL     1      41.434  35.975  10.817  1.00  0.00    -0.000 C 
BRANCH  28  29
ATOM     29  C   UNL     1      40.657  34.652  10.715  1.00  0.00    -0.003 C 
ATOM     30  C   UNL     1      39.215  34.777  11.209  1.00  0.00     0.004 C 
ENDBRANCH  28  29
ENDBRANCH  27  28
ENDBRANCH  26  27
ENDBRANCH  25  26
ENDBRANCH  24  25
ENDBRANCH  23  24
ENDBRANCH  22  23
ENDBRANCH  21  22
ENDBRANCH  20  21
ENDBRANCH  19  20
ENDBRANCH  18  19
ENDBRANCH  17  18
ENDBRANCH   1  17
TORSDOF 26
ENDMDL
MODEL 6
REMARK VINA RESULT:    -5.223      2.955      5.635
REMARK INTER + INTRA:         -16.660
REMARK INTER:                 -14.375
REMARK INTRA:                  -2.285
REMARK UNBOUND:                -3.499
REMARK SMILES CCCCCCCCCCCCCCCCCCCCCCCCCCCC(=O)[O-]
REMARK SMILES IDX 15 1 16 2 17 3 18 4 19 5 20 6 21 7 22 8 23 9 24 10 25 11
REMARK SMILES IDX 26 12 27 13 28 14 29 15 30 16 14 17 13 18 12 19 11 20 10 21
REMARK SMILES IDX 9 22 8 23 7 24 6 25 5 26 4 27 3 28 2 29 1 30
REMARK H PARENT
REMARK Flexibility Score: inf
ROOT
ATOM      1  C   UNL     1      49.418  30.628  16.886  1.00  0.00     0.000 C 
ENDROOT
BRANCH   1   2
ATOM      2  C   UNL     1      49.551  32.087  17.352  1.00  0.00     0.000 C 
BRANCH   2   3
ATOM      3  C   UNL     1      48.172  32.756  17.464  1.00  0.00     0.000 C 
BRANCH   3   4
ATOM      4  C   UNL     1      48.003  33.926  16.482  1.00  0.00     0.000 C 
BRANCH   4   5
ATOM      5  C   UNL     1      48.066  33.477  15.015  1.00  0.00     0.000 C 
BRANCH   5   6
ATOM      6  C   UNL     1      48.766  34.530  14.147  1.00  0.00     0.000 C 
BRANCH   6   7
ATOM      7  C   UNL     1      48.581  34.222  12.653  1.00  0.00     0.000 C 
BRANCH   7   8
ATOM      8  C   UNL     1      47.132  34.415  12.183  1.00  0.00     0.000 C 
BRANCH   8   9
ATOM      9  C   UNL     1      46.506  35.714  12.719  1.00  0.00     0.000 C 
BRANCH   9  10
ATOM     10  C   UNL     1      44.999  35.579  12.997  1.00  0.00     0.000 C 
BRANCH  10  11
ATOM     11  C   UNL     1      44.095  36.490  12.142  1.00  0.00     0.000 C 
BRANCH  11  12
ATOM     12  C   UNL     1      42.671  36.695  12.687  1.00  0.00     0.006 C 
BRANCH  12  13
ATOM     13  C   UNL     1      41.608  36.747  11.579  1.00  0.00     0.053 C 
BRANCH  13  14
ATOM     14  C   UNL     1      40.567  35.693  11.793  1.00  0.00     0.041 C 
ATOM     15  O   UNL     1      40.008  35.572  12.917  1.00  0.00    -0.550 OA
ATOM     16  O   UNL     1      40.211  34.843  10.753  1.00  0.00    -0.550 OA
ENDBRANCH  13  14
ENDBRANCH  12  13
ENDBRANCH  11  12
ENDBRANCH  10  11
ENDBRANCH   9  10
ENDBRANCH   8   9
ENDBRANCH   7   8
ENDBRANCH   6   7
ENDBRANCH   5   6
ENDBRANCH   4   5
ENDBRANCH   3   4
ENDBRANCH   2   3
ENDBRANCH   1   2
BRANCH   1  17
ATOM     17  C   UNL     1      48.000  30.071  17.090  1.00  0.00     0.000 C 
BRANCH  17  18
ATOM     18  C   UNL     1      47.730  28.813  16.251  1.00  0.00     0.000 C 
BRANCH  18  19
ATOM     19  C   UNL     1      49.004  28.347  15.536  1.00  0.00     0.000 C 
BRANCH  19  20
ATOM     20  C   UNL     1      49.002  26.823  15.339  1.00  0.00     0.000 C 
BRANCH  20  21
ATOM     21  C   UNL     1      48.643  26.059  16.624  1.00  0.00     0.000 C 
BRANCH  21  22
ATOM     22  C   UNL     1      49.880  25.661  17.443  1.00  0.00    -0.000 C 
BRANCH  22  23
ATOM     23  C   UNL     1      49.476  24.935  18.733  1.00  0.00    -0.000 C 
BRANCH  23  24
ATOM     24  C   UNL     1      48.269  25.618  19.390  1.00  0.00    -0.000 C 
BRANCH  24  25
ATOM     25  C   UNL     1      48.291  25.514  20.922  1.00  0.00    -0.000 C 
BRANCH  25  26
ATOM     26  C   UNL     1      48.189  26.887  21.611  1.00  0.00    -0.000 C 
BRANCH  26  27
ATOM     27  C   UNL     1      49.302  27.107  22.650  1.00  0.00    -0.000 C 
BRANCH  27  28
ATOM     28  C   UNL     1      50.433  26.071  22.532  1.00  0.00    -0.000 C 
BRANCH  28  29
ATOM     29  C   UNL     1      51.798  26.719  22.247  1.00  0.00    -0.003 C 
ATOM     30  C   UNL     1      52.208  26.607  20.779  1.00  0.00     0.004 C 
ENDBRANCH  28  29
ENDBRANCH  27  28
ENDBRANCH  26  27
ENDBRANCH  25  26
ENDBRANCH  24  25
ENDBRANCH  23  24
ENDBRANCH  22  23
ENDBRANCH  21  22
ENDBRANCH  20  21
ENDBRANCH  19  20
ENDBRANCH  18  19
ENDBRANCH  17  18
ENDBRANCH   1  17
TORSDOF 26
ENDMDL
MODEL 7
REMARK VINA RESULT:    -5.202      1.540      2.588
REMARK INTER + INTRA:         -16.608
REMARK INTER:                 -13.220
REMARK INTRA:                  -3.388
REMARK UNBOUND:                -3.499
REMARK SMILES CCCCCCCCCCCCCCCCCCCCCCCCCCCC(=O)[O-]
REMARK SMILES IDX 15 1 16 2 17 3 18 4 19 5 20 6 21 7 22 8 23 9 24 10 25 11
REMARK SMILES IDX 26 12 27 13 28 14 29 15 30 16 14 17 13 18 12 19 11 20 10 21
REMARK SMILES IDX 9 22 8 23 7 24 6 25 5 26 4 27 3 28 2 29 1 30
REMARK H PARENT
REMARK Flexibility Score: inf
ROOT
ATOM      1  C   UNL     1      50.415  28.329  17.073  1.00  0.00     0.000 C 
ENDROOT
BRANCH   1   2
ATOM      2  C   UNL     1      50.572  29.276  15.873  1.00  0.00     0.000 C 
BRANCH   2   3
ATOM      3  C   UNL     1      49.295  30.103  15.655  1.00  0.00     0.000 C 
BRANCH   3   4
ATOM      4  C   UNL     1      48.241  29.860  16.747  1.00  0.00     0.000 C 
BRANCH   4   5
ATOM      5  C   UNL     1      48.155  31.019  17.751  1.00  0.00     0.000 C 
BRANCH   5   6
ATOM      6  C   UNL     1      48.987  32.217  17.280  1.00  0.00     0.000 C 
BRANCH   6   7
ATOM      7  C   UNL     1      48.182  33.522  17.388  1.00  0.00     0.000 C 
BRANCH   7   8
ATOM      8  C   UNL     1      47.475  33.893  16.077  1.00  0.00     0.000 C 
BRANCH   8   9
ATOM      9  C   UNL     1      48.144  33.257  14.846  1.00  0.00     0.000 C 
BRANCH   9  10
ATOM     10  C   UNL     1      48.925  34.278  14.000  1.00  0.00     0.000 C 
BRANCH  10  11
ATOM     11  C   UNL     1      48.406  34.462  12.559  1.00  0.00     0.000 C 
BRANCH  11  12
ATOM     12  C   UNL     1      46.876  34.432  12.407  1.00  0.00     0.006 C 
BRANCH  12  13
ATOM     13  C   UNL     1      46.237  35.825  12.507  1.00  0.00     0.053 C 
BRANCH  13  14
ATOM     14  C   UNL     1      44.929  35.759  13.230  1.00  0.00     0.041 C 
ATOM     15  O   UNL     1      44.886  35.380  14.432  1.00  0.00    -0.550 OA
ATOM     16  O   UNL     1      43.753  36.114  12.578  1.00  0.00    -0.550 OA
ENDBRANCH  13  14
ENDBRANCH  12  13
ENDBRANCH  11  12
ENDBRANCH  10  11
ENDBRANCH   9  10
ENDBRANCH   8   9
ENDBRANCH   7   8
ENDBRANCH   6   7
ENDBRANCH   5   6
ENDBRANCH   4   5
ENDBRANCH   3   4
ENDBRANCH   2   3
ENDBRANCH   1   2
BRANCH   1  17
ATOM     17  C   UNL     1      50.699  26.863  16.708  1.00  0.00     0.000 C 
BRANCH  17  18
ATOM     18  C   UNL     1      50.206  25.878  17.779  1.00  0.00     0.000 C 
BRANCH  18  19
ATOM     19  C   UNL     1      49.247  26.567  18.757  1.00  0.00     0.000 C 
BRANCH  19  20
ATOM     20  C   UNL     1      48.154  25.598  19.235  1.00  0.00     0.000 C 
BRANCH  20  21
ATOM     21  C   UNL     1      48.192  25.364  20.754  1.00  0.00     0.000 C 
BRANCH  21  22
ATOM     22  C   UNL     1      47.914  26.643  21.559  1.00  0.00    -0.000 C 
BRANCH  22  23
ATOM     23  C   UNL     1      48.740  26.671  22.851  1.00  0.00    -0.000 C 
BRANCH  23  24
ATOM     24  C   UNL     1      50.212  26.989  22.553  1.00  0.00    -0.000 C 
BRANCH  24  25
ATOM     25  C   UNL     1      51.112  25.747  22.618  1.00  0.00    -0.000 C 
BRANCH  25  26
ATOM     26  C   UNL     1      52.141  25.699  21.474  1.00  0.00    -0.000 C 
BRANCH  26  27
ATOM     27  C   UNL     1      52.671  27.094  21.102  1.00  0.00    -0.000 C 
BRANCH  27  28
ATOM     28  C   UNL     1      53.159  27.171  19.646  1.00  0.00    -0.000 C 
BRANCH  28  29
ATOM     29  C   UNL     1      53.454  28.612  19.198  1.00  0.00    -0.003 C 
ATOM     30  C   UNL     1      54.181  28.674  17.855  1.00  0.00     0.004 C 
ENDBRANCH  28  29
ENDBRANCH  27  28
ENDBRANCH  26  27
ENDBRANCH  25  26
ENDBRANCH  24  25
ENDBRANCH  23  24
ENDBRANCH  22  23
ENDBRANCH  21  22
ENDBRANCH  20  21
ENDBRANCH  19  20
ENDBRANCH  18  19
ENDBRANCH  17  18
ENDBRANCH   1  17
TORSDOF 26
ENDMDL
MODEL 8
REMARK VINA RESULT:    -5.190      1.109      2.493
REMARK INTER + INTRA:         -16.578
REMARK INTER:                 -12.785
REMARK INTRA:                  -3.793
REMARK UNBOUND:                -3.499
REMARK SMILES CCCCCCCCCCCCCCCCCCCCCCCCCCCC(=O)[O-]
REMARK SMILES IDX 15 1 16 2 17 3 18 4 19 5 20 6 21 7 22 8 23 9 24 10 25 11
REMARK SMILES IDX 26 12 27 13 28 14 29 15 30 16 14 17 13 18 12 19 11 20 10 21
REMARK SMILES IDX 9 22 8 23 7 24 6 25 5 26 4 27 3 28 2 29 1 30
REMARK H PARENT
REMARK Flexibility Score: inf
ROOT
ATOM      1  C   UNL     1      48.826  26.321  19.389  1.00  0.00     0.000 C 
ENDROOT
BRANCH   1   2
ATOM      2  C   UNL     1      48.139  25.615  18.210  1.00  0.00     0.000 C 
BRANCH   2   3
ATOM      3  C   UNL     1      48.989  25.722  16.934  1.00  0.00     0.000 C 
BRANCH   3   4
ATOM      4  C   UNL     1      48.409  26.723  15.921  1.00  0.00     0.000 C 
BRANCH   4   5
ATOM      5  C   UNL     1      49.478  27.660  15.341  1.00  0.00     0.000 C 
BRANCH   5   6
ATOM      6  C   UNL     1      49.474  29.013  16.061  1.00  0.00     0.000 C 
BRANCH   6   7
ATOM      7  C   UNL     1      48.051  29.407  16.483  1.00  0.00     0.000 C 
BRANCH   7   8
ATOM      8  C   UNL     1      48.023  30.639  17.400  1.00  0.00     0.000 C 
BRANCH   8   9
ATOM      9  C   UNL     1      49.212  31.583  17.153  1.00  0.00     0.000 C 
BRANCH   9  10
ATOM     10  C   UNL     1      48.797  33.065  17.110  1.00  0.00     0.000 C 
BRANCH  10  11
ATOM     11  C   UNL     1      47.846  33.440  15.956  1.00  0.00     0.000 C 
BRANCH  11  12
ATOM     12  C   UNL     1      48.340  33.055  14.551  1.00  0.00     0.006 C 
BRANCH  12  13
ATOM     13  C   UNL     1      48.824  34.262  13.735  1.00  0.00     0.053 C 
BRANCH  13  14
ATOM     14  C   UNL     1      49.026  33.886  12.300  1.00  0.00     0.041 C 
ATOM     15  O   UNL     1      48.038  33.578  11.579  1.00  0.00    -0.550 OA
ATOM     16  O   UNL     1      50.305  33.874  11.755  1.00  0.00    -0.550 OA
ENDBRANCH  13  14
ENDBRANCH  12  13
ENDBRANCH  11  12
ENDBRANCH  10  11
ENDBRANCH   9  10
ENDBRANCH   8   9
ENDBRANCH   7   8
ENDBRANCH   6   7
ENDBRANCH   5   6
ENDBRANCH   4   5
ENDBRANCH   3   4
ENDBRANCH   2   3
ENDBRANCH   1   2
BRANCH   1  17
ATOM     17  C   UNL     1      48.694  25.537  20.704  1.00  0.00     0.000 C 
BRANCH  17  18
ATOM     18  C   UNL     1      48.206  26.410  21.870  1.00  0.00     0.000 C 
BRANCH  18  19
ATOM     19  C   UNL     1      49.379  27.140  22.536  1.00  0.00     0.000 C 
BRANCH  19  20
ATOM     20  C   UNL     1      50.611  26.227  22.640  1.00  0.00     0.000 C 
BRANCH  20  21
ATOM     21  C   UNL     1      51.846  26.814  21.936  1.00  0.00     0.000 C 
BRANCH  21  22
ATOM     22  C   UNL     1      53.114  25.978  22.168  1.00  0.00    -0.000 C 
BRANCH  22  23
ATOM     23  C   UNL     1      53.429  25.105  20.948  1.00  0.00    -0.000 C 
BRANCH  23  24
ATOM     24  C   UNL     1      52.396  25.327  19.833  1.00  0.00    -0.000 C 
BRANCH  24  25
ATOM     25  C   UNL     1      53.005  25.208  18.429  1.00  0.00    -0.000 C 
BRANCH  25  26
ATOM     26  C   UNL     1      52.551  26.338  17.488  1.00  0.00    -0.000 C 
BRANCH  26  27
ATOM     27  C   UNL     1      52.240  27.642  18.243  1.00  0.00    -0.000 C 
BRANCH  27  28
ATOM     28  C   UNL     1      52.786  28.886  17.522  1.00  0.00    -0.000 C 
BRANCH  28  29
ATOM     29  C   UNL     1      54.323  28.918  17.486  1.00  0.00    -0.003 C 
ATOM     30  C   UNL     1      54.950  28.607  18.845  1.00  0.00     0.004 C 
ENDBRANCH  28  29
ENDBRANCH  27  28
ENDBRANCH  26  27
ENDBRANCH  25  26
ENDBRANCH  24  25
ENDBRANCH  23  24
ENDBRANCH  22  23
ENDBRANCH  21  22
ENDBRANCH  20  21
ENDBRANCH  19  20
ENDBRANCH  18  19
ENDBRANCH  17  18
ENDBRANCH   1  17
TORSDOF 26
ENDMDL
MODEL 9
REMARK VINA RESULT:    -5.127      3.398      9.051
REMARK INTER + INTRA:         -16.417
REMARK INTER:                 -13.423
REMARK INTRA:                  -2.994
REMARK UNBOUND:                -3.499
REMARK SMILES CCCCCCCCCCCCCCCCCCCCCCCCCCCC(=O)[O-]
REMARK SMILES IDX 15 1 16 2 17 3 18 4 19 5 20 6 21 7 22 8 23 9 24 10 25 11
REMARK SMILES IDX 26 12 27 13 28 14 29 15 30 16 14 17 13 18 12 19 11 20 10 21
REMARK SMILES IDX 9 22 8 23 7 24 6 25 5 26 4 27 3 28 2 29 1 30
REMARK H PARENT
REMARK Flexibility Score: inf
ROOT
ATOM      1  C   UNL     1      50.120  27.115  15.623  1.00  0.00     0.000 C 
ENDROOT
BRANCH   1   2
ATOM      2  C   UNL     1      48.828  26.286  15.563  1.00  0.00     0.000 C 
BRANCH   2   3
ATOM      3  C   UNL     1      48.491  25.692  16.939  1.00  0.00     0.000 C 
BRANCH   3   4
ATOM      4  C   UNL     1      49.674  24.929  17.558  1.00  0.00     0.000 C 
BRANCH   4   5
ATOM      5  C   UNL     1      49.624  24.910  19.093  1.00  0.00     0.000 C 
BRANCH   5   6
ATOM      6  C   UNL     1      48.554  25.872  19.621  1.00  0.00     0.000 C 
BRANCH   6   7
ATOM      7  C   UNL     1      48.313  25.655  21.123  1.00  0.00     0.000 C 
BRANCH   7   8
ATOM      8  C   UNL     1      49.619  25.527  21.921  1.00  0.00     0.000 C 
BRANCH   8   9
ATOM      9  C   UNL     1      50.013  26.840  22.620  1.00  0.00     0.000 C 
BRANCH   9  10
ATOM     10  C   UNL     1      51.519  27.138  22.521  1.00  0.00     0.000 C 
BRANCH  10  11
ATOM     11  C   UNL     1      52.239  26.466  21.334  1.00  0.00     0.000 C 
BRANCH  11  12
ATOM     12  C   UNL     1      52.644  27.415  20.193  1.00  0.00     0.006 C 
BRANCH  12  13
ATOM     13  C   UNL     1      52.980  26.676  18.890  1.00  0.00     0.053 C 
BRANCH  13  14
ATOM     14  C   UNL     1      54.411  26.894  18.510  1.00  0.00     0.041 C 
ATOM     15  O   UNL     1      54.912  28.050  18.557  1.00  0.00    -0.550 OA
ATOM     16  O   UNL     1      55.195  25.821  18.102  1.00  0.00    -0.550 OA
ENDBRANCH  13  14
ENDBRANCH  12  13
ENDBRANCH  11  12
ENDBRANCH  10  11
ENDBRANCH   9  10
ENDBRANCH   8   9
ENDBRANCH   7   8
ENDBRANCH   6   7
ENDBRANCH   5   6
ENDBRANCH   4   5
ENDBRANCH   3   4
ENDBRANCH   2   3
ENDBRANCH   1   2
BRANCH   1  17
ATOM     17  C   UNL     1      49.948  28.420  16.416  1.00  0.00     0.000 C 
BRANCH  17  18
ATOM     18  C   UNL     1      49.175  29.493  15.635  1.00  0.00     0.000 C 
BRANCH  18  19
ATOM     19  C   UNL     1      47.840  29.812  16.319  1.00  0.00     0.000 C 
BRANCH  19  20
ATOM     20  C   UNL     1      48.061  30.571  17.637  1.00  0.00     0.000 C 
BRANCH  20  21
ATOM     21  C   UNL     1      48.931  31.826  17.461  1.00  0.00     0.000 C 
BRANCH  21  22
ATOM     22  C   UNL     1      48.099  33.097  17.229  1.00  0.00    -0.000 C 
BRANCH  22  23
ATOM     23  C   UNL     1      48.704  33.955  16.110  1.00  0.00    -0.000 C 
BRANCH  23  24
ATOM     24  C   UNL     1      48.378  33.366  14.731  1.00  0.00    -0.000 C 
BRANCH  24  25
ATOM     25  C   UNL     1      48.644  34.356  13.586  1.00  0.00    -0.000 C 
BRANCH  25  26
ATOM     26  C   UNL     1      48.065  33.878  12.243  1.00  0.00    -0.000 C 
BRANCH  26  27
ATOM     27  C   UNL     1      46.760  34.604  11.874  1.00  0.00    -0.000 C 
BRANCH  27  28
ATOM     28  C   UNL     1      46.401  35.716  12.874  1.00  0.00    -0.000 C 
BRANCH  28  29
ATOM     29  C   UNL     1      44.921  35.680  13.287  1.00  0.00    -0.003 C 
ATOM     30  C   UNL     1      43.982  36.082  12.150  1.00  0.00     0.004 C 
ENDBRANCH  28  29
ENDBRANCH  27  28
ENDBRANCH  26  27
ENDBRANCH  25  26
ENDBRANCH  24  25
ENDBRANCH  23  24
ENDBRANCH  22  23
ENDBRANCH  21  22
ENDBRANCH  20  21
ENDBRANCH  19  20
ENDBRANCH  18  19
ENDBRANCH  17  18
ENDBRANCH   1  17
TORSDOF 26
ENDMDL
