MODEL 1
REMARK VINA RESULT:    -6.701      0.000      0.000
REMARK INTER + INTRA:          -8.163
REMARK INTER:                  -7.876
REMARK INTRA:                  -0.287
REMARK UNBOUND:                -0.287
REMARK SMILES O=c1c(O)c(-c2ccc(O)cc2)oc2cc(O)cc(O)c12
REMARK SMILES IDX 5 1 3 2 2 3 1 4 21 5 19 6 18 7 16 8 15 9 14 10 13 11 6 12
REMARK SMILES IDX 7 13 8 14 9 15 12 16 11 17 10 18 4 20 20 22 17 24
REMARK H PARENT 10 19 4 21 20 23 17 25
REMARK Flexibility Score: inf
ROOT
ATOM      1  C   UNL     1      -0.882  25.041  28.498  1.00  0.00     0.180 A 
ATOM      2  C   UNL     1      -0.282  23.786  28.291  1.00  0.00     0.208 A 
ATOM      3  C   UNL     1       1.110  23.716  28.127  1.00  0.00     0.238 A 
ATOM      4  O   UNL     1       1.647  22.584  27.997  1.00  0.00    -0.285 OA
ATOM      5  C   UNL     1       1.884  24.901  28.155  1.00  0.00     0.111 A 
ATOM      6  C   UNL     1       3.298  24.950  27.958  1.00  0.00     0.134 A 
ATOM      7  C   UNL     1       3.977  26.162  28.136  1.00  0.00     0.093 A 
ATOM      8  C   UNL     1       3.285  27.338  28.439  1.00  0.00     0.123 A 
ATOM      9  C   UNL     1       1.900  27.310  28.573  1.00  0.00     0.094 A 
ATOM     10  C   UNL     1       1.198  26.110  28.437  1.00  0.00     0.146 A 
ATOM     11  O   UNL     1      -0.122  26.127  28.584  1.00  0.00    -0.452 OA
ENDROOT
BRANCH   1  12
ATOM     12  C   UNL     1      -2.345  25.199  28.654  1.00  0.00     0.021 A 
ATOM     13  C   UNL     1      -2.967  25.072  29.910  1.00  0.00     0.016 A 
ATOM     14  C   UNL     1      -4.354  25.202  30.028  1.00  0.00     0.047 A 
ATOM     15  C   UNL     1      -5.139  25.446  28.894  1.00  0.00     0.115 A 
ATOM     16  C   UNL     1      -3.142  25.423  27.519  1.00  0.00     0.016 A 
ATOM     17  C   UNL     1      -4.529  25.554  27.641  1.00  0.00     0.047 A 
BRANCH  15  18
ATOM     18  O   UNL     1      -6.521  25.579  29.000  1.00  0.00    -0.508 OA
ATOM     19  H   UNL     1      -7.102  24.819  29.336  1.00  0.00     0.293 HD
ENDBRANCH  15  18
ENDBRANCH   1  12
BRANCH   2  20
ATOM     20  O   UNL     1      -1.062  22.626  28.290  1.00  0.00    -0.502 OA
ATOM     21  H   UNL     1      -0.702  21.728  28.591  1.00  0.00     0.293 HD
ENDBRANCH   2  20
BRANCH   6  22
ATOM     22  O   UNL     1       4.069  23.854  27.564  1.00  0.00    -0.507 OA
ATOM     23  H   UNL     1       4.066  23.450  26.640  1.00  0.00     0.293 HD
ENDBRANCH   6  22
BRANCH   8  24
ATOM     24  O   UNL     1       3.967  28.542  28.599  1.00  0.00    -0.508 OA
ATOM     25  H   UNL     1       4.963  28.566  28.785  1.00  0.00     0.293 HD
ENDBRANCH   8  24
TORSDOF 5
ENDMDL
MODEL 2
REMARK VINA RESULT:    -6.433      2.635      6.764
REMARK INTER + INTRA:          -7.848
REMARK INTER:                  -7.567
REMARK INTRA:                  -0.281
REMARK UNBOUND:                -0.287
REMARK SMILES O=c1c(O)c(-c2ccc(O)cc2)oc2cc(O)cc(O)c12
REMARK SMILES IDX 5 1 3 2 2 3 1 4 21 5 19 6 18 7 16 8 15 9 14 10 13 11 6 12
REMARK SMILES IDX 7 13 8 14 9 15 12 16 11 17 10 18 4 20 20 22 17 24
REMARK H PARENT 10 19 4 21 20 23 17 25
REMARK Flexibility Score: inf
ROOT
ATOM      1  C   UNL     1       2.314  26.532  28.533  1.00  0.00     0.180 A 
ATOM      2  C   UNL     1       2.292  26.522  27.128  1.00  0.00     0.208 A 
ATOM      3  C   UNL     1       1.361  25.706  26.466  1.00  0.00     0.238 A 
ATOM      4  O   UNL     1       1.309  25.744  25.209  1.00  0.00    -0.285 OA
ATOM      5  C   UNL     1       0.474  24.898  27.217  1.00  0.00     0.111 A 
ATOM      6  C   UNL     1      -0.482  24.001  26.650  1.00  0.00     0.134 A 
ATOM      7  C   UNL     1      -1.396  23.348  27.487  1.00  0.00     0.093 A 
ATOM      8  C   UNL     1      -1.344  23.508  28.874  1.00  0.00     0.123 A 
ATOM      9  C   UNL     1      -0.376  24.333  29.439  1.00  0.00     0.094 A 
ATOM     10  C   UNL     1       0.526  25.027  28.629  1.00  0.00     0.146 A 
ATOM     11  O   UNL     1       1.426  25.812  29.209  1.00  0.00    -0.452 OA
ENDROOT
BRANCH   1  12
ATOM     12  C   UNL     1       3.282  27.346  29.301  1.00  0.00     0.021 A 
ATOM     13  C   UNL     1       3.033  28.700  29.594  1.00  0.00     0.016 A 
ATOM     14  C   UNL     1       3.974  29.454  30.301  1.00  0.00     0.047 A 
ATOM     15  C   UNL     1       5.181  28.873  30.710  1.00  0.00     0.115 A 
ATOM     16  C   UNL     1       4.504  26.776  29.698  1.00  0.00     0.016 A 
ATOM     17  C   UNL     1       5.443  27.534  30.405  1.00  0.00     0.047 A 
BRANCH  15  18
ATOM     18  O   UNL     1       6.125  29.615  31.416  1.00  0.00    -0.508 OA
ATOM     19  H   UNL     1       6.721  29.186  32.115  1.00  0.00     0.293 HD
ENDBRANCH  15  18
ENDBRANCH   1  12
BRANCH   2  20
ATOM     20  O   UNL     1       3.161  27.346  26.406  1.00  0.00    -0.502 OA
ATOM     21  H   UNL     1       3.846  27.941  26.856  1.00  0.00     0.293 HD
ENDBRANCH   2  20
BRANCH   6  22
ATOM     22  O   UNL     1      -0.558  23.701  25.287  1.00  0.00    -0.507 OA
ATOM     23  H   UNL     1      -1.211  24.117  24.641  1.00  0.00     0.293 HD
ENDBRANCH   6  22
BRANCH   8  24
ATOM     24  O   UNL     1      -2.247  22.842  29.700  1.00  0.00    -0.508 OA
ATOM     25  H   UNL     1      -2.324  23.061  30.686  1.00  0.00     0.293 HD
ENDBRANCH   8  24
TORSDOF 5
ENDMDL
MODEL 3
REMARK VINA RESULT:    -6.123      2.539      3.823
REMARK INTER + INTRA:          -7.484
REMARK INTER:                  -7.262
REMARK INTRA:                  -0.222
REMARK UNBOUND:                -0.287
REMARK SMILES O=c1c(O)c(-c2ccc(O)cc2)oc2cc(O)cc(O)c12
REMARK SMILES IDX 5 1 3 2 2 3 1 4 21 5 19 6 18 7 16 8 15 9 14 10 13 11 6 12
REMARK SMILES IDX 7 13 8 14 9 15 12 16 11 17 10 18 4 20 20 22 17 24
REMARK H PARENT 10 19 4 21 20 23 17 25
REMARK Flexibility Score: inf
ROOT
ATOM      1  C   UNL     1      -2.062  24.039  29.392  1.00  0.00     0.180 A 
ATOM      2  C   UNL     1      -2.614  24.849  28.385  1.00  0.00     0.208 A 
ATOM      3  C   UNL     1      -1.771  25.366  27.388  1.00  0.00     0.238 A 
ATOM      4  O   UNL     1      -2.280  26.045  26.458  1.00  0.00    -0.285 OA
ATOM      5  C   UNL     1      -0.385  25.079  27.419  1.00  0.00     0.111 A 
ATOM      6  C   UNL     1       0.568  25.584  26.483  1.00  0.00     0.134 A 
ATOM      7  C   UNL     1       1.892  25.131  26.534  1.00  0.00     0.093 A 
ATOM      8  C   UNL     1       2.312  24.242  27.528  1.00  0.00     0.123 A 
ATOM      9  C   UNL     1       1.403  23.792  28.481  1.00  0.00     0.094 A 
ATOM     10  C   UNL     1       0.067  24.198  28.435  1.00  0.00     0.146 A 
ATOM     11  O   UNL     1      -0.769  23.736  29.357  1.00  0.00    -0.452 OA
ENDROOT
BRANCH   1  12
ATOM     12  C   UNL     1      -2.881  23.479  30.491  1.00  0.00     0.021 A 
ATOM     13  C   UNL     1      -3.387  24.297  31.518  1.00  0.00     0.016 A 
ATOM     14  C   UNL     1      -4.139  23.741  32.557  1.00  0.00     0.047 A 
ATOM     15  C   UNL     1      -4.381  22.361  32.593  1.00  0.00     0.115 A 
ATOM     16  C   UNL     1      -3.111  22.094  30.546  1.00  0.00     0.016 A 
ATOM     17  C   UNL     1      -3.864  21.541  31.587  1.00  0.00     0.047 A 
BRANCH  15  18
ATOM     18  O   UNL     1      -5.130  21.797  33.624  1.00  0.00    -0.508 OA
ATOM     19  H   UNL     1      -4.979  20.842  33.926  1.00  0.00     0.293 HD
ENDBRANCH  15  18
ENDBRANCH   1  12
BRANCH   2  20
ATOM     20  O   UNL     1      -3.989  25.100  28.360  1.00  0.00    -0.502 OA
ATOM     21  H   UNL     1      -4.380  25.947  27.964  1.00  0.00     0.293 HD
ENDBRANCH   2  20
BRANCH   6  22
ATOM     22  O   UNL     1       0.273  26.543  25.510  1.00  0.00    -0.507 OA
ATOM     23  H   UNL     1       0.811  26.696  24.671  1.00  0.00     0.293 HD
ENDBRANCH   6  22
BRANCH   8  24
ATOM     24  O   UNL     1       3.634  23.809  27.580  1.00  0.00    -0.508 OA
ATOM     25  H   UNL     1       3.896  22.871  27.298  1.00  0.00     0.293 HD
ENDBRANCH   8  24
TORSDOF 5
ENDMDL
MODEL 4
REMARK VINA RESULT:    -6.049      4.204      7.122
REMARK INTER + INTRA:          -7.396
REMARK INTER:                  -7.109
REMARK INTRA:                  -0.287
REMARK UNBOUND:                -0.287
REMARK SMILES O=c1c(O)c(-c2ccc(O)cc2)oc2cc(O)cc(O)c12
REMARK SMILES IDX 5 1 3 2 2 3 1 4 21 5 19 6 18 7 16 8 15 9 14 10 13 11 6 12
REMARK SMILES IDX 7 13 8 14 9 15 12 16 11 17 10 18 4 20 20 22 17 24
REMARK H PARENT 10 19 4 21 20 23 17 25
REMARK Flexibility Score: inf
ROOT
ATOM      1  C   UNL     1       1.925  27.509  26.444  1.00  0.00     0.180 A 
ATOM      2  C   UNL     1       0.550  27.643  26.702  1.00  0.00     0.208 A 
ATOM      3  C   UNL     1      -0.255  28.320  25.770  1.00  0.00     0.238 A 
ATOM      4  O   UNL     1      -1.494  28.387  25.979  1.00  0.00    -0.285 OA
ATOM      5  C   UNL     1       0.328  28.868  24.603  1.00  0.00     0.111 A 
ATOM      6  C   UNL     1      -0.385  29.609  23.612  1.00  0.00     0.134 A 
ATOM      7  C   UNL     1       0.268  29.993  22.435  1.00  0.00     0.093 A 
ATOM      8  C   UNL     1       1.625  29.721  22.242  1.00  0.00     0.123 A 
ATOM      9  C   UNL     1       2.343  29.051  23.229  1.00  0.00     0.094 A 
ATOM     10  C   UNL     1       1.711  28.623  24.399  1.00  0.00     0.146 A 
ATOM     11  O   UNL     1       2.431  27.978  25.310  1.00  0.00    -0.452 OA
ENDROOT
BRANCH   1  12
ATOM     12  C   UNL     1       2.841  26.832  27.389  1.00  0.00     0.021 A 
ATOM     13  C   UNL     1       3.047  25.441  27.342  1.00  0.00     0.016 A 
ATOM     14  C   UNL     1       3.899  24.821  28.261  1.00  0.00     0.047 A 
ATOM     15  C   UNL     1       4.545  25.579  29.246  1.00  0.00     0.115 A 
ATOM     16  C   UNL     1       3.477  27.581  28.394  1.00  0.00     0.016 A 
ATOM     17  C   UNL     1       4.329  26.958  29.311  1.00  0.00     0.047 A 
BRANCH  15  18
ATOM     18  O   UNL     1       5.397  24.972  30.166  1.00  0.00    -0.508 OA
ATOM     19  H   UNL     1       5.042  24.371  30.901  1.00  0.00     0.293 HD
ENDBRANCH  15  18
ENDBRANCH   1  12
BRANCH   2  20
ATOM     20  O   UNL     1      -0.010  27.073  27.849  1.00  0.00    -0.502 OA
ATOM     21  H   UNL     1       0.526  26.494  28.485  1.00  0.00     0.293 HD
ENDBRANCH   2  20
BRANCH   6  22
ATOM     22  O   UNL     1      -1.716  30.013  23.749  1.00  0.00    -0.507 OA
ATOM     23  H   UNL     1      -2.328  29.734  24.501  1.00  0.00     0.293 HD
ENDBRANCH   6  22
BRANCH   8  24
ATOM     24  O   UNL     1       2.271  30.120  21.074  1.00  0.00    -0.508 OA
ATOM     25  H   UNL     1       2.967  30.856  21.078  1.00  0.00     0.293 HD
ENDBRANCH   8  24
TORSDOF 5
ENDMDL
MODEL 5
REMARK VINA RESULT:    -5.821      2.978      5.943
REMARK INTER + INTRA:          -7.129
REMARK INTER:                  -6.926
REMARK INTRA:                  -0.203
REMARK UNBOUND:                -0.287
REMARK SMILES O=c1c(O)c(-c2ccc(O)cc2)oc2cc(O)cc(O)c12
REMARK SMILES IDX 5 1 3 2 2 3 1 4 21 5 19 6 18 7 16 8 15 9 14 10 13 11 6 12
REMARK SMILES IDX 7 13 8 14 9 15 12 16 11 17 10 18 4 20 20 22 17 24
REMARK H PARENT 10 19 4 21 20 23 17 25
REMARK Flexibility Score: inf
ROOT
ATOM      1  C   UNL     1      -0.578  25.509  27.264  1.00  0.00     0.180 A 
ATOM      2  C   UNL     1      -0.995  24.233  26.845  1.00  0.00     0.208 A 
ATOM      3  C   UNL     1      -1.732  23.432  27.732  1.00  0.00     0.238 A 
ATOM      4  O   UNL     1      -2.150  22.314  27.332  1.00  0.00    -0.285 OA
ATOM      5  C   UNL     1      -2.027  23.909  29.032  1.00  0.00     0.111 A 
ATOM      6  C   UNL     1      -2.731  23.165  30.027  1.00  0.00     0.134 A 
ATOM      7  C   UNL     1      -3.080  23.784  31.234  1.00  0.00     0.093 A 
ATOM      8  C   UNL     1      -2.693  25.099  31.507  1.00  0.00     0.123 A 
ATOM      9  C   UNL     1      -1.954  25.812  30.566  1.00  0.00     0.094 A 
ATOM     10  C   UNL     1      -1.622  25.234  29.339  1.00  0.00     0.146 A 
ATOM     11  O   UNL     1      -0.926  25.953  28.466  1.00  0.00    -0.452 OA
ENDROOT
BRANCH   1  12
ATOM     12  C   UNL     1       0.223  26.400  26.395  1.00  0.00     0.021 A 
ATOM     13  C   UNL     1       1.558  26.099  26.067  1.00  0.00     0.016 A 
ATOM     14  C   UNL     1       2.301  26.969  25.263  1.00  0.00     0.047 A 
ATOM     15  C   UNL     1       1.728  28.156  24.791  1.00  0.00     0.115 A 
ATOM     16  C   UNL     1      -0.338  27.603  25.934  1.00  0.00     0.016 A 
ATOM     17  C   UNL     1       0.409  28.471  25.130  1.00  0.00     0.047 A 
BRANCH  15  18
ATOM     18  O   UNL     1       2.459  29.030  23.989  1.00  0.00    -0.508 OA
ATOM     19  H   UNL     1       2.039  29.494  23.191  1.00  0.00     0.293 HD
ENDBRANCH  15  18
ENDBRANCH   1  12
BRANCH   2  20
ATOM     20  O   UNL     1      -0.713  23.792  25.549  1.00  0.00    -0.502 OA
ATOM     21  H   UNL     1      -0.592  24.430  24.771  1.00  0.00     0.293 HD
ENDBRANCH   2  20
BRANCH   6  22
ATOM     22  O   UNL     1      -3.083  21.819  29.892  1.00  0.00    -0.507 OA
ATOM     23  H   UNL     1      -3.199  21.174  30.659  1.00  0.00     0.293 HD
ENDBRANCH   6  22
BRANCH   8  24
ATOM     24  O   UNL     1      -3.031  25.703  32.716  1.00  0.00    -0.508 OA
ATOM     25  H   UNL     1      -2.571  25.448  33.582  1.00  0.00     0.293 HD
ENDBRANCH   8  24
TORSDOF 5
ENDMDL
MODEL 6
REMARK VINA RESULT:    -5.794      3.269      4.631
REMARK INTER + INTRA:          -7.097
REMARK INTER:                  -6.797
REMARK INTRA:                  -0.300
REMARK UNBOUND:                -0.287
REMARK SMILES O=c1c(O)c(-c2ccc(O)cc2)oc2cc(O)cc(O)c12
REMARK SMILES IDX 5 1 3 2 2 3 1 4 21 5 19 6 18 7 16 8 15 9 14 10 13 11 6 12
REMARK SMILES IDX 7 13 8 14 9 15 12 16 11 17 10 18 4 20 20 22 17 24
REMARK H PARENT 10 19 4 21 20 23 17 25
REMARK Flexibility Score: inf
ROOT
ATOM      1  C   UNL     1      -0.827  26.022  27.484  1.00  0.00     0.180 A 
ATOM      2  C   UNL     1       0.529  26.357  27.648  1.00  0.00     0.208 A 
ATOM      3  C   UNL     1       1.071  27.396  26.874  1.00  0.00     0.238 A 
ATOM      4  O   UNL     1       2.270  27.728  27.065  1.00  0.00    -0.285 OA
ATOM      5  C   UNL     1       0.258  28.074  25.935  1.00  0.00     0.111 A 
ATOM      6  C   UNL     1       0.715  29.114  25.069  1.00  0.00     0.134 A 
ATOM      7  C   UNL     1      -0.208  29.802  24.272  1.00  0.00     0.093 A 
ATOM      8  C   UNL     1      -1.559  29.444  24.260  1.00  0.00     0.123 A 
ATOM      9  C   UNL     1      -2.002  28.392  25.057  1.00  0.00     0.094 A 
ATOM     10  C   UNL     1      -1.113  27.710  25.890  1.00  0.00     0.146 A 
ATOM     11  O   UNL     1      -1.580  26.719  26.641  1.00  0.00    -0.452 OA
ENDROOT
BRANCH   1  12
ATOM     12  C   UNL     1      -1.464  24.923  28.244  1.00  0.00     0.021 A 
ATOM     13  C   UNL     1      -1.464  23.601  27.761  1.00  0.00     0.016 A 
ATOM     14  C   UNL     1      -2.093  22.585  28.487  1.00  0.00     0.047 A 
ATOM     15  C   UNL     1      -2.742  22.877  29.693  1.00  0.00     0.115 A 
ATOM     16  C   UNL     1      -2.135  25.211  29.444  1.00  0.00     0.016 A 
ATOM     17  C   UNL     1      -2.763  24.192  30.168  1.00  0.00     0.047 A 
BRANCH  15  18
ATOM     18  O   UNL     1      -3.371  21.872  30.425  1.00  0.00    -0.508 OA
ATOM     19  H   UNL     1      -3.330  21.849  31.437  1.00  0.00     0.293 HD
ENDBRANCH  15  18
ENDBRANCH   1  12
BRANCH   2  20
ATOM     20  O   UNL     1       1.308  25.690  28.597  1.00  0.00    -0.502 OA
ATOM     21  H   UNL     1       1.482  24.693  28.555  1.00  0.00     0.293 HD
ENDBRANCH   2  20
BRANCH   6  22
ATOM     22  O   UNL     1       2.055  29.486  24.936  1.00  0.00    -0.507 OA
ATOM     23  H   UNL     1       2.660  29.199  24.181  1.00  0.00     0.293 HD
ENDBRANCH   6  22
BRANCH   8  24
ATOM     24  O   UNL     1      -2.467  30.125  23.453  1.00  0.00    -0.508 OA
ATOM     25  H   UNL     1      -3.396  29.760  23.276  1.00  0.00     0.293 HD
ENDBRANCH   8  24
TORSDOF 5
ENDMDL
MODEL 7
REMARK VINA RESULT:    -5.740      3.708      7.480
REMARK INTER + INTRA:          -7.034
REMARK INTER:                  -6.734
REMARK INTRA:                  -0.300
REMARK UNBOUND:                -0.287
REMARK SMILES O=c1c(O)c(-c2ccc(O)cc2)oc2cc(O)cc(O)c12
REMARK SMILES IDX 5 1 3 2 2 3 1 4 21 5 19 6 18 7 16 8 15 9 14 10 13 11 6 12
REMARK SMILES IDX 7 13 8 14 9 15 12 16 11 17 10 18 4 20 20 22 17 24
REMARK H PARENT 10 19 4 21 20 23 17 25
REMARK Flexibility Score: inf
ROOT
ATOM      1  C   UNL     1       3.450  27.806  29.280  1.00  0.00     0.180 A 
ATOM      2  C   UNL     1       2.754  28.620  28.369  1.00  0.00     0.208 A 
ATOM      3  C   UNL     1       1.925  28.016  27.410  1.00  0.00     0.238 A 
ATOM      4  O   UNL     1       1.262  28.752  26.634  1.00  0.00    -0.285 OA
ATOM      5  C   UNL     1       1.816  26.605  27.363  1.00  0.00     0.111 A 
ATOM      6  C   UNL     1       1.037  25.885  26.407  1.00  0.00     0.134 A 
ATOM      7  C   UNL     1       0.898  24.497  26.535  1.00  0.00     0.093 A 
ATOM      8  C   UNL     1       1.563  23.797  27.545  1.00  0.00     0.123 A 
ATOM      9  C   UNL     1       2.372  24.484  28.445  1.00  0.00     0.094 A 
ATOM     10  C   UNL     1       2.502  25.873  28.366  1.00  0.00     0.146 A 
ATOM     11  O   UNL     1       3.276  26.490  29.251  1.00  0.00    -0.452 OA
ENDROOT
BRANCH   1  12
ATOM     12  C   UNL     1       4.361  28.367  30.302  1.00  0.00     0.021 A 
ATOM     13  C   UNL     1       5.718  28.614  30.019  1.00  0.00     0.016 A 
ATOM     14  C   UNL     1       6.564  29.123  31.009  1.00  0.00     0.047 A 
ATOM     15  C   UNL     1       6.072  29.378  32.295  1.00  0.00     0.115 A 
ATOM     16  C   UNL     1       3.881  28.607  31.600  1.00  0.00     0.016 A 
ATOM     17  C   UNL     1       4.731  29.117  32.588  1.00  0.00     0.047 A 
BRANCH  15  18
ATOM     18  O   UNL     1       6.906  29.886  33.288  1.00  0.00    -0.508 OA
ATOM     19  H   UNL     1       7.286  30.824  33.232  1.00  0.00     0.293 HD
ENDBRANCH  15  18
ENDBRANCH   1  12
BRANCH   2  20
ATOM     20  O   UNL     1       2.859  30.012  28.449  1.00  0.00    -0.502 OA
ATOM     21  H   UNL     1       2.292  30.633  27.883  1.00  0.00     0.293 HD
ENDBRANCH   2  20
BRANCH   6  22
ATOM     22  O   UNL     1       0.408  26.477  25.308  1.00  0.00    -0.507 OA
ATOM     23  H   UNL     1      -0.474  26.964  25.343  1.00  0.00     0.293 HD
ENDBRANCH   6  22
BRANCH   8  24
ATOM     24  O   UNL     1       1.432  22.414  27.656  1.00  0.00    -0.508 OA
ATOM     25  H   UNL     1       2.011  21.876  28.289  1.00  0.00     0.293 HD
ENDBRANCH   8  24
TORSDOF 5
ENDMDL
MODEL 8
REMARK VINA RESULT:    -5.731      1.733      6.861
REMARK INTER + INTRA:          -7.023
REMARK INTER:                  -6.770
REMARK INTRA:                  -0.254
REMARK UNBOUND:                -0.287
REMARK SMILES O=c1c(O)c(-c2ccc(O)cc2)oc2cc(O)cc(O)c12
REMARK SMILES IDX 5 1 3 2 2 3 1 4 21 5 19 6 18 7 16 8 15 9 14 10 13 11 6 12
REMARK SMILES IDX 7 13 8 14 9 15 12 16 11 17 10 18 4 20 20 22 17 24
REMARK H PARENT 10 19 4 21 20 23 17 25
REMARK Flexibility Score: inf
ROOT
ATOM      1  C   UNL     1      -0.835  25.064  28.702  1.00  0.00     0.180 A 
ATOM      2  C   UNL     1      -1.725  25.285  27.635  1.00  0.00     0.208 A 
ATOM      3  C   UNL     1      -3.100  25.382  27.905  1.00  0.00     0.238 A 
ATOM      4  O   UNL     1      -3.885  25.634  26.954  1.00  0.00    -0.285 OA
ATOM      5  C   UNL     1      -3.569  25.241  29.233  1.00  0.00     0.111 A 
ATOM      6  C   UNL     1      -4.945  25.280  29.614  1.00  0.00     0.134 A 
ATOM      7  C   UNL     1      -5.285  25.259  30.973  1.00  0.00     0.093 A 
ATOM      8  C   UNL     1      -4.303  25.134  31.959  1.00  0.00     0.123 A 
ATOM      9  C   UNL     1      -2.964  25.035  31.593  1.00  0.00     0.094 A 
ATOM     10  C   UNL     1      -2.590  25.089  30.248  1.00  0.00     0.146 A 
ATOM     11  O   UNL     1      -1.300  25.001  29.944  1.00  0.00    -0.452 OA
ENDROOT
BRANCH   1  12
ATOM     12  C   UNL     1       0.623  24.926  28.494  1.00  0.00     0.021 A 
ATOM     13  C   UNL     1       1.503  25.998  28.733  1.00  0.00     0.016 A 
ATOM     14  C   UNL     1       2.875  25.850  28.507  1.00  0.00     0.047 A 
ATOM     15  C   UNL     1       3.384  24.636  28.028  1.00  0.00     0.115 A 
ATOM     16  C   UNL     1       1.140  23.719  27.994  1.00  0.00     0.016 A 
ATOM     17  C   UNL     1       2.513  23.574  27.770  1.00  0.00     0.047 A 
BRANCH  15  18
ATOM     18  O   UNL     1       4.749  24.477  27.801  1.00  0.00    -0.508 OA
ATOM     19  H   UNL     1       5.101  23.780  27.154  1.00  0.00     0.293 HD
ENDBRANCH  15  18
ENDBRANCH   1  12
BRANCH   2  20
ATOM     20  O   UNL     1      -1.238  25.444  26.335  1.00  0.00    -0.502 OA
ATOM     21  H   UNL     1      -1.657  24.982  25.537  1.00  0.00     0.293 HD
ENDBRANCH   2  20
BRANCH   6  22
ATOM     22  O   UNL     1      -6.006  25.311  28.705  1.00  0.00    -0.507 OA
ATOM     23  H   UNL     1      -5.906  25.266  27.702  1.00  0.00     0.293 HD
ENDBRANCH   6  22
BRANCH   8  24
ATOM     24  O   UNL     1      -4.652  25.099  33.307  1.00  0.00    -0.508 OA
ATOM     25  H   UNL     1      -5.176  25.851  33.739  1.00  0.00     0.293 HD
ENDBRANCH   8  24
TORSDOF 5
ENDMDL
MODEL 9
REMARK VINA RESULT:    -5.578      2.278      2.845
REMARK INTER + INTRA:          -6.843
REMARK INTER:                  -6.737
REMARK INTRA:                  -0.106
REMARK UNBOUND:                -0.287
REMARK SMILES O=c1c(O)c(-c2ccc(O)cc2)oc2cc(O)cc(O)c12
REMARK SMILES IDX 5 1 3 2 2 3 1 4 21 5 19 6 18 7 16 8 15 9 14 10 13 11 6 12
REMARK SMILES IDX 7 13 8 14 9 15 12 16 11 17 10 18 4 20 20 22 17 24
REMARK H PARENT 10 19 4 21 20 23 17 25
REMARK Flexibility Score: inf
ROOT
ATOM      1  C   UNL     1      -0.687  25.077  29.305  1.00  0.00     0.180 A 
ATOM      2  C   UNL     1      -0.926  24.648  27.988  1.00  0.00     0.208 A 
ATOM      3  C   UNL     1      -0.048  25.054  26.970  1.00  0.00     0.238 A 
ATOM      4  O   UNL     1      -0.235  24.622  25.803  1.00  0.00    -0.285 OA
ATOM      5  C   UNL     1       1.048  25.896  27.279  1.00  0.00     0.111 A 
ATOM      6  C   UNL     1       1.977  26.401  26.319  1.00  0.00     0.134 A 
ATOM      7  C   UNL     1       3.097  27.120  26.756  1.00  0.00     0.093 A 
ATOM      8  C   UNL     1       3.286  27.407  28.110  1.00  0.00     0.123 A 
ATOM      9  C   UNL     1       2.353  26.969  29.046  1.00  0.00     0.094 A 
ATOM     10  C   UNL     1       1.244  26.220  28.647  1.00  0.00     0.146 A 
ATOM     11  O   UNL     1       0.385  25.813  29.573  1.00  0.00    -0.452 OA
ENDROOT
BRANCH   1  12
ATOM     12  C   UNL     1      -1.582  24.712  30.426  1.00  0.00     0.021 A 
ATOM     13  C   UNL     1      -2.944  25.065  30.422  1.00  0.00     0.016 A 
ATOM     14  C   UNL     1      -3.764  24.730  31.504  1.00  0.00     0.047 A 
ATOM     15  C   UNL     1      -3.232  24.052  32.609  1.00  0.00     0.115 A 
ATOM     16  C   UNL     1      -1.052  24.051  31.547  1.00  0.00     0.016 A 
ATOM     17  C   UNL     1      -1.875  23.716  32.627  1.00  0.00     0.047 A 
BRANCH  15  18
ATOM     18  O   UNL     1      -4.040  23.712  33.691  1.00  0.00    -0.508 OA
ATOM     19  H   UNL     1      -4.354  22.759  33.839  1.00  0.00     0.293 HD
ENDBRANCH  15  18
ENDBRANCH   1  12
BRANCH   2  20
ATOM     20  O   UNL     1      -2.000  23.798  27.709  1.00  0.00    -0.502 OA
ATOM     21  H   UNL     1      -2.862  24.130  27.293  1.00  0.00     0.293 HD
ENDBRANCH   2  20
BRANCH   6  22
ATOM     22  O   UNL     1       1.831  26.250  24.938  1.00  0.00    -0.507 OA
ATOM     23  H   UNL     1       1.158  26.745  24.372  1.00  0.00     0.293 HD
ENDBRANCH   6  22
BRANCH   8  24
ATOM     24  O   UNL     1       4.395  28.136  28.534  1.00  0.00    -0.508 OA
ATOM     25  H   UNL     1       4.804  28.861  27.957  1.00  0.00     0.293 HD
ENDBRANCH   8  24
TORSDOF 5
ENDMDL
