MODEL 1
REMARK VINA RESULT:    -6.080      0.000      0.000
REMARK INTER + INTRA:          -7.565
REMARK INTER:                  -7.324
REMARK INTRA:                  -0.240
REMARK UNBOUND:                -0.240
REMARK SMILES O=c1c(O)c(-c2ccc(O)cc2O)oc2cc(O)cc(O)c12
REMARK SMILES IDX 5 1 3 2 2 3 1 4 22 5 20 6 19 7 17 8 16 9 15 10 14 11 6 12
REMARK SMILES IDX 8 13 7 14 9 15 11 16 12 17 10 18 13 20 4 22 21 24 18 26
REMARK H PARENT 10 19 13 21 4 23 21 25 18 27
REMARK Flexibility Score: inf
ROOT
ATOM      1  C   UNL     1      -2.353 -17.860 -22.442  1.00  0.00     0.184 A 
ATOM      2  C   UNL     1      -3.204 -16.865 -21.927  1.00  0.00     0.208 A 
ATOM      3  C   UNL     1      -4.361 -17.255 -21.236  1.00  0.00     0.238 A 
ATOM      4  O   UNL     1      -5.137 -16.372 -20.780  1.00  0.00    -0.285 OA
ATOM      5  C   UNL     1      -4.635 -18.627 -21.056  1.00  0.00     0.111 A 
ATOM      6  C   UNL     1      -5.778 -19.103 -20.369  1.00  0.00     0.134 A 
ATOM      7  C   UNL     1      -5.977 -20.484 -20.224  1.00  0.00     0.093 A 
ATOM      8  C   UNL     1      -5.055 -21.396 -20.751  1.00  0.00     0.123 A 
ATOM      9  C   UNL     1      -3.927 -20.931 -21.429  1.00  0.00     0.094 A 
ATOM     10  C   UNL     1      -3.712 -19.559 -21.587  1.00  0.00     0.146 A 
ATOM     11  O   UNL     1      -2.633 -19.143 -22.240  1.00  0.00    -0.451 OA
ENDROOT
BRANCH   1  12
ATOM     12  C   UNL     1      -1.124 -17.520 -23.189  1.00  0.00     0.063 A 
ATOM     13  C   UNL     1       0.105 -17.544 -25.286  1.00  0.00     0.047 A 
ATOM     14  C   UNL     1      -1.040 -17.856 -24.549  1.00  0.00     0.020 A 
ATOM     15  C   UNL     1       1.175 -16.882 -24.677  1.00  0.00     0.119 A 
ATOM     16  C   UNL     1       1.092 -16.523 -23.326  1.00  0.00     0.093 A 
ATOM     17  C   UNL     1      -0.057 -16.826 -22.581  1.00  0.00     0.130 A 
BRANCH  15  18
ATOM     18  O   UNL     1       2.312 -16.583 -25.424  1.00  0.00    -0.508 OA
ATOM     19  H   UNL     1       2.408 -16.888 -26.386  1.00  0.00     0.293 HD
ENDBRANCH  15  18
BRANCH  17  20
ATOM     20  O   UNL     1      -0.148 -16.419 -21.249  1.00  0.00    -0.507 OA
ATOM     21  H   UNL     1       0.377 -15.626 -20.899  1.00  0.00     0.293 HD
ENDBRANCH  17  20
ENDBRANCH   1  12
BRANCH   2  22
ATOM     22  O   UNL     1      -2.880 -15.515 -22.083  1.00  0.00    -0.502 OA
ATOM     23  H   UNL     1      -3.025 -15.021 -22.956  1.00  0.00     0.293 HD
ENDBRANCH   2  22
BRANCH   6  24
ATOM     24  O   UNL     1      -6.714 -18.219 -19.832  1.00  0.00    -0.507 OA
ATOM     25  H   UNL     1      -6.578 -17.215 -19.860  1.00  0.00     0.293 HD
ENDBRANCH   6  24
BRANCH   8  26
ATOM     26  O   UNL     1      -5.251 -22.768 -20.606  1.00  0.00    -0.508 OA
ATOM     27  H   UNL     1      -5.509 -23.174 -19.714  1.00  0.00     0.293 HD
ENDBRANCH   8  26
TORSDOF 6
ENDMDL
MODEL 2
REMARK VINA RESULT:    -6.012      1.997      2.877
REMARK INTER + INTRA:          -7.483
REMARK INTER:                  -7.141
REMARK INTRA:                  -0.341
REMARK UNBOUND:                -0.240
REMARK SMILES O=c1c(O)c(-c2ccc(O)cc2O)oc2cc(O)cc(O)c12
REMARK SMILES IDX 5 1 3 2 2 3 1 4 22 5 20 6 19 7 17 8 16 9 15 10 14 11 6 12
REMARK SMILES IDX 8 13 7 14 9 15 11 16 12 17 10 18 13 20 4 22 21 24 18 26
REMARK H PARENT 10 19 13 21 4 23 21 25 18 27
REMARK Flexibility Score: inf
ROOT
ATOM      1  C   UNL     1      -1.423 -17.412 -24.240  1.00  0.00     0.184 A 
ATOM      2  C   UNL     1      -2.153 -16.212 -24.305  1.00  0.00     0.208 A 
ATOM      3  C   UNL     1      -3.105 -15.943 -23.311  1.00  0.00     0.238 A 
ATOM      4  O   UNL     1      -3.774 -14.875 -23.365  1.00  0.00    -0.285 OA
ATOM      5  C   UNL     1      -3.295 -16.866 -22.261  1.00  0.00     0.111 A 
ATOM      6  C   UNL     1      -4.231 -16.669 -21.218  1.00  0.00     0.134 A 
ATOM      7  C   UNL     1      -4.356 -17.630 -20.203  1.00  0.00     0.093 A 
ATOM      8  C   UNL     1      -3.561 -18.783 -20.213  1.00  0.00     0.123 A 
ATOM      9  C   UNL     1      -2.637 -18.981 -21.239  1.00  0.00     0.094 A 
ATOM     10  C   UNL     1      -2.499 -18.036 -22.261  1.00  0.00     0.146 A 
ATOM     11  O   UNL     1      -1.615 -18.252 -23.228  1.00  0.00    -0.451 OA
ENDROOT
BRANCH   1  12
ATOM     12  C   UNL     1      -0.413 -17.763 -25.260  1.00  0.00     0.063 A 
ATOM     13  C   UNL     1       0.203 -19.091 -27.201  1.00  0.00     0.047 A 
ATOM     14  C   UNL     1      -0.727 -18.738 -26.220  1.00  0.00     0.020 A 
ATOM     15  C   UNL     1       1.451 -18.465 -27.245  1.00  0.00     0.119 A 
ATOM     16  C   UNL     1       1.766 -17.475 -26.306  1.00  0.00     0.093 A 
ATOM     17  C   UNL     1       0.835 -17.111 -25.320  1.00  0.00     0.130 A 
BRANCH  15  18
ATOM     18  O   UNL     1       2.369 -18.830 -28.227  1.00  0.00    -0.508 OA
ATOM     19  H   UNL     1       3.368 -18.767 -28.067  1.00  0.00     0.293 HD
ENDBRANCH  15  18
BRANCH  17  20
ATOM     20  O   UNL     1       1.142 -16.088 -24.422  1.00  0.00    -0.507 OA
ATOM     21  H   UNL     1       1.850 -16.203 -23.707  1.00  0.00     0.293 HD
ENDBRANCH  17  20
ENDBRANCH   1  12
BRANCH   2  22
ATOM     22  O   UNL     1      -1.909 -15.297 -25.333  1.00  0.00    -0.502 OA
ATOM     23  H   UNL     1      -1.561 -14.363 -25.156  1.00  0.00     0.293 HD
ENDBRANCH   2  22
BRANCH   6  24
ATOM     24  O   UNL     1      -5.036 -15.530 -21.180  1.00  0.00    -0.507 OA
ATOM     25  H   UNL     1      -5.117 -14.960 -20.346  1.00  0.00     0.293 HD
ENDBRANCH   6  24
BRANCH   8  26
ATOM     26  O   UNL     1      -3.683 -19.737 -19.205  1.00  0.00    -0.508 OA
ATOM     27  H   UNL     1      -3.106 -19.704 -18.373  1.00  0.00     0.293 HD
ENDBRANCH   8  26
TORSDOF 6
ENDMDL
MODEL 3
REMARK VINA RESULT:    -5.962      1.486      1.960
REMARK INTER + INTRA:          -7.423
REMARK INTER:                  -7.007
REMARK INTRA:                  -0.416
REMARK UNBOUND:                -0.240
REMARK SMILES O=c1c(O)c(-c2ccc(O)cc2O)oc2cc(O)cc(O)c12
REMARK SMILES IDX 5 1 3 2 2 3 1 4 22 5 20 6 19 7 17 8 16 9 15 10 14 11 6 12
REMARK SMILES IDX 8 13 7 14 9 15 11 16 12 17 10 18 13 20 4 22 21 24 18 26
REMARK H PARENT 10 19 13 21 4 23 21 25 18 27
REMARK Flexibility Score: inf
ROOT
ATOM      1  C   UNL     1      -1.765 -17.366 -22.942  1.00  0.00     0.184 A 
ATOM      2  C   UNL     1      -2.164 -16.356 -22.049  1.00  0.00     0.208 A 
ATOM      3  C   UNL     1      -3.028 -16.686 -20.995  1.00  0.00     0.238 A 
ATOM      4  O   UNL     1      -3.402 -15.786 -20.194  1.00  0.00    -0.285 OA
ATOM      5  C   UNL     1      -3.460 -18.020 -20.841  1.00  0.00     0.111 A 
ATOM      6  C   UNL     1      -4.329 -18.436 -19.803  1.00  0.00     0.134 A 
ATOM      7  C   UNL     1      -4.707 -19.785 -19.712  1.00  0.00     0.093 A 
ATOM      8  C   UNL     1      -4.233 -20.722 -20.637  1.00  0.00     0.123 A 
ATOM      9  C   UNL     1      -3.377 -20.316 -21.661  1.00  0.00     0.094 A 
ATOM     10  C   UNL     1      -2.990 -18.976 -21.771  1.00  0.00     0.146 A 
ATOM     11  O   UNL     1      -2.178 -18.616 -22.759  1.00  0.00    -0.451 OA
ENDROOT
BRANCH   1  12
ATOM     12  C   UNL     1      -0.866 -17.085 -24.081  1.00  0.00     0.063 A 
ATOM     13  C   UNL     1       1.388 -17.062 -24.991  1.00  0.00     0.047 A 
ATOM     14  C   UNL     1       0.511 -17.313 -23.932  1.00  0.00     0.020 A 
ATOM     15  C   UNL     1       0.900 -16.595 -26.214  1.00  0.00     0.119 A 
ATOM     16  C   UNL     1      -0.475 -16.386 -26.379  1.00  0.00     0.093 A 
ATOM     17  C   UNL     1      -1.363 -16.641 -25.323  1.00  0.00     0.130 A 
BRANCH  15  18
ATOM     18  O   UNL     1       1.788 -16.346 -27.258  1.00  0.00    -0.508 OA
ATOM     19  H   UNL     1       1.995 -17.052 -27.955  1.00  0.00     0.293 HD
ENDBRANCH  15  18
BRANCH  17  20
ATOM     20  O   UNL     1      -2.735 -16.476 -25.516  1.00  0.00    -0.507 OA
ATOM     21  H   UNL     1      -3.352 -16.214 -24.757  1.00  0.00     0.293 HD
ENDBRANCH  17  20
ENDBRANCH   1  12
BRANCH   2  22
ATOM     22  O   UNL     1      -1.681 -15.053 -22.202  1.00  0.00    -0.502 OA
ATOM     23  H   UNL     1      -0.765 -14.856 -22.586  1.00  0.00     0.293 HD
ENDBRANCH   2  22
BRANCH   6  24
ATOM     24  O   UNL     1      -4.817 -17.526 -18.866  1.00  0.00    -0.507 OA
ATOM     25  H   UNL     1      -5.695 -17.676 -18.382  1.00  0.00     0.293 HD
ENDBRANCH   6  24
BRANCH   8  26
ATOM     26  O   UNL     1      -4.607 -22.061 -20.546  1.00  0.00    -0.508 OA
ATOM     27  H   UNL     1      -3.917 -22.804 -20.546  1.00  0.00     0.293 HD
ENDBRANCH   8  26
TORSDOF 6
ENDMDL
MODEL 4
REMARK VINA RESULT:    -5.811      1.853      6.668
REMARK INTER + INTRA:          -7.240
REMARK INTER:                  -6.826
REMARK INTRA:                  -0.414
REMARK UNBOUND:                -0.240
REMARK SMILES O=c1c(O)c(-c2ccc(O)cc2O)oc2cc(O)cc(O)c12
REMARK SMILES IDX 5 1 3 2 2 3 1 4 22 5 20 6 19 7 17 8 16 9 15 10 14 11 6 12
REMARK SMILES IDX 8 13 7 14 9 15 11 16 12 17 10 18 13 20 4 22 21 24 18 26
REMARK H PARENT 10 19 13 21 4 23 21 25 18 27
REMARK Flexibility Score: inf
ROOT
ATOM      1  C   UNL     1      -1.662 -17.596 -22.536  1.00  0.00     0.184 A 
ATOM      2  C   UNL     1      -0.584 -16.757 -22.206  1.00  0.00     0.208 A 
ATOM      3  C   UNL     1       0.476 -16.627 -23.115  1.00  0.00     0.238 A 
ATOM      4  O   UNL     1       1.455 -15.885 -22.826  1.00  0.00    -0.285 OA
ATOM      5  C   UNL     1       0.429 -17.319 -24.343  1.00  0.00     0.111 A 
ATOM      6  C   UNL     1       1.454 -17.240 -25.316  1.00  0.00     0.134 A 
ATOM      7  C   UNL     1       1.330 -17.953 -26.518  1.00  0.00     0.093 A 
ATOM      8  C   UNL     1       0.200 -18.743 -26.764  1.00  0.00     0.123 A 
ATOM      9  C   UNL     1      -0.813 -18.825 -25.808  1.00  0.00     0.094 A 
ATOM     10  C   UNL     1      -0.707 -18.123 -24.603  1.00  0.00     0.146 A 
ATOM     11  O   UNL     1      -1.683 -18.223 -23.708  1.00  0.00    -0.451 OA
ENDROOT
BRANCH   1  12
ATOM     12  C   UNL     1      -2.805 -17.789 -21.619  1.00  0.00     0.063 A 
ATOM     13  C   UNL     1      -3.677 -18.734 -19.556  1.00  0.00     0.047 A 
ATOM     14  C   UNL     1      -2.619 -18.537 -20.446  1.00  0.00     0.020 A 
ATOM     15  C   UNL     1      -4.931 -18.175 -19.818  1.00  0.00     0.119 A 
ATOM     16  C   UNL     1      -5.122 -17.407 -20.974  1.00  0.00     0.093 A 
ATOM     17  C   UNL     1      -4.062 -17.200 -21.870  1.00  0.00     0.130 A 
BRANCH  15  18
ATOM     18  O   UNL     1      -5.977 -18.383 -18.922  1.00  0.00    -0.508 OA
ATOM     19  H   UNL     1      -5.953 -18.003 -17.983  1.00  0.00     0.293 HD
ENDBRANCH  15  18
BRANCH  17  20
ATOM     20  O   UNL     1      -4.251 -16.392 -22.992  1.00  0.00    -0.507 OA
ATOM     21  H   UNL     1      -3.501 -16.208 -23.648  1.00  0.00     0.293 HD
ENDBRANCH  17  20
ENDBRANCH   1  12
BRANCH   2  22
ATOM     22  O   UNL     1      -0.588 -16.049 -21.001  1.00  0.00    -0.502 OA
ATOM     23  H   UNL     1       0.207 -16.042 -20.373  1.00  0.00     0.293 HD
ENDBRANCH   2  22
BRANCH   6  24
ATOM     24  O   UNL     1       2.591 -16.460 -25.100  1.00  0.00    -0.507 OA
ATOM     25  H   UNL     1       3.524 -16.854 -25.144  1.00  0.00     0.293 HD
ENDBRANCH   6  24
BRANCH   8  26
ATOM     26  O   UNL     1       0.075 -19.451 -27.958  1.00  0.00    -0.508 OA
ATOM     27  H   UNL     1      -0.411 -19.059 -28.757  1.00  0.00     0.293 HD
ENDBRANCH   8  26
TORSDOF 6
ENDMDL
MODEL 5
REMARK VINA RESULT:    -5.615      3.687      5.207
REMARK INTER + INTRA:          -7.005
REMARK INTER:                  -7.073
REMARK INTRA:                   0.068
REMARK UNBOUND:                -0.240
REMARK SMILES O=c1c(O)c(-c2ccc(O)cc2O)oc2cc(O)cc(O)c12
REMARK SMILES IDX 5 1 3 2 2 3 1 4 22 5 20 6 19 7 17 8 16 9 15 10 14 11 6 12
REMARK SMILES IDX 8 13 7 14 9 15 11 16 12 17 10 18 13 20 4 22 21 24 18 26
REMARK H PARENT 10 19 13 21 4 23 21 25 18 27
REMARK Flexibility Score: inf
ROOT
ATOM      1  C   UNL     1      -0.139 -16.979 -23.718  1.00  0.00     0.184 A 
ATOM      2  C   UNL     1      -1.458 -16.603 -23.407  1.00  0.00     0.208 A 
ATOM      3  C   UNL     1      -1.723 -16.039 -22.150  1.00  0.00     0.238 A 
ATOM      4  O   UNL     1      -2.904 -15.708 -21.855  1.00  0.00    -0.285 OA
ATOM      5  C   UNL     1      -0.665 -15.843 -21.238  1.00  0.00     0.111 A 
ATOM      6  C   UNL     1      -0.847 -15.279 -19.952  1.00  0.00     0.134 A 
ATOM      7  C   UNL     1       0.257 -15.108 -19.104  1.00  0.00     0.093 A 
ATOM      8  C   UNL     1       1.539 -15.492 -19.518  1.00  0.00     0.123 A 
ATOM      9  C   UNL     1       1.723 -16.049 -20.784  1.00  0.00     0.094 A 
ATOM     10  C   UNL     1       0.635 -16.229 -21.643  1.00  0.00     0.146 A 
ATOM     11  O   UNL     1       0.837 -16.767 -22.841  1.00  0.00    -0.451 OA
ENDROOT
BRANCH   1  12
ATOM     12  C   UNL     1       0.208 -17.589 -25.018  1.00  0.00     0.063 A 
ATOM     13  C   UNL     1      -0.427 -19.021 -26.877  1.00  0.00     0.047 A 
ATOM     14  C   UNL     1      -0.722 -18.432 -25.645  1.00  0.00     0.020 A 
ATOM     15  C   UNL     1       0.795 -18.765 -27.505  1.00  0.00     0.119 A 
ATOM     16  C   UNL     1       1.721 -17.908 -26.899  1.00  0.00     0.093 A 
ATOM     17  C   UNL     1       1.430 -17.307 -25.664  1.00  0.00     0.130 A 
BRANCH  15  18
ATOM     18  O   UNL     1       1.076 -19.363 -28.731  1.00  0.00    -0.508 OA
ATOM     19  H   UNL     1       1.805 -19.007 -29.338  1.00  0.00     0.293 HD
ENDBRANCH  15  18
BRANCH  17  20
ATOM     20  O   UNL     1       2.340 -16.416 -25.095  1.00  0.00    -0.507 OA
ATOM     21  H   UNL     1       3.121 -16.043 -25.622  1.00  0.00     0.293 HD
ENDBRANCH  17  20
ENDBRANCH   1  12
BRANCH   2  22
ATOM     22  O   UNL     1      -2.475 -16.768 -24.350  1.00  0.00    -0.502 OA
ATOM     23  H   UNL     1      -2.484 -17.538 -25.009  1.00  0.00     0.293 HD
ENDBRANCH   2  22
BRANCH   6  24
ATOM     24  O   UNL     1      -2.112 -14.887 -19.512  1.00  0.00    -0.507 OA
ATOM     25  H   UNL     1      -2.611 -15.401 -18.796  1.00  0.00     0.293 HD
ENDBRANCH   6  24
BRANCH   8  26
ATOM     26  O   UNL     1       2.637 -15.322 -18.677  1.00  0.00    -0.508 OA
ATOM     27  H   UNL     1       3.480 -14.858 -18.995  1.00  0.00     0.293 HD
ENDBRANCH   8  26
TORSDOF 6
ENDMDL
MODEL 6
REMARK VINA RESULT:    -5.600      1.416      6.642
REMARK INTER + INTRA:          -6.986
REMARK INTER:                  -6.592
REMARK INTRA:                  -0.394
REMARK UNBOUND:                -0.240
REMARK SMILES O=c1c(O)c(-c2ccc(O)cc2O)oc2cc(O)cc(O)c12
REMARK SMILES IDX 5 1 3 2 2 3 1 4 22 5 20 6 19 7 17 8 16 9 15 10 14 11 6 12
REMARK SMILES IDX 8 13 7 14 9 15 11 16 12 17 10 18 13 20 4 22 21 24 18 26
REMARK H PARENT 10 19 13 21 4 23 21 25 18 27
REMARK Flexibility Score: inf
ROOT
ATOM      1  C   UNL     1      -2.266 -18.252 -22.209  1.00  0.00     0.184 A 
ATOM      2  C   UNL     1      -1.583 -17.345 -21.380  1.00  0.00     0.208 A 
ATOM      3  C   UNL     1      -0.443 -16.698 -21.878  1.00  0.00     0.238 A 
ATOM      4  O   UNL     1       0.185 -15.890 -21.140  1.00  0.00    -0.285 OA
ATOM      5  C   UNL     1      -0.019 -16.953 -23.199  1.00  0.00     0.111 A 
ATOM      6  C   UNL     1       1.118 -16.340 -23.779  1.00  0.00     0.134 A 
ATOM      7  C   UNL     1       1.470 -16.639 -25.103  1.00  0.00     0.093 A 
ATOM      8  C   UNL     1       0.708 -17.539 -25.858  1.00  0.00     0.123 A 
ATOM      9  C   UNL     1      -0.414 -18.145 -25.290  1.00  0.00     0.094 A 
ATOM     10  C   UNL     1      -0.781 -17.862 -23.971  1.00  0.00     0.146 A 
ATOM     11  O   UNL     1      -1.849 -18.458 -23.454  1.00  0.00    -0.451 OA
ENDROOT
BRANCH   1  12
ATOM     12  C   UNL     1      -3.467 -18.977 -21.744  1.00  0.00     0.063 A 
ATOM     13  C   UNL     1      -4.431 -20.967 -20.734  1.00  0.00     0.047 A 
ATOM     14  C   UNL     1      -3.317 -20.257 -21.188  1.00  0.00     0.020 A 
ATOM     15  C   UNL     1      -5.707 -20.403 -20.817  1.00  0.00     0.119 A 
ATOM     16  C   UNL     1      -5.865 -19.117 -21.349  1.00  0.00     0.093 A 
ATOM     17  C   UNL     1      -4.751 -18.395 -21.802  1.00  0.00     0.130 A 
BRANCH  15  18
ATOM     18  O   UNL     1      -6.808 -21.126 -20.364  1.00  0.00    -0.508 OA
ATOM     19  H   UNL     1      -7.524 -20.694 -19.791  1.00  0.00     0.293 HD
ENDBRANCH  15  18
BRANCH  17  20
ATOM     20  O   UNL     1      -4.916 -17.096 -22.284  1.00  0.00    -0.507 OA
ATOM     21  H   UNL     1      -4.787 -16.871 -23.263  1.00  0.00     0.293 HD
ENDBRANCH  17  20
ENDBRANCH   1  12
BRANCH   2  22
ATOM     22  O   UNL     1      -2.055 -17.080 -20.091  1.00  0.00    -0.502 OA
ATOM     23  H   UNL     1      -2.542 -17.776 -19.539  1.00  0.00     0.293 HD
ENDBRANCH   2  22
BRANCH   6  24
ATOM     24  O   UNL     1       1.897 -15.439 -23.053  1.00  0.00    -0.507 OA
ATOM     25  H   UNL     1       2.640 -14.904 -23.488  1.00  0.00     0.293 HD
ENDBRANCH   6  24
BRANCH   8  26
ATOM     26  O   UNL     1       1.056 -17.836 -27.174  1.00  0.00    -0.508 OA
ATOM     27  H   UNL     1       0.394 -18.258 -27.814  1.00  0.00     0.293 HD
ENDBRANCH   8  26
TORSDOF 6
ENDMDL
MODEL 7
REMARK VINA RESULT:    -4.931      4.443      6.035
REMARK INTER + INTRA:          -6.180
REMARK INTER:                  -5.902
REMARK INTRA:                  -0.278
REMARK UNBOUND:                -0.240
REMARK SMILES O=c1c(O)c(-c2ccc(O)cc2O)oc2cc(O)cc(O)c12
REMARK SMILES IDX 5 1 3 2 2 3 1 4 22 5 20 6 19 7 17 8 16 9 15 10 14 11 6 12
REMARK SMILES IDX 8 13 7 14 9 15 11 16 12 17 10 18 13 20 4 22 21 24 18 26
REMARK H PARENT 10 19 13 21 4 23 21 25 18 27
REMARK Flexibility Score: inf
ROOT
ATOM      1  C   UNL     1       0.090 -16.256 -22.716  1.00  0.00     0.184 A 
ATOM      2  C   UNL     1      -1.125 -15.726 -23.185  1.00  0.00     0.208 A 
ATOM      3  C   UNL     1      -1.573 -16.085 -24.464  1.00  0.00     0.238 A 
ATOM      4  O   UNL     1      -2.656 -15.607 -24.900  1.00  0.00    -0.285 OA
ATOM      5  C   UNL     1      -0.812 -16.982 -25.242  1.00  0.00     0.111 A 
ATOM      6  C   UNL     1      -1.194 -17.398 -26.540  1.00  0.00     0.134 A 
ATOM      7  C   UNL     1      -0.386 -18.301 -27.248  1.00  0.00     0.093 A 
ATOM      8  C   UNL     1       0.795 -18.794 -26.682  1.00  0.00     0.123 A 
ATOM      9  C   UNL     1       1.176 -18.387 -25.403  1.00  0.00     0.094 A 
ATOM     10  C   UNL     1       0.386 -17.486 -24.682  1.00  0.00     0.146 A 
ATOM     11  O   UNL     1       0.775 -17.111 -23.469  1.00  0.00    -0.451 OA
ENDROOT
BRANCH   1  12
ATOM     12  C   UNL     1       0.626 -15.911 -21.383  1.00  0.00     0.063 A 
ATOM     13  C   UNL     1       0.314 -15.838 -18.974  1.00  0.00     0.047 A 
ATOM     14  C   UNL     1      -0.165 -16.149 -20.249  1.00  0.00     0.020 A 
ATOM     15  C   UNL     1       1.593 -15.298 -18.814  1.00  0.00     0.119 A 
ATOM     16  C   UNL     1       2.399 -15.077 -19.938  1.00  0.00     0.093 A 
ATOM     17  C   UNL     1       1.928 -15.392 -21.222  1.00  0.00     0.130 A 
BRANCH  15  18
ATOM     18  O   UNL     1       2.054 -14.989 -17.537  1.00  0.00    -0.508 OA
ATOM     19  H   UNL     1       2.670 -15.616 -17.031  1.00  0.00     0.293 HD
ENDBRANCH  15  18
BRANCH  17  20
ATOM     20  O   UNL     1       2.759 -15.214 -22.329  1.00  0.00    -0.507 OA
ATOM     21  H   UNL     1       2.427 -14.772 -23.178  1.00  0.00     0.293 HD
ENDBRANCH  17  20
ENDBRANCH   1  12
BRANCH   2  22
ATOM     22  O   UNL     1      -1.879 -14.875 -22.371  1.00  0.00    -0.502 OA
ATOM     23  H   UNL     1      -1.588 -13.928 -22.161  1.00  0.00     0.293 HD
ENDBRANCH   2  22
BRANCH   6  24
ATOM     24  O   UNL     1      -2.367 -16.924 -27.130  1.00  0.00    -0.507 OA
ATOM     25  H   UNL     1      -3.197 -17.500 -27.204  1.00  0.00     0.293 HD
ENDBRANCH   6  24
BRANCH   8  26
ATOM     26  O   UNL     1       1.598 -19.691 -27.384  1.00  0.00    -0.508 OA
ATOM     27  H   UNL     1       1.942 -19.479 -28.313  1.00  0.00     0.293 HD
ENDBRANCH   8  26
TORSDOF 6
ENDMDL
MODEL 8
REMARK VINA RESULT:    -4.887      4.029      7.547
REMARK INTER + INTRA:          -6.128
REMARK INTER:                  -5.711
REMARK INTRA:                  -0.417
REMARK UNBOUND:                -0.240
REMARK SMILES O=c1c(O)c(-c2ccc(O)cc2O)oc2cc(O)cc(O)c12
REMARK SMILES IDX 5 1 3 2 2 3 1 4 22 5 20 6 19 7 17 8 16 9 15 10 14 11 6 12
REMARK SMILES IDX 8 13 7 14 9 15 11 16 12 17 10 18 13 20 4 22 21 24 18 26
REMARK H PARENT 10 19 13 21 4 23 21 25 18 27
REMARK Flexibility Score: inf
ROOT
ATOM      1  C   UNL     1      -6.374 -20.196 -20.230  1.00  0.00     0.184 A 
ATOM      2  C   UNL     1      -5.292 -19.386 -19.842  1.00  0.00     0.208 A 
ATOM      3  C   UNL     1      -5.044 -18.202 -20.551  1.00  0.00     0.238 A 
ATOM      4  O   UNL     1      -4.070 -17.473 -20.220  1.00  0.00    -0.285 OA
ATOM      5  C   UNL     1      -5.891 -17.840 -21.619  1.00  0.00     0.111 A 
ATOM      6  C   UNL     1      -5.712 -16.661 -22.383  1.00  0.00     0.134 A 
ATOM      7  C   UNL     1      -6.604 -16.366 -23.426  1.00  0.00     0.093 A 
ATOM      8  C   UNL     1      -7.669 -17.226 -23.718  1.00  0.00     0.123 A 
ATOM      9  C   UNL     1      -7.849 -18.388 -22.967  1.00  0.00     0.094 A 
ATOM     10  C   UNL     1      -6.971 -18.702 -21.926  1.00  0.00     0.146 A 
ATOM     11  O   UNL     1      -7.162 -19.818 -21.231  1.00  0.00    -0.451 OA
ENDROOT
BRANCH   1  12
ATOM     12  C   UNL     1      -6.685 -21.462 -19.533  1.00  0.00     0.063 A 
ATOM     13  C   UNL     1      -7.928 -22.628 -17.800  1.00  0.00     0.047 A 
ATOM     14  C   UNL     1      -7.607 -21.448 -18.476  1.00  0.00     0.020 A 
ATOM     15  C   UNL     1      -7.341 -23.838 -18.180  1.00  0.00     0.119 A 
ATOM     16  C   UNL     1      -6.437 -23.867 -19.248  1.00  0.00     0.093 A 
ATOM     17  C   UNL     1      -6.114 -22.687 -19.937  1.00  0.00     0.130 A 
BRANCH  15  18
ATOM     18  O   UNL     1      -7.668 -25.005 -17.493  1.00  0.00    -0.508 OA
ATOM     19  H   UNL     1      -8.618 -25.195 -17.195  1.00  0.00     0.293 HD
ENDBRANCH  15  18
BRANCH  17  20
ATOM     20  O   UNL     1      -5.250 -22.737 -21.031  1.00  0.00    -0.507 OA
ATOM     21  H   UNL     1      -4.311 -23.109 -20.951  1.00  0.00     0.293 HD
ENDBRANCH  17  20
ENDBRANCH   1  12
BRANCH   2  22
ATOM     22  O   UNL     1      -4.499 -19.750 -18.751  1.00  0.00    -0.502 OA
ATOM     23  H   UNL     1      -3.897 -20.565 -18.766  1.00  0.00     0.293 HD
ENDBRANCH   2  22
BRANCH   6  24
ATOM     24  O   UNL     1      -4.660 -15.785 -22.116  1.00  0.00    -0.507 OA
ATOM     25  H   UNL     1      -3.709 -15.991 -22.399  1.00  0.00     0.293 HD
ENDBRANCH   6  24
BRANCH   8  26
ATOM     26  O   UNL     1      -8.556 -16.933 -24.752  1.00  0.00    -0.508 OA
ATOM     27  H   UNL     1      -8.226 -16.714 -25.685  1.00  0.00     0.293 HD
ENDBRANCH   8  26
TORSDOF 6
ENDMDL
MODEL 9
REMARK VINA RESULT:    -4.846      2.592      7.376
REMARK INTER + INTRA:          -6.078
REMARK INTER:                  -5.692
REMARK INTRA:                  -0.386
REMARK UNBOUND:                -0.240
REMARK SMILES O=c1c(O)c(-c2ccc(O)cc2O)oc2cc(O)cc(O)c12
REMARK SMILES IDX 5 1 3 2 2 3 1 4 22 5 20 6 19 7 17 8 16 9 15 10 14 11 6 12
REMARK SMILES IDX 8 13 7 14 9 15 11 16 12 17 10 18 13 20 4 22 21 24 18 26
REMARK H PARENT 10 19 13 21 4 23 21 25 18 27
REMARK Flexibility Score: inf
ROOT
ATOM      1  C   UNL     1      -6.003 -20.066 -20.260  1.00  0.00     0.184 A 
ATOM      2  C   UNL     1      -6.919 -19.265 -20.966  1.00  0.00     0.208 A 
ATOM      3  C   UNL     1      -6.448 -18.126 -21.635  1.00  0.00     0.238 A 
ATOM      4  O   UNL     1      -7.261 -17.394 -22.262  1.00  0.00    -0.285 OA
ATOM      5  C   UNL     1      -5.071 -17.820 -21.604  1.00  0.00     0.111 A 
ATOM      6  C   UNL     1      -4.514 -16.693 -22.255  1.00  0.00     0.134 A 
ATOM      7  C   UNL     1      -3.132 -16.460 -22.184  1.00  0.00     0.093 A 
ATOM      8  C   UNL     1      -2.298 -17.334 -21.476  1.00  0.00     0.123 A 
ATOM      9  C   UNL     1      -2.843 -18.446 -20.833  1.00  0.00     0.094 A 
ATOM     10  C   UNL     1      -4.218 -18.694 -20.889  1.00  0.00     0.146 A 
ATOM     11  O   UNL     1      -4.710 -19.757 -20.264  1.00  0.00    -0.451 OA
ENDROOT
BRANCH   1  12
ATOM     12  C   UNL     1      -6.433 -21.273 -19.523  1.00  0.00     0.063 A 
ATOM     13  C   UNL     1      -7.710 -22.248 -17.700  1.00  0.00     0.047 A 
ATOM     14  C   UNL     1      -7.281 -21.127 -18.415  1.00  0.00     0.020 A 
ATOM     15  C   UNL     1      -7.308 -23.528 -18.090  1.00  0.00     0.119 A 
ATOM     16  C   UNL     1      -6.480 -23.686 -19.208  1.00  0.00     0.093 A 
ATOM     17  C   UNL     1      -6.049 -22.566 -19.935  1.00  0.00     0.130 A 
BRANCH  15  18
ATOM     18  O   UNL     1      -7.741 -24.635 -17.364  1.00  0.00    -0.508 OA
ATOM     19  H   UNL     1      -8.259 -24.531 -16.498  1.00  0.00     0.293 HD
ENDBRANCH  15  18
BRANCH  17  20
ATOM     20  O   UNL     1      -5.265 -22.740 -21.076  1.00  0.00    -0.507 OA
ATOM     21  H   UNL     1      -5.273 -23.607 -21.600  1.00  0.00     0.293 HD
ENDBRANCH  17  20
ENDBRANCH   1  12
BRANCH   2  22
ATOM     22  O   UNL     1      -8.269 -19.621 -21.015  1.00  0.00    -0.502 OA
ATOM     23  H   UNL     1      -8.742 -19.836 -21.884  1.00  0.00     0.293 HD
ENDBRANCH   2  22
BRANCH   6  24
ATOM     24  O   UNL     1      -5.320 -15.805 -22.968  1.00  0.00    -0.507 OA
ATOM     25  H   UNL     1      -5.151 -15.599 -23.946  1.00  0.00     0.293 HD
ENDBRANCH   6  24
BRANCH   8  26
ATOM     26  O   UNL     1      -0.926 -17.105 -21.407  1.00  0.00    -0.508 OA
ATOM     27  H   UNL     1      -0.278 -17.842 -21.152  1.00  0.00     0.293 HD
ENDBRANCH   8  26
TORSDOF 6
ENDMDL
