MODEL 1
REMARK VINA RESULT:    -8.238      0.000      0.000
REMARK INTER + INTRA:          -9.954
REMARK INTER:                  -9.683
REMARK INTRA:                  -0.271
REMARK UNBOUND:                -0.271
REMARK SMILES O=c1cc(-c2ccc(O)c(O)c2)oc2cc(O)cc(O)c12
REMARK SMILES IDX 4 1 3 2 2 3 1 4 21 5 19 6 18 7 16 8 15 9 14 10 13 11 5 12
REMARK SMILES IDX 6 13 7 14 8 15 12 16 10 17 9 18 11 20 20 22 17 24
REMARK H PARENT 9 19 11 21 20 23 17 25
REMARK Flexibility Score: inf
ROOT
ATOM      1  C   UNL     1      16.154  -7.133  86.112  1.00  0.00     0.138 A 
ATOM      2  C   UNL     1      15.603  -7.431  87.366  1.00  0.00     0.100 A 
ATOM      3  C   UNL     1      14.220  -7.560  87.500  1.00  0.00     0.197 A 
ATOM      4  O   UNL     1      13.750  -7.767  88.649  1.00  0.00    -0.289 OA
ATOM      5  C   UNL     1      13.387  -7.418  86.364  1.00  0.00     0.107 A 
ATOM      6  C   UNL     1      11.968  -7.569  86.373  1.00  0.00     0.134 A 
ATOM      7  C   UNL     1      11.237  -7.291  85.211  1.00  0.00     0.093 A 
ATOM      8  C   UNL     1      11.878  -6.927  84.027  1.00  0.00     0.123 A 
ATOM      9  C   UNL     1      13.269  -6.830  83.993  1.00  0.00     0.094 A 
ATOM     10  C   UNL     1      14.024  -7.067  85.144  1.00  0.00     0.146 A 
ATOM     11  O   UNL     1      15.346  -6.951  85.073  1.00  0.00    -0.456 OA
ENDROOT
BRANCH   1  12
ATOM     12  C   UNL     1      17.618  -6.986  85.914  1.00  0.00     0.021 A 
ATOM     13  C   UNL     1      18.450  -8.105  86.060  1.00  0.00     0.016 A 
ATOM     14  C   UNL     1      19.831  -7.990  85.886  1.00  0.00     0.051 A 
ATOM     15  C   UNL     1      20.412  -6.757  85.573  1.00  0.00     0.157 A 
ATOM     16  C   UNL     1      18.203  -5.741  85.614  1.00  0.00     0.062 A 
ATOM     17  C   UNL     1      19.587  -5.617  85.440  1.00  0.00     0.158 A 
BRANCH  15  18
ATOM     18  O   UNL     1      21.797  -6.712  85.406  1.00  0.00    -0.504 OA
ATOM     19  H   UNL     1      22.445  -6.453  86.136  1.00  0.00     0.293 HD
ENDBRANCH  15  18
BRANCH  17  20
ATOM     20  O   UNL     1      20.095  -4.349  85.145  1.00  0.00    -0.504 OA
ATOM     21  H   UNL     1      20.768  -3.864  85.720  1.00  0.00     0.293 HD
ENDBRANCH  17  20
ENDBRANCH   1  12
BRANCH   6  22
ATOM     22  O   UNL     1      11.236  -8.008  87.480  1.00  0.00    -0.507 OA
ATOM     23  H   UNL     1      10.602  -7.435  88.015  1.00  0.00     0.293 HD
ENDBRANCH   6  22
BRANCH   8  24
ATOM     24  O   UNL     1      11.120  -6.673  82.886  1.00  0.00    -0.508 OA
ATOM     25  H   UNL     1      11.270  -7.183  82.023  1.00  0.00     0.293 HD
ENDBRANCH   8  24
TORSDOF 5
ENDMDL
MODEL 2
REMARK VINA RESULT:    -8.004      1.619      7.253
REMARK INTER + INTRA:          -9.679
REMARK INTER:                  -9.407
REMARK INTRA:                  -0.272
REMARK UNBOUND:                -0.271
REMARK SMILES O=c1cc(-c2ccc(O)c(O)c2)oc2cc(O)cc(O)c12
REMARK SMILES IDX 4 1 3 2 2 3 1 4 21 5 19 6 18 7 16 8 15 9 14 10 13 11 5 12
REMARK SMILES IDX 6 13 7 14 8 15 12 16 10 17 9 18 11 20 20 22 17 24
REMARK H PARENT 9 19 11 21 20 23 17 25
REMARK Flexibility Score: inf
ROOT
ATOM      1  C   UNL     1      15.577  -7.012  84.937  1.00  0.00     0.138 A 
ATOM      2  C   UNL     1      16.339  -7.521  83.877  1.00  0.00     0.100 A 
ATOM      3  C   UNL     1      17.722  -7.335  83.868  1.00  0.00     0.197 A 
ATOM      4  O   UNL     1      18.371  -7.750  82.873  1.00  0.00    -0.289 OA
ATOM      5  C   UNL     1      18.348  -6.660  84.943  1.00  0.00     0.107 A 
ATOM      6  C   UNL     1      19.753  -6.448  85.061  1.00  0.00     0.134 A 
ATOM      7  C   UNL     1      20.247  -5.664  86.112  1.00  0.00     0.093 A 
ATOM      8  C   UNL     1      19.394  -5.137  87.081  1.00  0.00     0.123 A 
ATOM      9  C   UNL     1      18.023  -5.384  87.005  1.00  0.00     0.094 A 
ATOM     10  C   UNL     1      17.495  -6.133  85.951  1.00  0.00     0.146 A 
ATOM     11  O   UNL     1      16.182  -6.334  85.907  1.00  0.00    -0.456 OA
ENDROOT
BRANCH   1  12
ATOM     12  C   UNL     1      14.104  -7.182  84.997  1.00  0.00     0.021 A 
ATOM     13  C   UNL     1      13.519  -7.743  86.142  1.00  0.00     0.016 A 
ATOM     14  C   UNL     1      12.135  -7.920  86.219  1.00  0.00     0.051 A 
ATOM     15  C   UNL     1      11.308  -7.552  85.153  1.00  0.00     0.157 A 
ATOM     16  C   UNL     1      13.273  -6.825  83.918  1.00  0.00     0.062 A 
ATOM     17  C   UNL     1      11.884  -7.001  83.986  1.00  0.00     0.158 A 
BRANCH  15  18
ATOM     18  O   UNL     1       9.934  -7.750  85.296  1.00  0.00    -0.504 OA
ATOM     19  H   UNL     1       9.441  -7.679  86.175  1.00  0.00     0.293 HD
ENDBRANCH  15  18
BRANCH  17  20
ATOM     20  O   UNL     1      11.125  -6.625  82.875  1.00  0.00    -0.504 OA
ATOM     21  H   UNL     1      11.133  -5.698  82.475  1.00  0.00     0.293 HD
ENDBRANCH  17  20
ENDBRANCH   1  12
BRANCH   6  22
ATOM     22  O   UNL     1      20.702  -6.998  84.195  1.00  0.00    -0.507 OA
ATOM     23  H   UNL     1      21.643  -7.252  84.457  1.00  0.00     0.293 HD
ENDBRANCH   6  22
BRANCH   8  24
ATOM     24  O   UNL     1      19.922  -4.375  88.121  1.00  0.00    -0.508 OA
ATOM     25  H   UNL     1      19.371  -4.137  88.937  1.00  0.00     0.293 HD
ENDBRANCH   8  24
TORSDOF 5
ENDMDL
MODEL 3
REMARK VINA RESULT:    -7.982      1.926      6.875
REMARK INTER + INTRA:          -9.653
REMARK INTER:                  -9.344
REMARK INTRA:                  -0.309
REMARK UNBOUND:                -0.271
REMARK SMILES O=c1cc(-c2ccc(O)c(O)c2)oc2cc(O)cc(O)c12
REMARK SMILES IDX 4 1 3 2 2 3 1 4 21 5 19 6 18 7 16 8 15 9 14 10 13 11 5 12
REMARK SMILES IDX 6 13 7 14 8 15 12 16 10 17 9 18 11 20 20 22 17 24
REMARK H PARENT 9 19 11 21 20 23 17 25
REMARK Flexibility Score: inf
ROOT
ATOM      1  C   UNL     1      15.339  -7.413  85.272  1.00  0.00     0.138 A 
ATOM      2  C   UNL     1      16.054  -7.383  86.478  1.00  0.00     0.100 A 
ATOM      3  C   UNL     1      17.447  -7.316  86.453  1.00  0.00     0.197 A 
ATOM      4  O   UNL     1      18.063  -7.353  87.550  1.00  0.00    -0.289 OA
ATOM      5  C   UNL     1      18.127  -7.249  85.214  1.00  0.00     0.107 A 
ATOM      6  C   UNL     1      19.541  -7.137  85.067  1.00  0.00     0.134 A 
ATOM      7  C   UNL     1      20.110  -7.195  83.789  1.00  0.00     0.093 A 
ATOM      8  C   UNL     1      19.313  -7.301  82.649  1.00  0.00     0.123 A 
ATOM      9  C   UNL     1      17.924  -7.356  82.778  1.00  0.00     0.094 A 
ATOM     10  C   UNL     1      17.328  -7.335  84.041  1.00  0.00     0.146 A 
ATOM     11  O   UNL     1      16.004  -7.404  84.122  1.00  0.00    -0.456 OA
ENDROOT
BRANCH   1  12
ATOM     12  C   UNL     1      13.857  -7.483  85.241  1.00  0.00     0.021 A 
ATOM     13  C   UNL     1      13.168  -8.041  86.328  1.00  0.00     0.016 A 
ATOM     14  C   UNL     1      11.774  -8.124  86.319  1.00  0.00     0.051 A 
ATOM     15  C   UNL     1      11.038  -7.664  85.222  1.00  0.00     0.157 A 
ATOM     16  C   UNL     1      13.118  -7.033  84.130  1.00  0.00     0.062 A 
ATOM     17  C   UNL     1      11.719  -7.115  84.111  1.00  0.00     0.158 A 
BRANCH  15  18
ATOM     18  O   UNL     1       9.648  -7.771  85.279  1.00  0.00    -0.504 OA
ATOM     19  H   UNL     1       9.135  -8.046  86.104  1.00  0.00     0.293 HD
ENDBRANCH  15  18
BRANCH  17  20
ATOM     20  O   UNL     1      11.055  -6.650  82.974  1.00  0.00    -0.504 OA
ATOM     21  H   UNL     1      11.478  -6.587  82.060  1.00  0.00     0.293 HD
ENDBRANCH  17  20
ENDBRANCH   1  12
BRANCH   6  22
ATOM     22  O   UNL     1      20.424  -6.945  86.134  1.00  0.00    -0.507 OA
ATOM     23  H   UNL     1      21.116  -6.212  86.184  1.00  0.00     0.293 HD
ENDBRANCH   6  22
BRANCH   8  24
ATOM     24  O   UNL     1      19.912  -7.341  81.392  1.00  0.00    -0.508 OA
ATOM     25  H   UNL     1      19.434  -7.002  80.565  1.00  0.00     0.293 HD
ENDBRANCH   8  24
TORSDOF 5
ENDMDL
MODEL 4
REMARK VINA RESULT:    -7.848      1.732      7.163
REMARK INTER + INTRA:          -9.496
REMARK INTER:                  -9.218
REMARK INTRA:                  -0.278
REMARK UNBOUND:                -0.271
REMARK SMILES O=c1cc(-c2ccc(O)c(O)c2)oc2cc(O)cc(O)c12
REMARK SMILES IDX 4 1 3 2 2 3 1 4 21 5 19 6 18 7 16 8 15 9 14 10 13 11 5 12
REMARK SMILES IDX 6 13 7 14 8 15 12 16 10 17 9 18 11 20 20 22 17 24
REMARK H PARENT 9 19 11 21 20 23 17 25
REMARK Flexibility Score: inf
ROOT
ATOM      1  C   UNL     1      15.591  -7.170  85.781  1.00  0.00     0.138 A 
ATOM      2  C   UNL     1      15.786  -7.578  84.454  1.00  0.00     0.100 A 
ATOM      3  C   UNL     1      17.012  -7.339  83.832  1.00  0.00     0.197 A 
ATOM      4  O   UNL     1      17.137  -7.661  82.622  1.00  0.00    -0.289 OA
ATOM      5  C   UNL     1      18.057  -6.714  84.553  1.00  0.00     0.107 A 
ATOM      6  C   UNL     1      19.361  -6.457  84.035  1.00  0.00     0.134 A 
ATOM      7  C   UNL     1      20.278  -5.729  84.802  1.00  0.00     0.093 A 
ATOM      8  C   UNL     1      19.960  -5.301  86.091  1.00  0.00     0.123 A 
ATOM      9  C   UNL     1      18.706  -5.594  86.629  1.00  0.00     0.094 A 
ATOM     10  C   UNL     1      17.757  -6.290  85.875  1.00  0.00     0.146 A 
ATOM     11  O   UNL     1      16.570  -6.537  86.418  1.00  0.00    -0.456 OA
ENDROOT
BRANCH   1  12
ATOM     12  C   UNL     1      14.308  -7.400  86.491  1.00  0.00     0.021 A 
ATOM     13  C   UNL     1      14.324  -7.887  87.807  1.00  0.00     0.016 A 
ATOM     14  C   UNL     1      13.129  -8.118  88.493  1.00  0.00     0.051 A 
ATOM     15  C   UNL     1      11.895  -7.879  87.880  1.00  0.00     0.157 A 
ATOM     16  C   UNL     1      13.066  -7.173  85.868  1.00  0.00     0.062 A 
ATOM     17  C   UNL     1      11.863  -7.405  86.548  1.00  0.00     0.158 A 
BRANCH  15  18
ATOM     18  O   UNL     1      10.740  -8.125  88.622  1.00  0.00    -0.504 OA
ATOM     19  H   UNL     1      10.009  -8.761  88.337  1.00  0.00     0.293 HD
ENDBRANCH  15  18
BRANCH  17  20
ATOM     20  O   UNL     1      10.670  -7.159  85.864  1.00  0.00    -0.504 OA
ATOM     21  H   UNL     1      10.249  -6.245  85.776  1.00  0.00     0.293 HD
ENDBRANCH  17  20
ENDBRANCH   1  12
BRANCH   6  22
ATOM     22  O   UNL     1      19.812  -6.912  82.792  1.00  0.00    -0.507 OA
ATOM     23  H   UNL     1      20.778  -7.080  82.555  1.00  0.00     0.293 HD
ENDBRANCH   6  22
BRANCH   8  24
ATOM     24  O   UNL     1      20.902  -4.591  86.832  1.00  0.00    -0.508 OA
ATOM     25  H   UNL     1      21.152  -3.637  86.598  1.00  0.00     0.293 HD
ENDBRANCH   8  24
TORSDOF 5
ENDMDL
MODEL 5
REMARK VINA RESULT:    -7.785      1.626      3.029
REMARK INTER + INTRA:          -9.422
REMARK INTER:                  -9.126
REMARK INTRA:                  -0.296
REMARK UNBOUND:                -0.271
REMARK SMILES O=c1cc(-c2ccc(O)c(O)c2)oc2cc(O)cc(O)c12
REMARK SMILES IDX 4 1 3 2 2 3 1 4 21 5 19 6 18 7 16 8 15 9 14 10 13 11 5 12
REMARK SMILES IDX 6 13 7 14 8 15 12 16 10 17 9 18 11 20 20 22 17 24
REMARK H PARENT 9 19 11 21 20 23 17 25
REMARK Flexibility Score: inf
ROOT
ATOM      1  C   UNL     1      17.292  -6.867  85.902  1.00  0.00     0.138 A 
ATOM      2  C   UNL     1      16.822  -7.116  84.605  1.00  0.00     0.100 A 
ATOM      3  C   UNL     1      15.494  -7.496  84.413  1.00  0.00     0.197 A 
ATOM      4  O   UNL     1      15.117  -7.772  83.244  1.00  0.00    -0.289 OA
ATOM      5  C   UNL     1      14.624  -7.600  85.524  1.00  0.00     0.107 A 
ATOM      6  C   UNL     1      13.240  -7.939  85.445  1.00  0.00     0.134 A 
ATOM      7  C   UNL     1      12.506  -8.125  86.623  1.00  0.00     0.093 A 
ATOM      8  C   UNL     1      13.089  -7.923  87.875  1.00  0.00     0.123 A 
ATOM      9  C   UNL     1      14.427  -7.538  87.962  1.00  0.00     0.094 A 
ATOM     10  C   UNL     1      15.195  -7.378  86.807  1.00  0.00     0.146 A 
ATOM     11  O   UNL     1      16.470  -7.024  86.933  1.00  0.00    -0.456 OA
ENDROOT
BRANCH   1  12
ATOM     12  C   UNL     1      18.695  -6.458  86.162  1.00  0.00     0.021 A 
ATOM     13  C   UNL     1      19.738  -7.078  85.457  1.00  0.00     0.016 A 
ATOM     14  C   UNL     1      21.066  -6.716  85.690  1.00  0.00     0.051 A 
ATOM     15  C   UNL     1      21.385  -5.737  86.637  1.00  0.00     0.157 A 
ATOM     16  C   UNL     1      19.016  -5.483  87.126  1.00  0.00     0.062 A 
ATOM     17  C   UNL     1      20.346  -5.116  87.367  1.00  0.00     0.158 A 
BRANCH  15  18
ATOM     18  O   UNL     1      22.731  -5.418  86.817  1.00  0.00    -0.504 OA
ATOM     19  H   UNL     1      23.490  -5.879  86.338  1.00  0.00     0.293 HD
ENDBRANCH  15  18
BRANCH  17  20
ATOM     20  O   UNL     1      20.586  -4.142  88.340  1.00  0.00    -0.504 OA
ATOM     21  H   UNL     1      20.911  -4.346  89.274  1.00  0.00     0.293 HD
ENDBRANCH  17  20
ENDBRANCH   1  12
BRANCH   6  22
ATOM     22  O   UNL     1      12.539  -8.082  84.245  1.00  0.00    -0.507 OA
ATOM     23  H   UNL     1      12.851  -7.737  83.350  1.00  0.00     0.293 HD
ENDBRANCH   6  22
BRANCH   8  24
ATOM     24  O   UNL     1      12.324  -8.103  89.025  1.00  0.00    -0.508 OA
ATOM     25  H   UNL     1      12.659  -8.660  89.803  1.00  0.00     0.293 HD
ENDBRANCH   8  24
TORSDOF 5
ENDMDL
MODEL 6
REMARK VINA RESULT:    -7.350      1.704      7.364
REMARK INTER + INTRA:          -8.910
REMARK INTER:                  -8.635
REMARK INTRA:                  -0.276
REMARK UNBOUND:                -0.271
REMARK SMILES O=c1cc(-c2ccc(O)c(O)c2)oc2cc(O)cc(O)c12
REMARK SMILES IDX 4 1 3 2 2 3 1 4 21 5 19 6 18 7 16 8 15 9 14 10 13 11 5 12
REMARK SMILES IDX 6 13 7 14 8 15 12 16 10 17 9 18 11 20 20 22 17 24
REMARK H PARENT 9 19 11 21 20 23 17 25
REMARK Flexibility Score: inf
ROOT
ATOM      1  C   UNL     1      16.211  -6.893  85.934  1.00  0.00     0.138 A 
ATOM      2  C   UNL     1      16.919  -7.573  84.934  1.00  0.00     0.100 A 
ATOM      3  C   UNL     1      18.304  -7.431  84.850  1.00  0.00     0.197 A 
ATOM      4  O   UNL     1      18.905  -8.004  83.905  1.00  0.00    -0.289 OA
ATOM      5  C   UNL     1      18.988  -6.627  85.793  1.00  0.00     0.107 A 
ATOM      6  C   UNL     1      20.402  -6.442  85.831  1.00  0.00     0.134 A 
ATOM      7  C   UNL     1      20.955  -5.530  86.739  1.00  0.00     0.093 A 
ATOM      8  C   UNL     1      20.152  -4.843  87.650  1.00  0.00     0.123 A 
ATOM      9  C   UNL     1      18.774  -5.058  87.658  1.00  0.00     0.094 A 
ATOM     10  C   UNL     1      18.187  -5.935  86.742  1.00  0.00     0.146 A 
ATOM     11  O   UNL     1      16.869  -6.101  86.773  1.00  0.00    -0.456 OA
ENDROOT
BRANCH   1  12
ATOM     12  C   UNL     1      14.737  -7.009  86.069  1.00  0.00     0.021 A 
ATOM     13  C   UNL     1      13.912  -6.572  85.022  1.00  0.00     0.016 A 
ATOM     14  C   UNL     1      12.522  -6.664  85.128  1.00  0.00     0.051 A 
ATOM     15  C   UNL     1      11.926  -7.183  86.282  1.00  0.00     0.157 A 
ATOM     16  C   UNL     1      14.138  -7.518  87.236  1.00  0.00     0.062 A 
ATOM     17  C   UNL     1      12.745  -7.611  87.352  1.00  0.00     0.158 A 
BRANCH  15  18
ATOM     18  O   UNL     1      10.533  -7.253  86.322  1.00  0.00    -0.504 OA
ATOM     19  H   UNL     1       9.922  -6.666  85.773  1.00  0.00     0.293 HD
ENDBRANCH  15  18
BRANCH  17  20
ATOM     20  O   UNL     1      12.223  -8.125  88.542  1.00  0.00    -0.504 OA
ATOM     21  H   UNL     1      11.399  -7.762  88.999  1.00  0.00     0.293 HD
ENDBRANCH  17  20
ENDBRANCH   1  12
BRANCH   6  22
ATOM     22  O   UNL     1      21.303  -7.140  85.022  1.00  0.00    -0.507 OA
ATOM     23  H   UNL     1      21.482  -8.130  85.081  1.00  0.00     0.293 HD
ENDBRANCH   6  22
BRANCH   8  24
ATOM     24  O   UNL     1      20.739  -3.955  88.549  1.00  0.00    -0.508 OA
ATOM     25  H   UNL     1      21.646  -3.541  88.370  1.00  0.00     0.293 HD
ENDBRANCH   8  24
TORSDOF 5
ENDMDL
MODEL 7
REMARK VINA RESULT:    -7.027      1.875      7.319
REMARK INTER + INTRA:          -8.530
REMARK INTER:                  -8.261
REMARK INTRA:                  -0.269
REMARK UNBOUND:                -0.271
REMARK SMILES O=c1cc(-c2ccc(O)c(O)c2)oc2cc(O)cc(O)c12
REMARK SMILES IDX 4 1 3 2 2 3 1 4 21 5 19 6 18 7 16 8 15 9 14 10 13 11 5 12
REMARK SMILES IDX 6 13 7 14 8 15 12 16 10 17 9 18 11 20 20 22 17 24
REMARK H PARENT 9 19 11 21 20 23 17 25
REMARK Flexibility Score: inf
ROOT
ATOM      1  C   UNL     1      14.897  -6.785  84.855  1.00  0.00     0.138 A 
ATOM      2  C   UNL     1      15.246  -7.385  83.637  1.00  0.00     0.100 A 
ATOM      3  C   UNL     1      16.592  -7.590  83.329  1.00  0.00     0.197 A 
ATOM      4  O   UNL     1      16.877  -8.074  82.204  1.00  0.00    -0.289 OA
ATOM      5  C   UNL     1      17.591  -7.217  84.260  1.00  0.00     0.107 A 
ATOM      6  C   UNL     1      18.991  -7.415  84.071  1.00  0.00     0.134 A 
ATOM      7  C   UNL     1      19.894  -6.900  85.010  1.00  0.00     0.093 A 
ATOM      8  C   UNL     1      19.445  -6.250  86.159  1.00  0.00     0.123 A 
ATOM      9  C   UNL     1      18.076  -6.099  86.381  1.00  0.00     0.094 A 
ATOM     10  C   UNL     1      17.151  -6.570  85.446  1.00  0.00     0.146 A 
ATOM     11  O   UNL     1      15.856  -6.395  85.687  1.00  0.00    -0.456 OA
ENDROOT
BRANCH   1  12
ATOM     12  C   UNL     1      13.482  -6.545  85.233  1.00  0.00     0.021 A 
ATOM     13  C   UNL     1      12.741  -5.566  84.553  1.00  0.00     0.016 A 
ATOM     14  C   UNL     1      11.410  -5.317  84.895  1.00  0.00     0.051 A 
ATOM     15  C   UNL     1      10.793  -6.030  85.928  1.00  0.00     0.157 A 
ATOM     16  C   UNL     1      12.865  -7.252  86.282  1.00  0.00     0.062 A 
ATOM     17  C   UNL     1      11.532  -7.007  86.634  1.00  0.00     0.158 A 
BRANCH  15  18
ATOM     18  O   UNL     1       9.460  -5.737  86.216  1.00  0.00    -0.504 OA
ATOM     19  H   UNL     1       9.002  -4.875  85.957  1.00  0.00     0.293 HD
ENDBRANCH  15  18
BRANCH  17  20
ATOM     20  O   UNL     1      10.989  -7.747  87.688  1.00  0.00    -0.504 OA
ATOM     21  H   UNL     1      11.528  -8.096  88.467  1.00  0.00     0.293 HD
ENDBRANCH  17  20
ENDBRANCH   1  12
BRANCH   6  22
ATOM     22  O   UNL     1      19.543  -8.124  83.000  1.00  0.00    -0.507 OA
ATOM     23  H   UNL     1      19.121  -8.211  82.089  1.00  0.00     0.293 HD
ENDBRANCH   6  22
BRANCH   8  24
ATOM     24  O   UNL     1      20.371  -5.763  87.080  1.00  0.00    -0.508 OA
ATOM     25  H   UNL     1      21.266  -6.218  87.222  1.00  0.00     0.293 HD
ENDBRANCH   8  24
TORSDOF 5
ENDMDL
MODEL 8
REMARK VINA RESULT:    -6.899      3.031      7.622
REMARK INTER + INTRA:          -8.380
REMARK INTER:                  -8.089
REMARK INTRA:                  -0.291
REMARK UNBOUND:                -0.271
REMARK SMILES O=c1cc(-c2ccc(O)c(O)c2)oc2cc(O)cc(O)c12
REMARK SMILES IDX 4 1 3 2 2 3 1 4 21 5 19 6 18 7 16 8 15 9 14 10 13 11 5 12
REMARK SMILES IDX 6 13 7 14 8 15 12 16 10 17 9 18 11 20 20 22 17 24
REMARK H PARENT 9 19 11 21 20 23 17 25
REMARK Flexibility Score: inf
ROOT
ATOM      1  C   UNL     1      18.469  -6.714  83.899  1.00  0.00     0.138 A 
ATOM      2  C   UNL     1      19.714  -7.157  83.432  1.00  0.00     0.100 A 
ATOM      3  C   UNL     1      20.860  -6.920  84.191  1.00  0.00     0.197 A 
ATOM      4  O   UNL     1      21.971  -7.275  83.718  1.00  0.00    -0.289 OA
ATOM      5  C   UNL     1      20.753  -6.261  85.440  1.00  0.00     0.107 A 
ATOM      6  C   UNL     1      21.847  -6.002  86.318  1.00  0.00     0.134 A 
ATOM      7  C   UNL     1      21.639  -5.240  87.474  1.00  0.00     0.093 A 
ATOM      8  C   UNL     1      20.367  -4.780  87.814  1.00  0.00     0.123 A 
ATOM      9  C   UNL     1      19.280  -5.074  86.990  1.00  0.00     0.094 A 
ATOM     10  C   UNL     1      19.461  -5.803  85.812  1.00  0.00     0.146 A 
ATOM     11  O   UNL     1      18.403  -6.050  85.048  1.00  0.00    -0.456 OA
ENDROOT
BRANCH   1  12
ATOM     12  C   UNL     1      17.218  -6.941  83.132  1.00  0.00     0.021 A 
ATOM     13  C   UNL     1      17.192  -6.667  81.756  1.00  0.00     0.016 A 
ATOM     14  C   UNL     1      16.025  -6.865  81.014  1.00  0.00     0.051 A 
ATOM     15  C   UNL     1      14.858  -7.330  81.629  1.00  0.00     0.157 A 
ATOM     16  C   UNL     1      16.039  -7.394  83.754  1.00  0.00     0.062 A 
ATOM     17  C   UNL     1      14.864  -7.593  83.018  1.00  0.00     0.158 A 
BRANCH  15  18
ATOM     18  O   UNL     1      13.729  -7.512  80.830  1.00  0.00    -0.504 OA
ATOM     19  H   UNL     1      13.507  -8.373  80.352  1.00  0.00     0.293 HD
ENDBRANCH  15  18
BRANCH  17  20
ATOM     20  O   UNL     1      13.734  -8.043  83.705  1.00  0.00    -0.504 OA
ATOM     21  H   UNL     1      13.552  -9.014  83.916  1.00  0.00     0.293 HD
ENDBRANCH  17  20
ENDBRANCH   1  12
BRANCH   6  22
ATOM     22  O   UNL     1      23.143  -6.486  86.116  1.00  0.00    -0.507 OA
ATOM     23  H   UNL     1      23.774  -6.160  85.400  1.00  0.00     0.293 HD
ENDBRANCH   6  22
BRANCH   8  24
ATOM     24  O   UNL     1      20.194  -4.037  88.980  1.00  0.00    -0.508 OA
ATOM     25  H   UNL     1      20.495  -4.387  89.882  1.00  0.00     0.293 HD
ENDBRANCH   8  24
TORSDOF 5
ENDMDL
