MODEL 1
REMARK VINA RESULT:    -4.285      0.000      0.000
REMARK INTER + INTRA:         -13.410
REMARK INTER:                  -9.796
REMARK INTRA:                  -3.614
REMARK UNBOUND:                -3.614
REMARK SMILES CCCCCCCCCCCCCCCCCCCCCCCC(=O)[O-]
REMARK SMILES IDX 13 1 14 2 15 3 16 4 17 5 18 6 19 7 20 8 21 9 22 10 23 11
REMARK SMILES IDX 24 12 25 13 26 14 12 15 11 16 10 17 9 18 8 19 7 20 6 21 5 22
REMARK SMILES IDX 4 23 3 24 2 25 1 26
REMARK H PARENT
REMARK Flexibility Score: inf
ROOT
ATOM      1  C   UNL     1      26.983  28.441  -9.875  1.00  0.00     0.000 C 
ENDROOT
BRANCH   1   2
ATOM      2  C   UNL     1      25.655  28.743 -10.595  1.00  0.00     0.000 C 
BRANCH   2   3
ATOM      3  C   UNL     1      25.369  27.754 -11.736  1.00  0.00     0.000 C 
BRANCH   3   4
ATOM      4  C   UNL     1      26.450  26.665 -11.865  1.00  0.00     0.000 C 
BRANCH   4   5
ATOM      5  C   UNL     1      27.090  26.636 -13.263  1.00  0.00     0.000 C 
BRANCH   5   6
ATOM      6  C   UNL     1      26.171  25.984 -14.314  1.00  0.00     0.000 C 
BRANCH   6   7
ATOM      7  C   UNL     1      25.708  24.571 -13.904  1.00  0.00     0.000 C 
BRANCH   7   8
ATOM      8  C   UNL     1      26.735  23.468 -14.224  1.00  0.00     0.000 C 
BRANCH   8   9
ATOM      9  C   UNL     1      27.766  23.198 -13.111  1.00  0.00     0.000 C 
BRANCH   9  10
ATOM     10  C   UNL     1      27.165  22.880 -11.725  1.00  0.00     0.006 C 
BRANCH  10  11
ATOM     11  C   UNL     1      27.629  21.549 -11.111  1.00  0.00     0.053 C 
BRANCH  11  12
ATOM     12  C   UNL     1      26.668  20.432 -11.392  1.00  0.00     0.041 C 
ATOM     13  O   UNL     1      26.693  19.844 -12.503  1.00  0.00    -0.550 OA
ATOM     14  O   UNL     1      25.724  20.067 -10.442  1.00  0.00    -0.550 OA
ENDBRANCH  11  12
ENDBRANCH  10  11
ENDBRANCH   9  10
ENDBRANCH   8   9
ENDBRANCH   7   8
ENDBRANCH   6   7
ENDBRANCH   5   6
ENDBRANCH   4   5
ENDBRANCH   3   4
ENDBRANCH   2   3
ENDBRANCH   1   2
BRANCH   1  15
ATOM     15  C   UNL     1      27.695  29.707  -9.377  1.00  0.00     0.000 C 
BRANCH  15  16
ATOM     16  C   UNL     1      28.112  30.648 -10.523  1.00  0.00     0.000 C 
BRANCH  16  17
ATOM     17  C   UNL     1      29.223  30.033 -11.392  1.00  0.00     0.000 C 
BRANCH  17  18
ATOM     18  C   UNL     1      28.889  30.098 -12.892  1.00  0.00    -0.000 C 
BRANCH  18  19
ATOM     19  C   UNL     1      27.417  30.456 -13.156  1.00  0.00    -0.000 C 
BRANCH  19  20
ATOM     20  C   UNL     1      27.127  30.668 -14.652  1.00  0.00    -0.000 C 
BRANCH  20  21
ATOM     21  C   UNL     1      26.244  29.562 -15.250  1.00  0.00    -0.000 C 
BRANCH  21  22
ATOM     22  C   UNL     1      24.762  29.712 -14.859  1.00  0.00    -0.000 C 
BRANCH  22  23
ATOM     23  C   UNL     1      24.053  30.822 -15.654  1.00  0.00    -0.000 C 
BRANCH  23  24
ATOM     24  C   UNL     1      23.539  31.953 -14.743  1.00  0.00    -0.000 C 
BRANCH  24  25
ATOM     25  C   UNL     1      23.570  31.573 -13.253  1.00  0.00    -0.003 C 
ATOM     26  C   UNL     1      24.345  32.577 -12.400  1.00  0.00     0.004 C 
ENDBRANCH  24  25
ENDBRANCH  23  24
ENDBRANCH  22  23
ENDBRANCH  21  22
ENDBRANCH  20  21
ENDBRANCH  19  20
ENDBRANCH  18  19
ENDBRANCH  17  18
ENDBRANCH  16  17
ENDBRANCH  15  16
ENDBRANCH   1  15
TORSDOF 22
ENDMDL
MODEL 2
REMARK VINA RESULT:    -4.277      1.091      3.391
REMARK INTER + INTRA:         -13.392
REMARK INTER:                  -9.459
REMARK INTRA:                  -3.932
REMARK UNBOUND:                -3.614
REMARK SMILES CCCCCCCCCCCCCCCCCCCCCCCC(=O)[O-]
REMARK SMILES IDX 13 1 14 2 15 3 16 4 17 5 18 6 19 7 20 8 21 9 22 10 23 11
REMARK SMILES IDX 24 12 25 13 26 14 12 15 11 16 10 17 9 18 8 19 7 20 6 21 5 22
REMARK SMILES IDX 4 23 3 24 2 25 1 26
REMARK H PARENT
REMARK Flexibility Score: inf
ROOT
ATOM      1  C   UNL     1      28.867  30.116 -12.893  1.00  0.00     0.000 C 
ENDROOT
BRANCH   1   2
ATOM      2  C   UNL     1      29.231  30.239 -11.401  1.00  0.00     0.000 C 
BRANCH   2   3
ATOM      3  C   UNL     1      28.003  30.507 -10.517  1.00  0.00     0.000 C 
BRANCH   3   4
ATOM      4  C   UNL     1      27.641  29.309  -9.620  1.00  0.00     0.000 C 
BRANCH   4   5
ATOM      5  C   UNL     1      26.374  28.580 -10.098  1.00  0.00     0.000 C 
BRANCH   5   6
ATOM      6  C   UNL     1      26.685  27.479 -11.129  1.00  0.00     0.000 C 
BRANCH   6   7
ATOM      7  C   UNL     1      25.573  27.324 -12.187  1.00  0.00     0.000 C 
BRANCH   7   8
ATOM      8  C   UNL     1      25.657  26.007 -12.983  1.00  0.00     0.000 C 
BRANCH   8   9
ATOM      9  C   UNL     1      27.085  25.561 -13.350  1.00  0.00     0.000 C 
BRANCH   9  10
ATOM     10  C   UNL     1      27.331  24.037 -13.287  1.00  0.00     0.006 C 
BRANCH  10  11
ATOM     11  C   UNL     1      26.319  23.257 -12.432  1.00  0.00     0.053 C 
BRANCH  11  12
ATOM     12  C   UNL     1      26.895  21.977 -11.903  1.00  0.00     0.041 C 
ATOM     13  O   UNL     1      27.700  22.000 -10.937  1.00  0.00    -0.550 OA
ATOM     14  O   UNL     1      26.572  20.766 -12.500  1.00  0.00    -0.550 OA
ENDBRANCH  11  12
ENDBRANCH  10  11
ENDBRANCH   9  10
ENDBRANCH   8   9
ENDBRANCH   7   8
ENDBRANCH   6   7
ENDBRANCH   5   6
ENDBRANCH   4   5
ENDBRANCH   3   4
ENDBRANCH   2   3
ENDBRANCH   1   2
BRANCH   1  15
ATOM     15  C   UNL     1      27.413  30.513 -13.188  1.00  0.00     0.000 C 
BRANCH  15  16
ATOM     16  C   UNL     1      27.059  30.412 -14.684  1.00  0.00     0.000 C 
BRANCH  16  17
ATOM     17  C   UNL     1      26.388  29.070 -15.024  1.00  0.00     0.000 C 
BRANCH  17  18
ATOM     18  C   UNL     1      25.313  29.218 -16.114  1.00  0.00    -0.000 C 
BRANCH  18  19
ATOM     19  C   UNL     1      23.905  28.860 -15.610  1.00  0.00    -0.000 C 
BRANCH  19  20
ATOM     20  C   UNL     1      23.016  30.103 -15.430  1.00  0.00    -0.000 C 
BRANCH  20  21
ATOM     21  C   UNL     1      23.591  31.352 -16.116  1.00  0.00    -0.000 C 
BRANCH  21  22
ATOM     22  C   UNL     1      24.047  32.423 -15.109  1.00  0.00    -0.000 C 
BRANCH  22  23
ATOM     23  C   UNL     1      23.366  32.272 -13.738  1.00  0.00    -0.000 C 
BRANCH  23  24
ATOM     24  C   UNL     1      24.299  32.664 -12.578  1.00  0.00    -0.000 C 
BRANCH  24  25
ATOM     25  C   UNL     1      24.480  31.531 -11.555  1.00  0.00    -0.003 C 
ATOM     26  C   UNL     1      23.527  30.360 -11.790  1.00  0.00     0.004 C 
ENDBRANCH  24  25
ENDBRANCH  23  24
ENDBRANCH  22  23
ENDBRANCH  21  22
ENDBRANCH  20  21
ENDBRANCH  19  20
ENDBRANCH  18  19
ENDBRANCH  17  18
ENDBRANCH  16  17
ENDBRANCH  15  16
ENDBRANCH   1  15
TORSDOF 22
ENDMDL
MODEL 3
REMARK VINA RESULT:    -4.215      4.021      7.330
REMARK INTER + INTRA:         -13.249
REMARK INTER:                  -8.756
REMARK INTRA:                  -4.493
REMARK UNBOUND:                -3.614
REMARK SMILES CCCCCCCCCCCCCCCCCCCCCCCC(=O)[O-]
REMARK SMILES IDX 13 1 14 2 15 3 16 4 17 5 18 6 19 7 20 8 21 9 22 10 23 11
REMARK SMILES IDX 24 12 25 13 26 14 12 15 11 16 10 17 9 18 8 19 7 20 6 21 5 22
REMARK SMILES IDX 4 23 3 24 2 25 1 26
REMARK H PARENT
REMARK Flexibility Score: inf
ROOT
ATOM      1  C   UNL     1      29.027  30.308 -12.775  1.00  0.00     0.000 C 
ENDROOT
BRANCH   1   2
ATOM      2  C   UNL     1      29.248  30.125 -11.261  1.00  0.00     0.000 C 
BRANCH   2   3
ATOM      3  C   UNL     1      27.986  30.440 -10.443  1.00  0.00     0.000 C 
BRANCH   3   4
ATOM      4  C   UNL     1      27.551  29.269  -9.543  1.00  0.00     0.000 C 
BRANCH   4   5
ATOM      5  C   UNL     1      26.500  28.371 -10.217  1.00  0.00     0.000 C 
BRANCH   5   6
ATOM      6  C   UNL     1      25.060  28.805  -9.887  1.00  0.00     0.000 C 
BRANCH   6   7
ATOM      7  C   UNL     1      24.136  28.786 -11.122  1.00  0.00     0.000 C 
BRANCH   7   8
ATOM      8  C   UNL     1      23.543  30.165 -11.472  1.00  0.00     0.000 C 
BRANCH   8   9
ATOM      9  C   UNL     1      24.527  31.344 -11.351  1.00  0.00     0.000 C 
BRANCH   9  10
ATOM     10  C   UNL     1      24.557  32.299 -12.564  1.00  0.00     0.006 C 
BRANCH  10  11
ATOM     11  C   UNL     1      23.559  31.951 -13.682  1.00  0.00     0.053 C 
BRANCH  11  12
ATOM     12  C   UNL     1      24.035  32.413 -15.027  1.00  0.00     0.041 C 
ATOM     13  O   UNL     1      23.429  32.051 -16.068  1.00  0.00    -0.550 OA
ATOM     14  O   UNL     1      25.167  33.209 -15.132  1.00  0.00    -0.550 OA
ENDBRANCH  11  12
ENDBRANCH  10  11
ENDBRANCH   9  10
ENDBRANCH   8   9
ENDBRANCH   7   8
ENDBRANCH   6   7
ENDBRANCH   5   6
ENDBRANCH   4   5
ENDBRANCH   3   4
ENDBRANCH   2   3
ENDBRANCH   1   2
BRANCH   1  15
ATOM     15  C   UNL     1      27.547  30.226 -13.179  1.00  0.00     0.000 C 
BRANCH  15  16
ATOM     16  C   UNL     1      27.317  30.533 -14.671  1.00  0.00     0.000 C 
BRANCH  16  17
ATOM     17  C   UNL     1      26.351  29.526 -15.319  1.00  0.00     0.000 C 
BRANCH  17  18
ATOM     18  C   UNL     1      25.680  28.613 -14.279  1.00  0.00    -0.000 C 
BRANCH  18  19
ATOM     19  C   UNL     1      24.284  28.141 -14.718  1.00  0.00    -0.000 C 
BRANCH  19  20
ATOM     20  C   UNL     1      24.349  26.934 -15.669  1.00  0.00    -0.000 C 
BRANCH  20  21
ATOM     21  C   UNL     1      23.706  25.671 -15.075  1.00  0.00    -0.000 C 
BRANCH  21  22
ATOM     22  C   UNL     1      23.343  25.836 -13.588  1.00  0.00    -0.000 C 
BRANCH  22  23
ATOM     23  C   UNL     1      24.044  24.801 -12.692  1.00  0.00    -0.000 C 
BRANCH  23  24
ATOM     24  C   UNL     1      25.235  25.405 -11.926  1.00  0.00    -0.000 C 
BRANCH  24  25
ATOM     25  C   UNL     1      26.579  24.776 -12.329  1.00  0.00    -0.003 C 
ATOM     26  C   UNL     1      27.262  25.517 -13.478  1.00  0.00     0.004 C 
ENDBRANCH  24  25
ENDBRANCH  23  24
ENDBRANCH  22  23
ENDBRANCH  21  22
ENDBRANCH  20  21
ENDBRANCH  19  20
ENDBRANCH  18  19
ENDBRANCH  17  18
ENDBRANCH  16  17
ENDBRANCH  15  16
ENDBRANCH   1  15
TORSDOF 22
ENDMDL
MODEL 4
REMARK VINA RESULT:    -4.127      1.899      3.790
REMARK INTER + INTRA:         -13.049
REMARK INTER:                  -8.774
REMARK INTRA:                  -4.275
REMARK UNBOUND:                -3.614
REMARK SMILES CCCCCCCCCCCCCCCCCCCCCCCC(=O)[O-]
REMARK SMILES IDX 13 1 14 2 15 3 16 4 17 5 18 6 19 7 20 8 21 9 22 10 23 11
REMARK SMILES IDX 24 12 25 13 26 14 12 15 11 16 10 17 9 18 8 19 7 20 6 21 5 22
REMARK SMILES IDX 4 23 3 24 2 25 1 26
REMARK H PARENT
REMARK Flexibility Score: inf
ROOT
ATOM      1  C   UNL     1      27.373  30.501 -14.588  1.00  0.00     0.000 C 
ENDROOT
BRANCH   1   2
ATOM      2  C   UNL     1      25.977  30.068 -15.075  1.00  0.00     0.000 C 
BRANCH   2   3
ATOM      3  C   UNL     1      26.010  28.736 -15.841  1.00  0.00     0.000 C 
BRANCH   3   4
ATOM      4  C   UNL     1      24.778  27.857 -15.562  1.00  0.00     0.000 C 
BRANCH   4   5
ATOM      5  C   UNL     1      25.021  26.848 -14.428  1.00  0.00     0.000 C 
BRANCH   5   6
ATOM      6  C   UNL     1      26.491  26.395 -14.353  1.00  0.00     0.000 C 
BRANCH   6   7
ATOM      7  C   UNL     1      27.081  26.521 -12.933  1.00  0.00     0.000 C 
BRANCH   7   8
ATOM      8  C   UNL     1      26.781  25.310 -12.029  1.00  0.00     0.000 C 
BRANCH   8   9
ATOM      9  C   UNL     1      27.329  23.965 -12.543  1.00  0.00     0.000 C 
BRANCH   9  10
ATOM     10  C   UNL     1      26.275  22.848 -12.709  1.00  0.00     0.006 C 
BRANCH  10  11
ATOM     11  C   UNL     1      24.822  23.343 -12.797  1.00  0.00     0.053 C 
BRANCH  11  12
ATOM     12  C   UNL     1      24.213  23.071 -14.140  1.00  0.00     0.041 C 
ATOM     13  O   UNL     1      23.101  22.490 -14.222  1.00  0.00    -0.550 OA
ATOM     14  O   UNL     1      24.891  23.424 -15.299  1.00  0.00    -0.550 OA
ENDBRANCH  11  12
ENDBRANCH  10  11
ENDBRANCH   9  10
ENDBRANCH   8   9
ENDBRANCH   7   8
ENDBRANCH   6   7
ENDBRANCH   5   6
ENDBRANCH   4   5
ENDBRANCH   3   4
ENDBRANCH   2   3
ENDBRANCH   1   2
BRANCH   1  15
ATOM     15  C   UNL     1      27.672  30.050 -13.152  1.00  0.00     0.000 C 
BRANCH  15  16
ATOM     16  C   UNL     1      29.160  30.191 -12.780  1.00  0.00     0.000 C 
BRANCH  16  17
ATOM     17  C   UNL     1      29.371  30.196 -11.255  1.00  0.00     0.000 C 
BRANCH  17  18
ATOM     18  C   UNL     1      28.094  30.593 -10.495  1.00  0.00    -0.000 C 
BRANCH  18  19
ATOM     19  C   UNL     1      27.744  29.607  -9.369  1.00  0.00    -0.000 C 
BRANCH  19  20
ATOM     20  C   UNL     1      26.928  28.406  -9.879  1.00  0.00    -0.000 C 
BRANCH  20  21
ATOM     21  C   UNL     1      25.592  28.236  -9.139  1.00  0.00    -0.000 C 
BRANCH  21  22
ATOM     22  C   UNL     1      24.420  28.917  -9.871  1.00  0.00    -0.000 C 
BRANCH  22  23
ATOM     23  C   UNL     1      24.585  28.891 -11.400  1.00  0.00    -0.000 C 
BRANCH  23  24
ATOM     24  C   UNL     1      23.966  30.130 -12.073  1.00  0.00    -0.000 C 
BRANCH  24  25
ATOM     25  C   UNL     1      24.644  31.440 -11.640  1.00  0.00    -0.003 C 
ATOM     26  C   UNL     1      24.341  32.606 -12.581  1.00  0.00     0.004 C 
ENDBRANCH  24  25
ENDBRANCH  23  24
ENDBRANCH  22  23
ENDBRANCH  21  22
ENDBRANCH  20  21
ENDBRANCH  19  20
ENDBRANCH  18  19
ENDBRANCH  17  18
ENDBRANCH  16  17
ENDBRANCH  15  16
ENDBRANCH   1  15
TORSDOF 22
ENDMDL
MODEL 5
REMARK VINA RESULT:    -4.102      1.020      2.255
REMARK INTER + INTRA:         -12.992
REMARK INTER:                  -9.629
REMARK INTRA:                  -3.363
REMARK UNBOUND:                -3.614
REMARK SMILES CCCCCCCCCCCCCCCCCCCCCCCC(=O)[O-]
REMARK SMILES IDX 13 1 14 2 15 3 16 4 17 5 18 6 19 7 20 8 21 9 22 10 23 11
REMARK SMILES IDX 24 12 25 13 26 14 12 15 11 16 10 17 9 18 8 19 7 20 6 21 5 22
REMARK SMILES IDX 4 23 3 24 2 25 1 26
REMARK H PARENT
REMARK Flexibility Score: inf
ROOT
ATOM      1  C   UNL     1      26.630  27.137 -11.250  1.00  0.00     0.000 C 
ENDROOT
BRANCH   1   2
ATOM      2  C   UNL     1      26.951  26.948 -12.745  1.00  0.00     0.000 C 
BRANCH   2   3
ATOM      3  C   UNL     1      25.694  27.004 -13.626  1.00  0.00     0.000 C 
BRANCH   3   4
ATOM      4  C   UNL     1      25.852  26.219 -14.941  1.00  0.00     0.000 C 
BRANCH   4   5
ATOM      5  C   UNL     1      24.539  25.559 -15.393  1.00  0.00     0.000 C 
BRANCH   5   6
ATOM      6  C   UNL     1      24.647  24.023 -15.456  1.00  0.00     0.000 C 
BRANCH   6   7
ATOM      7  C   UNL     1      24.338  23.350 -14.103  1.00  0.00     0.000 C 
BRANCH   7   8
ATOM      8  C   UNL     1      25.506  22.513 -13.548  1.00  0.00     0.000 C 
BRANCH   8   9
ATOM      9  C   UNL     1      26.423  23.255 -12.556  1.00  0.00     0.000 C 
BRANCH   9  10
ATOM     10  C   UNL     1      27.847  22.675 -12.421  1.00  0.00     0.006 C 
BRANCH  10  11
ATOM     11  C   UNL     1      28.040  21.709 -11.240  1.00  0.00     0.053 C 
BRANCH  11  12
ATOM     12  C   UNL     1      26.953  20.677 -11.173  1.00  0.00     0.041 C 
ATOM     13  O   UNL     1      26.067  20.752 -10.283  1.00  0.00    -0.550 OA
ATOM     14  O   UNL     1      26.942  19.615 -12.066  1.00  0.00    -0.550 OA
ENDBRANCH  11  12
ENDBRANCH  10  11
ENDBRANCH   9  10
ENDBRANCH   8   9
ENDBRANCH   7   8
ENDBRANCH   6   7
ENDBRANCH   5   6
ENDBRANCH   4   5
ENDBRANCH   3   4
ENDBRANCH   2   3
ENDBRANCH   1   2
BRANCH   1  15
ATOM     15  C   UNL     1      25.467  28.110 -11.006  1.00  0.00     0.000 C 
BRANCH  15  16
ATOM     16  C   UNL     1      25.870  29.315 -10.136  1.00  0.00     0.000 C 
BRANCH  16  17
ATOM     17  C   UNL     1      27.377  29.315  -9.821  1.00  0.00     0.000 C 
BRANCH  17  18
ATOM     18  C   UNL     1      28.112  30.483 -10.502  1.00  0.00    -0.000 C 
BRANCH  18  19
ATOM     19  C   UNL     1      29.259  30.011 -11.411  1.00  0.00    -0.000 C 
BRANCH  19  20
ATOM     20  C   UNL     1      28.959  30.253 -12.901  1.00  0.00    -0.000 C 
BRANCH  20  21
ATOM     21  C   UNL     1      27.469  30.504 -13.176  1.00  0.00    -0.000 C 
BRANCH  21  22
ATOM     22  C   UNL     1      27.126  30.441 -14.676  1.00  0.00    -0.000 C 
BRANCH  22  23
ATOM     23  C   UNL     1      25.615  30.302 -14.930  1.00  0.00    -0.000 C 
BRANCH  23  24
ATOM     24  C   UNL     1      24.780  30.657 -13.686  1.00  0.00    -0.000 C 
BRANCH  24  25
ATOM     25  C   UNL     1      24.331  32.127 -13.674  1.00  0.00    -0.003 C 
ATOM     26  C   UNL     1      24.252  32.714 -12.265  1.00  0.00     0.004 C 
ENDBRANCH  24  25
ENDBRANCH  23  24
ENDBRANCH  22  23
ENDBRANCH  21  22
ENDBRANCH  20  21
ENDBRANCH  19  20
ENDBRANCH  18  19
ENDBRANCH  17  18
ENDBRANCH  16  17
ENDBRANCH  15  16
ENDBRANCH   1  15
TORSDOF 22
ENDMDL
MODEL 6
REMARK VINA RESULT:    -4.083      1.470      3.112
REMARK INTER + INTRA:         -12.949
REMARK INTER:                  -9.232
REMARK INTRA:                  -3.717
REMARK UNBOUND:                -3.614
REMARK SMILES CCCCCCCCCCCCCCCCCCCCCCCC(=O)[O-]
REMARK SMILES IDX 13 1 14 2 15 3 16 4 17 5 18 6 19 7 20 8 21 9 22 10 23 11
REMARK SMILES IDX 24 12 25 13 26 14 12 15 11 16 10 17 9 18 8 19 7 20 6 21 5 22
REMARK SMILES IDX 4 23 3 24 2 25 1 26
REMARK H PARENT
REMARK Flexibility Score: inf
ROOT
ATOM      1  C   UNL     1      27.395  30.506 -13.154  1.00  0.00     0.000 C 
ENDROOT
BRANCH   1   2
ATOM      2  C   UNL     1      27.047  30.630 -14.650  1.00  0.00     0.000 C 
BRANCH   2   3
ATOM      3  C   UNL     1      26.293  29.400 -15.180  1.00  0.00     0.000 C 
BRANCH   3   4
ATOM      4  C   UNL     1      25.820  28.461 -14.056  1.00  0.00     0.000 C 
BRANCH   4   5
ATOM      5  C   UNL     1      26.371  27.034 -14.212  1.00  0.00     0.000 C 
BRANCH   5   6
ATOM      6  C   UNL     1      25.315  25.960 -13.891  1.00  0.00     0.000 C 
BRANCH   6   7
ATOM      7  C   UNL     1      25.900  24.767 -13.107  1.00  0.00     0.000 C 
BRANCH   7   8
ATOM      8  C   UNL     1      27.435  24.663 -13.195  1.00  0.00     0.000 C 
BRANCH   8   9
ATOM      9  C   UNL     1      28.014  23.280 -12.843  1.00  0.00     0.000 C 
BRANCH   9  10
ATOM     10  C   UNL     1      27.038  22.326 -12.121  1.00  0.00     0.006 C 
BRANCH  10  11
ATOM     11  C   UNL     1      27.582  21.711 -10.820  1.00  0.00     0.053 C 
BRANCH  11  12
ATOM     12  C   UNL     1      27.021  22.381  -9.601  1.00  0.00     0.041 C 
ATOM     13  O   UNL     1      27.094  21.815  -8.481  1.00  0.00    -0.550 OA
ATOM     14  O   UNL     1      26.388  23.612  -9.710  1.00  0.00    -0.550 OA
ENDBRANCH  11  12
ENDBRANCH  10  11
ENDBRANCH   9  10
ENDBRANCH   8   9
ENDBRANCH   7   8
ENDBRANCH   6   7
ENDBRANCH   5   6
ENDBRANCH   4   5
ENDBRANCH   3   4
ENDBRANCH   2   3
ENDBRANCH   1   2
BRANCH   1  15
ATOM     15  C   UNL     1      28.887  30.240 -12.907  1.00  0.00     0.000 C 
BRANCH  15  16
ATOM     16  C   UNL     1      29.218  30.037 -11.417  1.00  0.00     0.000 C 
BRANCH  16  17
ATOM     17  C   UNL     1      28.088  30.547 -10.505  1.00  0.00     0.000 C 
BRANCH  17  18
ATOM     18  C   UNL     1      27.458  29.416  -9.675  1.00  0.00    -0.000 C 
BRANCH  18  19
ATOM     19  C   UNL     1      27.039  28.213 -10.536  1.00  0.00    -0.000 C 
BRANCH  19  20
ATOM     20  C   UNL     1      25.542  27.886 -10.392  1.00  0.00    -0.000 C 
BRANCH  20  21
ATOM     21  C   UNL     1      24.664  29.143 -10.297  1.00  0.00    -0.000 C 
BRANCH  21  22
ATOM     22  C   UNL     1      23.455  29.094 -11.249  1.00  0.00    -0.000 C 
BRANCH  22  23
ATOM     23  C   UNL     1      23.380  30.323 -12.171  1.00  0.00    -0.000 C 
BRANCH  23  24
ATOM     24  C   UNL     1      24.147  31.528 -11.598  1.00  0.00    -0.000 C 
BRANCH  24  25
ATOM     25  C   UNL     1      24.381  32.632 -12.643  1.00  0.00    -0.003 C 
ATOM     26  C   UNL     1      23.752  32.310 -13.998  1.00  0.00     0.004 C 
ENDBRANCH  24  25
ENDBRANCH  23  24
ENDBRANCH  22  23
ENDBRANCH  21  22
ENDBRANCH  20  21
ENDBRANCH  19  20
ENDBRANCH  18  19
ENDBRANCH  17  18
ENDBRANCH  16  17
ENDBRANCH  15  16
ENDBRANCH   1  15
TORSDOF 22
ENDMDL
MODEL 7
REMARK VINA RESULT:    -4.055      3.290      7.157
REMARK INTER + INTRA:         -12.884
REMARK INTER:                  -9.051
REMARK INTRA:                  -3.833
REMARK UNBOUND:                -3.614
REMARK SMILES CCCCCCCCCCCCCCCCCCCCCCCC(=O)[O-]
REMARK SMILES IDX 13 1 14 2 15 3 16 4 17 5 18 6 19 7 20 8 21 9 22 10 23 11
REMARK SMILES IDX 24 12 25 13 26 14 12 15 11 16 10 17 9 18 8 19 7 20 6 21 5 22
REMARK SMILES IDX 4 23 3 24 2 25 1 26
REMARK H PARENT
REMARK Flexibility Score: inf
ROOT
ATOM      1  C   UNL     1      28.909  30.145 -12.849  1.00  0.00     0.000 C 
ENDROOT
BRANCH   1   2
ATOM      2  C   UNL     1      27.436  30.459 -13.177  1.00  0.00     0.000 C 
BRANCH   2   3
ATOM      3  C   UNL     1      27.155  30.435 -14.688  1.00  0.00     0.000 C 
BRANCH   3   4
ATOM      4  C   UNL     1      26.062  29.422 -15.075  1.00  0.00     0.000 C 
BRANCH   4   5
ATOM      5  C   UNL     1      24.684  29.800 -14.508  1.00  0.00     0.000 C 
BRANCH   5   6
ATOM      6  C   UNL     1      24.010  30.929 -15.312  1.00  0.00     0.000 C 
BRANCH   6   7
ATOM      7  C   UNL     1      23.391  32.014 -14.408  1.00  0.00     0.000 C 
BRANCH   7   8
ATOM      8  C   UNL     1      24.406  32.681 -13.460  1.00  0.00     0.000 C 
BRANCH   8   9
ATOM      9  C   UNL     1      24.444  32.098 -12.035  1.00  0.00     0.000 C 
BRANCH   9  10
ATOM     10  C   UNL     1      23.072  31.990 -11.334  1.00  0.00     0.006 C 
BRANCH  10  11
ATOM     11  C   UNL     1      22.519  30.560 -11.217  1.00  0.00     0.053 C 
BRANCH  11  12
ATOM     12  C   UNL     1      22.014  30.262  -9.837  1.00  0.00     0.041 C 
ATOM     13  O   UNL     1      20.813  29.930  -9.663  1.00  0.00    -0.550 OA
ATOM     14  O   UNL     1      22.858  30.386  -8.742  1.00  0.00    -0.550 OA
ENDBRANCH  11  12
ENDBRANCH  10  11
ENDBRANCH   9  10
ENDBRANCH   8   9
ENDBRANCH   7   8
ENDBRANCH   6   7
ENDBRANCH   5   6
ENDBRANCH   4   5
ENDBRANCH   3   4
ENDBRANCH   2   3
ENDBRANCH   1   2
BRANCH   1  15
ATOM     15  C   UNL     1      29.190  30.105 -11.340  1.00  0.00     0.000 C 
BRANCH  15  16
ATOM     16  C   UNL     1      27.937  30.390 -10.491  1.00  0.00     0.000 C 
BRANCH  16  17
ATOM     17  C   UNL     1      27.809  29.409  -9.313  1.00  0.00     0.000 C 
BRANCH  17  18
ATOM     18  C   UNL     1      26.523  28.569  -9.394  1.00  0.00    -0.000 C 
BRANCH  18  19
ATOM     19  C   UNL     1      25.654  28.934 -10.609  1.00  0.00    -0.000 C 
BRANCH  19  20
ATOM     20  C   UNL     1      25.420  27.733 -11.541  1.00  0.00    -0.000 C 
BRANCH  20  21
ATOM     21  C   UNL     1      26.661  26.836 -11.680  1.00  0.00    -0.000 C 
BRANCH  21  22
ATOM     22  C   UNL     1      26.989  26.504 -13.147  1.00  0.00    -0.000 C 
BRANCH  22  23
ATOM     23  C   UNL     1      25.817  25.823 -13.874  1.00  0.00    -0.000 C 
BRANCH  23  24
ATOM     24  C   UNL     1      26.237  24.502 -14.544  1.00  0.00    -0.000 C 
BRANCH  24  25
ATOM     25  C   UNL     1      27.008  23.574 -13.592  1.00  0.00    -0.003 C 
ATOM     26  C   UNL     1      26.271  22.264 -13.312  1.00  0.00     0.004 C 
ENDBRANCH  24  25
ENDBRANCH  23  24
ENDBRANCH  22  23
ENDBRANCH  21  22
ENDBRANCH  20  21
ENDBRANCH  19  20
ENDBRANCH  18  19
ENDBRANCH  17  18
ENDBRANCH  16  17
ENDBRANCH  15  16
ENDBRANCH   1  15
TORSDOF 22
ENDMDL
MODEL 8
REMARK VINA RESULT:    -4.044      2.375      3.877
REMARK INTER + INTRA:         -12.859
REMARK INTER:                  -8.716
REMARK INTRA:                  -4.143
REMARK UNBOUND:                -3.614
REMARK SMILES CCCCCCCCCCCCCCCCCCCCCCCC(=O)[O-]
REMARK SMILES IDX 13 1 14 2 15 3 16 4 17 5 18 6 19 7 20 8 21 9 22 10 23 11
REMARK SMILES IDX 24 12 25 13 26 14 12 15 11 16 10 17 9 18 8 19 7 20 6 21 5 22
REMARK SMILES IDX 4 23 3 24 2 25 1 26
REMARK H PARENT
REMARK Flexibility Score: inf
ROOT
ATOM      1  C   UNL     1      26.990  26.631 -12.722  1.00  0.00     0.000 C 
ENDROOT
BRANCH   1   2
ATOM      2  C   UNL     1      27.019  25.800 -14.020  1.00  0.00     0.000 C 
BRANCH   2   3
ATOM      3  C   UNL     1      25.610  25.441 -14.516  1.00  0.00     0.000 C 
BRANCH   3   4
ATOM      4  C   UNL     1      25.359  23.922 -14.550  1.00  0.00     0.000 C 
BRANCH   4   5
ATOM      5  C   UNL     1      26.637  23.111 -14.279  1.00  0.00     0.000 C 
BRANCH   5   6
ATOM      6  C   UNL     1      26.541  22.283 -12.983  1.00  0.00     0.000 C 
BRANCH   6   7
ATOM      7  C   UNL     1      27.392  22.871 -11.839  1.00  0.00     0.000 C 
BRANCH   7   8
ATOM      8  C   UNL     1      26.657  22.922 -10.486  1.00  0.00     0.000 C 
BRANCH   8   9
ATOM      9  C   UNL     1      25.716  24.128 -10.302  1.00  0.00     0.000 C 
BRANCH   9  10
ATOM     10  C   UNL     1      25.716  24.749  -8.888  1.00  0.00     0.006 C 
BRANCH  10  11
ATOM     11  C   UNL     1      25.592  23.734  -7.739  1.00  0.00     0.053 C 
BRANCH  11  12
ATOM     12  C   UNL     1      26.804  23.730  -6.855  1.00  0.00     0.041 C 
ATOM     13  O   UNL     1      27.272  24.815  -6.423  1.00  0.00    -0.550 OA
ATOM     14  O   UNL     1      27.436  22.535  -6.541  1.00  0.00    -0.550 OA
ENDBRANCH  11  12
ENDBRANCH  10  11
ENDBRANCH   9  10
ENDBRANCH   8   9
ENDBRANCH   7   8
ENDBRANCH   6   7
ENDBRANCH   5   6
ENDBRANCH   4   5
ENDBRANCH   3   4
ENDBRANCH   2   3
ENDBRANCH   1   2
BRANCH   1  15
ATOM     15  C   UNL     1      25.578  27.101 -12.344  1.00  0.00     0.000 C 
BRANCH  15  16
ATOM     16  C   UNL     1      25.562  27.988 -11.084  1.00  0.00     0.000 C 
BRANCH  16  17
ATOM     17  C   UNL     1      26.982  28.253 -10.553  1.00  0.00     0.000 C 
BRANCH  17  18
ATOM     18  C   UNL     1      27.133  29.675  -9.986  1.00  0.00    -0.000 C 
BRANCH  18  19
ATOM     19  C   UNL     1      28.267  30.464 -10.660  1.00  0.00    -0.000 C 
BRANCH  19  20
ATOM     20  C   UNL     1      28.813  29.749 -11.908  1.00  0.00    -0.000 C 
BRANCH  20  21
ATOM     21  C   UNL     1      28.567  30.539 -13.203  1.00  0.00    -0.000 C 
BRANCH  21  22
ATOM     22  C   UNL     1      27.367  30.003 -14.004  1.00  0.00    -0.000 C 
BRANCH  22  23
ATOM     23  C   UNL     1      26.280  31.069 -14.223  1.00  0.00    -0.000 C 
BRANCH  23  24
ATOM     24  C   UNL     1      25.023  30.802 -13.376  1.00  0.00    -0.000 C 
BRANCH  24  25
ATOM     25  C   UNL     1      24.964  31.677 -12.112  1.00  0.00    -0.003 C 
ATOM     26  C   UNL     1      23.794  31.319 -11.196  1.00  0.00     0.004 C 
ENDBRANCH  24  25
ENDBRANCH  23  24
ENDBRANCH  22  23
ENDBRANCH  21  22
ENDBRANCH  20  21
ENDBRANCH  19  20
ENDBRANCH  18  19
ENDBRANCH  17  18
ENDBRANCH  16  17
ENDBRANCH  15  16
ENDBRANCH   1  15
TORSDOF 22
ENDMDL
MODEL 9
REMARK VINA RESULT:    -4.026      1.504      3.466
REMARK INTER + INTRA:         -12.818
REMARK INTER:                  -8.927
REMARK INTRA:                  -3.891
REMARK UNBOUND:                -3.614
REMARK SMILES CCCCCCCCCCCCCCCCCCCCCCCC(=O)[O-]
REMARK SMILES IDX 13 1 14 2 15 3 16 4 17 5 18 6 19 7 20 8 21 9 22 10 23 11
REMARK SMILES IDX 24 12 25 13 26 14 12 15 11 16 10 17 9 18 8 19 7 20 6 21 5 22
REMARK SMILES IDX 4 23 3 24 2 25 1 26
REMARK H PARENT
REMARK Flexibility Score: inf
ROOT
ATOM      1  C   UNL     1      22.893  28.881 -12.136  1.00  0.00     0.000 C 
ENDROOT
BRANCH   1   2
ATOM      2  C   UNL     1      24.250  28.165 -11.990  1.00  0.00     0.000 C 
BRANCH   2   3
ATOM      3  C   UNL     1      24.272  26.800 -12.694  1.00  0.00     0.000 C 
BRANCH   3   4
ATOM      4  C   UNL     1      24.504  26.915 -14.212  1.00  0.00     0.000 C 
BRANCH   4   5
ATOM      5  C   UNL     1      25.735  26.122 -14.679  1.00  0.00     0.000 C 
BRANCH   5   6
ATOM      6  C   UNL     1      26.848  26.088 -13.615  1.00  0.00     0.000 C 
BRANCH   6   7
ATOM      7  C   UNL     1      27.170  24.657 -13.136  1.00  0.00     0.000 C 
BRANCH   7   8
ATOM      8  C   UNL     1      26.688  23.559 -14.104  1.00  0.00     0.000 C 
BRANCH   8   9
ATOM      9  C   UNL     1      25.417  22.812 -13.658  1.00  0.00     0.000 C 
BRANCH   9  10
ATOM     10  C   UNL     1      25.513  22.121 -12.280  1.00  0.00     0.006 C 
BRANCH  10  11
ATOM     11  C   UNL     1      26.686  21.136 -12.135  1.00  0.00     0.053 C 
BRANCH  11  12
ATOM     12  C   UNL     1      27.679  21.590 -11.107  1.00  0.00     0.041 C 
ATOM     13  O   UNL     1      28.882  21.233 -11.192  1.00  0.00    -0.550 OA
ATOM     14  O   UNL     1      27.269  22.373 -10.037  1.00  0.00    -0.550 OA
ENDBRANCH  11  12
ENDBRANCH  10  11
ENDBRANCH   9  10
ENDBRANCH   8   9
ENDBRANCH   7   8
ENDBRANCH   6   7
ENDBRANCH   5   6
ENDBRANCH   4   5
ENDBRANCH   3   4
ENDBRANCH   2   3
ENDBRANCH   1   2
BRANCH   1  15
ATOM     15  C   UNL     1      22.958  30.369 -11.766  1.00  0.00     0.000 C 
BRANCH  15  16
ATOM     16  C   UNL     1      24.370  30.818 -11.342  1.00  0.00     0.000 C 
BRANCH  16  17
ATOM     17  C   UNL     1      24.744  32.181 -11.953  1.00  0.00     0.000 C 
BRANCH  17  18
ATOM     18  C   UNL     1      24.141  32.373 -13.355  1.00  0.00    -0.000 C 
BRANCH  18  19
ATOM     19  C   UNL     1      25.136  32.038 -14.478  1.00  0.00    -0.000 C 
BRANCH  19  20
ATOM     20  C   UNL     1      25.000  30.584 -14.963  1.00  0.00    -0.000 C 
BRANCH  20  21
ATOM     21  C   UNL     1      26.339  29.829 -14.966  1.00  0.00    -0.000 C 
BRANCH  21  22
ATOM     22  C   UNL     1      27.391  30.488 -14.055  1.00  0.00    -0.000 C 
BRANCH  22  23
ATOM     23  C   UNL     1      27.653  29.676 -12.775  1.00  0.00    -0.000 C 
BRANCH  23  24
ATOM     24  C   UNL     1      28.413  30.493 -11.713  1.00  0.00    -0.000 C 
BRANCH  24  25
ATOM     25  C   UNL     1      28.055  30.077 -10.277  1.00  0.00    -0.003 C 
ATOM     26  C   UNL     1      27.285  28.758 -10.215  1.00  0.00     0.004 C 
ENDBRANCH  24  25
ENDBRANCH  23  24
ENDBRANCH  22  23
ENDBRANCH  21  22
ENDBRANCH  20  21
ENDBRANCH  19  20
ENDBRANCH  18  19
ENDBRANCH  17  18
ENDBRANCH  16  17
ENDBRANCH  15  16
ENDBRANCH   1  15
TORSDOF 22
ENDMDL
