MODEL 1
REMARK VINA RESULT:    -8.204      0.000      0.000
REMARK INTER + INTRA:         -10.014
REMARK INTER:                  -9.882
REMARK INTRA:                  -0.132
REMARK UNBOUND:                -0.132
REMARK SMILES O=c1c(O)c(-c2ccc(O)c(O)c2)oc2cc(O)cc(O)c12
REMARK SMILES IDX 5 1 3 2 2 3 1 4 22 5 20 6 19 7 17 8 16 9 15 10 14 11 6 12
REMARK SMILES IDX 7 13 8 14 9 15 13 16 11 17 10 18 12 20 4 22 21 24 18 26
REMARK H PARENT 10 19 12 21 4 23 21 25 18 27
REMARK Flexibility Score: inf
ROOT
ATOM      1  C   UNL     1       9.753  48.551  21.245  1.00  0.00     0.180 A 
ATOM      2  C   UNL     1       9.321  47.554  20.350  1.00  0.00     0.208 A 
ATOM      3  C   UNL     1       8.309  47.863  19.427  1.00  0.00     0.238 A 
ATOM      4  O   UNL     1       7.922  46.982  18.613  1.00  0.00    -0.285 OA
ATOM      5  C   UNL     1       7.734  49.152  19.429  1.00  0.00     0.111 A 
ATOM      6  C   UNL     1       6.708  49.542  18.535  1.00  0.00     0.134 A 
ATOM      7  C   UNL     1       6.181  50.840  18.606  1.00  0.00     0.093 A 
ATOM      8  C   UNL     1       6.658  51.752  19.551  1.00  0.00     0.123 A 
ATOM      9  C   UNL     1       7.672  51.372  20.436  1.00  0.00     0.094 A 
ATOM     10  C   UNL     1       8.211  50.084  20.380  1.00  0.00     0.146 A 
ATOM     11  O   UNL     1       9.177  49.750  21.228  1.00  0.00    -0.452 OA
ENDROOT
BRANCH   1  12
ATOM     12  C   UNL     1      10.828  48.307  22.235  1.00  0.00     0.025 A 
ATOM     13  C   UNL     1      10.572  48.521  23.599  1.00  0.00     0.016 A 
ATOM     14  C   UNL     1      11.578  48.317  24.548  1.00  0.00     0.051 A 
ATOM     15  C   UNL     1      12.857  47.913  24.145  1.00  0.00     0.157 A 
ATOM     16  C   UNL     1      12.120  47.922  21.833  1.00  0.00     0.062 A 
ATOM     17  C   UNL     1      13.129  47.719  22.785  1.00  0.00     0.158 A 
BRANCH  15  18
ATOM     18  O   UNL     1      13.861  47.707  25.088  1.00  0.00    -0.504 OA
ATOM     19  H   UNL     1      14.664  48.323  25.152  1.00  0.00     0.293 HD
ENDBRANCH  15  18
BRANCH  17  20
ATOM     20  O   UNL     1      14.407  47.330  22.387  1.00  0.00    -0.504 OA
ATOM     21  H   UNL     1      15.154  47.195  23.058  1.00  0.00     0.293 HD
ENDBRANCH  17  20
ENDBRANCH   1  12
BRANCH   2  22
ATOM     22  O   UNL     1       9.873  46.272  20.402  1.00  0.00    -0.502 OA
ATOM     23  H   UNL     1       9.310  45.435  20.299  1.00  0.00     0.293 HD
ENDBRANCH   2  22
BRANCH   6  24
ATOM     24  O   UNL     1       6.209  48.654  17.582  1.00  0.00    -0.507 OA
ATOM     25  H   UNL     1       5.267  48.285  17.637  1.00  0.00     0.293 HD
ENDBRANCH   6  24
BRANCH   8  26
ATOM     26  O   UNL     1       6.117  53.035  19.600  1.00  0.00    -0.508 OA
ATOM     27  H   UNL     1       5.115  53.188  19.591  1.00  0.00     0.293 HD
ENDBRANCH   8  26
TORSDOF 6
ENDMDL
MODEL 2
REMARK VINA RESULT:    -8.025      1.527      3.178
REMARK INTER + INTRA:          -9.799
REMARK INTER:                  -9.786
REMARK INTRA:                  -0.014
REMARK UNBOUND:                -0.132
REMARK SMILES O=c1c(O)c(-c2ccc(O)c(O)c2)oc2cc(O)cc(O)c12
REMARK SMILES IDX 5 1 3 2 2 3 1 4 22 5 20 6 19 7 17 8 16 9 15 10 14 11 6 12
REMARK SMILES IDX 7 13 8 14 9 15 13 16 11 17 10 18 12 20 4 22 21 24 18 26
REMARK H PARENT 10 19 12 21 4 23 21 25 18 27
REMARK Flexibility Score: inf
ROOT
ATOM      1  C   UNL     1       9.965  48.345  20.519  1.00  0.00     0.180 A 
ATOM      2  C   UNL     1       9.185  49.518  20.563  1.00  0.00     0.208 A 
ATOM      3  C   UNL     1       8.123  49.660  19.657  1.00  0.00     0.238 A 
ATOM      4  O   UNL     1       7.411  50.700  19.694  1.00  0.00    -0.285 OA
ATOM      5  C   UNL     1       7.870  48.642  18.713  1.00  0.00     0.111 A 
ATOM      6  C   UNL     1       6.823  48.710  17.764  1.00  0.00     0.134 A 
ATOM      7  C   UNL     1       6.642  47.659  16.851  1.00  0.00     0.093 A 
ATOM      8  C   UNL     1       7.487  46.547  16.869  1.00  0.00     0.123 A 
ATOM      9  C   UNL     1       8.523  46.475  17.806  1.00  0.00     0.094 A 
ATOM     10  C   UNL     1       8.719  47.510  18.724  1.00  0.00     0.146 A 
ATOM     11  O   UNL     1       9.707  47.414  19.606  1.00  0.00    -0.452 OA
ENDROOT
BRANCH   1  12
ATOM     12  C   UNL     1      11.090  48.114  21.454  1.00  0.00     0.025 A 
ATOM     13  C   UNL     1      10.877  48.248  22.836  1.00  0.00     0.016 A 
ATOM     14  C   UNL     1      11.929  48.055  23.736  1.00  0.00     0.051 A 
ATOM     15  C   UNL     1      13.211  47.741  23.266  1.00  0.00     0.157 A 
ATOM     16  C   UNL     1      12.383  47.820  20.987  1.00  0.00     0.062 A 
ATOM     17  C   UNL     1      13.439  47.628  21.889  1.00  0.00     0.158 A 
BRANCH  15  18
ATOM     18  O   UNL     1      14.262  47.546  24.160  1.00  0.00    -0.504 OA
ATOM     19  H   UNL     1      14.295  46.739  24.772  1.00  0.00     0.293 HD
ENDBRANCH  15  18
BRANCH  17  20
ATOM     20  O   UNL     1      14.719  47.329  21.425  1.00  0.00    -0.504 OA
ATOM     21  H   UNL     1      15.112  46.400  21.513  1.00  0.00     0.293 HD
ENDBRANCH  17  20
ENDBRANCH   1  12
BRANCH   2  22
ATOM     22  O   UNL     1       9.487  50.532  21.475  1.00  0.00    -0.502 OA
ATOM     23  H   UNL     1       8.789  51.187  21.809  1.00  0.00     0.293 HD
ENDBRANCH   2  22
BRANCH   6  24
ATOM     24  O   UNL     1       5.963  49.807  17.719  1.00  0.00    -0.507 OA
ATOM     25  H   UNL     1       6.256  50.728  18.025  1.00  0.00     0.293 HD
ENDBRANCH   6  24
BRANCH   8  26
ATOM     26  O   UNL     1       7.286  45.518  15.952  1.00  0.00    -0.508 OA
ATOM     27  H   UNL     1       7.080  45.709  14.978  1.00  0.00     0.293 HD
ENDBRANCH   8  26
TORSDOF 6
ENDMDL
MODEL 3
REMARK VINA RESULT:    -8.020      3.600      5.151
REMARK INTER + INTRA:          -9.792
REMARK INTER:                  -9.592
REMARK INTRA:                  -0.200
REMARK UNBOUND:                -0.132
REMARK SMILES O=c1c(O)c(-c2ccc(O)c(O)c2)oc2cc(O)cc(O)c12
REMARK SMILES IDX 5 1 3 2 2 3 1 4 22 5 20 6 19 7 17 8 16 9 15 10 14 11 6 12
REMARK SMILES IDX 7 13 8 14 9 15 13 16 11 17 10 18 12 20 4 22 21 24 18 26
REMARK H PARENT 10 19 12 21 4 23 21 25 18 27
REMARK Flexibility Score: inf
ROOT
ATOM      1  C   UNL     1       9.334  47.749  23.209  1.00  0.00     0.180 A 
ATOM      2  C   UNL     1       8.695  48.906  23.697  1.00  0.00     0.208 A 
ATOM      3  C   UNL     1       7.352  48.821  24.096  1.00  0.00     0.238 A 
ATOM      4  O   UNL     1       6.773  49.848  24.546  1.00  0.00    -0.285 OA
ATOM      5  C   UNL     1       6.667  47.594  23.982  1.00  0.00     0.111 A 
ATOM      6  C   UNL     1       5.312  47.426  24.359  1.00  0.00     0.134 A 
ATOM      7  C   UNL     1       4.698  46.174  24.205  1.00  0.00     0.093 A 
ATOM      8  C   UNL     1       5.409  45.090  23.685  1.00  0.00     0.123 A 
ATOM      9  C   UNL     1       6.748  45.251  23.312  1.00  0.00     0.094 A 
ATOM     10  C   UNL     1       7.378  46.489  23.458  1.00  0.00     0.146 A 
ATOM     11  O   UNL     1       8.651  46.613  23.101  1.00  0.00    -0.452 OA
ENDROOT
BRANCH   1  12
ATOM     12  C   UNL     1      10.753  47.754  22.786  1.00  0.00     0.025 A 
ATOM     13  C   UNL     1      11.076  47.479  21.447  1.00  0.00     0.016 A 
ATOM     14  C   UNL     1      12.409  47.457  21.031  1.00  0.00     0.051 A 
ATOM     15  C   UNL     1      13.440  47.695  21.949  1.00  0.00     0.157 A 
ATOM     16  C   UNL     1      11.792  47.971  23.709  1.00  0.00     0.062 A 
ATOM     17  C   UNL     1      13.131  47.948  23.291  1.00  0.00     0.158 A 
BRANCH  15  18
ATOM     18  O   UNL     1      14.770  47.676  21.537  1.00  0.00    -0.504 OA
ATOM     19  H   UNL     1      15.336  48.517  21.533  1.00  0.00     0.293 HD
ENDBRANCH  15  18
BRANCH  17  20
ATOM     20  O   UNL     1      14.159  48.170  24.206  1.00  0.00    -0.504 OA
ATOM     21  H   UNL     1      14.416  49.106  24.498  1.00  0.00     0.293 HD
ENDBRANCH  17  20
ENDBRANCH   1  12
BRANCH   2  22
ATOM     22  O   UNL     1       9.382  50.121  23.753  1.00  0.00    -0.502 OA
ATOM     23  H   UNL     1      10.393  50.174  23.707  1.00  0.00     0.293 HD
ENDBRANCH   2  22
BRANCH   6  24
ATOM     24  O   UNL     1       4.574  48.489  24.881  1.00  0.00    -0.507 OA
ATOM     25  H   UNL     1       4.254  48.494  25.842  1.00  0.00     0.293 HD
ENDBRANCH   6  24
BRANCH   8  26
ATOM     26  O   UNL     1       4.775  43.858  23.543  1.00  0.00    -0.508 OA
ATOM     27  H   UNL     1       4.645  43.236  24.333  1.00  0.00     0.293 HD
ENDBRANCH   8  26
TORSDOF 6
ENDMDL
MODEL 4
REMARK VINA RESULT:    -8.019      3.906      5.148
REMARK INTER + INTRA:          -9.791
REMARK INTER:                  -9.477
REMARK INTRA:                  -0.314
REMARK UNBOUND:                -0.132
REMARK SMILES O=c1c(O)c(-c2ccc(O)c(O)c2)oc2cc(O)cc(O)c12
REMARK SMILES IDX 5 1 3 2 2 3 1 4 22 5 20 6 19 7 17 8 16 9 15 10 14 11 6 12
REMARK SMILES IDX 7 13 8 14 9 15 13 16 11 17 10 18 12 20 4 22 21 24 18 26
REMARK H PARENT 10 19 12 21 4 23 21 25 18 27
REMARK Flexibility Score: inf
ROOT
ATOM      1  C   UNL     1       7.687  48.257  23.753  1.00  0.00     0.180 A 
ATOM      2  C   UNL     1       7.343  46.951  23.351  1.00  0.00     0.208 A 
ATOM      3  C   UNL     1       7.769  46.495  22.094  1.00  0.00     0.238 A 
ATOM      4  O   UNL     1       7.477  45.324  21.727  1.00  0.00    -0.285 OA
ATOM      5  C   UNL     1       8.511  47.353  21.255  1.00  0.00     0.111 A 
ATOM      6  C   UNL     1       8.974  46.971  19.973  1.00  0.00     0.134 A 
ATOM      7  C   UNL     1       9.699  47.887  19.195  1.00  0.00     0.093 A 
ATOM      8  C   UNL     1       9.967  49.172  19.671  1.00  0.00     0.123 A 
ATOM      9  C   UNL     1       9.512  49.554  20.937  1.00  0.00     0.094 A 
ATOM     10  C   UNL     1       8.790  48.656  21.729  1.00  0.00     0.146 A 
ATOM     11  O   UNL     1       8.375  49.042  22.929  1.00  0.00    -0.452 OA
ENDROOT
BRANCH   1  12
ATOM     12  C   UNL     1       7.291  48.803  25.071  1.00  0.00     0.025 A 
ATOM     13  C   UNL     1       6.206  49.691  25.152  1.00  0.00     0.016 A 
ATOM     14  C   UNL     1       5.827  50.236  26.382  1.00  0.00     0.051 A 
ATOM     15  C   UNL     1       6.537  49.913  27.546  1.00  0.00     0.157 A 
ATOM     16  C   UNL     1       8.014  48.498  26.239  1.00  0.00     0.062 A 
ATOM     17  C   UNL     1       7.635  49.046  27.473  1.00  0.00     0.158 A 
BRANCH  15  18
ATOM     18  O   UNL     1       6.162  50.452  28.774  1.00  0.00    -0.504 OA
ATOM     19  H   UNL     1       6.702  50.284  29.615  1.00  0.00     0.293 HD
ENDBRANCH  15  18
BRANCH  17  20
ATOM     20  O   UNL     1       8.348  48.737  28.630  1.00  0.00    -0.504 OA
ATOM     21  H   UNL     1       8.920  47.904  28.694  1.00  0.00     0.293 HD
ENDBRANCH  17  20
ENDBRANCH   1  12
BRANCH   2  22
ATOM     22  O   UNL     1       6.566  46.140  24.180  1.00  0.00    -0.502 OA
ATOM     23  H   UNL     1       6.202  46.463  25.069  1.00  0.00     0.293 HD
ENDBRANCH   2  22
BRANCH   6  24
ATOM     24  O   UNL     1       8.722  45.696  19.468  1.00  0.00    -0.507 OA
ATOM     25  H   UNL     1       7.783  45.388  19.240  1.00  0.00     0.293 HD
ENDBRANCH   6  24
BRANCH   8  26
ATOM     26  O   UNL     1      10.689  50.061  18.878  1.00  0.00    -0.508 OA
ATOM     27  H   UNL     1      10.259  50.893  18.490  1.00  0.00     0.293 HD
ENDBRANCH   8  26
TORSDOF 6
ENDMDL
MODEL 5
REMARK VINA RESULT:    -7.997      4.265      4.804
REMARK INTER + INTRA:          -9.765
REMARK INTER:                  -9.603
REMARK INTRA:                  -0.162
REMARK UNBOUND:                -0.132
REMARK SMILES O=c1c(O)c(-c2ccc(O)c(O)c2)oc2cc(O)cc(O)c12
REMARK SMILES IDX 5 1 3 2 2 3 1 4 22 5 20 6 19 7 17 8 16 9 15 10 14 11 6 12
REMARK SMILES IDX 7 13 8 14 9 15 13 16 11 17 10 18 12 20 4 22 21 24 18 26
REMARK H PARENT 10 19 12 21 4 23 21 25 18 27
REMARK Flexibility Score: inf
ROOT
ATOM      1  C   UNL     1       8.972  47.764  24.405  1.00  0.00     0.180 A 
ATOM      2  C   UNL     1       8.209  46.608  24.148  1.00  0.00     0.208 A 
ATOM      3  C   UNL     1       6.833  46.628  24.425  1.00  0.00     0.238 A 
ATOM      4  O   UNL     1       6.138  45.603  24.187  1.00  0.00    -0.285 OA
ATOM      5  C   UNL     1       6.248  47.790  24.970  1.00  0.00     0.111 A 
ATOM      6  C   UNL     1       4.871  47.890  25.281  1.00  0.00     0.134 A 
ATOM      7  C   UNL     1       4.367  49.078  25.831  1.00  0.00     0.093 A 
ATOM      8  C   UNL     1       5.210  50.164  26.076  1.00  0.00     0.123 A 
ATOM      9  C   UNL     1       6.572  50.071  25.770  1.00  0.00     0.094 A 
ATOM     10  C   UNL     1       7.094  48.896  25.221  1.00  0.00     0.146 A 
ATOM     11  O   UNL     1       8.389  48.836  24.934  1.00  0.00    -0.452 OA
ENDROOT
BRANCH   1  12
ATOM     12  C   UNL     1      10.424  47.827  24.122  1.00  0.00     0.025 A 
ATOM     13  C   UNL     1      11.320  48.095  25.170  1.00  0.00     0.016 A 
ATOM     14  C   UNL     1      12.693  48.179  24.923  1.00  0.00     0.051 A 
ATOM     15  C   UNL     1      13.188  48.014  23.623  1.00  0.00     0.157 A 
ATOM     16  C   UNL     1      10.924  47.682  22.816  1.00  0.00     0.062 A 
ATOM     17  C   UNL     1      12.301  47.769  22.567  1.00  0.00     0.158 A 
BRANCH  15  18
ATOM     18  O   UNL     1      14.556  48.095  23.372  1.00  0.00    -0.504 OA
ATOM     19  H   UNL     1      14.968  48.913  22.939  1.00  0.00     0.293 HD
ENDBRANCH  15  18
BRANCH  17  20
ATOM     20  O   UNL     1      12.795  47.618  21.272  1.00  0.00    -0.504 OA
ATOM     21  H   UNL     1      13.771  47.782  21.055  1.00  0.00     0.293 HD
ENDBRANCH  17  20
ENDBRANCH   1  12
BRANCH   2  22
ATOM     22  O   UNL     1       8.822  45.454  23.653  1.00  0.00    -0.502 OA
ATOM     23  H   UNL     1       8.772  45.190  22.676  1.00  0.00     0.293 HD
ENDBRANCH   2  22
BRANCH   6  24
ATOM     24  O   UNL     1       4.003  46.823  25.050  1.00  0.00    -0.507 OA
ATOM     25  H   UNL     1       3.058  46.814  25.418  1.00  0.00     0.293 HD
ENDBRANCH   6  24
BRANCH   8  26
ATOM     26  O   UNL     1       4.684  51.332  26.623  1.00  0.00    -0.508 OA
ATOM     27  H   UNL     1       5.124  51.793  27.412  1.00  0.00     0.293 HD
ENDBRANCH   8  26
TORSDOF 6
ENDMDL
MODEL 6
REMARK VINA RESULT:    -7.910      2.192      7.056
REMARK INTER + INTRA:          -9.660
REMARK INTER:                  -9.359
REMARK INTRA:                  -0.301
REMARK UNBOUND:                -0.132
REMARK SMILES O=c1c(O)c(-c2ccc(O)c(O)c2)oc2cc(O)cc(O)c12
REMARK SMILES IDX 5 1 3 2 2 3 1 4 22 5 20 6 19 7 17 8 16 9 15 10 14 11 6 12
REMARK SMILES IDX 7 13 8 14 9 15 13 16 11 17 10 18 12 20 4 22 21 24 18 26
REMARK H PARENT 10 19 12 21 4 23 21 25 18 27
REMARK Flexibility Score: inf
ROOT
ATOM      1  C   UNL     1       9.272  48.024  19.916  1.00  0.00     0.180 A 
ATOM      2  C   UNL     1       8.562  48.292  21.103  1.00  0.00     0.208 A 
ATOM      3  C   UNL     1       9.265  48.334  22.318  1.00  0.00     0.238 A 
ATOM      4  O   UNL     1       8.642  48.584  23.386  1.00  0.00    -0.285 OA
ATOM      5  C   UNL     1      10.654  48.089  22.329  1.00  0.00     0.111 A 
ATOM      6  C   UNL     1      11.433  48.109  23.511  1.00  0.00     0.134 A 
ATOM      7  C   UNL     1      12.809  47.845  23.440  1.00  0.00     0.093 A 
ATOM      8  C   UNL     1      13.419  47.562  22.216  1.00  0.00     0.123 A 
ATOM      9  C   UNL     1      12.653  47.541  21.046  1.00  0.00     0.094 A 
ATOM     10  C   UNL     1      11.281  47.803  21.094  1.00  0.00     0.146 A 
ATOM     11  O   UNL     1      10.579  47.783  19.968  1.00  0.00    -0.452 OA
ENDROOT
BRANCH   1  12
ATOM     12  C   UNL     1       8.606  47.981  18.594  1.00  0.00     0.025 A 
ATOM     13  C   UNL     1       8.321  49.184  17.926  1.00  0.00     0.016 A 
ATOM     14  C   UNL     1       7.673  49.169  16.688  1.00  0.00     0.051 A 
ATOM     15  C   UNL     1       7.288  47.954  16.107  1.00  0.00     0.157 A 
ATOM     16  C   UNL     1       8.198  46.765  18.017  1.00  0.00     0.062 A 
ATOM     17  C   UNL     1       7.548  46.750  16.775  1.00  0.00     0.158 A 
BRANCH  15  18
ATOM     18  O   UNL     1       6.645  47.935  14.872  1.00  0.00    -0.504 OA
ATOM     19  H   UNL     1       6.023  48.682  14.586  1.00  0.00     0.293 HD
ENDBRANCH  15  18
BRANCH  17  20
ATOM     20  O   UNL     1       7.151  45.544  16.201  1.00  0.00    -0.504 OA
ATOM     21  H   UNL     1       7.786  44.757  16.127  1.00  0.00     0.293 HD
ENDBRANCH  17  20
ENDBRANCH   1  12
BRANCH   2  22
ATOM     22  O   UNL     1       7.179  48.483  21.070  1.00  0.00    -0.502 OA
ATOM     23  H   UNL     1       6.543  47.939  21.642  1.00  0.00     0.293 HD
ENDBRANCH   2  22
BRANCH   6  24
ATOM     24  O   UNL     1      10.854  48.387  24.749  1.00  0.00    -0.507 OA
ATOM     25  H   UNL     1       9.858  48.288  24.907  1.00  0.00     0.293 HD
ENDBRANCH   6  24
BRANCH   8  26
ATOM     26  O   UNL     1      14.787  47.303  22.174  1.00  0.00    -0.508 OA
ATOM     27  H   UNL     1      15.425  47.713  22.847  1.00  0.00     0.293 HD
ENDBRANCH   8  26
TORSDOF 6
ENDMDL
MODEL 7
REMARK VINA RESULT:    -7.903      5.329      7.524
REMARK INTER + INTRA:          -9.652
REMARK INTER:                  -9.328
REMARK INTRA:                  -0.324
REMARK UNBOUND:                -0.132
REMARK SMILES O=c1c(O)c(-c2ccc(O)c(O)c2)oc2cc(O)cc(O)c12
REMARK SMILES IDX 5 1 3 2 2 3 1 4 22 5 20 6 19 7 17 8 16 9 15 10 14 11 6 12
REMARK SMILES IDX 7 13 8 14 9 15 13 16 11 17 10 18 12 20 4 22 21 24 18 26
REMARK H PARENT 10 19 12 21 4 23 21 25 18 27
REMARK Flexibility Score: inf
ROOT
ATOM      1  C   UNL     1       7.270  49.073  25.143  1.00  0.00     0.180 A 
ATOM      2  C   UNL     1       6.070  48.335  25.128  1.00  0.00     0.208 A 
ATOM      3  C   UNL     1       5.457  48.015  26.349  1.00  0.00     0.238 A 
ATOM      4  O   UNL     1       4.376  47.364  26.348  1.00  0.00    -0.285 OA
ATOM      5  C   UNL     1       6.059  48.417  27.559  1.00  0.00     0.111 A 
ATOM      6  C   UNL     1       5.506  48.131  28.831  1.00  0.00     0.134 A 
ATOM      7  C   UNL     1       6.172  48.558  29.990  1.00  0.00     0.093 A 
ATOM      8  C   UNL     1       7.375  49.262  29.903  1.00  0.00     0.123 A 
ATOM      9  C   UNL     1       7.925  49.548  28.649  1.00  0.00     0.094 A 
ATOM     10  C   UNL     1       7.276  49.133  27.482  1.00  0.00     0.146 A 
ATOM     11  O   UNL     1       7.817  49.422  26.304  1.00  0.00    -0.452 OA
ENDROOT
BRANCH   1  12
ATOM     12  C   UNL     1       7.968  49.465  23.897  1.00  0.00     0.025 A 
ATOM     13  C   UNL     1       7.645  50.685  23.281  1.00  0.00     0.016 A 
ATOM     14  C   UNL     1       8.274  51.066  22.093  1.00  0.00     0.051 A 
ATOM     15  C   UNL     1       9.224  50.227  21.496  1.00  0.00     0.157 A 
ATOM     16  C   UNL     1       8.907  48.617  23.284  1.00  0.00     0.062 A 
ATOM     17  C   UNL     1       9.538  48.999  22.091  1.00  0.00     0.158 A 
BRANCH  15  18
ATOM     18  O   UNL     1       9.856  50.605  20.314  1.00  0.00    -0.504 OA
ATOM     19  H   UNL     1      10.820  50.356  20.124  1.00  0.00     0.293 HD
ENDBRANCH  15  18
BRANCH  17  20
ATOM     20  O   UNL     1      10.473  48.159  21.488  1.00  0.00    -0.504 OA
ATOM     21  H   UNL     1      10.663  47.232  21.848  1.00  0.00     0.293 HD
ENDBRANCH  17  20
ENDBRANCH   1  12
BRANCH   2  22
ATOM     22  O   UNL     1       5.521  47.907  23.918  1.00  0.00    -0.502 OA
ATOM     23  H   UNL     1       5.763  48.334  23.031  1.00  0.00     0.293 HD
ENDBRANCH   2  22
BRANCH   6  24
ATOM     24  O   UNL     1       4.307  47.428  28.952  1.00  0.00    -0.507 OA
ATOM     25  H   UNL     1       3.902  47.216  29.857  1.00  0.00     0.293 HD
ENDBRANCH   6  24
BRANCH   8  26
ATOM     26  O   UNL     1       8.015  49.674  31.069  1.00  0.00    -0.508 OA
ATOM     27  H   UNL     1       7.829  49.229  31.961  1.00  0.00     0.293 HD
ENDBRANCH   8  26
TORSDOF 6
ENDMDL
MODEL 8
REMARK VINA RESULT:    -7.881      3.218      6.008
REMARK INTER + INTRA:          -9.625
REMARK INTER:                  -9.448
REMARK INTRA:                  -0.177
REMARK UNBOUND:                -0.132
REMARK SMILES O=c1c(O)c(-c2ccc(O)c(O)c2)oc2cc(O)cc(O)c12
REMARK SMILES IDX 5 1 3 2 2 3 1 4 22 5 20 6 19 7 17 8 16 9 15 10 14 11 6 12
REMARK SMILES IDX 7 13 8 14 9 15 13 16 11 17 10 18 12 20 4 22 21 24 18 26
REMARK H PARENT 10 19 12 21 4 23 21 25 18 27
REMARK Flexibility Score: inf
ROOT
ATOM      1  C   UNL     1       8.657  47.337  19.296  1.00  0.00     0.180 A 
ATOM      2  C   UNL     1       8.575  46.295  20.239  1.00  0.00     0.208 A 
ATOM      3  C   UNL     1       8.536  46.618  21.605  1.00  0.00     0.238 A 
ATOM      4  O   UNL     1       8.452  45.694  22.458  1.00  0.00    -0.285 OA
ATOM      5  C   UNL     1       8.600  47.970  22.004  1.00  0.00     0.111 A 
ATOM      6  C   UNL     1       8.570  48.378  23.358  1.00  0.00     0.134 A 
ATOM      7  C   UNL     1       8.648  49.743  23.675  1.00  0.00     0.093 A 
ATOM      8  C   UNL     1       8.755  50.703  22.666  1.00  0.00     0.123 A 
ATOM      9  C   UNL     1       8.784  50.305  21.325  1.00  0.00     0.094 A 
ATOM     10  C   UNL     1       8.706  48.950  20.990  1.00  0.00     0.146 A 
ATOM     11  O   UNL     1       8.730  48.599  19.710  1.00  0.00    -0.452 OA
ENDROOT
BRANCH   1  12
ATOM     12  C   UNL     1       8.683  47.078  17.838  1.00  0.00     0.025 A 
ATOM     13  C   UNL     1       7.556  46.515  17.217  1.00  0.00     0.016 A 
ATOM     14  C   UNL     1       7.566  46.242  15.846  1.00  0.00     0.051 A 
ATOM     15  C   UNL     1       8.707  46.513  15.081  1.00  0.00     0.157 A 
ATOM     16  C   UNL     1       9.834  47.329  17.069  1.00  0.00     0.062 A 
ATOM     17  C   UNL     1       9.844  47.054  15.694  1.00  0.00     0.158 A 
BRANCH  15  18
ATOM     18  O   UNL     1       8.720  46.244  13.714  1.00  0.00    -0.504 OA
ATOM     19  H   UNL     1       7.894  45.910  13.231  1.00  0.00     0.293 HD
ENDBRANCH  15  18
BRANCH  17  20
ATOM     20  O   UNL     1      10.983  47.310  14.931  1.00  0.00    -0.504 OA
ATOM     21  H   UNL     1      10.920  47.545  13.948  1.00  0.00     0.293 HD
ENDBRANCH  17  20
ENDBRANCH   1  12
BRANCH   2  22
ATOM     22  O   UNL     1       8.563  44.963  19.820  1.00  0.00    -0.502 OA
ATOM     23  H   UNL     1       8.465  44.190  20.468  1.00  0.00     0.293 HD
ENDBRANCH   2  22
BRANCH   6  24
ATOM     24  O   UNL     1       8.466  47.444  24.389  1.00  0.00    -0.507 OA
ATOM     25  H   UNL     1       7.613  46.920  24.550  1.00  0.00     0.293 HD
ENDBRANCH   6  24
BRANCH   8  26
ATOM     26  O   UNL     1       8.830  52.052  23.007  1.00  0.00    -0.508 OA
ATOM     27  H   UNL     1       9.652  52.606  22.797  1.00  0.00     0.293 HD
ENDBRANCH   8  26
TORSDOF 6
ENDMDL
MODEL 9
REMARK VINA RESULT:    -7.858      2.991      6.685
REMARK INTER + INTRA:          -9.597
REMARK INTER:                  -9.331
REMARK INTRA:                  -0.266
REMARK UNBOUND:                -0.132
REMARK SMILES O=c1c(O)c(-c2ccc(O)c(O)c2)oc2cc(O)cc(O)c12
REMARK SMILES IDX 5 1 3 2 2 3 1 4 22 5 20 6 19 7 17 8 16 9 15 10 14 11 6 12
REMARK SMILES IDX 7 13 8 14 9 15 13 16 11 17 10 18 12 20 4 22 21 24 18 26
REMARK H PARENT 10 19 12 21 4 23 21 25 18 27
REMARK Flexibility Score: inf
ROOT
ATOM      1  C   UNL     1       8.926  47.703  18.911  1.00  0.00     0.180 A 
ATOM      2  C   UNL     1       9.007  49.078  19.208  1.00  0.00     0.208 A 
ATOM      3  C   UNL     1       9.061  49.478  20.552  1.00  0.00     0.238 A 
ATOM      4  O   UNL     1       9.145  50.705  20.830  1.00  0.00    -0.285 OA
ATOM      5  C   UNL     1       9.012  48.505  21.572  1.00  0.00     0.111 A 
ATOM      6  C   UNL     1       9.057  48.827  22.950  1.00  0.00     0.134 A 
ATOM      7  C   UNL     1       8.993  47.801  23.905  1.00  0.00     0.093 A 
ATOM      8  C   UNL     1       8.886  46.465  23.511  1.00  0.00     0.123 A 
ATOM      9  C   UNL     1       8.842  46.143  22.151  1.00  0.00     0.094 A 
ATOM     10  C   UNL     1       8.905  47.149  21.184  1.00  0.00     0.146 A 
ATOM     11  O   UNL     1       8.867  46.816  19.899  1.00  0.00    -0.452 OA
ENDROOT
BRANCH   1  12
ATOM     12  C   UNL     1       8.885  47.201  17.518  1.00  0.00     0.025 A 
ATOM     13  C   UNL     1       7.694  46.650  17.018  1.00  0.00     0.016 A 
ATOM     14  C   UNL     1       7.638  46.151  15.714  1.00  0.00     0.051 A 
ATOM     15  C   UNL     1       8.776  46.181  14.897  1.00  0.00     0.157 A 
ATOM     16  C   UNL     1      10.030  47.211  16.701  1.00  0.00     0.062 A 
ATOM     17  C   UNL     1       9.974  46.709  15.393  1.00  0.00     0.158 A 
BRANCH  15  18
ATOM     18  O   UNL     1       8.723  45.687  13.595  1.00  0.00    -0.504 OA
ATOM     19  H   UNL     1       9.343  46.032  12.871  1.00  0.00     0.293 HD
ENDBRANCH  15  18
BRANCH  17  20
ATOM     20  O   UNL     1      11.108  46.725  14.582  1.00  0.00    -0.504 OA
ATOM     21  H   UNL     1      11.938  47.245  14.841  1.00  0.00     0.293 HD
ENDBRANCH  17  20
ENDBRANCH   1  12
BRANCH   2  22
ATOM     22  O   UNL     1       9.005  50.023  18.180  1.00  0.00    -0.502 OA
ATOM     23  H   UNL     1       8.586  49.840  17.275  1.00  0.00     0.293 HD
ENDBRANCH   2  22
BRANCH   6  24
ATOM     24  O   UNL     1       9.162  50.151  23.377  1.00  0.00    -0.507 OA
ATOM     25  H   UNL     1       8.671  50.488  24.197  1.00  0.00     0.293 HD
ENDBRANCH   6  24
BRANCH   8  26
ATOM     26  O   UNL     1       8.824  45.466  24.480  1.00  0.00    -0.508 OA
ATOM     27  H   UNL     1       7.937  45.117  24.825  1.00  0.00     0.293 HD
ENDBRANCH   8  26
TORSDOF 6
ENDMDL
