MODEL 1
REMARK VINA RESULT:    -7.126      0.000      0.000
REMARK INTER + INTRA:          -8.815
REMARK INTER:                  -8.584
REMARK INTRA:                  -0.231
REMARK UNBOUND:                -0.231
REMARK SMILES O=c1c(O)c(-c2ccc(O)c(O)c2)oc2cc(O)cc(O)c12
REMARK SMILES IDX 5 1 3 2 2 3 1 4 22 5 20 6 19 7 17 8 16 9 15 10 14 11 6 12
REMARK SMILES IDX 7 13 8 14 9 15 13 16 11 17 10 18 12 20 4 22 21 24 18 26
REMARK H PARENT 10 19 12 21 4 23 21 25 18 27
REMARK Flexibility Score: inf
ROOT
ATOM      1  C   UNL     1     183.834 -19.259  23.951  1.00  0.00     0.180 A 
ATOM      2  C   UNL     1     183.304 -18.011  24.320  1.00  0.00     0.208 A 
ATOM      3  C   UNL     1     184.126 -16.874  24.249  1.00  0.00     0.238 A 
ATOM      4  O   UNL     1     183.661 -15.769  24.633  1.00  0.00    -0.285 OA
ATOM      5  C   UNL     1     185.460 -16.996  23.795  1.00  0.00     0.111 A 
ATOM      6  C   UNL     1     186.369 -15.906  23.647  1.00  0.00     0.134 A 
ATOM      7  C   UNL     1     187.705 -16.161  23.314  1.00  0.00     0.093 A 
ATOM      8  C   UNL     1     188.150 -17.461  23.062  1.00  0.00     0.123 A 
ATOM      9  C   UNL     1     187.257 -18.526  23.147  1.00  0.00     0.094 A 
ATOM     10  C   UNL     1     185.925 -18.307  23.512  1.00  0.00     0.146 A 
ATOM     11  O   UNL     1     185.110 -19.352  23.591  1.00  0.00    -0.452 OA
ENDROOT
BRANCH   1  12
ATOM     12  C   UNL     1     183.024 -20.499  23.974  1.00  0.00     0.025 A 
ATOM     13  C   UNL     1     182.642 -21.100  25.186  1.00  0.00     0.016 A 
ATOM     14  C   UNL     1     181.857 -22.255  25.185  1.00  0.00     0.051 A 
ATOM     15  C   UNL     1     181.430 -22.820  23.976  1.00  0.00     0.157 A 
ATOM     16  C   UNL     1     182.577 -21.056  22.766  1.00  0.00     0.062 A 
ATOM     17  C   UNL     1     181.791 -22.214  22.761  1.00  0.00     0.158 A 
BRANCH  15  18
ATOM     18  O   UNL     1     180.649 -23.974  23.978  1.00  0.00    -0.504 OA
ATOM     19  H   UNL     1     179.690 -23.965  24.303  1.00  0.00     0.293 HD
ENDBRANCH  15  18
BRANCH  17  20
ATOM     20  O   UNL     1     181.377 -22.746  21.540  1.00  0.00    -0.504 OA
ATOM     21  H   UNL     1     180.941 -23.658  21.470  1.00  0.00     0.293 HD
ENDBRANCH  17  20
ENDBRANCH   1  12
BRANCH   2  22
ATOM     22  O   UNL     1     181.990 -17.917  24.786  1.00  0.00    -0.502 OA
ATOM     23  H   UNL     1     181.194 -18.204  24.230  1.00  0.00     0.293 HD
ENDBRANCH   2  22
BRANCH   6  24
ATOM     24  O   UNL     1     186.004 -14.563  23.785  1.00  0.00    -0.507 OA
ATOM     25  H   UNL     1     185.057 -14.230  23.867  1.00  0.00     0.293 HD
ENDBRANCH   6  24
BRANCH   8  26
ATOM     26  O   UNL     1     189.477 -17.704  22.717  1.00  0.00    -0.508 OA
ATOM     27  H   UNL     1     190.031 -17.014  22.221  1.00  0.00     0.293 HD
ENDBRANCH   8  26
TORSDOF 6
ENDMDL
MODEL 2
REMARK VINA RESULT:    -7.031     12.062     14.661
REMARK INTER + INTRA:          -8.700
REMARK INTER:                  -8.418
REMARK INTRA:                  -0.282
REMARK UNBOUND:                -0.231
REMARK SMILES O=c1c(O)c(-c2ccc(O)c(O)c2)oc2cc(O)cc(O)c12
REMARK SMILES IDX 5 1 3 2 2 3 1 4 22 5 20 6 19 7 17 8 16 9 15 10 14 11 6 12
REMARK SMILES IDX 7 13 8 14 9 15 13 16 11 17 10 18 12 20 4 22 21 24 18 26
REMARK H PARENT 10 19 12 21 4 23 21 25 18 27
REMARK Flexibility Score: inf
ROOT
ATOM      1  C   UNL     1     182.751 -25.134  35.411  1.00  0.00     0.180 A 
ATOM      2  C   UNL     1     182.976 -23.848  35.932  1.00  0.00     0.208 A 
ATOM      3  C   UNL     1     183.001 -23.673  37.325  1.00  0.00     0.238 A 
ATOM      4  O   UNL     1     183.149 -22.510  37.784  1.00  0.00    -0.285 OA
ATOM      5  C   UNL     1     182.817 -24.786  38.179  1.00  0.00     0.111 A 
ATOM      6  C   UNL     1     182.862 -24.730  39.604  1.00  0.00     0.134 A 
ATOM      7  C   UNL     1     182.536 -25.869  40.350  1.00  0.00     0.093 A 
ATOM      8  C   UNL     1     182.230 -27.079  39.723  1.00  0.00     0.123 A 
ATOM      9  C   UNL     1     182.241 -27.159  38.332  1.00  0.00     0.094 A 
ATOM     10  C   UNL     1     182.527 -26.030  37.560  1.00  0.00     0.146 A 
ATOM     11  O   UNL     1     182.517 -26.148  36.237  1.00  0.00    -0.452 OA
ENDROOT
BRANCH   1  12
ATOM     12  C   UNL     1     182.736 -25.404  33.954  1.00  0.00     0.025 A 
ATOM     13  C   UNL     1     181.623 -25.074  33.161  1.00  0.00     0.016 A 
ATOM     14  C   UNL     1     181.640 -25.314  31.785  1.00  0.00     0.051 A 
ATOM     15  C   UNL     1     182.771 -25.875  31.179  1.00  0.00     0.157 A 
ATOM     16  C   UNL     1     183.875 -25.945  33.339  1.00  0.00     0.062 A 
ATOM     17  C   UNL     1     183.896 -26.189  31.961  1.00  0.00     0.158 A 
BRANCH  15  18
ATOM     18  O   UNL     1     182.784 -26.116  29.806  1.00  0.00    -0.504 OA
ATOM     19  H   UNL     1     183.651 -26.235  29.296  1.00  0.00     0.293 HD
ENDBRANCH  15  18
BRANCH  17  20
ATOM     20  O   UNL     1     185.041 -26.741  31.388  1.00  0.00    -0.504 OA
ATOM     21  H   UNL     1     185.864 -26.963  31.936  1.00  0.00     0.293 HD
ENDBRANCH  17  20
ENDBRANCH   1  12
BRANCH   2  22
ATOM     22  O   UNL     1     183.134 -22.760  35.070  1.00  0.00    -0.502 OA
ATOM     23  H   UNL     1     183.760 -22.782  34.274  1.00  0.00     0.293 HD
ENDBRANCH   2  22
BRANCH   6  24
ATOM     24  O   UNL     1     183.246 -23.598  40.328  1.00  0.00    -0.507 OA
ATOM     25  H   UNL     1     184.199 -23.343  40.535  1.00  0.00     0.293 HD
ENDBRANCH   6  24
BRANCH   8  26
ATOM     26  O   UNL     1     181.922 -28.212  40.473  1.00  0.00    -0.508 OA
ATOM     27  H   UNL     1     181.785 -28.162  41.476  1.00  0.00     0.293 HD
ENDBRANCH   8  26
TORSDOF 6
ENDMDL
MODEL 3
REMARK VINA RESULT:    -6.927      3.474      4.372
REMARK INTER + INTRA:          -8.575
REMARK INTER:                  -8.293
REMARK INTRA:                  -0.282
REMARK UNBOUND:                -0.231
REMARK SMILES O=c1c(O)c(-c2ccc(O)c(O)c2)oc2cc(O)cc(O)c12
REMARK SMILES IDX 5 1 3 2 2 3 1 4 22 5 20 6 19 7 17 8 16 9 15 10 14 11 6 12
REMARK SMILES IDX 7 13 8 14 9 15 13 16 11 17 10 18 12 20 4 22 21 24 18 26
REMARK H PARENT 10 19 12 21 4 23 21 25 18 27
REMARK Flexibility Score: inf
ROOT
ATOM      1  C   UNL     1     181.025 -18.433  25.687  1.00  0.00     0.180 A 
ATOM      2  C   UNL     1     179.845 -17.699  25.900  1.00  0.00     0.208 A 
ATOM      3  C   UNL     1     179.941 -16.362  26.318  1.00  0.00     0.238 A 
ATOM      4  O   UNL     1     178.881 -15.727  26.559  1.00  0.00    -0.285 OA
ATOM      5  C   UNL     1     181.213 -15.771  26.503  1.00  0.00     0.111 A 
ATOM      6  C   UNL     1     181.429 -14.413  26.887  1.00  0.00     0.134 A 
ATOM      7  C   UNL     1     182.728 -13.972  27.167  1.00  0.00     0.093 A 
ATOM      8  C   UNL     1     183.826 -14.822  27.015  1.00  0.00     0.123 A 
ATOM      9  C   UNL     1     183.632 -16.132  26.584  1.00  0.00     0.094 A 
ATOM     10  C   UNL     1     182.344 -16.612  26.331  1.00  0.00     0.146 A 
ATOM     11  O   UNL     1     182.203 -17.870  25.931  1.00  0.00    -0.452 OA
ENDROOT
BRANCH   1  12
ATOM     12  C   UNL     1     181.006 -19.839  25.221  1.00  0.00     0.025 A 
ATOM     13  C   UNL     1     180.713 -20.896  26.100  1.00  0.00     0.016 A 
ATOM     14  C   UNL     1     180.677 -22.212  25.634  1.00  0.00     0.051 A 
ATOM     15  C   UNL     1     180.919 -22.491  24.282  1.00  0.00     0.157 A 
ATOM     16  C   UNL     1     181.227 -20.121  23.864  1.00  0.00     0.062 A 
ATOM     17  C   UNL     1     181.192 -21.438  23.393  1.00  0.00     0.158 A 
BRANCH  15  18
ATOM     18  O   UNL     1     180.884 -23.806  23.820  1.00  0.00    -0.504 OA
ATOM     19  H   UNL     1     181.618 -24.467  24.046  1.00  0.00     0.293 HD
ENDBRANCH  15  18
BRANCH  17  20
ATOM     20  O   UNL     1     181.430 -21.680  22.040  1.00  0.00    -0.504 OA
ATOM     21  H   UNL     1     180.783 -21.385  21.319  1.00  0.00     0.293 HD
ENDBRANCH  17  20
ENDBRANCH   1  12
BRANCH   2  22
ATOM     22  O   UNL     1     178.599 -18.308  25.732  1.00  0.00    -0.502 OA
ATOM     23  H   UNL     1     178.254 -18.602  24.826  1.00  0.00     0.293 HD
ENDBRANCH   2  22
BRANCH   6  24
ATOM     24  O   UNL     1     180.411 -13.458  26.978  1.00  0.00    -0.507 OA
ATOM     25  H   UNL     1     180.401 -12.579  26.484  1.00  0.00     0.293 HD
ENDBRANCH   6  24
BRANCH   8  26
ATOM     26  O   UNL     1     185.117 -14.370  27.281  1.00  0.00    -0.508 OA
ATOM     27  H   UNL     1     185.813 -14.291  26.548  1.00  0.00     0.293 HD
ENDBRANCH   8  26
TORSDOF 6
ENDMDL
MODEL 4
REMARK VINA RESULT:    -6.898      1.546      7.008
REMARK INTER + INTRA:          -8.540
REMARK INTER:                  -8.565
REMARK INTRA:                   0.025
REMARK UNBOUND:                -0.231
REMARK SMILES O=c1c(O)c(-c2ccc(O)c(O)c2)oc2cc(O)cc(O)c12
REMARK SMILES IDX 5 1 3 2 2 3 1 4 22 5 20 6 19 7 17 8 16 9 15 10 14 11 6 12
REMARK SMILES IDX 7 13 8 14 9 15 13 16 11 17 10 18 12 20 4 22 21 24 18 26
REMARK H PARENT 10 19 12 21 4 23 21 25 18 27
REMARK Flexibility Score: inf
ROOT
ATOM      1  C   UNL     1     183.639 -19.401  24.535  1.00  0.00     0.180 A 
ATOM      2  C   UNL     1     183.226 -19.666  25.852  1.00  0.00     0.208 A 
ATOM      3  C   UNL     1     182.425 -20.792  26.101  1.00  0.00     0.238 A 
ATOM      4  O   UNL     1     182.013 -20.993  27.274  1.00  0.00    -0.285 OA
ATOM      5  C   UNL     1     182.058 -21.647  25.035  1.00  0.00     0.111 A 
ATOM      6  C   UNL     1     181.282 -22.836  25.178  1.00  0.00     0.134 A 
ATOM      7  C   UNL     1     180.871 -23.534  24.036  1.00  0.00     0.093 A 
ATOM      8  C   UNL     1     181.261 -23.122  22.759  1.00  0.00     0.123 A 
ATOM      9  C   UNL     1     182.068 -21.996  22.613  1.00  0.00     0.094 A 
ATOM     10  C   UNL     1     182.465 -21.258  23.731  1.00  0.00     0.146 A 
ATOM     11  O   UNL     1     183.226 -20.185  23.545  1.00  0.00    -0.452 OA
ENDROOT
BRANCH   1  12
ATOM     12  C   UNL     1     184.506 -18.249  24.196  1.00  0.00     0.025 A 
ATOM     13  C   UNL     1     185.657 -18.407  23.406  1.00  0.00     0.016 A 
ATOM     14  C   UNL     1     186.447 -17.302  23.078  1.00  0.00     0.051 A 
ATOM     15  C   UNL     1     186.092 -16.022  23.524  1.00  0.00     0.157 A 
ATOM     16  C   UNL     1     184.142 -16.962  24.622  1.00  0.00     0.062 A 
ATOM     17  C   UNL     1     184.931 -15.853  24.297  1.00  0.00     0.158 A 
BRANCH  15  18
ATOM     18  O   UNL     1     186.883 -14.922  23.198  1.00  0.00    -0.504 OA
ATOM     19  H   UNL     1     187.326 -14.357  23.912  1.00  0.00     0.293 HD
ENDBRANCH  15  18
BRANCH  17  20
ATOM     20  O   UNL     1     184.545 -14.591  24.750  1.00  0.00    -0.504 OA
ATOM     21  H   UNL     1     185.220 -13.865  24.961  1.00  0.00     0.293 HD
ENDBRANCH  17  20
ENDBRANCH   1  12
BRANCH   2  22
ATOM     22  O   UNL     1     183.581 -18.797  26.887  1.00  0.00    -0.502 OA
ATOM     23  H   UNL     1     182.895 -18.373  27.501  1.00  0.00     0.293 HD
ENDBRANCH   2  22
BRANCH   6  24
ATOM     24  O   UNL     1     180.918 -23.385  26.411  1.00  0.00    -0.507 OA
ATOM     25  H   UNL     1     180.991 -22.909  27.297  1.00  0.00     0.293 HD
ENDBRANCH   6  24
BRANCH   8  26
ATOM     26  O   UNL     1     180.860 -23.831  21.630  1.00  0.00    -0.508 OA
ATOM     27  H   UNL     1     180.949 -23.441  20.699  1.00  0.00     0.293 HD
ENDBRANCH   8  26
TORSDOF 6
ENDMDL
MODEL 5
REMARK VINA RESULT:    -6.854      5.786      8.049
REMARK INTER + INTRA:          -8.488
REMARK INTER:                  -8.176
REMARK INTRA:                  -0.312
REMARK UNBOUND:                -0.231
REMARK SMILES O=c1c(O)c(-c2ccc(O)c(O)c2)oc2cc(O)cc(O)c12
REMARK SMILES IDX 5 1 3 2 2 3 1 4 22 5 20 6 19 7 17 8 16 9 15 10 14 11 6 12
REMARK SMILES IDX 7 13 8 14 9 15 13 16 11 17 10 18 12 20 4 22 21 24 18 26
REMARK H PARENT 10 19 12 21 4 23 21 25 18 27
REMARK Flexibility Score: inf
ROOT
ATOM      1  C   UNL     1     180.004 -14.563  26.794  1.00  0.00     0.180 A 
ATOM      2  C   UNL     1     179.932 -15.866  26.272  1.00  0.00     0.208 A 
ATOM      3  C   UNL     1     181.112 -16.492  25.836  1.00  0.00     0.238 A 
ATOM      4  O   UNL     1     181.032 -17.637  25.320  1.00  0.00    -0.285 OA
ATOM      5  C   UNL     1     182.349 -15.814  25.942  1.00  0.00     0.111 A 
ATOM      6  C   UNL     1     183.611 -16.367  25.568  1.00  0.00     0.134 A 
ATOM      7  C   UNL     1     184.754 -15.559  25.594  1.00  0.00     0.093 A 
ATOM      8  C   UNL     1     184.692 -14.237  26.042  1.00  0.00     0.123 A 
ATOM      9  C   UNL     1     183.476 -13.706  26.465  1.00  0.00     0.094 A 
ATOM     10  C   UNL     1     182.311 -14.477  26.417  1.00  0.00     0.146 A 
ATOM     11  O   UNL     1     181.171 -13.929  26.820  1.00  0.00    -0.452 OA
ENDROOT
BRANCH   1  12
ATOM     12  C   UNL     1     178.809 -13.848  27.297  1.00  0.00     0.025 A 
ATOM     13  C   UNL     1     178.085 -12.967  26.474  1.00  0.00     0.016 A 
ATOM     14  C   UNL     1     176.946 -12.321  26.962  1.00  0.00     0.051 A 
ATOM     15  C   UNL     1     176.506 -12.555  28.272  1.00  0.00     0.157 A 
ATOM     16  C   UNL     1     178.352 -14.095  28.601  1.00  0.00     0.062 A 
ATOM     17  C   UNL     1     177.213 -13.449  29.093  1.00  0.00     0.158 A 
BRANCH  15  18
ATOM     18  O   UNL     1     175.371 -11.907  28.756  1.00  0.00    -0.504 OA
ATOM     19  H   UNL     1     175.013 -12.088  29.686  1.00  0.00     0.293 HD
ENDBRANCH  15  18
BRANCH  17  20
ATOM     20  O   UNL     1     176.798 -13.710  30.399  1.00  0.00    -0.504 OA
ATOM     21  H   UNL     1     176.724 -12.979  31.096  1.00  0.00     0.293 HD
ENDBRANCH  17  20
ENDBRANCH   1  12
BRANCH   2  22
ATOM     22  O   UNL     1     178.697 -16.509  26.156  1.00  0.00    -0.502 OA
ATOM     23  H   UNL     1     178.162 -16.509  25.296  1.00  0.00     0.293 HD
ENDBRANCH   2  22
BRANCH   6  24
ATOM     24  O   UNL     1     183.797 -17.702  25.195  1.00  0.00    -0.507 OA
ATOM     25  H   UNL     1     183.886 -18.472  25.838  1.00  0.00     0.293 HD
ENDBRANCH   6  24
BRANCH   8  26
ATOM     26  O   UNL     1     185.837 -13.445  26.080  1.00  0.00    -0.508 OA
ATOM     27  H   UNL     1     186.761 -13.842  25.952  1.00  0.00     0.293 HD
ENDBRANCH   8  26
TORSDOF 6
ENDMDL
MODEL 6
REMARK VINA RESULT:    -6.846      4.347      6.968
REMARK INTER + INTRA:          -8.478
REMARK INTER:                  -8.156
REMARK INTRA:                  -0.322
REMARK UNBOUND:                -0.231
REMARK SMILES O=c1c(O)c(-c2ccc(O)c(O)c2)oc2cc(O)cc(O)c12
REMARK SMILES IDX 5 1 3 2 2 3 1 4 22 5 20 6 19 7 17 8 16 9 15 10 14 11 6 12
REMARK SMILES IDX 7 13 8 14 9 15 13 16 11 17 10 18 12 20 4 22 21 24 18 26
REMARK H PARENT 10 19 12 21 4 23 21 25 18 27
REMARK Flexibility Score: inf
ROOT
ATOM      1  C   UNL     1     181.673 -22.868  27.884  1.00  0.00     0.180 A 
ATOM      2  C   UNL     1     180.560 -22.981  27.034  1.00  0.00     0.208 A 
ATOM      3  C   UNL     1     180.660 -22.512  25.715  1.00  0.00     0.238 A 
ATOM      4  O   UNL     1     179.642 -22.567  24.975  1.00  0.00    -0.285 OA
ATOM      5  C   UNL     1     181.874 -21.949  25.257  1.00  0.00     0.111 A 
ATOM      6  C   UNL     1     182.100 -21.477  23.929  1.00  0.00     0.134 A 
ATOM      7  C   UNL     1     183.298 -20.820  23.624  1.00  0.00     0.093 A 
ATOM      8  C   UNL     1     184.305 -20.676  24.581  1.00  0.00     0.123 A 
ATOM      9  C   UNL     1     184.118 -21.185  25.864  1.00  0.00     0.094 A 
ATOM     10  C   UNL     1     182.919 -21.814  26.209  1.00  0.00     0.146 A 
ATOM     11  O   UNL     1     182.778 -22.276  27.446  1.00  0.00    -0.452 OA
ENDROOT
BRANCH   1  12
ATOM     12  C   UNL     1     181.654 -23.363  29.280  1.00  0.00     0.025 A 
ATOM     13  C   UNL     1     181.205 -22.552  30.337  1.00  0.00     0.016 A 
ATOM     14  C   UNL     1     181.172 -23.048  31.643  1.00  0.00     0.051 A 
ATOM     15  C   UNL     1     181.574 -24.363  31.911  1.00  0.00     0.157 A 
ATOM     16  C   UNL     1     182.035 -24.687  29.550  1.00  0.00     0.062 A 
ATOM     17  C   UNL     1     182.004 -25.187  30.857  1.00  0.00     0.158 A 
BRANCH  15  18
ATOM     18  O   UNL     1     181.542 -24.855  33.215  1.00  0.00    -0.504 OA
ATOM     19  H   UNL     1     180.722 -24.753  33.800  1.00  0.00     0.293 HD
ENDBRANCH  15  18
BRANCH  17  20
ATOM     20  O   UNL     1     182.404 -26.503  31.088  1.00  0.00    -0.504 OA
ATOM     21  H   UNL     1     183.364 -26.744  31.305  1.00  0.00     0.293 HD
ENDBRANCH  17  20
ENDBRANCH   1  12
BRANCH   2  22
ATOM     22  O   UNL     1     179.363 -23.520  27.513  1.00  0.00    -0.502 OA
ATOM     23  H   UNL     1     178.460 -23.110  27.307  1.00  0.00     0.293 HD
ENDBRANCH   2  22
BRANCH   6  24
ATOM     24  O   UNL     1     181.197 -21.653  22.875  1.00  0.00    -0.507 OA
ATOM     25  H   UNL     1     180.880 -20.920  22.262  1.00  0.00     0.293 HD
ENDBRANCH   6  24
BRANCH   8  26
ATOM     26  O   UNL     1     185.501 -20.034  24.264  1.00  0.00    -0.508 OA
ATOM     27  H   UNL     1     186.393 -20.381  24.597  1.00  0.00     0.293 HD
ENDBRANCH   8  26
TORSDOF 6
ENDMDL
MODEL 7
REMARK VINA RESULT:    -6.756      4.437      7.978
REMARK INTER + INTRA:          -8.369
REMARK INTER:                  -8.133
REMARK INTRA:                  -0.236
REMARK UNBOUND:                -0.231
REMARK SMILES O=c1c(O)c(-c2ccc(O)c(O)c2)oc2cc(O)cc(O)c12
REMARK SMILES IDX 5 1 3 2 2 3 1 4 22 5 20 6 19 7 17 8 16 9 15 10 14 11 6 12
REMARK SMILES IDX 7 13 8 14 9 15 13 16 11 17 10 18 12 20 4 22 21 24 18 26
REMARK H PARENT 10 19 12 21 4 23 21 25 18 27
REMARK Flexibility Score: inf
ROOT
ATOM      1  C   UNL     1     180.167 -17.174  26.239  1.00  0.00     0.180 A 
ATOM      2  C   UNL     1     181.376 -17.123  25.524  1.00  0.00     0.208 A 
ATOM      3  C   UNL     1     181.779 -18.248  24.786  1.00  0.00     0.238 A 
ATOM      4  O   UNL     1     182.889 -18.215  24.192  1.00  0.00    -0.285 OA
ATOM      5  C   UNL     1     180.963 -19.404  24.761  1.00  0.00     0.111 A 
ATOM      6  C   UNL     1     181.254 -20.586  24.017  1.00  0.00     0.134 A 
ATOM      7  C   UNL     1     180.442 -21.716  24.170  1.00  0.00     0.093 A 
ATOM      8  C   UNL     1     179.312 -21.686  24.990  1.00  0.00     0.123 A 
ATOM      9  C   UNL     1     178.985 -20.518  25.675  1.00  0.00     0.094 A 
ATOM     10  C   UNL     1     179.798 -19.385  25.571  1.00  0.00     0.146 A 
ATOM     11  O   UNL     1     179.455 -18.295  26.249  1.00  0.00    -0.452 OA
ENDROOT
BRANCH   1  12
ATOM     12  C   UNL     1     179.663 -16.020  27.019  1.00  0.00     0.025 A 
ATOM     13  C   UNL     1     179.712 -16.009  28.423  1.00  0.00     0.016 A 
ATOM     14  C   UNL     1     179.253 -14.900  29.138  1.00  0.00     0.051 A 
ATOM     15  C   UNL     1     178.750 -13.781  28.460  1.00  0.00     0.157 A 
ATOM     16  C   UNL     1     179.179 -14.888  26.344  1.00  0.00     0.062 A 
ATOM     17  C   UNL     1     178.717 -13.776  27.056  1.00  0.00     0.158 A 
BRANCH  15  18
ATOM     18  O   UNL     1     178.291 -12.676  29.176  1.00  0.00    -0.504 OA
ATOM     19  H   UNL     1     177.732 -12.782  30.013  1.00  0.00     0.293 HD
ENDBRANCH  15  18
BRANCH  17  20
ATOM     20  O   UNL     1     178.230 -12.675  26.351  1.00  0.00    -0.504 OA
ATOM     21  H   UNL     1     178.512 -12.478  25.398  1.00  0.00     0.293 HD
ENDBRANCH  17  20
ENDBRANCH   1  12
BRANCH   2  22
ATOM     22  O   UNL     1     182.177 -15.980  25.580  1.00  0.00    -0.502 OA
ATOM     23  H   UNL     1     183.009 -15.870  25.012  1.00  0.00     0.293 HD
ENDBRANCH   2  22
BRANCH   6  24
ATOM     24  O   UNL     1     182.305 -20.691  23.100  1.00  0.00    -0.507 OA
ATOM     25  H   UNL     1     182.224 -21.085  22.176  1.00  0.00     0.293 HD
ENDBRANCH   6  24
BRANCH   8  26
ATOM     26  O   UNL     1     178.500 -22.810  25.124  1.00  0.00    -0.508 OA
ATOM     27  H   UNL     1     177.496 -22.757  25.002  1.00  0.00     0.293 HD
ENDBRANCH   8  26
TORSDOF 6
ENDMDL
MODEL 8
REMARK VINA RESULT:    -6.730      4.771      7.772
REMARK INTER + INTRA:          -8.338
REMARK INTER:                  -8.035
REMARK INTRA:                  -0.303
REMARK UNBOUND:                -0.231
REMARK SMILES O=c1c(O)c(-c2ccc(O)c(O)c2)oc2cc(O)cc(O)c12
REMARK SMILES IDX 5 1 3 2 2 3 1 4 22 5 20 6 19 7 17 8 16 9 15 10 14 11 6 12
REMARK SMILES IDX 7 13 8 14 9 15 13 16 11 17 10 18 12 20 4 22 21 24 18 26
REMARK H PARENT 10 19 12 21 4 23 21 25 18 27
REMARK Flexibility Score: inf
ROOT
ATOM      1  C   UNL     1     183.419 -19.940  28.228  1.00  0.00     0.180 A 
ATOM      2  C   UNL     1     183.969 -20.860  27.319  1.00  0.00     0.208 A 
ATOM      3  C   UNL     1     183.287 -21.123  26.120  1.00  0.00     0.238 A 
ATOM      4  O   UNL     1     183.757 -21.988  25.335  1.00  0.00    -0.285 OA
ATOM      5  C   UNL     1     182.072 -20.454  25.838  1.00  0.00     0.111 A 
ATOM      6  C   UNL     1     181.317 -20.616  24.638  1.00  0.00     0.134 A 
ATOM      7  C   UNL     1     180.064 -20.002  24.523  1.00  0.00     0.093 A 
ATOM      8  C   UNL     1     179.567 -19.181  25.538  1.00  0.00     0.123 A 
ATOM      9  C   UNL     1     180.323 -18.970  26.689  1.00  0.00     0.094 A 
ATOM     10  C   UNL     1     181.561 -19.598  26.848  1.00  0.00     0.146 A 
ATOM     11  O   UNL     1     182.245 -19.377  27.965  1.00  0.00    -0.452 OA
ENDROOT
BRANCH   1  12
ATOM     12  C   UNL     1     184.091 -19.590  29.501  1.00  0.00     0.025 A 
ATOM     13  C   UNL     1     183.743 -20.219  30.709  1.00  0.00     0.016 A 
ATOM     14  C   UNL     1     184.407 -19.891  31.893  1.00  0.00     0.051 A 
ATOM     15  C   UNL     1     185.438 -18.942  31.887  1.00  0.00     0.157 A 
ATOM     16  C   UNL     1     185.139 -18.656  29.495  1.00  0.00     0.062 A 
ATOM     17  C   UNL     1     185.806 -18.324  30.680  1.00  0.00     0.158 A 
BRANCH  15  18
ATOM     18  O   UNL     1     186.097 -18.615  33.070  1.00  0.00    -0.504 OA
ATOM     19  H   UNL     1     186.078 -19.229  33.875  1.00  0.00     0.293 HD
ENDBRANCH  15  18
BRANCH  17  20
ATOM     20  O   UNL     1     186.832 -17.381  30.637  1.00  0.00    -0.504 OA
ATOM     21  H   UNL     1     187.650 -17.501  30.052  1.00  0.00     0.293 HD
ENDBRANCH  17  20
ENDBRANCH   1  12
BRANCH   2  22
ATOM     22  O   UNL     1     185.158 -21.525  27.626  1.00  0.00    -0.502 OA
ATOM     23  H   UNL     1     185.989 -21.450  27.051  1.00  0.00     0.293 HD
ENDBRANCH   2  22
BRANCH   6  24
ATOM     24  O   UNL     1     181.763 -21.338  23.527  1.00  0.00    -0.507 OA
ATOM     25  H   UNL     1     181.333 -22.181  23.179  1.00  0.00     0.293 HD
ENDBRANCH   6  24
BRANCH   8  26
ATOM     26  O   UNL     1     178.326 -18.562  25.409  1.00  0.00    -0.508 OA
ATOM     27  H   UNL     1     177.468 -19.032  25.675  1.00  0.00     0.293 HD
ENDBRANCH   8  26
TORSDOF 6
ENDMDL
MODEL 9
REMARK VINA RESULT:    -6.674      4.247      7.663
REMARK INTER + INTRA:          -8.271
REMARK INTER:                  -7.970
REMARK INTRA:                  -0.300
REMARK UNBOUND:                -0.231
REMARK SMILES O=c1c(O)c(-c2ccc(O)c(O)c2)oc2cc(O)cc(O)c12
REMARK SMILES IDX 5 1 3 2 2 3 1 4 22 5 20 6 19 7 17 8 16 9 15 10 14 11 6 12
REMARK SMILES IDX 7 13 8 14 9 15 13 16 11 17 10 18 12 20 4 22 21 24 18 26
REMARK H PARENT 10 19 12 21 4 23 21 25 18 27
REMARK Flexibility Score: inf
ROOT
ATOM      1  C   UNL     1     180.848 -18.098  26.431  1.00  0.00     0.180 A 
ATOM      2  C   UNL     1     180.196 -18.957  27.333  1.00  0.00     0.208 A 
ATOM      3  C   UNL     1     179.991 -20.298  26.970  1.00  0.00     0.238 A 
ATOM      4  O   UNL     1     179.359 -21.048  27.759  1.00  0.00    -0.285 OA
ATOM      5  C   UNL     1     180.453 -20.767  25.717  1.00  0.00     0.111 A 
ATOM      6  C   UNL     1     180.334 -22.115  25.263  1.00  0.00     0.134 A 
ATOM      7  C   UNL     1     180.710 -22.437  23.953  1.00  0.00     0.093 A 
ATOM      8  C   UNL     1     181.261 -21.475  23.103  1.00  0.00     0.123 A 
ATOM      9  C   UNL     1     181.436 -20.170  23.557  1.00  0.00     0.094 A 
ATOM     10  C   UNL     1     181.036 -19.809  24.848  1.00  0.00     0.146 A 
ATOM     11  O   UNL     1     181.212 -18.552  25.237  1.00  0.00    -0.452 OA
ENDROOT
BRANCH   1  12
ATOM     12  C   UNL     1     181.123 -16.679  26.752  1.00  0.00     0.025 A 
ATOM     13  C   UNL     1     182.391 -16.261  27.190  1.00  0.00     0.016 A 
ATOM     14  C   UNL     1     182.635 -14.913  27.464  1.00  0.00     0.051 A 
ATOM     15  C   UNL     1     181.622 -13.961  27.291  1.00  0.00     0.157 A 
ATOM     16  C   UNL     1     180.117 -15.719  26.560  1.00  0.00     0.062 A 
ATOM     17  C   UNL     1     180.357 -14.368  26.834  1.00  0.00     0.158 A 
BRANCH  15  18
ATOM     18  O   UNL     1     181.867 -12.617  27.568  1.00  0.00    -0.504 OA
ATOM     19  H   UNL     1     181.516 -12.175  28.409  1.00  0.00     0.293 HD
ENDBRANCH  15  18
BRANCH  17  20
ATOM     20  O   UNL     1     179.329 -13.445  26.645  1.00  0.00    -0.504 OA
ATOM     21  H   UNL     1     178.396 -13.595  27.011  1.00  0.00     0.293 HD
ENDBRANCH  17  20
ENDBRANCH   1  12
BRANCH   2  22
ATOM     22  O   UNL     1     179.728 -18.467  28.555  1.00  0.00    -0.502 OA
ATOM     23  H   UNL     1     180.098 -18.782  29.445  1.00  0.00     0.293 HD
ENDBRANCH   2  22
BRANCH   6  24
ATOM     24  O   UNL     1     179.884 -23.170  26.061  1.00  0.00    -0.507 OA
ATOM     25  H   UNL     1     179.643 -23.091  27.037  1.00  0.00     0.293 HD
ENDBRANCH   6  24
BRANCH   8  26
ATOM     26  O   UNL     1     181.646 -21.808  21.807  1.00  0.00    -0.508 OA
ATOM     27  H   UNL     1     182.248 -22.602  21.620  1.00  0.00     0.293 HD
ENDBRANCH   8  26
TORSDOF 6
ENDMDL
