MODEL 1
REMARK VINA RESULT:    -4.039      0.000      0.000
REMARK INTER + INTRA:          -4.157
REMARK INTER:                  -4.157
REMARK INTRA:                   0.000
REMARK UNBOUND:                 0.000
REMARK SMILES O=c1ccc2ccc(O)cc2o1
REMARK SMILES IDX 6 1 7 2 8 3 10 4 11 5 5 6 4 7 3 8 2 9 1 10 12 11 9 12
REMARK H PARENT 9 13
REMARK Flexibility Score: inf
ROOT
ATOM      1  C   UNL     1      12.121  41.279 151.050  1.00  0.00     0.016 A 
ATOM      2  C   UNL     1      11.587  40.155 150.412  1.00  0.00     0.047 A 
ATOM      3  C   UNL     1      10.546  39.429 151.012  1.00  0.00     0.119 A 
ATOM      4  C   UNL     1      10.042  39.829 152.254  1.00  0.00     0.094 A 
ATOM      5  C   UNL     1      10.570  40.953 152.900  1.00  0.00     0.142 A 
ATOM      6  C   UNL     1      11.617  41.682 152.294  1.00  0.00     0.018 A 
ATOM      7  C   UNL     1      12.125  42.800 152.964  1.00  0.00     0.019 A 
ATOM      8  C   UNL     1      11.588  43.159 154.200  1.00  0.00     0.094 A 
ATOM      9  C   UNL     1      10.552  42.390 154.739  1.00  0.00     0.336 A 
ATOM     10  O   UNL     1      10.055  42.698 155.854  1.00  0.00    -0.246 OA
ATOM     11  O   UNL     1      10.086  41.331 154.082  1.00  0.00    -0.423 OA
ENDROOT
BRANCH   3  12
ATOM     12  O   UNL     1      10.010  38.309 150.382  1.00  0.00    -0.508 OA
ATOM     13  H   UNL     1      10.582  37.697 149.812  1.00  0.00     0.293 HD
ENDBRANCH   3  12
TORSDOF 1
ENDMDL
MODEL 2
REMARK VINA RESULT:    -4.007      1.789      4.769
REMARK INTER + INTRA:          -4.124
REMARK INTER:                  -4.124
REMARK INTRA:                   0.000
REMARK UNBOUND:                 0.000
REMARK SMILES O=c1ccc2ccc(O)cc2o1
REMARK SMILES IDX 6 1 7 2 8 3 10 4 11 5 5 6 4 7 3 8 2 9 1 10 12 11 9 12
REMARK H PARENT 9 13
REMARK Flexibility Score: inf
ROOT
ATOM      1  C   UNL     1      10.345  41.906 153.979  1.00  0.00     0.016 A 
ATOM      2  C   UNL     1      11.018  43.079 154.337  1.00  0.00     0.047 A 
ATOM      3  C   UNL     1      12.092  43.542 153.562  1.00  0.00     0.119 A 
ATOM      4  C   UNL     1      12.494  42.827 152.427  1.00  0.00     0.094 A 
ATOM      5  C   UNL     1      11.826  41.653 152.062  1.00  0.00     0.142 A 
ATOM      6  C   UNL     1      10.745  41.188 152.844  1.00  0.00     0.018 A 
ATOM      7  C   UNL     1      10.099  40.012 152.454  1.00  0.00     0.019 A 
ATOM      8  C   UNL     1      10.536  39.336 151.315  1.00  0.00     0.094 A 
ATOM      9  C   UNL     1      11.613  39.855 150.590  1.00  0.00     0.336 A 
ATOM     10  O   UNL     1      12.022  39.258 149.559  1.00  0.00    -0.246 OA
ATOM     11  O   UNL     1      12.212  40.976 150.982  1.00  0.00    -0.423 OA
ENDROOT
BRANCH   3  12
ATOM     12  O   UNL     1      12.767  44.709 153.912  1.00  0.00    -0.508 OA
ATOM     13  H   UNL     1      13.740  44.852 153.667  1.00  0.00     0.293 HD
ENDBRANCH   3  12
TORSDOF 1
ENDMDL
MODEL 3
REMARK VINA RESULT:    -3.988      0.765      4.218
REMARK INTER + INTRA:          -4.104
REMARK INTER:                  -4.104
REMARK INTRA:                   0.000
REMARK UNBOUND:                 0.000
REMARK SMILES O=c1ccc2ccc(O)cc2o1
REMARK SMILES IDX 6 1 7 2 8 3 10 4 11 5 5 6 4 7 3 8 2 9 1 10 12 11 9 12
REMARK H PARENT 9 13
REMARK Flexibility Score: inf
ROOT
ATOM      1  C   UNL     1      12.006  42.726 152.929  1.00  0.00     0.016 A 
ATOM      2  C   UNL     1      11.379  43.092 154.125  1.00  0.00     0.047 A 
ATOM      3  C   UNL     1      10.330  42.315 154.639  1.00  0.00     0.119 A 
ATOM      4  C   UNL     1       9.907  41.170 153.955  1.00  0.00     0.094 A 
ATOM      5  C   UNL     1      10.529  40.796 152.758  1.00  0.00     0.142 A 
ATOM      6  C   UNL     1      11.585  41.579 152.241  1.00  0.00     0.018 A 
ATOM      7  C   UNL     1      12.186  41.181 151.044  1.00  0.00     0.019 A 
ATOM      8  C   UNL     1      11.730  40.031 150.399  1.00  0.00     0.094 A 
ATOM      9  C   UNL     1      10.680  39.305 150.969  1.00  0.00     0.336 A 
ATOM     10  O   UNL     1      10.254  38.265 150.401  1.00  0.00    -0.246 OA
ATOM     11  O   UNL     1      10.125  39.706 152.110  1.00  0.00    -0.423 OA
ENDROOT
BRANCH   3  12
ATOM     12  O   UNL     1       9.701  42.674 155.829  1.00  0.00    -0.508 OA
ATOM     13  H   UNL     1       9.293  43.593 155.956  1.00  0.00     0.293 HD
ENDBRANCH   3  12
TORSDOF 1
ENDMDL
MODEL 4
REMARK VINA RESULT:    -3.950      1.708      2.141
REMARK INTER + INTRA:          -4.066
REMARK INTER:                  -4.066
REMARK INTRA:                   0.000
REMARK UNBOUND:                 0.000
REMARK SMILES O=c1ccc2ccc(O)cc2o1
REMARK SMILES IDX 6 1 7 2 8 3 10 4 11 5 5 6 4 7 3 8 2 9 1 10 12 11 9 12
REMARK H PARENT 9 13
REMARK Flexibility Score: inf
ROOT
ATOM      1  C   UNL     1      12.197  40.980 149.088  1.00  0.00     0.016 A 
ATOM      2  C   UNL     1      11.829  39.632 149.030  1.00  0.00     0.047 A 
ATOM      3  C   UNL     1      11.466  38.947 150.199  1.00  0.00     0.119 A 
ATOM      4  C   UNL     1      11.472  39.613 151.430  1.00  0.00     0.094 A 
ATOM      5  C   UNL     1      11.837  40.963 151.497  1.00  0.00     0.142 A 
ATOM      6  C   UNL     1      12.203  41.651 150.319  1.00  0.00     0.018 A 
ATOM      7  C   UNL     1      12.564  42.997 150.418  1.00  0.00     0.019 A 
ATOM      8  C   UNL     1      12.553  43.618 151.667  1.00  0.00     0.094 A 
ATOM      9  C   UNL     1      12.180  42.874 152.792  1.00  0.00     0.336 A 
ATOM     10  O   UNL     1      12.164  43.417 153.927  1.00  0.00    -0.246 OA
ATOM     11  O   UNL     1      11.840  41.594 152.670  1.00  0.00    -0.423 OA
ENDROOT
BRANCH   3  12
ATOM     12  O   UNL     1      11.100  37.604 150.148  1.00  0.00    -0.508 OA
ATOM     13  H   UNL     1      11.600  36.898 150.677  1.00  0.00     0.293 HD
ENDBRANCH   3  12
TORSDOF 1
ENDMDL
MODEL 5
REMARK VINA RESULT:    -3.859     14.047     14.507
REMARK INTER + INTRA:          -3.972
REMARK INTER:                  -3.972
REMARK INTRA:                   0.000
REMARK UNBOUND:                 0.000
REMARK SMILES O=c1ccc2ccc(O)cc2o1
REMARK SMILES IDX 6 1 7 2 8 3 10 4 11 5 5 6 4 7 3 8 2 9 1 10 12 11 9 12
REMARK H PARENT 9 13
REMARK Flexibility Score: inf
ROOT
ATOM      1  C   UNL     1      10.483  38.181 139.079  1.00  0.00     0.016 A 
ATOM      2  C   UNL     1      11.708  37.584 138.763  1.00  0.00     0.047 A 
ATOM      3  C   UNL     1      11.832  36.187 138.753  1.00  0.00     0.119 A 
ATOM      4  C   UNL     1      10.727  35.385 139.062  1.00  0.00     0.094 A 
ATOM      5  C   UNL     1       9.497  35.974 139.379  1.00  0.00     0.142 A 
ATOM      6  C   UNL     1       9.374  37.381 139.388  1.00  0.00     0.018 A 
ATOM      7  C   UNL     1       8.134  37.939 139.709  1.00  0.00     0.019 A 
ATOM      8  C   UNL     1       7.062  37.099 140.009  1.00  0.00     0.094 A 
ATOM      9  C   UNL     1       7.257  35.714 139.981  1.00  0.00     0.336 A 
ATOM     10  O   UNL     1       6.302  34.939 140.249  1.00  0.00    -0.246 OA
ATOM     11  O   UNL     1       8.448  35.208 139.672  1.00  0.00    -0.423 OA
ENDROOT
BRANCH   3  12
ATOM     12  O   UNL     1      13.048  35.586 138.440  1.00  0.00    -0.508 OA
ATOM     13  H   UNL     1      13.808  36.113 138.026  1.00  0.00     0.293 HD
ENDBRANCH   3  12
TORSDOF 1
ENDMDL
MODEL 6
REMARK VINA RESULT:    -3.778      1.551      2.229
REMARK INTER + INTRA:          -3.888
REMARK INTER:                  -3.888
REMARK INTRA:                   0.000
REMARK UNBOUND:                 0.000
REMARK SMILES O=c1ccc2ccc(O)cc2o1
REMARK SMILES IDX 6 1 7 2 8 3 10 4 11 5 5 6 4 7 3 8 2 9 1 10 12 11 9 12
REMARK H PARENT 9 13
REMARK Flexibility Score: inf
ROOT
ATOM      1  C   UNL     1       9.515  40.101 152.518  1.00  0.00     0.016 A 
ATOM      2  C   UNL     1       9.857  39.295 151.427  1.00  0.00     0.047 A 
ATOM      3  C   UNL     1      11.093  39.462 150.785  1.00  0.00     0.119 A 
ATOM      4  C   UNL     1      11.988  40.438 151.236  1.00  0.00     0.094 A 
ATOM      5  C   UNL     1      11.655  41.249 152.327  1.00  0.00     0.142 A 
ATOM      6  C   UNL     1      10.410  41.080 152.972  1.00  0.00     0.018 A 
ATOM      7  C   UNL     1      10.105  41.905 154.059  1.00  0.00     0.019 A 
ATOM      8  C   UNL     1      11.031  42.863 154.472  1.00  0.00     0.094 A 
ATOM      9  C   UNL     1      12.245  42.974 153.785  1.00  0.00     0.336 A 
ATOM     10  O   UNL     1      13.093  43.833 154.142  1.00  0.00    -0.246 OA
ATOM     11  O   UNL     1      12.511  42.176 152.753  1.00  0.00    -0.423 OA
ENDROOT
BRANCH   3  12
ATOM     12  O   UNL     1      11.439  38.663 149.698  1.00  0.00    -0.508 OA
ATOM     13  H   UNL     1      11.614  37.670 149.805  1.00  0.00     0.293 HD
ENDBRANCH   3  12
TORSDOF 1
ENDMDL
MODEL 7
REMARK VINA RESULT:    -3.757      1.837      2.711
REMARK INTER + INTRA:          -3.867
REMARK INTER:                  -3.867
REMARK INTRA:                   0.000
REMARK UNBOUND:                 0.000
REMARK SMILES O=c1ccc2ccc(O)cc2o1
REMARK SMILES IDX 6 1 7 2 8 3 10 4 11 5 5 6 4 7 3 8 2 9 1 10 12 11 9 12
REMARK H PARENT 9 13
REMARK Flexibility Score: inf
ROOT
ATOM      1  C   UNL     1       9.247  38.961 150.376  1.00  0.00     0.016 A 
ATOM      2  C   UNL     1      10.394  38.533 149.698  1.00  0.00     0.047 A 
ATOM      3  C   UNL     1      11.667  38.896 150.163  1.00  0.00     0.119 A 
ATOM      4  C   UNL     1      11.792  39.690 151.309  1.00  0.00     0.094 A 
ATOM      5  C   UNL     1      10.650  40.122 151.993  1.00  0.00     0.142 A 
ATOM      6  C   UNL     1       9.369  39.756 151.524  1.00  0.00     0.018 A 
ATOM      7  C   UNL     1       8.248  40.203 152.228  1.00  0.00     0.019 A 
ATOM      8  C   UNL     1       8.424  40.992 153.365  1.00  0.00     0.094 A 
ATOM      9  C   UNL     1       9.723  41.316 153.772  1.00  0.00     0.336 A 
ATOM     10  O   UNL     1       9.902  42.026 154.795  1.00  0.00    -0.246 OA
ATOM     11  O   UNL     1      10.774  40.877 153.083  1.00  0.00    -0.423 OA
ENDROOT
BRANCH   3  12
ATOM     12  O   UNL     1      12.812  38.474 149.493  1.00  0.00    -0.508 OA
ATOM     13  H   UNL     1      13.122  38.924 148.639  1.00  0.00     0.293 HD
ENDBRANCH   3  12
TORSDOF 1
ENDMDL
MODEL 8
REMARK VINA RESULT:    -3.694     14.330     14.535
REMARK INTER + INTRA:          -3.802
REMARK INTER:                  -3.802
REMARK INTRA:                   0.000
REMARK UNBOUND:                 0.000
REMARK SMILES O=c1ccc2ccc(O)cc2o1
REMARK SMILES IDX 6 1 7 2 8 3 10 4 11 5 5 6 4 7 3 8 2 9 1 10 12 11 9 12
REMARK H PARENT 9 13
REMARK Flexibility Score: inf
ROOT
ATOM      1  C   UNL     1       8.350  37.431 138.889  1.00  0.00     0.016 A 
ATOM      2  C   UNL     1       7.162  36.802 139.272  1.00  0.00     0.047 A 
ATOM      3  C   UNL     1       7.197  35.546 139.898  1.00  0.00     0.119 A 
ATOM      4  C   UNL     1       8.426  34.920 140.138  1.00  0.00     0.094 A 
ATOM      5  C   UNL     1       9.620  35.543 139.757  1.00  0.00     0.142 A 
ATOM      6  C   UNL     1       9.582  36.807 139.128  1.00  0.00     0.018 A 
ATOM      7  C   UNL     1      10.790  37.404 138.759  1.00  0.00     0.019 A 
ATOM      8  C   UNL     1      11.989  36.741 139.021  1.00  0.00     0.094 A 
ATOM      9  C   UNL     1      11.950  35.491 139.648  1.00  0.00     0.336 A 
ATOM     10  O   UNL     1      13.022  34.877 139.892  1.00  0.00    -0.246 OA
ATOM     11  O   UNL     1      10.786  34.944 139.989  1.00  0.00    -0.423 OA
ENDROOT
BRANCH   3  12
ATOM     12  O   UNL     1       6.018  34.913 140.282  1.00  0.00    -0.508 OA
ATOM     13  H   UNL     1       5.931  33.903 140.272  1.00  0.00     0.293 HD
ENDBRANCH   3  12
TORSDOF 1
ENDMDL
MODEL 9
REMARK VINA RESULT:    -3.436     14.426     14.587
REMARK INTER + INTRA:          -3.536
REMARK INTER:                  -3.536
REMARK INTRA:                   0.000
REMARK UNBOUND:                 0.000
REMARK SMILES O=c1ccc2ccc(O)cc2o1
REMARK SMILES IDX 6 1 7 2 8 3 10 4 11 5 5 6 4 7 3 8 2 9 1 10 12 11 9 12
REMARK H PARENT 9 13
REMARK Flexibility Score: inf
ROOT
ATOM      1  C   UNL     1       9.444  36.014 139.422  1.00  0.00     0.016 A 
ATOM      2  C   UNL     1      10.569  35.182 139.429  1.00  0.00     0.047 A 
ATOM      3  C   UNL     1      11.831  35.698 139.097  1.00  0.00     0.119 A 
ATOM      4  C   UNL     1      11.967  37.048 138.755  1.00  0.00     0.094 A 
ATOM      5  C   UNL     1      10.847  37.887 138.746  1.00  0.00     0.142 A 
ATOM      6  C   UNL     1       9.577  37.367 139.080  1.00  0.00     0.018 A 
ATOM      7  C   UNL     1       8.477  38.229 139.061  1.00  0.00     0.019 A 
ATOM      8  C   UNL     1       8.663  39.568 138.715  1.00  0.00     0.094 A 
ATOM      9  C   UNL     1       9.950  40.013 138.395  1.00  0.00     0.336 A 
ATOM     10  O   UNL     1      10.138  41.218 138.080  1.00  0.00    -0.246 OA
ATOM     11  O   UNL     1      10.980  39.172 138.421  1.00  0.00    -0.423 OA
ENDROOT
BRANCH   3  12
ATOM     12  O   UNL     1      12.955  34.875 139.102  1.00  0.00    -0.508 OA
ATOM     13  H   UNL     1      12.997  34.032 138.541  1.00  0.00     0.293 HD
ENDBRANCH   3  12
TORSDOF 1
ENDMDL
