MODEL 1
REMARK VINA RESULT:    -3.983      0.000      0.000
REMARK INTER + INTRA:          -9.508
REMARK INTER:                  -7.243
REMARK INTRA:                  -2.265
REMARK UNBOUND:                -2.265
REMARK SMILES CCCCCCCCCCCCCCCC(=O)[O-]
REMARK SMILES IDX 9 1 10 2 11 3 12 4 13 5 14 6 15 7 16 8 17 9 18 10 8 11 7 12
REMARK SMILES IDX 6 13 5 14 4 15 3 16 2 17 1 18
REMARK H PARENT
REMARK Flexibility Score: inf
ROOT
ATOM      1  C   UNL     1       3.393  10.129 -17.859  1.00  0.00     0.000 C 
ENDROOT
BRANCH   1   2
ATOM      2  C   UNL     1       4.075   9.462 -19.063  1.00  0.00     0.000 C 
BRANCH   2   3
ATOM      3  C   UNL     1       3.068   8.852 -20.052  1.00  0.00     0.000 C 
BRANCH   3   4
ATOM      4  C   UNL     1       3.748   8.228 -21.280  1.00  0.00     0.000 C 
BRANCH   4   5
ATOM      5  C   UNL     1       3.342   6.756 -21.445  1.00  0.00     0.000 C 
BRANCH   5   6
ATOM      6  C   UNL     1       3.221   6.009 -20.104  1.00  0.00     0.006 C 
BRANCH   6   7
ATOM      7  C   UNL     1       3.606   4.521 -20.181  1.00  0.00     0.053 C 
BRANCH   7   8
ATOM      8  C   UNL     1       2.487   3.616 -19.760  1.00  0.00     0.041 C 
ATOM      9  O   UNL     1       1.313   4.062 -19.668  1.00  0.00    -0.550 OA
ATOM     10  O   UNL     1       2.744   2.291 -19.434  1.00  0.00    -0.550 OA
ENDBRANCH   7   8
ENDBRANCH   6   7
ENDBRANCH   5   6
ENDBRANCH   4   5
ENDBRANCH   3   4
ENDBRANCH   2   3
ENDBRANCH   1   2
BRANCH   1  11
ATOM     11  C   UNL     1       1.927  10.461 -18.174  1.00  0.00     0.000 C 
BRANCH  11  12
ATOM     12  C   UNL     1       1.095  10.749 -16.911  1.00  0.00    -0.000 C 
BRANCH  12  13
ATOM     13  C   UNL     1       1.611  10.077 -15.623  1.00  0.00    -0.000 C 
BRANCH  13  14
ATOM     14  C   UNL     1       1.029   8.680 -15.333  1.00  0.00    -0.000 C 
BRANCH  14  15
ATOM     15  C   UNL     1       1.946   7.503 -15.710  1.00  0.00    -0.000 C 
BRANCH  15  16
ATOM     16  C   UNL     1       1.615   6.906 -17.086  1.00  0.00    -0.000 C 
BRANCH  16  17
ATOM     17  C   UNL     1       0.114   7.013 -17.383  1.00  0.00    -0.003 C 
ATOM     18  C   UNL     1      -0.132   7.552 -18.789  1.00  0.00     0.004 C 
ENDBRANCH  16  17
ENDBRANCH  15  16
ENDBRANCH  14  15
ENDBRANCH  13  14
ENDBRANCH  12  13
ENDBRANCH  11  12
ENDBRANCH   1  11
TORSDOF 14
ENDMDL
MODEL 2
REMARK VINA RESULT:    -3.813      1.165      2.341
REMARK INTER + INTRA:          -9.199
REMARK INTER:                  -6.476
REMARK INTRA:                  -2.723
REMARK UNBOUND:                -2.265
REMARK SMILES CCCCCCCCCCCCCCCC(=O)[O-]
REMARK SMILES IDX 9 1 10 2 11 3 12 4 13 5 14 6 15 7 16 8 17 9 18 10 8 11 7 12
REMARK SMILES IDX 6 13 5 14 4 15 3 16 2 17 1 18
REMARK H PARENT
REMARK Flexibility Score: inf
ROOT
ATOM      1  C   UNL     1       1.498  10.861 -16.763  1.00  0.00     0.000 C 
ENDROOT
BRANCH   1   2
ATOM      2  C   UNL     1       1.954  10.406 -18.158  1.00  0.00     0.000 C 
BRANCH   2   3
ATOM      3  C   UNL     1       3.389   9.853 -18.161  1.00  0.00     0.000 C 
BRANCH   3   4
ATOM      4  C   UNL     1       3.790   9.255 -19.518  1.00  0.00     0.000 C 
BRANCH   4   5
ATOM      5  C   UNL     1       2.689   8.330 -20.058  1.00  0.00     0.000 C 
BRANCH   5   6
ATOM      6  C   UNL     1       3.053   6.838 -19.962  1.00  0.00     0.006 C 
BRANCH   6   7
ATOM      7  C   UNL     1       1.893   5.888 -20.309  1.00  0.00     0.053 C 
BRANCH   7   8
ATOM      8  C   UNL     1       1.950   4.605 -19.536  1.00  0.00     0.041 C 
ATOM      9  O   UNL     1       2.977   3.878 -19.590  1.00  0.00    -0.550 OA
ATOM     10  O   UNL     1       0.857   4.192 -18.785  1.00  0.00    -0.550 OA
ENDBRANCH   7   8
ENDBRANCH   6   7
ENDBRANCH   5   6
ENDBRANCH   4   5
ENDBRANCH   3   4
ENDBRANCH   2   3
ENDBRANCH   1   2
BRANCH   1  11
ATOM     11  C   UNL     1       2.251  10.097 -15.664  1.00  0.00     0.000 C 
BRANCH  11  12
ATOM     12  C   UNL     1       1.411   8.968 -15.040  1.00  0.00    -0.000 C 
BRANCH  12  13
ATOM     13  C   UNL     1       1.832   7.541 -15.446  1.00  0.00    -0.000 C 
BRANCH  13  14
ATOM     14  C   UNL     1       1.283   7.055 -16.802  1.00  0.00    -0.000 C 
BRANCH  14  15
ATOM     15  C   UNL     1      -0.242   7.190 -16.970  1.00  0.00    -0.000 C 
BRANCH  15  16
ATOM     16  C   UNL     1      -0.640   7.784 -18.330  1.00  0.00    -0.000 C 
BRANCH  16  17
ATOM     17  C   UNL     1      -1.429   9.086 -18.149  1.00  0.00    -0.003 C 
ATOM     18  C   UNL     1      -1.903   9.249 -16.708  1.00  0.00     0.004 C 
ENDBRANCH  16  17
ENDBRANCH  15  16
ENDBRANCH  14  15
ENDBRANCH  13  14
ENDBRANCH  12  13
ENDBRANCH  11  12
ENDBRANCH   1  11
TORSDOF 14
ENDMDL
MODEL 3
REMARK VINA RESULT:    -3.757      1.124      3.515
REMARK INTER + INTRA:          -9.097
REMARK INTER:                  -7.215
REMARK INTRA:                  -1.882
REMARK UNBOUND:                -2.265
REMARK SMILES CCCCCCCCCCCCCCCC(=O)[O-]
REMARK SMILES IDX 9 1 10 2 11 3 12 4 13 5 14 6 15 7 16 8 17 9 18 10 8 11 7 12
REMARK SMILES IDX 6 13 5 14 4 15 3 16 2 17 1 18
REMARK H PARENT
REMARK Flexibility Score: inf
ROOT
ATOM      1  C   UNL     1       1.611   8.175 -15.039  1.00  0.00     0.000 C 
ENDROOT
BRANCH   1   2
ATOM      2  C   UNL     1       1.749   7.262 -16.267  1.00  0.00     0.000 C 
BRANCH   2   3
ATOM      3  C   UNL     1       0.435   7.121 -17.052  1.00  0.00     0.000 C 
BRANCH   3   4
ATOM      4  C   UNL     1       0.659   6.707 -18.514  1.00  0.00     0.000 C 
BRANCH   4   5
ATOM      5  C   UNL     1       1.801   5.686 -18.628  1.00  0.00     0.000 C 
BRANCH   5   6
ATOM      6  C   UNL     1       1.432   4.458 -19.478  1.00  0.00     0.006 C 
BRANCH   6   7
ATOM      7  C   UNL     1       2.639   3.601 -19.898  1.00  0.00     0.053 C 
BRANCH   7   8
ATOM      8  C   UNL     1       2.446   2.147 -19.593  1.00  0.00     0.041 C 
ATOM      9  O   UNL     1       3.287   1.299 -19.993  1.00  0.00    -0.550 OA
ATOM     10  O   UNL     1       1.320   1.721 -18.900  1.00  0.00    -0.550 OA
ENDBRANCH   7   8
ENDBRANCH   6   7
ENDBRANCH   5   6
ENDBRANCH   4   5
ENDBRANCH   3   4
ENDBRANCH   2   3
ENDBRANCH   1   2
BRANCH   1  11
ATOM     11  C   UNL     1       1.192   9.592 -15.455  1.00  0.00     0.000 C 
BRANCH  11  12
ATOM     12  C   UNL     1       2.346  10.397 -16.080  1.00  0.00    -0.000 C 
BRANCH  12  13
ATOM     13  C   UNL     1       2.388  10.388 -17.621  1.00  0.00    -0.000 C 
BRANCH  13  14
ATOM     14  C   UNL     1       3.740   9.982 -18.239  1.00  0.00    -0.000 C 
BRANCH  14  15
ATOM     15  C   UNL     1       3.652   8.933 -19.363  1.00  0.00    -0.000 C 
BRANCH  15  16
ATOM     16  C   UNL     1       2.484   9.190 -20.327  1.00  0.00    -0.000 C 
BRANCH  16  17
ATOM     17  C   UNL     1       2.582   8.285 -21.560  1.00  0.00    -0.003 C 
ATOM     18  C   UNL     1       3.736   7.294 -21.427  1.00  0.00     0.004 C 
ENDBRANCH  16  17
ENDBRANCH  15  16
ENDBRANCH  14  15
ENDBRANCH  13  14
ENDBRANCH  12  13
ENDBRANCH  11  12
ENDBRANCH   1  11
TORSDOF 14
ENDMDL
MODEL 4
REMARK VINA RESULT:    -3.737     21.500     23.672
REMARK INTER + INTRA:          -9.059
REMARK INTER:                  -7.280
REMARK INTRA:                  -1.779
REMARK UNBOUND:                -2.265
REMARK SMILES CCCCCCCCCCCCCCCC(=O)[O-]
REMARK SMILES IDX 9 1 10 2 11 3 12 4 13 5 14 6 15 7 16 8 17 9 18 10 8 11 7 12
REMARK SMILES IDX 6 13 5 14 4 15 3 16 2 17 1 18
REMARK H PARENT
REMARK Flexibility Score: inf
ROOT
ATOM      1  C   UNL     1     -15.735  -4.858 -31.139  1.00  0.00     0.000 C 
ENDROOT
BRANCH   1   2
ATOM      2  C   UNL     1     -15.752  -6.360 -31.463  1.00  0.00     0.000 C 
BRANCH   2   3
ATOM      3  C   UNL     1     -14.744  -7.159 -30.622  1.00  0.00     0.000 C 
BRANCH   3   4
ATOM      4  C   UNL     1     -13.585  -6.293 -30.106  1.00  0.00     0.000 C 
BRANCH   4   5
ATOM      5  C   UNL     1     -12.679  -7.094 -29.159  1.00  0.00     0.000 C 
BRANCH   5   6
ATOM      6  C   UNL     1     -11.185  -6.771 -29.334  1.00  0.00     0.006 C 
BRANCH   6   7
ATOM      7  C   UNL     1     -10.909  -5.565 -30.250  1.00  0.00     0.053 C 
BRANCH   7   8
ATOM      8  C   UNL     1      -9.552  -5.624 -30.884  1.00  0.00     0.041 C 
ATOM      9  O   UNL     1      -8.934  -6.720 -30.957  1.00  0.00    -0.550 OA
ATOM     10  O   UNL     1      -8.952  -4.466 -31.362  1.00  0.00    -0.550 OA
ENDBRANCH   7   8
ENDBRANCH   6   7
ENDBRANCH   5   6
ENDBRANCH   4   5
ENDBRANCH   3   4
ENDBRANCH   2   3
ENDBRANCH   1   2
BRANCH   1  11
ATOM     11  C   UNL     1     -16.080  -4.025 -32.382  1.00  0.00     0.000 C 
BRANCH  11  12
ATOM     12  C   UNL     1     -14.843  -3.678 -33.230  1.00  0.00    -0.000 C 
BRANCH  12  13
ATOM     13  C   UNL     1     -14.882  -2.292 -33.904  1.00  0.00    -0.000 C 
BRANCH  13  14
ATOM     14  C   UNL     1     -15.394  -1.143 -33.014  1.00  0.00    -0.000 C 
BRANCH  14  15
ATOM     15  C   UNL     1     -14.442  -0.728 -31.878  1.00  0.00    -0.000 C 
BRANCH  15  16
ATOM     16  C   UNL     1     -14.963  -1.122 -30.488  1.00  0.00    -0.000 C 
BRANCH  16  17
ATOM     17  C   UNL     1     -13.894  -1.884 -29.697  1.00  0.00    -0.003 C 
ATOM     18  C   UNL     1     -12.752  -2.333 -30.604  1.00  0.00     0.004 C 
ENDBRANCH  16  17
ENDBRANCH  15  16
ENDBRANCH  14  15
ENDBRANCH  13  14
ENDBRANCH  12  13
ENDBRANCH  11  12
ENDBRANCH   1  11
TORSDOF 14
ENDMDL
MODEL 5
REMARK VINA RESULT:    -3.729     21.020     23.795
REMARK INTER + INTRA:          -9.046
REMARK INTER:                  -7.079
REMARK INTRA:                  -1.967
REMARK UNBOUND:                -2.265
REMARK SMILES CCCCCCCCCCCCCCCC(=O)[O-]
REMARK SMILES IDX 9 1 10 2 11 3 12 4 13 5 14 6 15 7 16 8 17 9 18 10 8 11 7 12
REMARK SMILES IDX 6 13 5 14 4 15 3 16 2 17 1 18
REMARK H PARENT
REMARK Flexibility Score: inf
ROOT
ATOM      1  C   UNL     1     -12.520  -8.960 -27.966  1.00  0.00     0.000 C 
ENDROOT
BRANCH   1   2
ATOM      2  C   UNL     1     -13.069  -8.958 -29.401  1.00  0.00     0.000 C 
BRANCH   2   3
ATOM      3  C   UNL     1     -13.646  -7.594 -29.813  1.00  0.00     0.000 C 
BRANCH   3   4
ATOM      4  C   UNL     1     -14.960  -7.721 -30.600  1.00  0.00     0.000 C 
BRANCH   4   5
ATOM      5  C   UNL     1     -15.365  -6.372 -31.213  1.00  0.00     0.000 C 
BRANCH   5   6
ATOM      6  C   UNL     1     -14.304  -5.275 -31.014  1.00  0.00     0.006 C 
BRANCH   6   7
ATOM      7  C   UNL     1     -13.879  -4.572 -32.316  1.00  0.00     0.053 C 
BRANCH   7   8
ATOM      8  C   UNL     1     -14.715  -3.365 -32.617  1.00  0.00     0.041 C 
ATOM      9  O   UNL     1     -14.284  -2.213 -32.348  1.00  0.00    -0.550 OA
ATOM     10  O   UNL     1     -15.986  -3.512 -33.158  1.00  0.00    -0.550 OA
ENDBRANCH   7   8
ENDBRANCH   6   7
ENDBRANCH   5   6
ENDBRANCH   4   5
ENDBRANCH   3   4
ENDBRANCH   2   3
ENDBRANCH   1   2
BRANCH   1  11
ATOM     11  C   UNL     1     -11.203  -8.174 -27.882  1.00  0.00     0.000 C 
BRANCH  11  12
ATOM     12  C   UNL     1     -10.211  -8.551 -28.997  1.00  0.00    -0.000 C 
BRANCH  12  13
ATOM     13  C   UNL     1      -8.862  -7.805 -28.949  1.00  0.00    -0.000 C 
BRANCH  13  14
ATOM     14  C   UNL     1      -8.880  -6.379 -29.534  1.00  0.00    -0.000 C 
BRANCH  14  15
ATOM     15  C   UNL     1     -10.045  -6.087 -30.497  1.00  0.00    -0.000 C 
BRANCH  15  16
ATOM     16  C   UNL     1     -10.792  -4.790 -30.151  1.00  0.00    -0.000 C 
BRANCH  16  17
ATOM     17  C   UNL     1     -10.805  -4.551 -28.637  1.00  0.00    -0.003 C 
ATOM     18  C   UNL     1     -12.223  -4.626 -28.078  1.00  0.00     0.004 C 
ENDBRANCH  16  17
ENDBRANCH  15  16
ENDBRANCH  14  15
ENDBRANCH  13  14
ENDBRANCH  12  13
ENDBRANCH  11  12
ENDBRANCH   1  11
TORSDOF 14
ENDMDL
MODEL 6
REMARK VINA RESULT:    -3.717     21.528     24.016
REMARK INTER + INTRA:          -9.024
REMARK INTER:                  -7.194
REMARK INTRA:                  -1.830
REMARK UNBOUND:                -2.265
REMARK SMILES CCCCCCCCCCCCCCCC(=O)[O-]
REMARK SMILES IDX 9 1 10 2 11 3 12 4 13 5 14 6 15 7 16 8 17 9 18 10 8 11 7 12
REMARK SMILES IDX 6 13 5 14 4 15 3 16 2 17 1 18
REMARK H PARENT
REMARK Flexibility Score: inf
ROOT
ATOM      1  C   UNL     1     -14.802  -5.715 -31.373  1.00  0.00     0.000 C 
ENDROOT
BRANCH   1   2
ATOM      2  C   UNL     1     -16.125  -4.944 -31.499  1.00  0.00     0.000 C 
BRANCH   2   3
ATOM      3  C   UNL     1     -16.116  -3.939 -32.662  1.00  0.00     0.000 C 
BRANCH   3   4
ATOM      4  C   UNL     1     -14.718  -3.749 -33.270  1.00  0.00     0.000 C 
BRANCH   4   5
ATOM      5  C   UNL     1     -14.638  -2.436 -34.063  1.00  0.00     0.000 C 
BRANCH   5   6
ATOM      6  C   UNL     1     -15.650  -1.379 -33.587  1.00  0.00     0.006 C 
BRANCH   6   7
ATOM      7  C   UNL     1     -15.003  -0.139 -32.945  1.00  0.00     0.053 C 
BRANCH   7   8
ATOM      8  C   UNL     1     -14.752  -0.315 -31.478  1.00  0.00     0.041 C 
ATOM      9  O   UNL     1     -13.714   0.167 -30.951  1.00  0.00    -0.550 OA
ATOM     10  O   UNL     1     -15.642  -1.043 -30.699  1.00  0.00    -0.550 OA
ENDBRANCH   7   8
ENDBRANCH   6   7
ENDBRANCH   5   6
ENDBRANCH   4   5
ENDBRANCH   3   4
ENDBRANCH   2   3
ENDBRANCH   1   2
BRANCH   1  11
ATOM     11  C   UNL     1     -15.042  -7.129 -30.824  1.00  0.00     0.000 C 
BRANCH  11  12
ATOM     12  C   UNL     1     -13.919  -7.603 -29.883  1.00  0.00    -0.000 C 
BRANCH  12  13
ATOM     13  C   UNL     1     -12.711  -6.649 -29.777  1.00  0.00    -0.000 C 
BRANCH  13  14
ATOM     14  C   UNL     1     -12.254  -6.325 -28.342  1.00  0.00    -0.000 C 
BRANCH  14  15
ATOM     15  C   UNL     1     -12.598  -4.906 -27.856  1.00  0.00    -0.000 C 
BRANCH  15  16
ATOM     16  C   UNL     1     -13.278  -4.054 -28.938  1.00  0.00    -0.000 C 
BRANCH  16  17
ATOM     17  C   UNL     1     -12.339  -2.949 -29.437  1.00  0.00    -0.003 C 
ATOM     18  C   UNL     1     -12.174  -3.009 -30.953  1.00  0.00     0.004 C 
ENDBRANCH  16  17
ENDBRANCH  15  16
ENDBRANCH  14  15
ENDBRANCH  13  14
ENDBRANCH  12  13
ENDBRANCH  11  12
ENDBRANCH   1  11
TORSDOF 14
ENDMDL
MODEL 7
REMARK VINA RESULT:    -3.699     21.947     23.918
REMARK INTER + INTRA:          -8.991
REMARK INTER:                  -7.209
REMARK INTRA:                  -1.782
REMARK UNBOUND:                -2.265
REMARK SMILES CCCCCCCCCCCCCCCC(=O)[O-]
REMARK SMILES IDX 9 1 10 2 11 3 12 4 13 5 14 6 15 7 16 8 17 9 18 10 8 11 7 12
REMARK SMILES IDX 6 13 5 14 4 15 3 16 2 17 1 18
REMARK H PARENT
REMARK Flexibility Score: inf
ROOT
ATOM      1  C   UNL     1     -16.060  -3.874 -32.421  1.00  0.00     0.000 C 
ENDROOT
BRANCH   1   2
ATOM      2  C   UNL     1     -16.124  -5.380 -32.121  1.00  0.00     0.000 C 
BRANCH   2   3
ATOM      3  C   UNL     1     -15.501  -5.741 -30.764  1.00  0.00     0.000 C 
BRANCH   3   4
ATOM      4  C   UNL     1     -15.179  -7.238 -30.639  1.00  0.00     0.000 C 
BRANCH   4   5
ATOM      5  C   UNL     1     -13.762  -7.451 -30.085  1.00  0.00     0.000 C 
BRANCH   5   6
ATOM      6  C   UNL     1     -13.131  -6.163 -29.528  1.00  0.00     0.006 C 
BRANCH   6   7
ATOM      7  C   UNL     1     -11.827  -6.394 -28.743  1.00  0.00     0.053 C 
BRANCH   7   8
ATOM      8  C   UNL     1     -11.699  -7.802 -28.244  1.00  0.00     0.041 C 
ATOM      9  O   UNL     1     -11.006  -8.638 -28.882  1.00  0.00    -0.550 OA
ATOM     10  O   UNL     1     -12.373  -8.202 -27.098  1.00  0.00    -0.550 OA
ENDBRANCH   7   8
ENDBRANCH   6   7
ENDBRANCH   5   6
ENDBRANCH   4   5
ENDBRANCH   3   4
ENDBRANCH   2   3
ENDBRANCH   1   2
BRANCH   1  11
ATOM     11  C   UNL     1     -15.069  -3.583 -33.558  1.00  0.00     0.000 C 
BRANCH  11  12
ATOM     12  C   UNL     1     -14.961  -2.083 -33.886  1.00  0.00    -0.000 C 
BRANCH  12  13
ATOM     13  C   UNL     1     -15.584  -1.139 -32.837  1.00  0.00    -0.000 C 
BRANCH  13  14
ATOM     14  C   UNL     1     -14.682   0.024 -32.382  1.00  0.00    -0.000 C 
BRANCH  14  15
ATOM     15  C   UNL     1     -13.743  -0.304 -31.207  1.00  0.00    -0.000 C 
BRANCH  15  16
ATOM     16  C   UNL     1     -14.414  -1.174 -30.133  1.00  0.00    -0.000 C 
BRANCH  16  17
ATOM     17  C   UNL     1     -13.707  -2.529 -30.006  1.00  0.00    -0.003 C 
ATOM     18  C   UNL     1     -12.539  -2.636 -30.983  1.00  0.00     0.004 C 
ENDBRANCH  16  17
ENDBRANCH  15  16
ENDBRANCH  14  15
ENDBRANCH  13  14
ENDBRANCH  12  13
ENDBRANCH  11  12
ENDBRANCH   1  11
TORSDOF 14
ENDMDL
MODEL 8
REMARK VINA RESULT:    -3.671      2.341      3.756
REMARK INTER + INTRA:          -8.940
REMARK INTER:                  -7.303
REMARK INTRA:                  -1.637
REMARK UNBOUND:                -2.265
REMARK SMILES CCCCCCCCCCCCCCCC(=O)[O-]
REMARK SMILES IDX 9 1 10 2 11 3 12 4 13 5 14 6 15 7 16 8 17 9 18 10 8 11 7 12
REMARK SMILES IDX 6 13 5 14 4 15 3 16 2 17 1 18
REMARK H PARENT
REMARK Flexibility Score: inf
ROOT
ATOM      1  C   UNL     1       1.009  10.810 -16.963  1.00  0.00     0.000 C 
ENDROOT
BRANCH   1   2
ATOM      2  C   UNL     1       1.861  10.445 -18.188  1.00  0.00     0.000 C 
BRANCH   2   3
ATOM      3  C   UNL     1       3.355  10.313 -17.853  1.00  0.00     0.000 C 
BRANCH   3   4
ATOM      4  C   UNL     1       4.119   9.457 -18.875  1.00  0.00     0.000 C 
BRANCH   4   5
ATOM      5  C   UNL     1       3.162   8.864 -19.920  1.00  0.00     0.000 C 
BRANCH   5   6
ATOM      6  C   UNL     1       3.890   8.119 -21.052  1.00  0.00     0.006 C 
BRANCH   6   7
ATOM      7  C   UNL     1       3.898   8.873 -22.394  1.00  0.00     0.053 C 
BRANCH   7   8
ATOM      8  C   UNL     1       2.596   8.756 -23.127  1.00  0.00     0.041 C 
ATOM      9  O   UNL     1       1.948   7.676 -23.098  1.00  0.00    -0.550 OA
ATOM     10  O   UNL     1       2.115   9.824 -23.873  1.00  0.00    -0.550 OA
ENDBRANCH   7   8
ENDBRANCH   6   7
ENDBRANCH   5   6
ENDBRANCH   4   5
ENDBRANCH   3   4
ENDBRANCH   2   3
ENDBRANCH   1   2
BRANCH   1  11
ATOM     11  C   UNL     1       1.678  10.329 -15.667  1.00  0.00     0.000 C 
BRANCH  11  12
ATOM     12  C   UNL     1       0.857   9.252 -14.935  1.00  0.00    -0.000 C 
BRANCH  12  13
ATOM     13  C   UNL     1       1.494   7.848 -14.914  1.00  0.00    -0.000 C 
BRANCH  13  14
ATOM     14  C   UNL     1       2.003   7.337 -16.276  1.00  0.00    -0.000 C 
BRANCH  14  15
ATOM     15  C   UNL     1       0.900   6.965 -17.283  1.00  0.00    -0.000 C 
BRANCH  15  16
ATOM     16  C   UNL     1       1.296   5.793 -18.193  1.00  0.00    -0.000 C 
BRANCH  16  17
ATOM     17  C   UNL     1       0.065   4.975 -18.601  1.00  0.00    -0.003 C 
ATOM     18  C   UNL     1       0.470   3.671 -19.283  1.00  0.00     0.004 C 
ENDBRANCH  16  17
ENDBRANCH  15  16
ENDBRANCH  14  15
ENDBRANCH  13  14
ENDBRANCH  12  13
ENDBRANCH  11  12
ENDBRANCH   1  11
TORSDOF 14
ENDMDL
MODEL 9
REMARK VINA RESULT:    -3.626      1.913      5.112
REMARK INTER + INTRA:          -8.858
REMARK INTER:                  -6.659
REMARK INTRA:                  -2.200
REMARK UNBOUND:                -2.265
REMARK SMILES CCCCCCCCCCCCCCCC(=O)[O-]
REMARK SMILES IDX 9 1 10 2 11 3 12 4 13 5 14 6 15 7 16 8 17 9 18 10 8 11 7 12
REMARK SMILES IDX 6 13 5 14 4 15 3 16 2 17 1 18
REMARK H PARENT
REMARK Flexibility Score: inf
ROOT
ATOM      1  C   UNL     1       3.550   9.245 -18.936  1.00  0.00     0.000 C 
ENDROOT
BRANCH   1   2
ATOM      2  C   UNL     1       3.324  10.011 -17.623  1.00  0.00     0.000 C 
BRANCH   2   3
ATOM      3  C   UNL     1       1.913  10.613 -17.524  1.00  0.00     0.000 C 
BRANCH   3   4
ATOM      4  C   UNL     1       1.330  10.524 -16.105  1.00  0.00     0.000 C 
BRANCH   4   5
ATOM      5  C   UNL     1       1.897   9.312 -15.352  1.00  0.00     0.000 C 
BRANCH   5   6
ATOM      6  C   UNL     1       0.918   8.126 -15.292  1.00  0.00     0.006 C 
BRANCH   6   7
ATOM      7  C   UNL     1       0.794   7.350 -16.616  1.00  0.00     0.053 C 
BRANCH   7   8
ATOM      8  C   UNL     1      -0.595   7.392 -17.178  1.00  0.00     0.041 C 
ATOM      9  O   UNL     1      -1.171   6.327 -17.523  1.00  0.00    -0.550 OA
ATOM     10  O   UNL     1      -1.241   8.609 -17.356  1.00  0.00    -0.550 OA
ENDBRANCH   7   8
ENDBRANCH   6   7
ENDBRANCH   5   6
ENDBRANCH   4   5
ENDBRANCH   3   4
ENDBRANCH   2   3
ENDBRANCH   1   2
BRANCH   1  11
ATOM     11  C   UNL     1       2.264   9.204 -19.774  1.00  0.00     0.000 C 
BRANCH  11  12
ATOM     12  C   UNL     1       2.527   8.872 -21.255  1.00  0.00    -0.000 C 
BRANCH  12  13
ATOM     13  C   UNL     1       3.973   8.447 -21.580  1.00  0.00    -0.000 C 
BRANCH  13  14
ATOM     14  C   UNL     1       4.125   7.029 -22.163  1.00  0.00    -0.000 C 
BRANCH  14  15
ATOM     15  C   UNL     1       3.108   5.999 -21.638  1.00  0.00    -0.000 C 
BRANCH  15  16
ATOM     16  C   UNL     1       3.433   5.512 -20.218  1.00  0.00    -0.000 C 
BRANCH  16  17
ATOM     17  C   UNL     1       2.151   5.285 -19.409  1.00  0.00    -0.003 C 
ATOM     18  C   UNL     1       0.915   5.676 -20.214  1.00  0.00     0.004 C 
ENDBRANCH  16  17
ENDBRANCH  15  16
ENDBRANCH  14  15
ENDBRANCH  13  14
ENDBRANCH  12  13
ENDBRANCH  11  12
ENDBRANCH   1  11
TORSDOF 14
ENDMDL
