MODEL 1
REMARK VINA RESULT:    -4.491      0.000      0.000
REMARK INTER + INTRA:          -8.388
REMARK INTER:                  -7.116
REMARK INTRA:                  -1.273
REMARK UNBOUND:                -1.273
REMARK SMILES CCCCCCCCCCCC(=O)[O-]
REMARK SMILES IDX 7 1 8 2 9 3 10 4 11 5 12 6 13 7 14 8 6 9 5 10 4 11 3 12 2 13
REMARK SMILES IDX 1 14
REMARK H PARENT
REMARK Flexibility Score: inf
ROOT
ATOM      1  C   UNL     1      39.357  63.650   8.728  1.00  0.00     0.000 C 
ENDROOT
BRANCH   1   2
ATOM      2  C   UNL     1      40.862  63.355   8.828  1.00  0.00     0.000 C 
BRANCH   2   3
ATOM      3  C   UNL     1      41.237  61.986   8.231  1.00  0.00     0.000 C 
BRANCH   3   4
ATOM      4  C   UNL     1      40.020  61.061   8.071  1.00  0.00     0.006 C 
BRANCH   4   5
ATOM      5  C   UNL     1      40.334  59.602   8.431  1.00  0.00     0.053 C 
BRANCH   5   6
ATOM      6  C   UNL     1      40.168  58.722   7.233  1.00  0.00     0.041 C 
ATOM      7  O   UNL     1      39.519  59.127   6.233  1.00  0.00    -0.550 OA
ATOM      8  O   UNL     1      40.771  57.470   7.201  1.00  0.00    -0.550 OA
ENDBRANCH   5   6
ENDBRANCH   4   5
ENDBRANCH   3   4
ENDBRANCH   2   3
ENDBRANCH   1   2
BRANCH   1   9
ATOM      9  C   UNL     1      39.061  65.035   8.126  1.00  0.00     0.000 C 
BRANCH   9  10
ATOM     10  C   UNL     1      38.744  64.970   6.624  1.00  0.00    -0.000 C 
BRANCH  10  11
ATOM     11  C   UNL     1      39.927  65.428   5.752  1.00  0.00    -0.000 C 
BRANCH  11  12
ATOM     12  C   UNL     1      40.817  64.259   5.303  1.00  0.00    -0.000 C 
BRANCH  12  13
ATOM     13  C   UNL     1      42.310  64.529   5.542  1.00  0.00    -0.003 C 
ATOM     14  C   UNL     1      42.511  65.702   6.498  1.00  0.00     0.004 C 
ENDBRANCH  12  13
ENDBRANCH  11  12
ENDBRANCH  10  11
ENDBRANCH   9  10
ENDBRANCH   1   9
TORSDOF 10
ENDMDL
MODEL 2
REMARK VINA RESULT:    -4.483     16.612     17.778
REMARK INTER + INTRA:          -8.376
REMARK INTER:                  -7.893
REMARK INTRA:                  -0.483
REMARK UNBOUND:                -1.273
REMARK SMILES CCCCCCCCCCCC(=O)[O-]
REMARK SMILES IDX 7 1 8 2 9 3 10 4 11 5 12 6 13 7 14 8 6 9 5 10 4 11 3 12 2 13
REMARK SMILES IDX 1 14
REMARK H PARENT
REMARK Flexibility Score: inf
ROOT
ATOM      1  C   UNL     1      28.875  56.227  -5.395  1.00  0.00     0.000 C 
ENDROOT
BRANCH   1   2
ATOM      2  C   UNL     1      29.519  57.066  -4.279  1.00  0.00     0.000 C 
BRANCH   2   3
ATOM      3  C   UNL     1      30.665  57.954  -4.795  1.00  0.00     0.000 C 
BRANCH   3   4
ATOM      4  C   UNL     1      31.080  59.031  -3.780  1.00  0.00     0.006 C 
BRANCH   4   5
ATOM      5  C   UNL     1      30.786  58.623  -2.330  1.00  0.00     0.053 C 
BRANCH   5   6
ATOM      6  C   UNL     1      32.014  58.771  -1.488  1.00  0.00     0.041 C 
ATOM      7  O   UNL     1      32.950  59.525  -1.860  1.00  0.00    -0.550 OA
ATOM      8  O   UNL     1      32.102  58.113  -0.267  1.00  0.00    -0.550 OA
ENDBRANCH   5   6
ENDBRANCH   4   5
ENDBRANCH   3   4
ENDBRANCH   2   3
ENDBRANCH   1   2
BRANCH   1   9
ATOM      9  C   UNL     1      28.867  56.950  -6.753  1.00  0.00     0.000 C 
BRANCH   9  10
ATOM     10  C   UNL     1      28.282  56.083  -7.879  1.00  0.00    -0.000 C 
BRANCH  10  11
ATOM     11  C   UNL     1      28.060  56.877  -9.179  1.00  0.00    -0.000 C 
BRANCH  11  12
ATOM     12  C   UNL     1      28.445  58.358  -9.039  1.00  0.00    -0.000 C 
BRANCH  12  13
ATOM     13  C   UNL     1      27.597  59.276  -9.931  1.00  0.00    -0.003 C 
ATOM     14  C   UNL     1      28.246  60.648 -10.084  1.00  0.00     0.004 C 
ENDBRANCH  12  13
ENDBRANCH  11  12
ENDBRANCH  10  11
ENDBRANCH   9  10
ENDBRANCH   1   9
TORSDOF 10
ENDMDL
MODEL 3
REMARK VINA RESULT:    -4.322      1.583      2.998
REMARK INTER + INTRA:          -8.121
REMARK INTER:                  -7.492
REMARK INTRA:                  -0.630
REMARK UNBOUND:                -1.273
REMARK SMILES CCCCCCCCCCCC(=O)[O-]
REMARK SMILES IDX 7 1 8 2 9 3 10 4 11 5 12 6 13 7 14 8 6 9 5 10 4 11 3 12 2 13
REMARK SMILES IDX 1 14
REMARK H PARENT
REMARK Flexibility Score: inf
ROOT
ATOM      1  C   UNL     1      41.149  61.851   7.829  1.00  0.00     0.000 C 
ENDROOT
BRANCH   1   2
ATOM      2  C   UNL     1      40.055  60.892   8.325  1.00  0.00     0.000 C 
BRANCH   2   3
ATOM      3  C   UNL     1      40.529  59.428   8.373  1.00  0.00     0.000 C 
BRANCH   3   4
ATOM      4  C   UNL     1      42.005  59.274   7.975  1.00  0.00     0.006 C 
BRANCH   4   5
ATOM      5  C   UNL     1      42.191  58.452   6.692  1.00  0.00     0.053 C 
BRANCH   5   6
ATOM      6  C   UNL     1      41.462  57.150   6.798  1.00  0.00     0.041 C 
ATOM      7  O   UNL     1      41.831  56.283   7.632  1.00  0.00    -0.550 OA
ATOM      8  O   UNL     1      40.344  56.913   6.006  1.00  0.00    -0.550 OA
ENDBRANCH   5   6
ENDBRANCH   4   5
ENDBRANCH   3   4
ENDBRANCH   2   3
ENDBRANCH   1   2
BRANCH   1   9
ATOM      9  C   UNL     1      41.002  63.270   8.405  1.00  0.00     0.000 C 
BRANCH   9  10
ATOM     10  C   UNL     1      39.562  63.584   8.838  1.00  0.00    -0.000 C 
BRANCH  10  11
ATOM     11  C   UNL     1      38.992  64.829   8.134  1.00  0.00    -0.000 C 
BRANCH  11  12
ATOM     12  C   UNL     1      39.514  64.984   6.697  1.00  0.00    -0.000 C 
BRANCH  12  13
ATOM     13  C   UNL     1      38.608  65.873   5.833  1.00  0.00    -0.003 C 
ATOM     14  C   UNL     1      37.370  66.314   6.608  1.00  0.00     0.004 C 
ENDBRANCH  12  13
ENDBRANCH  11  12
ENDBRANCH  10  11
ENDBRANCH   9  10
ENDBRANCH   1   9
TORSDOF 10
ENDMDL
MODEL 4
REMARK VINA RESULT:    -4.292      3.606      6.598
REMARK INTER + INTRA:          -8.074
REMARK INTER:                  -7.629
REMARK INTRA:                  -0.444
REMARK UNBOUND:                -1.273
REMARK SMILES CCCCCCCCCCCC(=O)[O-]
REMARK SMILES IDX 7 1 8 2 9 3 10 4 11 5 12 6 13 7 14 8 6 9 5 10 4 11 3 12 2 13
REMARK SMILES IDX 1 14
REMARK H PARENT
REMARK Flexibility Score: inf
ROOT
ATOM      1  C   UNL     1      41.264  61.530   8.161  1.00  0.00     0.000 C 
ENDROOT
BRANCH   1   2
ATOM      2  C   UNL     1      40.795  62.943   7.779  1.00  0.00     0.000 C 
BRANCH   2   3
ATOM      3  C   UNL     1      39.553  63.387   8.572  1.00  0.00     0.000 C 
BRANCH   3   4
ATOM      4  C   UNL     1      39.077  64.795   8.182  1.00  0.00     0.006 C 
BRANCH   4   5
ATOM      5  C   UNL     1      39.156  65.050   6.671  1.00  0.00     0.053 C 
BRANCH   5   6
ATOM      6  C   UNL     1      38.103  66.026   6.251  1.00  0.00     0.041 C 
ATOM      7  O   UNL     1      37.150  66.302   7.025  1.00  0.00    -0.550 OA
ATOM      8  O   UNL     1      38.200  66.668   5.022  1.00  0.00    -0.550 OA
ENDBRANCH   5   6
ENDBRANCH   4   5
ENDBRANCH   3   4
ENDBRANCH   2   3
ENDBRANCH   1   2
BRANCH   1   9
ATOM      9  C   UNL     1      40.096  60.546   8.350  1.00  0.00     0.000 C 
BRANCH   9  10
ATOM     10  C   UNL     1      40.572  59.113   8.632  1.00  0.00    -0.000 C 
BRANCH  10  11
ATOM     11  C   UNL     1      41.943  58.812   8.000  1.00  0.00    -0.000 C 
BRANCH  11  12
ATOM     12  C   UNL     1      41.844  57.846   6.809  1.00  0.00    -0.000 C 
BRANCH  12  13
ATOM     13  C   UNL     1      41.929  56.374   7.235  1.00  0.00    -0.003 C 
ATOM     14  C   UNL     1      42.548  55.518   6.134  1.00  0.00     0.004 C 
ENDBRANCH  12  13
ENDBRANCH  11  12
ENDBRANCH  10  11
ENDBRANCH   9  10
ENDBRANCH   1   9
TORSDOF 10
ENDMDL
MODEL 5
REMARK VINA RESULT:    -4.288      3.422      5.251
REMARK INTER + INTRA:          -8.067
REMARK INTER:                  -6.816
REMARK INTRA:                  -1.251
REMARK UNBOUND:                -1.273
REMARK SMILES CCCCCCCCCCCC(=O)[O-]
REMARK SMILES IDX 7 1 8 2 9 3 10 4 11 5 12 6 13 7 14 8 6 9 5 10 4 11 3 12 2 13
REMARK SMILES IDX 1 14
REMARK H PARENT
REMARK Flexibility Score: inf
ROOT
ATOM      1  C   UNL     1      39.758  61.625   7.840  1.00  0.00     0.000 C 
ENDROOT
BRANCH   1   2
ATOM      2  C   UNL     1      39.958  62.856   8.739  1.00  0.00     0.000 C 
BRANCH   2   3
ATOM      3  C   UNL     1      40.906  63.896   8.115  1.00  0.00     0.000 C 
BRANCH   3   4
ATOM      4  C   UNL     1      40.211  64.764   7.054  1.00  0.00     0.006 C 
BRANCH   4   5
ATOM      5  C   UNL     1      38.755  65.087   7.413  1.00  0.00     0.053 C 
BRANCH   5   6
ATOM      6  C   UNL     1      38.136  65.949   6.358  1.00  0.00     0.041 C 
ATOM      7  O   UNL     1      37.018  66.490   6.558  1.00  0.00    -0.550 OA
ATOM      8  O   UNL     1      38.818  66.193   5.172  1.00  0.00    -0.550 OA
ENDBRANCH   5   6
ENDBRANCH   4   5
ENDBRANCH   3   4
ENDBRANCH   2   3
ENDBRANCH   1   2
BRANCH   1   9
ATOM      9  C   UNL     1      40.581  60.410   8.304  1.00  0.00     0.000 C 
BRANCH   9  10
ATOM     10  C   UNL     1      42.051  60.492   7.866  1.00  0.00    -0.000 C 
BRANCH  10  11
ATOM     11  C   UNL     1      42.211  60.492   6.335  1.00  0.00    -0.000 C 
BRANCH  11  12
ATOM     12  C   UNL     1      42.879  61.773   5.811  1.00  0.00    -0.000 C 
BRANCH  12  13
ATOM     13  C   UNL     1      42.071  62.445   4.692  1.00  0.00    -0.003 C 
ATOM     14  C   UNL     1      40.828  61.630   4.345  1.00  0.00     0.004 C 
ENDBRANCH  12  13
ENDBRANCH  11  12
ENDBRANCH  10  11
ENDBRANCH   9  10
ENDBRANCH   1   9
TORSDOF 10
ENDMDL
MODEL 6
REMARK VINA RESULT:    -4.281      1.766      3.588
REMARK INTER + INTRA:          -8.056
REMARK INTER:                  -6.852
REMARK INTRA:                  -1.204
REMARK UNBOUND:                -1.273
REMARK SMILES CCCCCCCCCCCC(=O)[O-]
REMARK SMILES IDX 7 1 8 2 9 3 10 4 11 5 12 6 13 7 14 8 6 9 5 10 4 11 3 12 2 13
REMARK SMILES IDX 1 14
REMARK H PARENT
REMARK Flexibility Score: inf
ROOT
ATOM      1  C   UNL     1      39.343  60.563   6.816  1.00  0.00     0.000 C 
ENDROOT
BRANCH   1   2
ATOM      2  C   UNL     1      40.549  60.473   5.868  1.00  0.00     0.000 C 
BRANCH   2   3
ATOM      3  C   UNL     1      40.900  59.022   5.494  1.00  0.00     0.000 C 
BRANCH   3   4
ATOM      4  C   UNL     1      42.299  58.610   5.978  1.00  0.00     0.006 C 
BRANCH   4   5
ATOM      5  C   UNL     1      42.388  58.494   7.506  1.00  0.00     0.053 C 
BRANCH   5   6
ATOM      6  C   UNL     1      41.566  57.342   7.990  1.00  0.00     0.041 C 
ATOM      7  O   UNL     1      41.796  56.179   7.568  1.00  0.00    -0.550 OA
ATOM      8  O   UNL     1      40.578  57.546   8.945  1.00  0.00    -0.550 OA
ENDBRANCH   5   6
ENDBRANCH   4   5
ENDBRANCH   3   4
ENDBRANCH   2   3
ENDBRANCH   1   2
BRANCH   1   9
ATOM      9  C   UNL     1      39.722  61.088   8.212  1.00  0.00     0.000 C 
BRANCH   9  10
ATOM     10  C   UNL     1      41.072  61.822   8.219  1.00  0.00    -0.000 C 
BRANCH  10  11
ATOM     11  C   UNL     1      40.928  63.316   8.561  1.00  0.00    -0.000 C 
BRANCH  11  12
ATOM     12  C   UNL     1      39.475  63.715   8.862  1.00  0.00    -0.000 C 
BRANCH  12  13
ATOM     13  C   UNL     1      39.005  64.910   8.019  1.00  0.00    -0.003 C 
ATOM     14  C   UNL     1      39.601  64.861   6.615  1.00  0.00     0.004 C 
ENDBRANCH  12  13
ENDBRANCH  11  12
ENDBRANCH  10  11
ENDBRANCH   9  10
ENDBRANCH   1   9
TORSDOF 10
ENDMDL
MODEL 7
REMARK VINA RESULT:    -4.269      1.324      1.885
REMARK INTER + INTRA:          -8.037
REMARK INTER:                  -6.705
REMARK INTRA:                  -1.332
REMARK UNBOUND:                -1.273
REMARK SMILES CCCCCCCCCCCC(=O)[O-]
REMARK SMILES IDX 7 1 8 2 9 3 10 4 11 5 12 6 13 7 14 8 6 9 5 10 4 11 3 12 2 13
REMARK SMILES IDX 1 14
REMARK H PARENT
REMARK Flexibility Score: inf
ROOT
ATOM      1  C   UNL     1      39.852  64.387   8.212  1.00  0.00     0.000 C 
ENDROOT
BRANCH   1   2
ATOM      2  C   UNL     1      39.638  62.880   8.426  1.00  0.00     0.000 C 
BRANCH   2   3
ATOM      3  C   UNL     1      40.960  62.091   8.429  1.00  0.00     0.000 C 
BRANCH   3   4
ATOM      4  C   UNL     1      40.740  60.574   8.321  1.00  0.00     0.006 C 
BRANCH   4   5
ATOM      5  C   UNL     1      39.445  60.213   7.582  1.00  0.00     0.053 C 
BRANCH   5   6
ATOM      6  C   UNL     1      39.319  58.728   7.445  1.00  0.00     0.041 C 
ATOM      7  O   UNL     1      40.166  58.079   6.780  1.00  0.00    -0.550 OA
ATOM      8  O   UNL     1      38.290  58.056   8.095  1.00  0.00    -0.550 OA
ENDBRANCH   5   6
ENDBRANCH   4   5
ENDBRANCH   3   4
ENDBRANCH   2   3
ENDBRANCH   1   2
BRANCH   1   9
ATOM      9  C   UNL     1      39.103  64.925   6.980  1.00  0.00     0.000 C 
BRANCH   9  10
ATOM     10  C   UNL     1      40.042  65.208   5.797  1.00  0.00    -0.000 C 
BRANCH  10  11
ATOM     11  C   UNL     1      41.525  65.023   6.165  1.00  0.00    -0.000 C 
BRANCH  11  12
ATOM     12  C   UNL     1      42.210  63.934   5.325  1.00  0.00    -0.000 C 
BRANCH  12  13
ATOM     13  C   UNL     1      41.207  62.964   4.685  1.00  0.00    -0.003 C 
ATOM     14  C   UNL     1      41.678  61.519   4.818  1.00  0.00     0.004 C 
ENDBRANCH  12  13
ENDBRANCH  11  12
ENDBRANCH  10  11
ENDBRANCH   9  10
ENDBRANCH   1   9
TORSDOF 10
ENDMDL
MODEL 8
REMARK VINA RESULT:    -4.254      1.374      2.635
REMARK INTER + INTRA:          -8.014
REMARK INTER:                  -7.422
REMARK INTRA:                  -0.592
REMARK UNBOUND:                -1.273
REMARK SMILES CCCCCCCCCCCC(=O)[O-]
REMARK SMILES IDX 7 1 8 2 9 3 10 4 11 5 12 6 13 7 14 8 6 9 5 10 4 11 3 12 2 13
REMARK SMILES IDX 1 14
REMARK H PARENT
REMARK Flexibility Score: inf
ROOT
ATOM      1  C   UNL     1      40.596  63.830   8.715  1.00  0.00     0.000 C 
ENDROOT
BRANCH   1   2
ATOM      2  C   UNL     1      40.100  62.431   8.317  1.00  0.00     0.000 C 
BRANCH   2   3
ATOM      3  C   UNL     1      41.223  61.378   8.343  1.00  0.00     0.000 C 
BRANCH   3   4
ATOM      4  C   UNL     1      40.684  59.940   8.286  1.00  0.00     0.006 C 
BRANCH   4   5
ATOM      5  C   UNL     1      39.221  59.872   7.826  1.00  0.00     0.053 C 
BRANCH   5   6
ATOM      6  C   UNL     1      39.130  59.261   6.464  1.00  0.00     0.041 C 
ATOM      7  O   UNL     1      39.640  58.133   6.240  1.00  0.00    -0.550 OA
ATOM      8  O   UNL     1      38.439  59.918   5.453  1.00  0.00    -0.550 OA
ENDBRANCH   5   6
ENDBRANCH   4   5
ENDBRANCH   3   4
ENDBRANCH   2   3
ENDBRANCH   1   2
BRANCH   1   9
ATOM      9  C   UNL     1      41.341  64.544   7.573  1.00  0.00     0.000 C 
BRANCH   9  10
ATOM     10  C   UNL     1      40.688  64.303   6.203  1.00  0.00    -0.000 C 
BRANCH  10  11
ATOM     11  C   UNL     1      39.784  65.472   5.768  1.00  0.00    -0.000 C 
BRANCH  11  12
ATOM     12  C   UNL     1      38.465  65.522   6.555  1.00  0.00    -0.000 C 
BRANCH  12  13
ATOM     13  C   UNL     1      37.505  66.598   6.029  1.00  0.00    -0.003 C 
ATOM     14  C   UNL     1      37.940  67.099   4.654  1.00  0.00     0.004 C 
ENDBRANCH  12  13
ENDBRANCH  11  12
ENDBRANCH  10  11
ENDBRANCH   9  10
ENDBRANCH   1   9
TORSDOF 10
ENDMDL
MODEL 9
REMARK VINA RESULT:    -4.185      1.335      1.994
REMARK INTER + INTRA:          -7.904
REMARK INTER:                  -6.682
REMARK INTRA:                  -1.222
REMARK UNBOUND:                -1.273
REMARK SMILES CCCCCCCCCCCC(=O)[O-]
REMARK SMILES IDX 7 1 8 2 9 3 10 4 11 5 12 6 13 7 14 8 6 9 5 10 4 11 3 12 2 13
REMARK SMILES IDX 1 14
REMARK H PARENT
REMARK Flexibility Score: inf
ROOT
ATOM      1  C   UNL     1      39.425  62.165   8.032  1.00  0.00     0.000 C 
ENDROOT
BRANCH   1   2
ATOM      2  C   UNL     1      40.207  60.884   8.362  1.00  0.00     0.000 C 
BRANCH   2   3
ATOM      3  C   UNL     1      41.701  60.996   8.008  1.00  0.00     0.000 C 
BRANCH   3   4
ATOM      4  C   UNL     1      42.302  59.656   7.556  1.00  0.00     0.006 C 
BRANCH   4   5
ATOM      5  C   UNL     1      41.658  58.451   8.256  1.00  0.00     0.053 C 
BRANCH   5   6
ATOM      6  C   UNL     1      41.396  57.355   7.272  1.00  0.00     0.041 C 
ATOM      7  O   UNL     1      40.799  57.603   6.192  1.00  0.00    -0.550 OA
ATOM      8  O   UNL     1      41.856  56.069   7.526  1.00  0.00    -0.550 OA
ENDBRANCH   5   6
ENDBRANCH   4   5
ENDBRANCH   3   4
ENDBRANCH   2   3
ENDBRANCH   1   2
BRANCH   1   9
ATOM      9  C   UNL     1      40.002  63.410   8.729  1.00  0.00     0.000 C 
BRANCH   9  10
ATOM     10  C   UNL     1      39.707  64.706   7.959  1.00  0.00    -0.000 C 
BRANCH  10  11
ATOM     11  C   UNL     1      40.315  64.702   6.544  1.00  0.00    -0.000 C 
BRANCH  11  12
ATOM     12  C   UNL     1      41.846  64.576   6.560  1.00  0.00    -0.000 C 
BRANCH  12  13
ATOM     13  C   UNL     1      42.376  63.681   5.431  1.00  0.00    -0.003 C 
ATOM     14  C   UNL     1      41.238  62.937   4.739  1.00  0.00     0.004 C 
ENDBRANCH  12  13
ENDBRANCH  11  12
ENDBRANCH  10  11
ENDBRANCH   9  10
ENDBRANCH   1   9
TORSDOF 10
ENDMDL
