MODEL 1
REMARK VINA RESULT:    -7.519      0.000      0.000
REMARK INTER + INTRA:         -13.110
REMARK INTER:                 -11.036
REMARK INTRA:                  -2.075
REMARK UNBOUND:                -2.075
REMARK SMILES O=c1c(O[C@@H]2O[C@@H](CO)[C@H](O)[C@H](O)[C@@H]2O)c(-c2ccc(O)c(O)c2)oc2cc(O)cc(O)c12
REMARK SMILES IDX 4 1 3 2 16 3 25 4 2 5 26 6 1 7 33 8 27 9 31 10 28 11 30 12
REMARK SMILES IDX 17 13 18 14 19 15 20 16 24 17 22 18 21 19 23 21 32 23 29 25
REMARK SMILES IDX 5 27 14 28 6 29 12 30 7 31 10 32 15 33 13 35 8 37 9 38 11 40
REMARK H PARENT 21 20 23 22 32 24 29 26 15 34 13 36 9 39 11 41
REMARK Flexibility Score: inf
ROOT
ATOM      1  O   UNL     1      18.612  -9.466  29.760  1.00  0.00    -0.454 OA
ENDROOT
BRANCH   1   2
ATOM      2  C   UNL     1      19.071  -9.749  28.467  1.00  0.00     0.214 A 
ATOM      3  C   UNL     1      18.186 -10.030  27.404  1.00  0.00     0.180 A 
ATOM      4  O   UNL     1      18.672 -10.382  26.218  1.00  0.00    -0.452 OA
ATOM      5  C   UNL     1      20.447  -9.766  28.223  1.00  0.00     0.239 A 
ATOM      6  C   UNL     1      19.971 -10.447  25.953  1.00  0.00     0.146 A 
ATOM      7  O   UNL     1      21.241  -9.477  29.159  1.00  0.00    -0.285 OA
ATOM      8  C   UNL     1      20.926 -10.126  26.947  1.00  0.00     0.111 A 
ATOM      9  C   UNL     1      20.387 -10.829  24.674  1.00  0.00     0.094 A 
ATOM     10  C   UNL     1      22.304 -10.190  26.627  1.00  0.00     0.134 A 
ATOM     11  C   UNL     1      21.750 -10.892  24.364  1.00  0.00     0.123 A 
ATOM     12  C   UNL     1      22.700 -10.572  25.337  1.00  0.00     0.093 A 
BRANCH   3  13
ATOM     13  C   UNL     1      16.719  -9.923  27.552  1.00  0.00     0.025 A 
ATOM     14  C   UNL     1      15.911 -11.072  27.573  1.00  0.00     0.016 A 
ATOM     15  C   UNL     1      14.527 -10.956  27.722  1.00  0.00     0.051 A 
ATOM     16  C   UNL     1      13.934  -9.699  27.868  1.00  0.00     0.157 A 
ATOM     17  C   UNL     1      16.127  -8.664  27.723  1.00  0.00     0.062 A 
ATOM     18  C   UNL     1      14.737  -8.545  27.872  1.00  0.00     0.158 A 
BRANCH  16  19
ATOM     19  O   UNL     1      12.549  -9.613  28.010  1.00  0.00    -0.504 OA
ATOM     20  H   UNL     1      12.099  -9.628  28.917  1.00  0.00     0.293 HD
ENDBRANCH  16  19
BRANCH  18  21
ATOM     21  O   UNL     1      14.154  -7.288  28.026  1.00  0.00    -0.504 OA
ATOM     22  H   UNL     1      14.299  -6.734  28.862  1.00  0.00     0.293 HD
ENDBRANCH  18  21
ENDBRANCH   3  13
BRANCH  10  23
ATOM     23  O   UNL     1      23.277  -9.878  27.577  1.00  0.00    -0.507 OA
ATOM     24  H   UNL     1      24.262  -9.856  27.343  1.00  0.00     0.293 HD
ENDBRANCH  10  23
BRANCH  11  25
ATOM     25  O   UNL     1      22.171 -11.270  23.091  1.00  0.00    -0.508 OA
ATOM     26  H   UNL     1      21.534 -11.691  22.425  1.00  0.00     0.293 HD
ENDBRANCH  11  25
ENDBRANCH   1   2
BRANCH   1  27
ATOM     27  C   UNL     1      18.124 -10.473  30.656  1.00  0.00     0.339 C 
ATOM     28  C   UNL     1      18.879 -10.432  31.997  1.00  0.00     0.214 C 
ATOM     29  O   UNL     1      16.725 -10.341  30.852  1.00  0.00    -0.332 OA
ATOM     30  C   UNL     1      18.544  -9.143  32.773  1.00  0.00     0.180 C 
ATOM     31  C   UNL     1      16.395  -9.092  31.441  1.00  0.00     0.179 C 
ATOM     32  C   UNL     1      17.018  -8.969  32.854  1.00  0.00     0.177 C 
BRANCH  28  33
ATOM     33  O   UNL     1      20.261 -10.534  31.768  1.00  0.00    -0.384 OA
ATOM     34  H   UNL     1      20.654 -10.954  32.577  1.00  0.00     0.211 HD
ENDBRANCH  28  33
BRANCH  30  35
ATOM     35  O   UNL     1      19.117  -8.021  32.145  1.00  0.00    -0.387 OA
ATOM     36  H   UNL     1      18.900  -8.088  31.179  1.00  0.00     0.211 HD
ENDBRANCH  30  35
BRANCH  31  37
ATOM     37  C   UNL     1      14.866  -8.973  31.491  1.00  0.00     0.191 C 
BRANCH  37  38
ATOM     38  O   UNL     1      14.465  -7.672  31.162  1.00  0.00    -0.394 OA
ATOM     39  H   UNL     1      13.975  -7.743  30.302  1.00  0.00     0.210 HD
ENDBRANCH  37  38
ENDBRANCH  31  37
BRANCH  32  40
ATOM     40  O   UNL     1      16.705  -7.717  33.407  1.00  0.00    -0.387 OA
ATOM     41  H   UNL     1      16.935  -7.036  32.722  1.00  0.00     0.211 HD
ENDBRANCH  32  40
ENDBRANCH   1  27
TORSDOF 12
ENDMDL
MODEL 2
REMARK VINA RESULT:    -7.385      1.778      5.106
REMARK INTER + INTRA:         -12.913
REMARK INTER:                 -11.380
REMARK INTRA:                  -1.533
REMARK UNBOUND:                -2.075
REMARK SMILES O=c1c(O[C@@H]2O[C@@H](CO)[C@H](O)[C@H](O)[C@@H]2O)c(-c2ccc(O)c(O)c2)oc2cc(O)cc(O)c12
REMARK SMILES IDX 4 1 3 2 16 3 25 4 2 5 26 6 1 7 33 8 27 9 31 10 28 11 30 12
REMARK SMILES IDX 17 13 18 14 19 15 20 16 24 17 22 18 21 19 23 21 32 23 29 25
REMARK SMILES IDX 5 27 14 28 6 29 12 30 7 31 10 32 15 33 13 35 8 37 9 38 11 40
REMARK H PARENT 21 20 23 22 32 24 29 26 15 34 13 36 9 39 11 41
REMARK Flexibility Score: inf
ROOT
ATOM      1  O   UNL     1      18.776 -10.329  27.480  1.00  0.00    -0.454 OA
ENDROOT
BRANCH   1   2
ATOM      2  C   UNL     1      20.157 -10.182  27.299  1.00  0.00     0.214 A 
ATOM      3  C   UNL     1      21.001  -9.722  28.333  1.00  0.00     0.180 A 
ATOM      4  O   UNL     1      22.291  -9.511  28.086  1.00  0.00    -0.452 OA
ATOM      5  C   UNL     1      20.716 -10.487  26.055  1.00  0.00     0.239 A 
ATOM      6  C   UNL     1      22.855  -9.753  26.908  1.00  0.00     0.146 A 
ATOM      7  O   UNL     1      19.973 -10.935  25.140  1.00  0.00    -0.285 OA
ATOM      8  C   UNL     1      22.092 -10.269  25.834  1.00  0.00     0.111 A 
ATOM      9  C   UNL     1      24.221  -9.499  26.743  1.00  0.00     0.094 A 
ATOM     10  C   UNL     1      22.729 -10.530  24.598  1.00  0.00     0.134 A 
ATOM     11  C   UNL     1      24.844  -9.758  25.518  1.00  0.00     0.123 A 
ATOM     12  C   UNL     1      24.100 -10.272  24.454  1.00  0.00     0.093 A 
BRANCH   3  13
ATOM     13  C   UNL     1      20.508  -9.484  29.705  1.00  0.00     0.025 A 
ATOM     14  C   UNL     1      20.480  -8.189  30.248  1.00  0.00     0.016 A 
ATOM     15  C   UNL     1      20.003  -7.978  31.544  1.00  0.00     0.051 A 
ATOM     16  C   UNL     1      19.533  -9.051  32.308  1.00  0.00     0.157 A 
ATOM     17  C   UNL     1      20.013 -10.556  30.462  1.00  0.00     0.062 A 
ATOM     18  C   UNL     1      19.535 -10.347  31.764  1.00  0.00     0.158 A 
BRANCH  16  19
ATOM     19  O   UNL     1      19.067  -8.812  33.600  1.00  0.00    -0.504 OA
ATOM     20  H   UNL     1      19.692  -8.744  34.394  1.00  0.00     0.293 HD
ENDBRANCH  16  19
BRANCH  18  21
ATOM     21  O   UNL     1      19.059 -11.421  32.516  1.00  0.00    -0.504 OA
ATOM     22  H   UNL     1      18.400 -11.287  33.274  1.00  0.00     0.293 HD
ENDBRANCH  18  21
ENDBRANCH   3  13
BRANCH  10  23
ATOM     23  O   UNL     1      22.012 -11.042  23.515  1.00  0.00    -0.507 OA
ATOM     24  H   UNL     1      22.251 -11.930  23.090  1.00  0.00     0.293 HD
ENDBRANCH  10  23
BRANCH  11  25
ATOM     25  O   UNL     1      26.204  -9.509  25.348  1.00  0.00    -0.508 OA
ATOM     26  H   UNL     1      26.674  -9.705  24.472  1.00  0.00     0.293 HD
ENDBRANCH  11  25
ENDBRANCH   1   2
BRANCH   1  27
ATOM     27  C   UNL     1      17.903  -9.231  27.771  1.00  0.00     0.339 C 
ATOM     28  C   UNL     1      17.195  -8.734  26.497  1.00  0.00     0.214 C 
ATOM     29  O   UNL     1      16.963  -9.584  28.774  1.00  0.00    -0.332 OA
ATOM     30  C   UNL     1      16.198  -9.790  25.979  1.00  0.00     0.180 C 
ATOM     31  C   UNL     1      16.128 -10.654  28.355  1.00  0.00     0.179 C 
ATOM     32  C   UNL     1      15.279 -10.241  27.128  1.00  0.00     0.177 C 
BRANCH  28  33
ATOM     33  O   UNL     1      18.149  -8.422  25.515  1.00  0.00    -0.384 OA
ATOM     34  H   UNL     1      18.963  -8.949  25.730  1.00  0.00     0.211 HD
ENDBRANCH  28  33
BRANCH  30  35
ATOM     35  O   UNL     1      16.880 -10.902  25.452  1.00  0.00    -0.387 OA
ATOM     36  H   UNL     1      16.967 -10.752  24.476  1.00  0.00     0.211 HD
ENDBRANCH  30  35
BRANCH  31  37
ATOM     37  C   UNL     1      15.241 -11.063  29.538  1.00  0.00     0.191 C 
BRANCH  37  38
ATOM     38  O   UNL     1      14.005 -10.407  29.475  1.00  0.00    -0.394 OA
ATOM     39  H   UNL     1      13.348 -11.085  29.171  1.00  0.00     0.210 HD
ENDBRANCH  37  38
ENDBRANCH  31  37
BRANCH  32  40
ATOM     40  O   UNL     1      14.483 -11.321  26.711  1.00  0.00    -0.387 OA
ATOM     41  H   UNL     1      14.749 -12.102  27.264  1.00  0.00     0.211 HD
ENDBRANCH  32  40
ENDBRANCH   1  27
TORSDOF 12
ENDMDL
MODEL 3
REMARK VINA RESULT:    -6.970      1.855      4.947
REMARK INTER + INTRA:         -12.305
REMARK INTER:                 -10.766
REMARK INTRA:                  -1.539
REMARK UNBOUND:                -2.075
REMARK SMILES O=c1c(O[C@@H]2O[C@@H](CO)[C@H](O)[C@H](O)[C@@H]2O)c(-c2ccc(O)c(O)c2)oc2cc(O)cc(O)c12
REMARK SMILES IDX 4 1 3 2 16 3 25 4 2 5 26 6 1 7 33 8 27 9 31 10 28 11 30 12
REMARK SMILES IDX 17 13 18 14 19 15 20 16 24 17 22 18 21 19 23 21 32 23 29 25
REMARK SMILES IDX 5 27 14 28 6 29 12 30 7 31 10 32 15 33 13 35 8 37 9 38 11 40
REMARK H PARENT 21 20 23 22 32 24 29 26 15 34 13 36 9 39 11 41
REMARK Flexibility Score: inf
ROOT
ATOM      1  O   UNL     1      15.606 -10.200  29.073  1.00  0.00    -0.454 OA
ENDROOT
BRANCH   1   2
ATOM      2  C   UNL     1      16.886 -10.376  28.532  1.00  0.00     0.214 A 
ATOM      3  C   UNL     1      18.034 -10.483  29.347  1.00  0.00     0.180 A 
ATOM      4  O   UNL     1      19.237 -10.557  28.785  1.00  0.00    -0.452 OA
ATOM      5  C   UNL     1      17.035 -10.435  27.144  1.00  0.00     0.239 A 
ATOM      6  C   UNL     1      19.426 -10.579  27.471  1.00  0.00     0.146 A 
ATOM      7  O   UNL     1      16.009 -10.380  26.413  1.00  0.00    -0.285 OA
ATOM      8  C   UNL     1      18.325 -10.533  26.583  1.00  0.00     0.111 A 
ATOM      9  C   UNL     1      20.730 -10.658  26.972  1.00  0.00     0.094 A 
ATOM     10  C   UNL     1      18.561 -10.575  25.187  1.00  0.00     0.134 A 
ATOM     11  C   UNL     1      20.957 -10.697  25.592  1.00  0.00     0.123 A 
ATOM     12  C   UNL     1      19.876 -10.657  24.708  1.00  0.00     0.093 A 
BRANCH   3  13
ATOM     13  C   UNL     1      17.950 -10.541  30.821  1.00  0.00     0.025 A 
ATOM     14  C   UNL     1      17.373 -11.645  31.469  1.00  0.00     0.016 A 
ATOM     15  C   UNL     1      17.308 -11.689  32.864  1.00  0.00     0.051 A 
ATOM     16  C   UNL     1      17.832 -10.643  33.630  1.00  0.00     0.157 A 
ATOM     17  C   UNL     1      18.497  -9.503  31.590  1.00  0.00     0.062 A 
ATOM     18  C   UNL     1      18.433  -9.545  32.991  1.00  0.00     0.158 A 
BRANCH  16  19
ATOM     19  O   UNL     1      17.750 -10.713  35.020  1.00  0.00    -0.504 OA
ATOM     20  H   UNL     1      17.297  -9.992  35.569  1.00  0.00     0.293 HD
ENDBRANCH  16  19
BRANCH  18  21
ATOM     21  O   UNL     1      18.965  -8.502  33.748  1.00  0.00    -0.504 OA
ATOM     22  H   UNL     1      18.855  -7.534  33.469  1.00  0.00     0.293 HD
ENDBRANCH  18  21
ENDBRANCH   3  13
BRANCH  10  23
ATOM     23  O   UNL     1      17.502 -10.535  24.279  1.00  0.00    -0.507 OA
ATOM     24  H   UNL     1      16.953 -11.359  24.065  1.00  0.00     0.293 HD
ENDBRANCH  10  23
BRANCH  11  25
ATOM     25  O   UNL     1      22.254 -10.777  25.089  1.00  0.00    -0.508 OA
ATOM     26  H   UNL     1      23.060 -10.794  25.702  1.00  0.00     0.293 HD
ENDBRANCH  11  25
ENDBRANCH   1   2
BRANCH   1  27
ATOM     27  C   UNL     1      15.233  -9.051  29.844  1.00  0.00     0.339 C 
ATOM     28  C   UNL     1      14.524  -8.003  28.966  1.00  0.00     0.214 C 
ATOM     29  O   UNL     1      14.425  -9.424  30.949  1.00  0.00    -0.332 OA
ATOM     30  C   UNL     1      13.148  -8.521  28.502  1.00  0.00     0.180 C 
ATOM     31  C   UNL     1      13.212 -10.031  30.530  1.00  0.00     0.179 C 
ATOM     32  C   UNL     1      12.352  -9.035  29.714  1.00  0.00     0.177 C 
BRANCH  28  33
ATOM     33  O   UNL     1      15.334  -7.679  27.867  1.00  0.00    -0.384 OA
ATOM     34  H   UNL     1      14.764  -7.763  27.058  1.00  0.00     0.211 HD
ENDBRANCH  28  33
BRANCH  30  35
ATOM     35  O   UNL     1      13.298  -9.556  27.560  1.00  0.00    -0.387 OA
ATOM     36  H   UNL     1      14.165  -9.999  27.753  1.00  0.00     0.211 HD
ENDBRANCH  30  35
BRANCH  31  37
ATOM     37  C   UNL     1      12.466 -10.526  31.776  1.00  0.00     0.191 C 
BRANCH  37  38
ATOM     38  O   UNL     1      11.594 -11.571  31.443  1.00  0.00    -0.394 OA
ATOM     39  H   UNL     1      11.861 -11.874  30.536  1.00  0.00     0.210 HD
ENDBRANCH  37  38
ENDBRANCH  31  37
BRANCH  32  40
ATOM     40  O   UNL     1      11.172  -9.662  29.283  1.00  0.00    -0.387 OA
ATOM     41  H   UNL     1      10.960 -10.364  29.954  1.00  0.00     0.211 HD
ENDBRANCH  32  40
ENDBRANCH   1  27
TORSDOF 12
ENDMDL
MODEL 4
REMARK VINA RESULT:    -6.641      2.183      6.906
REMARK INTER + INTRA:         -11.821
REMARK INTER:                 -10.818
REMARK INTRA:                  -1.003
REMARK UNBOUND:                -2.075
REMARK SMILES O=c1c(O[C@@H]2O[C@@H](CO)[C@H](O)[C@H](O)[C@@H]2O)c(-c2ccc(O)c(O)c2)oc2cc(O)cc(O)c12
REMARK SMILES IDX 4 1 3 2 16 3 25 4 2 5 26 6 1 7 33 8 27 9 31 10 28 11 30 12
REMARK SMILES IDX 17 13 18 14 19 15 20 16 24 17 22 18 21 19 23 21 32 23 29 25
REMARK SMILES IDX 5 27 14 28 6 29 12 30 7 31 10 32 15 33 13 35 8 37 9 38 11 40
REMARK H PARENT 21 20 23 22 32 24 29 26 15 34 13 36 9 39 11 41
REMARK Flexibility Score: inf
ROOT
ATOM      1  O   UNL     1      16.879  -9.064  29.816  1.00  0.00    -0.454 OA
ENDROOT
BRANCH   1   2
ATOM      2  C   UNL     1      16.493  -9.146  31.160  1.00  0.00     0.214 A 
ATOM      3  C   UNL     1      15.143  -9.040  31.557  1.00  0.00     0.180 A 
ATOM      4  O   UNL     1      14.836  -9.032  32.851  1.00  0.00    -0.452 OA
ATOM      5  C   UNL     1      17.474  -9.326  32.139  1.00  0.00     0.239 A 
ATOM      6  C   UNL     1      15.740  -9.163  33.815  1.00  0.00     0.146 A 
ATOM      7  O   UNL     1      18.677  -9.461  31.786  1.00  0.00    -0.285 OA
ATOM      8  C   UNL     1      17.110  -9.332  33.501  1.00  0.00     0.111 A 
ATOM      9  C   UNL     1      15.321  -9.143  35.149  1.00  0.00     0.094 A 
ATOM     10  C   UNL     1      18.045  -9.486  34.552  1.00  0.00     0.134 A 
ATOM     11  C   UNL     1      16.251  -9.294  36.184  1.00  0.00     0.123 A 
ATOM     12  C   UNL     1      17.604  -9.466  35.883  1.00  0.00     0.093 A 
BRANCH   3  13
ATOM     13  C   UNL     1      14.038  -8.959  30.579  1.00  0.00     0.025 A 
ATOM     14  C   UNL     1      13.089  -9.989  30.476  1.00  0.00     0.016 A 
ATOM     15  C   UNL     1      12.045  -9.896  29.553  1.00  0.00     0.051 A 
ATOM     16  C   UNL     1      11.925  -8.769  28.734  1.00  0.00     0.157 A 
ATOM     17  C   UNL     1      13.903  -7.818  29.775  1.00  0.00     0.062 A 
ATOM     18  C   UNL     1      12.856  -7.722  28.847  1.00  0.00     0.158 A 
BRANCH  16  19
ATOM     19  O   UNL     1      10.875  -8.704  27.818  1.00  0.00    -0.504 OA
ATOM     20  H   UNL     1      10.023  -8.191  28.010  1.00  0.00     0.293 HD
ENDBRANCH  16  19
BRANCH  18  21
ATOM     21  O   UNL     1      12.737  -6.592  28.039  1.00  0.00    -0.504 OA
ATOM     22  H   UNL     1      11.894  -6.404  27.509  1.00  0.00     0.293 HD
ENDBRANCH  18  21
ENDBRANCH   3  13
BRANCH  10  23
ATOM     23  O   UNL     1      19.404  -9.657  34.284  1.00  0.00    -0.507 OA
ATOM     24  H   UNL     1      19.961 -10.345  34.778  1.00  0.00     0.293 HD
ENDBRANCH  10  23
BRANCH  11  25
ATOM     25  O   UNL     1      15.839  -9.275  37.515  1.00  0.00    -0.508 OA
ATOM     26  H   UNL     1      14.984  -8.811  37.799  1.00  0.00     0.293 HD
ENDBRANCH  11  25
ENDBRANCH   1   2
BRANCH   1  27
ATOM     27  C   UNL     1      17.415 -10.175  29.086  1.00  0.00     0.339 C 
ATOM     28  C   UNL     1      16.584 -10.459  27.821  1.00  0.00     0.214 C 
ATOM     29  O   UNL     1      18.780  -9.957  28.763  1.00  0.00    -0.332 OA
ATOM     30  C   UNL     1      16.740  -9.316  26.798  1.00  0.00     0.180 C 
ATOM     31  C   UNL     1      18.946  -8.819  27.931  1.00  0.00     0.179 C 
ATOM     32  C   UNL     1      18.233  -9.024  26.571  1.00  0.00     0.177 C 
BRANCH  28  33
ATOM     33  O   UNL     1      15.236 -10.639  28.170  1.00  0.00    -0.384 OA
ATOM     34  H   UNL     1      14.738 -10.774  27.321  1.00  0.00     0.211 HD
ENDBRANCH  28  33
BRANCH  30  35
ATOM     35  O   UNL     1      16.092  -8.151  27.251  1.00  0.00    -0.387 OA
ATOM     36  H   UNL     1      15.382  -8.442  27.880  1.00  0.00     0.211 HD
ENDBRANCH  30  35
BRANCH  31  37
ATOM     37  C   UNL     1      20.449  -8.574  27.745  1.00  0.00     0.191 C 
BRANCH  37  38
ATOM     38  O   UNL     1      20.872  -9.049  26.497  1.00  0.00    -0.394 OA
ATOM     39  H   UNL     1      20.118  -9.582  26.134  1.00  0.00     0.210 HD
ENDBRANCH  37  38
ENDBRANCH  31  37
BRANCH  32  40
ATOM     40  O   UNL     1      18.383  -7.877  25.775  1.00  0.00    -0.387 OA
ATOM     41  H   UNL     1      17.514  -7.398  25.797  1.00  0.00     0.211 HD
ENDBRANCH  32  40
ENDBRANCH   1  27
TORSDOF 12
ENDMDL
MODEL 5
REMARK VINA RESULT:    -6.629      1.843      2.614
REMARK INTER + INTRA:         -11.804
REMARK INTER:                  -9.761
REMARK INTRA:                  -2.043
REMARK UNBOUND:                -2.075
REMARK SMILES O=c1c(O[C@@H]2O[C@@H](CO)[C@H](O)[C@H](O)[C@@H]2O)c(-c2ccc(O)c(O)c2)oc2cc(O)cc(O)c12
REMARK SMILES IDX 4 1 3 2 16 3 25 4 2 5 26 6 1 7 33 8 27 9 31 10 28 11 30 12
REMARK SMILES IDX 17 13 18 14 19 15 20 16 24 17 22 18 21 19 23 21 32 23 29 25
REMARK SMILES IDX 5 27 14 28 6 29 12 30 7 31 10 32 15 33 13 35 8 37 9 38 11 40
REMARK H PARENT 21 20 23 22 32 24 29 26 15 34 13 36 9 39 11 41
REMARK Flexibility Score: inf
ROOT
ATOM      1  O   UNL     1      17.158  -9.488  31.089  1.00  0.00    -0.454 OA
ENDROOT
BRANCH   1   2
ATOM      2  C   UNL     1      17.378  -9.594  29.710  1.00  0.00     0.214 A 
ATOM      3  C   UNL     1      16.331  -9.454  28.774  1.00  0.00     0.180 A 
ATOM      4  O   UNL     1      16.573  -9.654  27.481  1.00  0.00    -0.452 OA
ATOM      5  C   UNL     1      18.670  -9.858  29.246  1.00  0.00     0.239 A 
ATOM      6  C   UNL     1      17.776  -9.943  27.001  1.00  0.00     0.146 A 
ATOM      7  O   UNL     1      19.615  -9.943  30.075  1.00  0.00    -0.285 OA
ATOM      8  C   UNL     1      18.892 -10.045  27.866  1.00  0.00     0.111 A 
ATOM      9  C   UNL     1      17.933 -10.136  25.625  1.00  0.00     0.094 A 
ATOM     10  C   UNL     1      20.165 -10.337  27.320  1.00  0.00     0.134 A 
ATOM     11  C   UNL     1      19.193 -10.427  25.091  1.00  0.00     0.123 A 
ATOM     12  C   UNL     1      20.301 -10.525  25.937  1.00  0.00     0.093 A 
BRANCH   3  13
ATOM     13  C   UNL     1      14.963  -9.067  29.174  1.00  0.00     0.025 A 
ATOM     14  C   UNL     1      14.616  -7.716  29.348  1.00  0.00     0.016 A 
ATOM     15  C   UNL     1      13.317  -7.364  29.719  1.00  0.00     0.051 A 
ATOM     16  C   UNL     1      12.343  -8.350  29.905  1.00  0.00     0.157 A 
ATOM     17  C   UNL     1      13.979 -10.053  29.337  1.00  0.00     0.062 A 
ATOM     18  C   UNL     1      12.674  -9.702  29.709  1.00  0.00     0.158 A 
BRANCH  16  19
ATOM     19  O   UNL     1      11.055  -7.970  30.279  1.00  0.00    -0.504 OA
ATOM     20  H   UNL     1      10.269  -8.608  30.232  1.00  0.00     0.293 HD
ENDBRANCH  16  19
BRANCH  18  21
ATOM     21  O   UNL     1      11.706 -10.691  29.884  1.00  0.00    -0.504 OA
ATOM     22  H   UNL     1      10.932 -10.568  30.527  1.00  0.00     0.293 HD
ENDBRANCH  18  21
ENDBRANCH   3  13
BRANCH  10  23
ATOM     23  O   UNL     1      21.290 -10.443  28.138  1.00  0.00    -0.507 OA
ATOM     24  H   UNL     1      21.684 -11.343  28.388  1.00  0.00     0.293 HD
ENDBRANCH  10  23
BRANCH  11  25
ATOM     25  O   UNL     1      19.355 -10.620  23.721  1.00  0.00    -0.508 OA
ATOM     26  H   UNL     1      19.061  -9.921  23.049  1.00  0.00     0.293 HD
ENDBRANCH  11  25
ENDBRANCH   1   2
BRANCH   1  27
ATOM     27  C   UNL     1      17.073 -10.624  31.958  1.00  0.00     0.339 C 
ATOM     28  C   UNL     1      17.902 -10.405  33.238  1.00  0.00     0.214 C 
ATOM     29  O   UNL     1      15.722 -10.924  32.269  1.00  0.00    -0.332 OA
ATOM     30  C   UNL     1      17.273  -9.302  34.113  1.00  0.00     0.180 C 
ATOM     31  C   UNL     1      15.093  -9.852  32.956  1.00  0.00     0.179 C 
ATOM     32  C   UNL     1      15.777  -9.596  34.321  1.00  0.00     0.177 C 
BRANCH  28  33
ATOM     33  O   UNL     1      19.225 -10.081  32.897  1.00  0.00    -0.384 OA
ATOM     34  H   UNL     1      19.695 -10.939  32.731  1.00  0.00     0.211 HD
ENDBRANCH  28  33
BRANCH  30  35
ATOM     35  O   UNL     1      17.430  -8.040  33.511  1.00  0.00    -0.387 OA
ATOM     36  H   UNL     1      16.932  -8.065  32.653  1.00  0.00     0.211 HD
ENDBRANCH  30  35
BRANCH  31  37
ATOM     37  C   UNL     1      13.608 -10.197  33.129  1.00  0.00     0.191 C 
BRANCH  37  38
ATOM     38  O   UNL     1      12.846  -9.030  33.267  1.00  0.00    -0.394 OA
ATOM     39  H   UNL     1      12.883  -8.787  34.228  1.00  0.00     0.210 HD
ENDBRANCH  37  38
ENDBRANCH  31  37
BRANCH  32  40
ATOM     40  O   UNL     1      15.161  -8.514  34.970  1.00  0.00    -0.387 OA
ATOM     41  H   UNL     1      15.806  -8.182  35.649  1.00  0.00     0.211 HD
ENDBRANCH  32  40
ENDBRANCH   1  27
TORSDOF 12
ENDMDL
MODEL 6
REMARK VINA RESULT:    -6.427      9.875     12.791
REMARK INTER + INTRA:         -11.508
REMARK INTER:                  -9.796
REMARK INTRA:                  -1.713
REMARK UNBOUND:                -2.075
REMARK SMILES O=c1c(O[C@@H]2O[C@@H](CO)[C@H](O)[C@H](O)[C@@H]2O)c(-c2ccc(O)c(O)c2)oc2cc(O)cc(O)c12
REMARK SMILES IDX 4 1 3 2 16 3 25 4 2 5 26 6 1 7 33 8 27 9 31 10 28 11 30 12
REMARK SMILES IDX 17 13 18 14 19 15 20 16 24 17 22 18 21 19 23 21 32 23 29 25
REMARK SMILES IDX 5 27 14 28 6 29 12 30 7 31 10 32 15 33 13 35 8 37 9 38 11 40
REMARK H PARENT 21 20 23 22 32 24 29 26 15 34 13 36 9 39 11 41
REMARK Flexibility Score: inf
ROOT
ATOM      1  O   UNL     1      26.996  -1.373  28.352  1.00  0.00    -0.454 OA
ENDROOT
BRANCH   1   2
ATOM      2  C   UNL     1      26.648  -1.717  29.664  1.00  0.00     0.214 A 
ATOM      3  C   UNL     1      25.361  -2.190  29.997  1.00  0.00     0.180 A 
ATOM      4  O   UNL     1      25.051  -2.417  31.270  1.00  0.00    -0.452 OA
ATOM      5  C   UNL     1      27.600  -1.577  30.678  1.00  0.00     0.239 A 
ATOM      6  C   UNL     1      25.913  -2.261  32.268  1.00  0.00     0.146 A 
ATOM      7  O   UNL     1      28.764  -1.193  30.381  1.00  0.00    -0.285 OA
ATOM      8  C   UNL     1      27.242  -1.845  32.015  1.00  0.00     0.111 A 
ATOM      9  C   UNL     1      25.494  -2.524  33.577  1.00  0.00     0.094 A 
ATOM     10  C   UNL     1      28.140  -1.705  33.101  1.00  0.00     0.134 A 
ATOM     11  C   UNL     1      26.386  -2.382  34.645  1.00  0.00     0.123 A 
ATOM     12  C   UNL     1      27.701  -1.976  34.405  1.00  0.00     0.093 A 
BRANCH   3  13
ATOM     13  C   UNL     1      24.336  -2.471  28.971  1.00  0.00     0.025 A 
ATOM     14  C   UNL     1      23.149  -1.721  28.911  1.00  0.00     0.016 A 
ATOM     15  C   UNL     1      22.192  -1.992  27.930  1.00  0.00     0.051 A 
ATOM     16  C   UNL     1      22.413  -3.001  26.988  1.00  0.00     0.157 A 
ATOM     17  C   UNL     1      24.567  -3.466  28.010  1.00  0.00     0.062 A 
ATOM     18  C   UNL     1      23.607  -3.740  27.024  1.00  0.00     0.158 A 
BRANCH  16  19
ATOM     19  O   UNL     1      21.438  -3.252  26.022  1.00  0.00    -0.504 OA
ATOM     20  H   UNL     1      20.606  -2.682  25.936  1.00  0.00     0.293 HD
ENDBRANCH  16  19
BRANCH  18  21
ATOM     21  O   UNL     1      23.838  -4.742  26.082  1.00  0.00    -0.504 OA
ATOM     22  H   UNL     1      24.502  -4.618  25.326  1.00  0.00     0.293 HD
ENDBRANCH  18  21
ENDBRANCH   3  13
BRANCH  10  23
ATOM     23  O   UNL     1      29.458  -1.299  32.893  1.00  0.00    -0.507 OA
ATOM     24  H   UNL     1      30.240  -1.806  33.292  1.00  0.00     0.293 HD
ENDBRANCH  10  23
BRANCH  11  25
ATOM     25  O   UNL     1      25.975  -2.643  35.951  1.00  0.00    -0.508 OA
ATOM     26  H   UNL     1      25.696  -3.573  36.243  1.00  0.00     0.293 HD
ENDBRANCH  11  25
ENDBRANCH   1   2
BRANCH   1  27
ATOM     27  C   UNL     1      26.505  -0.198  27.694  1.00  0.00     0.339 C 
ATOM     28  C   UNL     1      27.664   0.719  27.263  1.00  0.00     0.214 C 
ATOM     29  O   UNL     1      25.686  -0.542  26.588  1.00  0.00    -0.332 OA
ATOM     30  C   UNL     1      28.491   0.061  26.139  1.00  0.00     0.180 C 
ATOM     31  C   UNL     1      26.408  -1.272  25.608  1.00  0.00     0.179 C 
ATOM     32  C   UNL     1      27.552  -0.413  25.016  1.00  0.00     0.177 C 
BRANCH  28  33
ATOM     33  O   UNL     1      28.473   1.016  28.371  1.00  0.00    -0.384 OA
ATOM     34  H   UNL     1      28.921   1.880  28.174  1.00  0.00     0.211 HD
ENDBRANCH  28  33
BRANCH  30  35
ATOM     35  O   UNL     1      29.226  -1.031  26.636  1.00  0.00    -0.387 OA
ATOM     36  H   UNL     1      28.886  -1.842  26.177  1.00  0.00     0.211 HD
ENDBRANCH  30  35
BRANCH  31  37
ATOM     37  C   UNL     1      25.424  -1.722  24.520  1.00  0.00     0.191 C 
BRANCH  37  38
ATOM     38  O   UNL     1      24.181  -1.099  24.695  1.00  0.00    -0.394 OA
ATOM     39  H   UNL     1      23.934  -1.239  25.646  1.00  0.00     0.210 HD
ENDBRANCH  37  38
ENDBRANCH  31  37
BRANCH  32  40
ATOM     40  O   UNL     1      28.273  -1.162  24.071  1.00  0.00    -0.387 OA
ATOM     41  H   UNL     1      27.604  -1.596  23.480  1.00  0.00     0.211 HD
ENDBRANCH  32  40
ENDBRANCH   1  27
TORSDOF 12
ENDMDL
MODEL 7
REMARK VINA RESULT:    -6.145     11.425     14.083
REMARK INTER + INTRA:         -11.093
REMARK INTER:                  -9.484
REMARK INTRA:                  -1.609
REMARK UNBOUND:                -2.075
REMARK SMILES O=c1c(O[C@@H]2O[C@@H](CO)[C@H](O)[C@H](O)[C@@H]2O)c(-c2ccc(O)c(O)c2)oc2cc(O)cc(O)c12
REMARK SMILES IDX 4 1 3 2 16 3 25 4 2 5 26 6 1 7 33 8 27 9 31 10 28 11 30 12
REMARK SMILES IDX 17 13 18 14 19 15 20 16 24 17 22 18 21 19 23 21 32 23 29 25
REMARK SMILES IDX 5 27 14 28 6 29 12 30 7 31 10 32 15 33 13 35 8 37 9 38 11 40
REMARK H PARENT 21 20 23 22 32 24 29 26 15 34 13 36 9 39 11 41
REMARK Flexibility Score: inf
ROOT
ATOM      1  O   UNL     1      27.630   0.309  29.856  1.00  0.00    -0.454 OA
ENDROOT
BRANCH   1   2
ATOM      2  C   UNL     1      27.020  -0.687  30.629  1.00  0.00     0.214 A 
ATOM      3  C   UNL     1      25.929  -1.442  30.149  1.00  0.00     0.180 A 
ATOM      4  O   UNL     1      25.325  -2.313  30.952  1.00  0.00    -0.452 OA
ATOM      5  C   UNL     1      27.496  -0.932  31.920  1.00  0.00     0.239 A 
ATOM      6  C   UNL     1      25.721  -2.550  32.197  1.00  0.00     0.146 A 
ATOM      7  O   UNL     1      28.495  -0.288  32.340  1.00  0.00    -0.285 OA
ATOM      8  C   UNL     1      26.842  -1.877  32.738  1.00  0.00     0.111 A 
ATOM      9  C   UNL     1      25.021  -3.485  32.968  1.00  0.00     0.094 A 
ATOM     10  C   UNL     1      27.248  -2.166  34.063  1.00  0.00     0.134 A 
ATOM     11  C   UNL     1      25.426  -3.765  34.277  1.00  0.00     0.123 A 
ATOM     12  C   UNL     1      26.535  -3.109  34.818  1.00  0.00     0.093 A 
BRANCH   3  13
ATOM     13  C   UNL     1      25.438  -1.321  28.760  1.00  0.00     0.025 A 
ATOM     14  C   UNL     1      24.152  -0.826  28.489  1.00  0.00     0.016 A 
ATOM     15  C   UNL     1      23.704  -0.710  27.171  1.00  0.00     0.051 A 
ATOM     16  C   UNL     1      24.538  -1.068  26.107  1.00  0.00     0.157 A 
ATOM     17  C   UNL     1      26.282  -1.658  27.692  1.00  0.00     0.062 A 
ATOM     18  C   UNL     1      25.835  -1.542  26.367  1.00  0.00     0.158 A 
BRANCH  16  19
ATOM     19  O   UNL     1      24.063  -0.945  24.802  1.00  0.00    -0.504 OA
ATOM     20  H   UNL     1      24.470  -1.459  24.030  1.00  0.00     0.293 HD
ENDBRANCH  16  19
BRANCH  18  21
ATOM     21  O   UNL     1      26.675  -1.893  25.311  1.00  0.00    -0.504 OA
ATOM     22  H   UNL     1      27.500  -2.464  25.456  1.00  0.00     0.293 HD
ENDBRANCH  18  21
ENDBRANCH   3  13
BRANCH  10  23
ATOM     23  O   UNL     1      28.349  -1.526  34.632  1.00  0.00    -0.507 OA
ATOM     24  H   UNL     1      29.052  -1.069  34.063  1.00  0.00     0.293 HD
ENDBRANCH  10  23
BRANCH  11  25
ATOM     25  O   UNL     1      24.734  -4.695  35.049  1.00  0.00    -0.508 OA
ATOM     26  H   UNL     1      25.116  -5.053  35.917  1.00  0.00     0.293 HD
ENDBRANCH  11  25
ENDBRANCH   1   2
BRANCH   1  27
ATOM     27  C   UNL     1      27.024   1.581  29.598  1.00  0.00     0.339 C 
ATOM     28  C   UNL     1      27.709   2.696  30.409  1.00  0.00     0.214 C 
ATOM     29  O   UNL     1      27.039   1.876  28.210  1.00  0.00    -0.332 OA
ATOM     30  C   UNL     1      29.147   2.933  29.905  1.00  0.00     0.180 C 
ATOM     31  C   UNL     1      28.363   1.959  27.706  1.00  0.00     0.179 C 
ATOM     32  C   UNL     1      29.135   3.122  28.378  1.00  0.00     0.177 C 
BRANCH  28  33
ATOM     33  O   UNL     1      27.706   2.361  31.772  1.00  0.00    -0.384 OA
ATOM     34  H   UNL     1      28.180   3.093  32.247  1.00  0.00     0.211 HD
ENDBRANCH  28  33
BRANCH  30  35
ATOM     35  O   UNL     1      29.978   1.849  30.243  1.00  0.00    -0.387 OA
ATOM     36  H   UNL     1      30.464   2.104  31.069  1.00  0.00     0.211 HD
ENDBRANCH  30  35
BRANCH  31  37
ATOM     37  C   UNL     1      28.290   2.141  26.185  1.00  0.00     0.191 C 
BRANCH  37  38
ATOM     38  O   UNL     1      27.741   1.002  25.581  1.00  0.00    -0.394 OA
ATOM     39  H   UNL     1      28.433   0.660  24.958  1.00  0.00     0.210 HD
ENDBRANCH  37  38
ENDBRANCH  31  37
BRANCH  32  40
ATOM     40  O   UNL     1      30.451   3.168  27.889  1.00  0.00    -0.387 OA
ATOM     41  H   UNL     1      30.955   2.452  28.357  1.00  0.00     0.211 HD
ENDBRANCH  32  40
ENDBRANCH   1  27
TORSDOF 12
ENDMDL
MODEL 8
REMARK VINA RESULT:    -6.063      1.941      6.625
REMARK INTER + INTRA:         -10.973
REMARK INTER:                  -9.022
REMARK INTRA:                  -1.951
REMARK UNBOUND:                -2.075
REMARK SMILES O=c1c(O[C@@H]2O[C@@H](CO)[C@H](O)[C@H](O)[C@@H]2O)c(-c2ccc(O)c(O)c2)oc2cc(O)cc(O)c12
REMARK SMILES IDX 4 1 3 2 16 3 25 4 2 5 26 6 1 7 33 8 27 9 31 10 28 11 30 12
REMARK SMILES IDX 17 13 18 14 19 15 20 16 24 17 22 18 21 19 23 21 32 23 29 25
REMARK SMILES IDX 5 27 14 28 6 29 12 30 7 31 10 32 15 33 13 35 8 37 9 38 11 40
REMARK H PARENT 21 20 23 22 32 24 29 26 15 34 13 36 9 39 11 41
REMARK Flexibility Score: inf
ROOT
ATOM      1  O   UNL     1      18.512 -10.056  30.335  1.00  0.00    -0.454 OA
ENDROOT
BRANCH   1   2
ATOM      2  C   UNL     1      17.657  -9.934  31.437  1.00  0.00     0.214 A 
ATOM      3  C   UNL     1      16.256  -9.844  31.290  1.00  0.00     0.180 A 
ATOM      4  O   UNL     1      15.493  -9.637  32.359  1.00  0.00    -0.452 OA
ATOM      5  C   UNL     1      18.206  -9.887  32.721  1.00  0.00     0.239 A 
ATOM      6  C   UNL     1      15.976  -9.550  33.592  1.00  0.00     0.146 A 
ATOM      7  O   UNL     1      19.453 -10.007  32.861  1.00  0.00    -0.285 OA
ATOM      8  C   UNL     1      17.364  -9.686  33.834  1.00  0.00     0.111 A 
ATOM      9  C   UNL     1      15.094  -9.330  34.655  1.00  0.00     0.094 A 
ATOM     10  C   UNL     1      17.844  -9.604  35.164  1.00  0.00     0.134 A 
ATOM     11  C   UNL     1      15.575  -9.248  35.967  1.00  0.00     0.123 A 
ATOM     12  C   UNL     1      16.943  -9.387  36.216  1.00  0.00     0.093 A 
BRANCH   3  13
ATOM     13  C   UNL     1      15.591  -9.996  29.979  1.00  0.00     0.025 A 
ATOM     14  C   UNL     1      15.498 -11.252  29.357  1.00  0.00     0.016 A 
ATOM     15  C   UNL     1      14.860 -11.382  28.122  1.00  0.00     0.051 A 
ATOM     16  C   UNL     1      14.291 -10.267  27.499  1.00  0.00     0.157 A 
ATOM     17  C   UNL     1      14.999  -8.882  29.365  1.00  0.00     0.062 A 
ATOM     18  C   UNL     1      14.357  -9.010  28.125  1.00  0.00     0.158 A 
BRANCH  16  19
ATOM     19  O   UNL     1      13.663 -10.425  26.265  1.00  0.00    -0.504 OA
ATOM     20  H   UNL     1      13.790  -9.766  25.506  1.00  0.00     0.293 HD
ENDBRANCH  16  19
BRANCH  18  21
ATOM     21  O   UNL     1      13.785  -7.895  27.514  1.00  0.00    -0.504 OA
ATOM     22  H   UNL     1      13.393  -7.134  28.058  1.00  0.00     0.293 HD
ENDBRANCH  18  21
ENDBRANCH   3  13
BRANCH  10  23
ATOM     23  O   UNL     1      19.205  -9.736  35.444  1.00  0.00    -0.507 OA
ATOM     24  H   UNL     1      19.790  -8.931  35.634  1.00  0.00     0.293 HD
ENDBRANCH  10  23
BRANCH  11  25
ATOM     25  O   UNL     1      14.701  -9.031  37.030  1.00  0.00    -0.508 OA
ATOM     26  H   UNL     1      13.978  -8.323  36.985  1.00  0.00     0.293 HD
ENDBRANCH  11  25
ENDBRANCH   1   2
BRANCH   1  27
ATOM     27  C   UNL     1      19.028  -8.929  29.615  1.00  0.00     0.339 C 
ATOM     28  C   UNL     1      20.546  -9.063  29.393  1.00  0.00     0.214 C 
ATOM     29  O   UNL     1      18.344  -8.758  28.384  1.00  0.00    -0.332 OA
ATOM     30  C   UNL     1      20.855 -10.217  28.418  1.00  0.00     0.180 C 
ATOM     31  C   UNL     1      18.510  -9.881  27.532  1.00  0.00     0.179 C 
ATOM     32  C   UNL     1      19.999 -10.065  27.149  1.00  0.00     0.177 C 
BRANCH  28  33
ATOM     33  O   UNL     1      21.191  -9.262  30.624  1.00  0.00    -0.384 OA
ATOM     34  H   UNL     1      21.125 -10.231  30.828  1.00  0.00     0.211 HD
ENDBRANCH  28  33
BRANCH  30  35
ATOM     35  O   UNL     1      20.594 -11.461  29.021  1.00  0.00    -0.387 OA
ATOM     36  H   UNL     1      21.060 -12.149  28.479  1.00  0.00     0.211 HD
ENDBRANCH  30  35
BRANCH  31  37
ATOM     37  C   UNL     1      17.633  -9.678  26.290  1.00  0.00     0.191 C 
BRANCH  37  38
ATOM     38  O   UNL     1      17.227  -8.341  26.190  1.00  0.00    -0.394 OA
ATOM     39  H   UNL     1      18.042  -7.822  25.963  1.00  0.00     0.210 HD
ENDBRANCH  37  38
ENDBRANCH  31  37
BRANCH  32  40
ATOM     40  O   UNL     1      20.147 -11.198  26.331  1.00  0.00    -0.387 OA
ATOM     41  H   UNL     1      19.636 -11.932  26.765  1.00  0.00     0.211 HD
ENDBRANCH  32  40
ENDBRANCH   1  27
TORSDOF 12
ENDMDL
MODEL 9
REMARK VINA RESULT:    -5.883     10.926     13.203
REMARK INTER + INTRA:         -10.709
REMARK INTER:                  -9.220
REMARK INTRA:                  -1.489
REMARK UNBOUND:                -2.075
REMARK SMILES O=c1c(O[C@@H]2O[C@@H](CO)[C@H](O)[C@H](O)[C@@H]2O)c(-c2ccc(O)c(O)c2)oc2cc(O)cc(O)c12
REMARK SMILES IDX 4 1 3 2 16 3 25 4 2 5 26 6 1 7 33 8 27 9 31 10 28 11 30 12
REMARK SMILES IDX 17 13 18 14 19 15 20 16 24 17 22 18 21 19 23 21 32 23 29 25
REMARK SMILES IDX 5 27 14 28 6 29 12 30 7 31 10 32 15 33 13 35 8 37 9 38 11 40
REMARK H PARENT 21 20 23 22 32 24 29 26 15 34 13 36 9 39 11 41
REMARK Flexibility Score: inf
ROOT
ATOM      1  O   UNL     1      26.219  -0.752  31.723  1.00  0.00    -0.454 OA
ENDROOT
BRANCH   1   2
ATOM      2  C   UNL     1      25.947  -1.040  30.379  1.00  0.00     0.214 A 
ATOM      3  C   UNL     1      26.649  -0.419  29.324  1.00  0.00     0.180 A 
ATOM      4  O   UNL     1      26.293  -0.657  28.065  1.00  0.00    -0.452 OA
ATOM      5  C   UNL     1      24.942  -1.962  30.072  1.00  0.00     0.239 A 
ATOM      6  C   UNL     1      25.321  -1.497  27.731  1.00  0.00     0.146 A 
ATOM      7  O   UNL     1      24.339  -2.549  31.011  1.00  0.00    -0.285 OA
ATOM      8  C   UNL     1      24.604  -2.204  28.725  1.00  0.00     0.111 A 
ATOM      9  C   UNL     1      25.017  -1.682  26.378  1.00  0.00     0.094 A 
ATOM     10  C   UNL     1      23.584  -3.104  28.333  1.00  0.00     0.134 A 
ATOM     11  C   UNL     1      24.007  -2.572  25.996  1.00  0.00     0.123 A 
ATOM     12  C   UNL     1      23.298  -3.278  26.971  1.00  0.00     0.093 A 
BRANCH   3  13
ATOM     13  C   UNL     1      27.797   0.481  29.565  1.00  0.00     0.025 A 
ATOM     14  C   UNL     1      29.109  -0.019  29.612  1.00  0.00     0.016 A 
ATOM     15  C   UNL     1      30.185   0.844  29.832  1.00  0.00     0.051 A 
ATOM     16  C   UNL     1      29.969   2.217  29.990  1.00  0.00     0.157 A 
ATOM     17  C   UNL     1      27.583   1.860  29.699  1.00  0.00     0.062 A 
ATOM     18  C   UNL     1      28.662   2.729  29.920  1.00  0.00     0.158 A 
BRANCH  16  19
ATOM     19  O   UNL     1      31.061   3.054  30.213  1.00  0.00    -0.504 OA
ATOM     20  H   UNL     1      31.276   3.833  29.601  1.00  0.00     0.293 HD
ENDBRANCH  16  19
BRANCH  18  21
ATOM     21  O   UNL     1      28.439   4.098  30.068  1.00  0.00    -0.504 OA
ATOM     22  H   UNL     1      28.188   4.683  29.280  1.00  0.00     0.293 HD
ENDBRANCH  18  21
ENDBRANCH   3  13
BRANCH  10  23
ATOM     23  O   UNL     1      22.857  -3.822  29.282  1.00  0.00    -0.507 OA
ATOM     24  H   UNL     1      22.762  -3.498  30.237  1.00  0.00     0.293 HD
ENDBRANCH  10  23
BRANCH  11  25
ATOM     25  O   UNL     1      23.701  -2.762  24.651  1.00  0.00    -0.508 OA
ATOM     26  H   UNL     1      23.940  -2.070  23.950  1.00  0.00     0.293 HD
ENDBRANCH  11  25
ENDBRANCH   1   2
BRANCH   1  27
ATOM     27  C   UNL     1      27.317  -1.328  32.441  1.00  0.00     0.339 C 
ATOM     28  C   UNL     1      27.830  -0.370  33.531  1.00  0.00     0.214 C 
ATOM     29  O   UNL     1      26.957  -2.585  32.992  1.00  0.00    -0.332 OA
ATOM     30  C   UNL     1      26.782  -0.208  34.651  1.00  0.00     0.180 C 
ATOM     31  C   UNL     1      25.895  -2.462  33.926  1.00  0.00     0.179 C 
ATOM     32  C   UNL     1      26.323  -1.594  35.135  1.00  0.00     0.177 C 
BRANCH  28  33
ATOM     33  O   UNL     1      28.148   0.873  32.960  1.00  0.00    -0.384 OA
ATOM     34  H   UNL     1      28.870   0.706  32.299  1.00  0.00     0.211 HD
ENDBRANCH  28  33
BRANCH  30  35
ATOM     35  O   UNL     1      25.673   0.527  34.192  1.00  0.00    -0.387 OA
ATOM     36  H   UNL     1      24.862   0.018  34.451  1.00  0.00     0.211 HD
ENDBRANCH  30  35
BRANCH  31  37
ATOM     37  C   UNL     1      25.476  -3.870  34.367  1.00  0.00     0.191 C 
BRANCH  37  38
ATOM     38  O   UNL     1      24.301  -3.817  35.128  1.00  0.00    -0.394 OA
ATOM     39  H   UNL     1      24.516  -3.270  35.928  1.00  0.00     0.210 HD
ENDBRANCH  37  38
ENDBRANCH  31  37
BRANCH  32  40
ATOM     40  O   UNL     1      25.249  -1.459  36.031  1.00  0.00    -0.387 OA
ATOM     41  H   UNL     1      24.697  -0.701  35.704  1.00  0.00     0.211 HD
ENDBRANCH  32  40
ENDBRANCH   1  27
TORSDOF 12
ENDMDL
