MODEL 1
REMARK VINA RESULT:    -4.060      0.000      0.000
REMARK INTER + INTRA:          -9.268
REMARK INTER:                  -7.383
REMARK INTRA:                  -1.884
REMARK UNBOUND:                -1.884
REMARK SMILES CCCCCCCCCCCCCCCC(=O)[O-]
REMARK SMILES IDX 9 1 10 2 11 3 12 4 13 5 14 6 15 7 16 8 17 9 18 10 8 11 7 12
REMARK SMILES IDX 6 13 5 14 4 15 3 16 2 17 1 18
REMARK H PARENT
REMARK Flexibility Score: inf
ROOT
ATOM      1  C   UNL     1      22.876 -15.524  -2.229  1.00  0.00     0.000 C 
ENDROOT
BRANCH   1   2
ATOM      2  C   UNL     1      23.388 -16.847  -2.821  1.00  0.00     0.000 C 
BRANCH   2   3
ATOM      3  C   UNL     1      24.338 -16.634  -4.010  1.00  0.00     0.000 C 
BRANCH   3   4
ATOM      4  C   UNL     1      25.794 -16.904  -3.603  1.00  0.00     0.000 C 
BRANCH   4   5
ATOM      5  C   UNL     1      26.756 -15.801  -4.071  1.00  0.00     0.000 C 
BRANCH   5   6
ATOM      6  C   UNL     1      28.197 -16.026  -3.579  1.00  0.00     0.006 C 
BRANCH   6   7
ATOM      7  C   UNL     1      28.240 -16.753  -2.228  1.00  0.00     0.053 C 
BRANCH   7   8
ATOM      8  C   UNL     1      29.645 -16.948  -1.746  1.00  0.00     0.041 C 
ATOM      9  O   UNL     1      30.370 -15.952  -1.483  1.00  0.00    -0.550 OA
ATOM     10  O   UNL     1      30.164 -18.229  -1.615  1.00  0.00    -0.550 OA
ENDBRANCH   7   8
ENDBRANCH   6   7
ENDBRANCH   5   6
ENDBRANCH   4   5
ENDBRANCH   3   4
ENDBRANCH   2   3
ENDBRANCH   1   2
BRANCH   1  11
ATOM     11  C   UNL     1      23.268 -14.304  -3.082  1.00  0.00     0.000 C 
BRANCH  11  12
ATOM     12  C   UNL     1      24.353 -13.440  -2.419  1.00  0.00    -0.000 C 
BRANCH  12  13
ATOM     13  C   UNL     1      24.290 -13.494  -0.883  1.00  0.00    -0.000 C 
BRANCH  13  14
ATOM     14  C   UNL     1      25.651 -13.209  -0.227  1.00  0.00    -0.000 C 
BRANCH  14  15
ATOM     15  C   UNL     1      26.836 -13.587  -1.129  1.00  0.00    -0.000 C 
BRANCH  15  16
ATOM     16  C   UNL     1      28.162 -13.471  -0.368  1.00  0.00    -0.000 C 
BRANCH  16  17
ATOM     17  C   UNL     1      28.158 -14.357   0.883  1.00  0.00    -0.003 C 
ATOM     18  C   UNL     1      28.896 -13.684   2.037  1.00  0.00     0.004 C 
ENDBRANCH  16  17
ENDBRANCH  15  16
ENDBRANCH  14  15
ENDBRANCH  13  14
ENDBRANCH  12  13
ENDBRANCH  11  12
ENDBRANCH   1  11
TORSDOF 14
ENDMDL
MODEL 2
REMARK VINA RESULT:    -3.860      1.795      3.994
REMARK INTER + INTRA:          -8.903
REMARK INTER:                  -6.994
REMARK INTRA:                  -1.909
REMARK UNBOUND:                -1.884
REMARK SMILES CCCCCCCCCCCCCCCC(=O)[O-]
REMARK SMILES IDX 9 1 10 2 11 3 12 4 13 5 14 6 15 7 16 8 17 9 18 10 8 11 7 12
REMARK SMILES IDX 6 13 5 14 4 15 3 16 2 17 1 18
REMARK H PARENT
REMARK Flexibility Score: inf
ROOT
ATOM      1  C   UNL     1      23.030 -15.581  -2.384  1.00  0.00     0.000 C 
ENDROOT
BRANCH   1   2
ATOM      2  C   UNL     1      23.288 -14.309  -3.207  1.00  0.00     0.000 C 
BRANCH   2   3
ATOM      3  C   UNL     1      24.042 -13.232  -2.411  1.00  0.00     0.000 C 
BRANCH   3   4
ATOM      4  C   UNL     1      24.691 -13.834  -1.156  1.00  0.00     0.000 C 
BRANCH   4   5
ATOM      5  C   UNL     1      25.888 -13.011  -0.653  1.00  0.00     0.000 C 
BRANCH   5   6
ATOM      6  C   UNL     1      26.997 -13.890  -0.047  1.00  0.00     0.006 C 
BRANCH   6   7
ATOM      7  C   UNL     1      28.359 -13.183  -0.045  1.00  0.00     0.053 C 
BRANCH   7   8
ATOM      8  C   UNL     1      28.972 -13.159   1.322  1.00  0.00     0.041 C 
ATOM      9  O   UNL     1      29.672 -12.178   1.687  1.00  0.00    -0.550 OA
ATOM     10  O   UNL     1      28.794 -14.236   2.181  1.00  0.00    -0.550 OA
ENDBRANCH   7   8
ENDBRANCH   6   7
ENDBRANCH   5   6
ENDBRANCH   4   5
ENDBRANCH   3   4
ENDBRANCH   2   3
ENDBRANCH   1   2
BRANCH   1  11
ATOM     11  C   UNL     1      23.348 -16.867  -3.170  1.00  0.00     0.000 C 
BRANCH  11  12
ATOM     12  C   UNL     1      24.540 -16.699  -4.125  1.00  0.00    -0.000 C 
BRANCH  12  13
ATOM     13  C   UNL     1      25.893 -16.887  -3.416  1.00  0.00    -0.000 C 
BRANCH  13  14
ATOM     14  C   UNL     1      26.842 -15.697  -3.633  1.00  0.00    -0.000 C 
BRANCH  14  15
ATOM     15  C   UNL     1      28.314 -16.058  -3.379  1.00  0.00    -0.000 C 
BRANCH  15  16
ATOM     16  C   UNL     1      28.511 -16.585  -1.952  1.00  0.00    -0.000 C 
BRANCH  16  17
ATOM     17  C   UNL     1      29.864 -16.139  -1.384  1.00  0.00    -0.003 C 
ATOM     18  C   UNL     1      30.129 -16.783  -0.026  1.00  0.00     0.004 C 
ENDBRANCH  16  17
ENDBRANCH  15  16
ENDBRANCH  14  15
ENDBRANCH  13  14
ENDBRANCH  12  13
ENDBRANCH  11  12
ENDBRANCH   1  11
TORSDOF 14
ENDMDL
MODEL 3
REMARK VINA RESULT:    -3.813      2.631      5.506
REMARK INTER + INTRA:          -8.818
REMARK INTER:                  -6.701
REMARK INTRA:                  -2.118
REMARK UNBOUND:                -1.884
REMARK SMILES CCCCCCCCCCCCCCCC(=O)[O-]
REMARK SMILES IDX 9 1 10 2 11 3 12 4 13 5 14 6 15 7 16 8 17 9 18 10 8 11 7 12
REMARK SMILES IDX 6 13 5 14 4 15 3 16 2 17 1 18
REMARK H PARENT
REMARK Flexibility Score: inf
ROOT
ATOM      1  C   UNL     1      28.998 -14.262   1.562  1.00  0.00     0.000 C 
ENDROOT
BRANCH   1   2
ATOM      2  C   UNL     1      27.854 -14.683   0.625  1.00  0.00     0.000 C 
BRANCH   2   3
ATOM      3  C   UNL     1      26.998 -13.492   0.166  1.00  0.00     0.000 C 
BRANCH   3   4
ATOM      4  C   UNL     1      26.267 -13.816  -1.145  1.00  0.00     0.000 C 
BRANCH   4   5
ATOM      5  C   UNL     1      24.771 -13.469  -1.094  1.00  0.00     0.000 C 
BRANCH   5   6
ATOM      6  C   UNL     1      23.966 -14.154  -2.213  1.00  0.00     0.006 C 
BRANCH   6   7
ATOM      7  C   UNL     1      24.872 -14.890  -3.210  1.00  0.00     0.053 C 
BRANCH   7   8
ATOM      8  C   UNL     1      24.448 -16.314  -3.401  1.00  0.00     0.041 C 
ATOM      9  O   UNL     1      23.250 -16.651  -3.210  1.00  0.00    -0.550 OA
ATOM     10  O   UNL     1      25.385 -17.275  -3.760  1.00  0.00    -0.550 OA
ENDBRANCH   7   8
ENDBRANCH   6   7
ENDBRANCH   5   6
ENDBRANCH   4   5
ENDBRANCH   3   4
ENDBRANCH   2   3
ENDBRANCH   1   2
BRANCH   1  11
ATOM     11  C   UNL     1      29.250 -12.744   1.541  1.00  0.00     0.000 C 
BRANCH  11  12
ATOM     12  C   UNL     1      30.567 -12.371   0.841  1.00  0.00    -0.000 C 
BRANCH  12  13
ATOM     13  C   UNL     1      30.370 -12.053  -0.652  1.00  0.00    -0.000 C 
BRANCH  13  14
ATOM     14  C   UNL     1      30.793 -13.216  -1.564  1.00  0.00    -0.000 C 
BRANCH  14  15
ATOM     15  C   UNL     1      29.694 -13.620  -2.559  1.00  0.00    -0.000 C 
BRANCH  15  16
ATOM     16  C   UNL     1      29.519 -15.143  -2.594  1.00  0.00    -0.000 C 
BRANCH  16  17
ATOM     17  C   UNL     1      30.656 -15.844  -1.841  1.00  0.00    -0.003 C 
ATOM     18  C   UNL     1      30.141 -17.056  -1.070  1.00  0.00     0.004 C 
ENDBRANCH  16  17
ENDBRANCH  15  16
ENDBRANCH  14  15
ENDBRANCH  13  14
ENDBRANCH  12  13
ENDBRANCH  11  12
ENDBRANCH   1  11
TORSDOF 14
ENDMDL
MODEL 4
REMARK VINA RESULT:    -3.794      2.249      4.856
REMARK INTER + INTRA:          -8.783
REMARK INTER:                  -7.189
REMARK INTRA:                  -1.594
REMARK UNBOUND:                -1.884
REMARK SMILES CCCCCCCCCCCCCCCC(=O)[O-]
REMARK SMILES IDX 9 1 10 2 11 3 12 4 13 5 14 6 15 7 16 8 17 9 18 10 8 11 7 12
REMARK SMILES IDX 6 13 5 14 4 15 3 16 2 17 1 18
REMARK H PARENT
REMARK Flexibility Score: inf
ROOT
ATOM      1  C   UNL     1      24.011 -14.014  -1.537  1.00  0.00     0.000 C 
ENDROOT
BRANCH   1   2
ATOM      2  C   UNL     1      25.028 -13.144  -0.782  1.00  0.00     0.000 C 
BRANCH   2   3
ATOM      3  C   UNL     1      26.470 -13.654  -0.932  1.00  0.00     0.000 C 
BRANCH   3   4
ATOM      4  C   UNL     1      27.236 -13.529   0.393  1.00  0.00     0.000 C 
BRANCH   4   5
ATOM      5  C   UNL     1      28.255 -14.660   0.600  1.00  0.00     0.000 C 
BRANCH   5   6
ATOM      6  C   UNL     1      29.523 -14.187   1.334  1.00  0.00     0.006 C 
BRANCH   6   7
ATOM      7  C   UNL     1      29.244 -12.998   2.262  1.00  0.00     0.053 C 
BRANCH   7   8
ATOM      8  C   UNL     1      30.119 -11.825   1.943  1.00  0.00     0.041 C 
ATOM      9  O   UNL     1      30.215 -11.408   0.758  1.00  0.00    -0.550 OA
ATOM     10  O   UNL     1      30.853 -11.211   2.949  1.00  0.00    -0.550 OA
ENDBRANCH   7   8
ENDBRANCH   6   7
ENDBRANCH   5   6
ENDBRANCH   4   5
ENDBRANCH   3   4
ENDBRANCH   2   3
ENDBRANCH   1   2
BRANCH   1  11
ATOM     11  C   UNL     1      23.747 -13.508  -2.967  1.00  0.00     0.000 C 
BRANCH  11  12
ATOM     12  C   UNL     1      23.978 -14.592  -4.032  1.00  0.00    -0.000 C 
BRANCH  12  13
ATOM     13  C   UNL     1      23.901 -16.014  -3.449  1.00  0.00    -0.000 C 
BRANCH  13  14
ATOM     14  C   UNL     1      25.154 -16.849  -3.763  1.00  0.00    -0.000 C 
BRANCH  14  15
ATOM     15  C   UNL     1      26.425 -15.992  -3.874  1.00  0.00    -0.000 C 
BRANCH  15  16
ATOM     16  C   UNL     1      27.491 -16.460  -2.876  1.00  0.00    -0.000 C 
BRANCH  16  17
ATOM     17  C   UNL     1      28.892 -16.029  -3.325  1.00  0.00    -0.003 C 
ATOM     18  C   UNL     1      29.940 -16.380  -2.272  1.00  0.00     0.004 C 
ENDBRANCH  16  17
ENDBRANCH  15  16
ENDBRANCH  14  15
ENDBRANCH  13  14
ENDBRANCH  12  13
ENDBRANCH  11  12
ENDBRANCH   1  11
TORSDOF 14
ENDMDL
MODEL 5
REMARK VINA RESULT:    -3.755      1.620      4.593
REMARK INTER + INTRA:          -8.713
REMARK INTER:                  -6.886
REMARK INTRA:                  -1.827
REMARK UNBOUND:                -1.884
REMARK SMILES CCCCCCCCCCCCCCCC(=O)[O-]
REMARK SMILES IDX 9 1 10 2 11 3 12 4 13 5 14 6 15 7 16 8 17 9 18 10 8 11 7 12
REMARK SMILES IDX 6 13 5 14 4 15 3 16 2 17 1 18
REMARK H PARENT
REMARK Flexibility Score: inf
ROOT
ATOM      1  C   UNL     1      27.800 -16.467  -2.614  1.00  0.00     0.000 C 
ENDROOT
BRANCH   1   2
ATOM      2  C   UNL     1      29.139 -15.731  -2.788  1.00  0.00     0.000 C 
BRANCH   2   3
ATOM      3  C   UNL     1      28.969 -14.206  -2.872  1.00  0.00     0.000 C 
BRANCH   3   4
ATOM      4  C   UNL     1      30.324 -13.496  -2.731  1.00  0.00     0.000 C 
BRANCH   4   5
ATOM      5  C   UNL     1      30.699 -13.215  -1.267  1.00  0.00     0.000 C 
BRANCH   5   6
ATOM      6  C   UNL     1      29.478 -12.850  -0.404  1.00  0.00     0.006 C 
BRANCH   6   7
ATOM      7  C   UNL     1      29.495 -13.565   0.954  1.00  0.00     0.053 C 
BRANCH   7   8
ATOM      8  C   UNL     1      29.268 -15.038   0.810  1.00  0.00     0.041 C 
ATOM      9  O   UNL     1      28.098 -15.506   0.832  1.00  0.00    -0.550 OA
ATOM     10  O   UNL     1      30.350 -15.899   0.680  1.00  0.00    -0.550 OA
ENDBRANCH   7   8
ENDBRANCH   6   7
ENDBRANCH   5   6
ENDBRANCH   4   5
ENDBRANCH   3   4
ENDBRANCH   2   3
ENDBRANCH   1   2
BRANCH   1  11
ATOM     11  C   UNL     1      26.759 -16.056  -3.671  1.00  0.00     0.000 C 
BRANCH  11  12
ATOM     12  C   UNL     1      25.570 -17.027  -3.740  1.00  0.00    -0.000 C 
BRANCH  12  13
ATOM     13  C   UNL     1      24.229 -16.302  -3.945  1.00  0.00    -0.000 C 
BRANCH  13  14
ATOM     14  C   UNL     1      23.215 -16.609  -2.831  1.00  0.00    -0.000 C 
BRANCH  14  15
ATOM     15  C   UNL     1      23.051 -15.446  -1.840  1.00  0.00    -0.000 C 
BRANCH  15  16
ATOM     16  C   UNL     1      23.799 -14.200  -2.330  1.00  0.00    -0.000 C 
BRANCH  16  17
ATOM     17  C   UNL     1      24.361 -13.397  -1.151  1.00  0.00    -0.003 C 
ATOM     18  C   UNL     1      25.872 -13.576  -1.032  1.00  0.00     0.004 C 
ENDBRANCH  16  17
ENDBRANCH  15  16
ENDBRANCH  14  15
ENDBRANCH  13  14
ENDBRANCH  12  13
ENDBRANCH  11  12
ENDBRANCH   1  11
TORSDOF 14
ENDMDL
MODEL 6
REMARK VINA RESULT:    -3.719      1.766      5.311
REMARK INTER + INTRA:          -8.646
REMARK INTER:                  -6.893
REMARK INTRA:                  -1.753
REMARK UNBOUND:                -1.884
REMARK SMILES CCCCCCCCCCCCCCCC(=O)[O-]
REMARK SMILES IDX 9 1 10 2 11 3 12 4 13 5 14 6 15 7 16 8 17 9 18 10 8 11 7 12
REMARK SMILES IDX 6 13 5 14 4 15 3 16 2 17 1 18
REMARK H PARENT
REMARK Flexibility Score: inf
ROOT
ATOM      1  C   UNL     1      28.821 -14.223   1.825  1.00  0.00     0.000 C 
ENDROOT
BRANCH   1   2
ATOM      2  C   UNL     1      29.419 -12.814   1.686  1.00  0.00     0.000 C 
BRANCH   2   3
ATOM      3  C   UNL     1      30.613 -12.771   0.719  1.00  0.00     0.000 C 
BRANCH   3   4
ATOM      4  C   UNL     1      30.273 -11.951  -0.534  1.00  0.00     0.000 C 
BRANCH   4   5
ATOM      5  C   UNL     1      30.758 -12.619  -1.831  1.00  0.00     0.000 C 
BRANCH   5   6
ATOM      6  C   UNL     1      29.751 -13.645  -2.380  1.00  0.00     0.006 C 
BRANCH   6   7
ATOM      7  C   UNL     1      30.251 -15.088  -2.221  1.00  0.00     0.053 C 
BRANCH   7   8
ATOM      8  C   UNL     1      29.421 -16.054  -3.010  1.00  0.00     0.041 C 
ATOM      9  O   UNL     1      29.913 -16.649  -4.005  1.00  0.00    -0.550 OA
ATOM     10  O   UNL     1      28.094 -16.275  -2.663  1.00  0.00    -0.550 OA
ENDBRANCH   7   8
ENDBRANCH   6   7
ENDBRANCH   5   6
ENDBRANCH   4   5
ENDBRANCH   3   4
ENDBRANCH   2   3
ENDBRANCH   1   2
BRANCH   1  11
ATOM     11  C   UNL     1      27.922 -14.603   0.635  1.00  0.00     0.000 C 
BRANCH  11  12
ATOM     12  C   UNL     1      26.946 -13.481   0.247  1.00  0.00    -0.000 C 
BRANCH  12  13
ATOM     13  C   UNL     1      26.238 -13.753  -1.091  1.00  0.00    -0.000 C 
BRANCH  13  14
ATOM     14  C   UNL     1      24.733 -13.441  -1.037  1.00  0.00    -0.000 C 
BRANCH  14  15
ATOM     15  C   UNL     1      23.982 -13.922  -2.288  1.00  0.00    -0.000 C 
BRANCH  15  16
ATOM     16  C   UNL     1      24.905 -14.737  -3.201  1.00  0.00    -0.000 C 
BRANCH  16  17
ATOM     17  C   UNL     1      24.310 -16.121  -3.490  1.00  0.00    -0.003 C 
ATOM     18  C   UNL     1      23.091 -16.391  -2.613  1.00  0.00     0.004 C 
ENDBRANCH  16  17
ENDBRANCH  15  16
ENDBRANCH  14  15
ENDBRANCH  13  14
ENDBRANCH  12  13
ENDBRANCH  11  12
ENDBRANCH   1  11
TORSDOF 14
ENDMDL
MODEL 7
REMARK VINA RESULT:    -3.591      2.076      4.252
REMARK INTER + INTRA:          -8.414
REMARK INTER:                  -6.311
REMARK INTRA:                  -2.103
REMARK UNBOUND:                -1.884
REMARK SMILES CCCCCCCCCCCCCCCC(=O)[O-]
REMARK SMILES IDX 9 1 10 2 11 3 12 4 13 5 14 6 15 7 16 8 17 9 18 10 8 11 7 12
REMARK SMILES IDX 6 13 5 14 4 15 3 16 2 17 1 18
REMARK H PARENT
REMARK Flexibility Score: inf
ROOT
ATOM      1  C   UNL     1      23.625 -14.984  -1.859  1.00  0.00     0.000 C 
ENDROOT
BRANCH   1   2
ATOM      2  C   UNL     1      24.027 -13.500  -1.899  1.00  0.00     0.000 C 
BRANCH   2   3
ATOM      3  C   UNL     1      24.999 -13.120  -0.771  1.00  0.00     0.000 C 
BRANCH   3   4
ATOM      4  C   UNL     1      26.321 -13.891  -0.905  1.00  0.00     0.000 C 
BRANCH   4   5
ATOM      5  C   UNL     1      27.381 -13.435   0.110  1.00  0.00     0.000 C 
BRANCH   5   6
ATOM      6  C   UNL     1      28.122 -14.617   0.761  1.00  0.00     0.006 C 
BRANCH   6   7
ATOM      7  C   UNL     1      29.627 -14.350   0.900  1.00  0.00     0.053 C 
BRANCH   7   8
ATOM      8  C   UNL     1      29.902 -12.976   1.430  1.00  0.00     0.041 C 
ATOM      9  O   UNL     1      30.496 -12.126   0.715  1.00  0.00    -0.550 OA
ATOM     10  O   UNL     1      29.528 -12.643   2.725  1.00  0.00    -0.550 OA
ENDBRANCH   7   8
ENDBRANCH   6   7
ENDBRANCH   5   6
ENDBRANCH   4   5
ENDBRANCH   3   4
ENDBRANCH   2   3
ENDBRANCH   1   2
BRANCH   1  11
ATOM     11  C   UNL     1      23.446 -15.585  -3.265  1.00  0.00     0.000 C 
BRANCH  11  12
ATOM     12  C   UNL     1      24.714 -15.471  -4.125  1.00  0.00    -0.000 C 
BRANCH  12  13
ATOM     13  C   UNL     1      25.803 -16.472  -3.703  1.00  0.00    -0.000 C 
BRANCH  13  14
ATOM     14  C   UNL     1      27.216 -15.870  -3.769  1.00  0.00    -0.000 C 
BRANCH  14  15
ATOM     15  C   UNL     1      28.149 -16.424  -2.681  1.00  0.00    -0.000 C 
BRANCH  15  16
ATOM     16  C   UNL     1      29.465 -15.638  -2.635  1.00  0.00    -0.000 C 
BRANCH  16  17
ATOM     17  C   UNL     1      29.254 -14.186  -3.082  1.00  0.00    -0.003 C 
ATOM     18  C   UNL     1      30.384 -13.288  -2.588  1.00  0.00     0.004 C 
ENDBRANCH  16  17
ENDBRANCH  15  16
ENDBRANCH  14  15
ENDBRANCH  13  14
ENDBRANCH  12  13
ENDBRANCH  11  12
ENDBRANCH   1  11
TORSDOF 14
ENDMDL
MODEL 8
REMARK VINA RESULT:    -3.579      2.620      5.921
REMARK INTER + INTRA:          -8.393
REMARK INTER:                  -6.378
REMARK INTRA:                  -2.015
REMARK UNBOUND:                -1.884
REMARK SMILES CCCCCCCCCCCCCCCC(=O)[O-]
REMARK SMILES IDX 9 1 10 2 11 3 12 4 13 5 14 6 15 7 16 8 17 9 18 10 8 11 7 12
REMARK SMILES IDX 6 13 5 14 4 15 3 16 2 17 1 18
REMARK H PARENT
REMARK Flexibility Score: inf
ROOT
ATOM      1  C   UNL     1      29.462 -13.752   1.316  1.00  0.00     0.000 C 
ENDROOT
BRANCH   1   2
ATOM      2  C   UNL     1      28.460 -13.199   0.289  1.00  0.00     0.000 C 
BRANCH   2   3
ATOM      3  C   UNL     1      27.129 -13.966   0.290  1.00  0.00     0.000 C 
BRANCH   3   4
ATOM      4  C   UNL     1      26.082 -13.246  -0.572  1.00  0.00     0.000 C 
BRANCH   4   5
ATOM      5  C   UNL     1      25.611 -14.091  -1.766  1.00  0.00     0.000 C 
BRANCH   5   6
ATOM      6  C   UNL     1      24.191 -13.721  -2.229  1.00  0.00     0.006 C 
BRANCH   6   7
ATOM      7  C   UNL     1      23.790 -14.460  -3.513  1.00  0.00     0.053 C 
BRANCH   7   8
ATOM      8  C   UNL     1      23.929 -15.944  -3.367  1.00  0.00     0.041 C 
ATOM      9  O   UNL     1      23.128 -16.589  -2.639  1.00  0.00    -0.550 OA
ATOM     10  O   UNL     1      24.961 -16.612  -4.013  1.00  0.00    -0.550 OA
ENDBRANCH   7   8
ENDBRANCH   6   7
ENDBRANCH   5   6
ENDBRANCH   4   5
ENDBRANCH   3   4
ENDBRANCH   2   3
ENDBRANCH   1   2
BRANCH   1  11
ATOM     11  C   UNL     1      30.523 -14.665   0.675  1.00  0.00     0.000 C 
BRANCH  11  12
ATOM     12  C   UNL     1      30.034 -16.112   0.506  1.00  0.00    -0.000 C 
BRANCH  12  13
ATOM     13  C   UNL     1      30.863 -16.896  -0.527  1.00  0.00    -0.000 C 
BRANCH  13  14
ATOM     14  C   UNL     1      30.004 -17.447  -1.677  1.00  0.00    -0.000 C 
BRANCH  14  15
ATOM     15  C   UNL     1      28.732 -16.619  -1.917  1.00  0.00    -0.000 C 
BRANCH  15  16
ATOM     16  C   UNL     1      28.768 -15.949  -3.296  1.00  0.00    -0.000 C 
BRANCH  16  17
ATOM     17  C   UNL     1      28.896 -14.426  -3.165  1.00  0.00    -0.003 C 
ATOM     18  C   UNL     1      30.354 -14.008  -3.000  1.00  0.00     0.004 C 
ENDBRANCH  16  17
ENDBRANCH  15  16
ENDBRANCH  14  15
ENDBRANCH  13  14
ENDBRANCH  12  13
ENDBRANCH  11  12
ENDBRANCH   1  11
TORSDOF 14
ENDMDL
MODEL 9
REMARK VINA RESULT:    -3.457      1.465      4.974
REMARK INTER + INTRA:          -8.170
REMARK INTER:                  -6.760
REMARK INTRA:                  -1.410
REMARK UNBOUND:                -1.884
REMARK SMILES CCCCCCCCCCCCCCCC(=O)[O-]
REMARK SMILES IDX 9 1 10 2 11 3 12 4 13 5 14 6 15 7 16 8 17 9 18 10 8 11 7 12
REMARK SMILES IDX 6 13 5 14 4 15 3 16 2 17 1 18
REMARK H PARENT
REMARK Flexibility Score: inf
ROOT
ATOM      1  C   UNL     1      27.783 -14.056   0.772  1.00  0.00     0.000 C 
ENDROOT
BRANCH   1   2
ATOM      2  C   UNL     1      29.167 -14.067   1.440  1.00  0.00     0.000 C 
BRANCH   2   3
ATOM      3  C   UNL     1      30.238 -14.745   0.569  1.00  0.00     0.000 C 
BRANCH   3   4
ATOM      4  C   UNL     1      30.033 -16.266   0.535  1.00  0.00     0.000 C 
BRANCH   4   5
ATOM      5  C   UNL     1      31.069 -16.986  -0.343  1.00  0.00     0.000 C 
BRANCH   5   6
ATOM      6  C   UNL     1      30.422 -17.772  -1.497  1.00  0.00     0.006 C 
BRANCH   6   7
ATOM      7  C   UNL     1      30.677 -17.114  -2.860  1.00  0.00     0.053 C 
BRANCH   7   8
ATOM      8  C   UNL     1      29.712 -16.001  -3.130  1.00  0.00     0.041 C 
ATOM      9  O   UNL     1      30.088 -14.801  -3.054  1.00  0.00    -0.550 OA
ATOM     10  O   UNL     1      28.388 -16.288  -3.437  1.00  0.00    -0.550 OA
ENDBRANCH   7   8
ENDBRANCH   6   7
ENDBRANCH   5   6
ENDBRANCH   4   5
ENDBRANCH   3   4
ENDBRANCH   2   3
ENDBRANCH   1   2
BRANCH   1  11
ATOM     11  C   UNL     1      27.829 -13.531  -0.675  1.00  0.00     0.000 C 
BRANCH  11  12
ATOM     12  C   UNL     1      26.607 -13.962  -1.501  1.00  0.00    -0.000 C 
BRANCH  12  13
ATOM     13  C   UNL     1      25.303 -13.315  -1.004  1.00  0.00    -0.000 C 
BRANCH  13  14
ATOM     14  C   UNL     1      24.050 -13.996  -1.579  1.00  0.00    -0.000 C 
BRANCH  14  15
ATOM     15  C   UNL     1      23.695 -13.495  -2.988  1.00  0.00    -0.000 C 
BRANCH  15  16
ATOM     16  C   UNL     1      23.721 -14.646  -4.001  1.00  0.00    -0.000 C 
BRANCH  16  17
ATOM     17  C   UNL     1      23.751 -16.004  -3.290  1.00  0.00    -0.003 C 
ATOM     18  C   UNL     1      24.923 -16.854  -3.774  1.00  0.00     0.004 C 
ENDBRANCH  16  17
ENDBRANCH  15  16
ENDBRANCH  14  15
ENDBRANCH  13  14
ENDBRANCH  12  13
ENDBRANCH  11  12
ENDBRANCH   1  11
TORSDOF 14
ENDMDL
