MODEL 1
REMARK VINA RESULT:    -4.491      0.000      0.000
REMARK INTER + INTRA:          -5.817
REMARK INTER:                  -5.410
REMARK INTRA:                  -0.407
REMARK UNBOUND:                -0.407
REMARK SMILES O=c1c(O)c(-c2ccc(O)cc2O)oc2cc(O)cc(O)c12
REMARK SMILES IDX 5 1 3 2 2 3 1 4 22 5 20 6 19 7 17 8 16 9 15 10 14 11 6 12
REMARK SMILES IDX 8 13 7 14 9 15 11 16 12 17 10 18 13 20 4 22 21 24 18 26
REMARK H PARENT 10 19 13 21 4 23 21 25 18 27
REMARK Flexibility Score: inf
ROOT
ATOM      1  C   UNL     1      37.842 -43.607 203.430  1.00  0.00     0.184 A 
ATOM      2  C   UNL     1      38.114 -42.727 204.488  1.00  0.00     0.208 A 
ATOM      3  C   UNL     1      38.732 -43.224 205.646  1.00  0.00     0.238 A 
ATOM      4  O   UNL     1      39.027 -42.418 206.566  1.00  0.00    -0.285 OA
ATOM      5  C   UNL     1      39.044 -44.602 205.740  1.00  0.00     0.111 A 
ATOM      6  C   UNL     1      39.635 -45.223 206.882  1.00  0.00     0.134 A 
ATOM      7  C   UNL     1      40.012 -46.570 206.816  1.00  0.00     0.093 A 
ATOM      8  C   UNL     1      39.761 -47.335 205.675  1.00  0.00     0.123 A 
ATOM      9  C   UNL     1      39.132 -46.754 204.577  1.00  0.00     0.094 A 
ATOM     10  C   UNL     1      38.777 -45.402 204.598  1.00  0.00     0.146 A 
ATOM     11  O   UNL     1      38.193 -44.884 203.524  1.00  0.00    -0.451 OA
ENDROOT
BRANCH   1  12
ATOM     12  C   UNL     1      37.172 -43.145 202.196  1.00  0.00     0.063 A 
ATOM     13  C   UNL     1      35.119 -42.518 201.048  1.00  0.00     0.047 A 
ATOM     14  C   UNL     1      35.787 -42.903 202.212  1.00  0.00     0.020 A 
ATOM     15  C   UNL     1      35.821 -42.379 199.849  1.00  0.00     0.119 A 
ATOM     16  C   UNL     1      37.200 -42.619 199.818  1.00  0.00     0.093 A 
ATOM     17  C   UNL     1      37.884 -42.994 200.982  1.00  0.00     0.130 A 
BRANCH  15  18
ATOM     18  O   UNL     1      35.140 -42.000 198.695  1.00  0.00    -0.508 OA
ATOM     19  H   UNL     1      34.830 -42.683 198.014  1.00  0.00     0.293 HD
ENDBRANCH  15  18
BRANCH  17  20
ATOM     20  O   UNL     1      39.264 -43.187 200.903  1.00  0.00    -0.507 OA
ATOM     21  H   UNL     1      39.924 -42.710 201.504  1.00  0.00     0.293 HD
ENDBRANCH  17  20
ENDBRANCH   1  12
BRANCH   2  22
ATOM     22  O   UNL     1      37.790 -41.373 204.368  1.00  0.00    -0.502 OA
ATOM     23  H   UNL     1      37.944 -40.709 205.118  1.00  0.00     0.293 HD
ENDBRANCH   2  22
BRANCH   6  24
ATOM     24  O   UNL     1      39.847 -44.575 208.102  1.00  0.00    -0.507 OA
ATOM     25  H   UNL     1      40.467 -43.791 208.237  1.00  0.00     0.293 HD
ENDBRANCH   6  24
BRANCH   8  26
ATOM     26  O   UNL     1      40.125 -48.679 205.625  1.00  0.00    -0.508 OA
ATOM     27  H   UNL     1      40.900 -49.039 206.170  1.00  0.00     0.293 HD
ENDBRANCH   8  26
TORSDOF 6
ENDMDL
MODEL 2
REMARK VINA RESULT:    -4.407      1.234      3.019
REMARK INTER + INTRA:          -5.715
REMARK INTER:                  -5.350
REMARK INTRA:                  -0.365
REMARK UNBOUND:                -0.407
REMARK SMILES O=c1c(O)c(-c2ccc(O)cc2O)oc2cc(O)cc(O)c12
REMARK SMILES IDX 5 1 3 2 2 3 1 4 22 5 20 6 19 7 17 8 16 9 15 10 14 11 6 12
REMARK SMILES IDX 8 13 7 14 9 15 11 16 12 17 10 18 13 20 4 22 21 24 18 26
REMARK H PARENT 10 19 13 21 4 23 21 25 18 27
REMARK Flexibility Score: inf
ROOT
ATOM      1  C   UNL     1      37.816 -44.939 202.662  1.00  0.00     0.184 A 
ATOM      2  C   UNL     1      37.944 -46.327 202.501  1.00  0.00     0.208 A 
ATOM      3  C   UNL     1      38.544 -47.078 203.524  1.00  0.00     0.238 A 
ATOM      4  O   UNL     1      38.601 -48.329 203.399  1.00  0.00    -0.285 OA
ATOM      5  C   UNL     1      39.032 -46.426 204.682  1.00  0.00     0.111 A 
ATOM      6  C   UNL     1      39.694 -47.082 205.764  1.00  0.00     0.134 A 
ATOM      7  C   UNL     1      40.024 -46.354 206.913  1.00  0.00     0.093 A 
ATOM      8  C   UNL     1      39.777 -44.982 206.995  1.00  0.00     0.123 A 
ATOM      9  C   UNL     1      39.185 -44.321 205.921  1.00  0.00     0.094 A 
ATOM     10  C   UNL     1      38.810 -45.027 204.775  1.00  0.00     0.146 A 
ATOM     11  O   UNL     1      38.235 -44.360 203.781  1.00  0.00    -0.451 OA
ENDROOT
BRANCH   1  12
ATOM     12  C   UNL     1      37.214 -44.094 201.609  1.00  0.00     0.063 A 
ATOM     13  C   UNL     1      35.245 -43.432 200.339  1.00  0.00     0.047 A 
ATOM     14  C   UNL     1      35.831 -44.177 201.364  1.00  0.00     0.020 A 
ATOM     15  C   UNL     1      36.030 -42.601 199.538  1.00  0.00     0.119 A 
ATOM     16  C   UNL     1      37.408 -42.511 199.769  1.00  0.00     0.093 A 
ATOM     17  C   UNL     1      38.006 -43.245 200.802  1.00  0.00     0.130 A 
BRANCH  15  18
ATOM     18  O   UNL     1      35.432 -41.868 198.515  1.00  0.00    -0.508 OA
ATOM     19  H   UNL     1      35.821 -40.988 198.197  1.00  0.00     0.293 HD
ENDBRANCH  15  18
BRANCH  17  20
ATOM     20  O   UNL     1      39.378 -43.090 201.011  1.00  0.00    -0.507 OA
ATOM     21  H   UNL     1      39.763 -42.508 201.743  1.00  0.00     0.293 HD
ENDBRANCH  17  20
ENDBRANCH   1  12
BRANCH   2  22
ATOM     22  O   UNL     1      37.456 -46.942 201.345  1.00  0.00    -0.502 OA
ATOM     23  H   UNL     1      37.987 -47.638 200.836  1.00  0.00     0.293 HD
ENDBRANCH   2  22
BRANCH   6  24
ATOM     24  O   UNL     1      40.069 -48.429 205.749  1.00  0.00    -0.507 OA
ATOM     25  H   UNL     1      40.917 -48.786 205.336  1.00  0.00     0.293 HD
ENDBRANCH   6  24
BRANCH   8  26
ATOM     26  O   UNL     1      40.125 -44.263 208.136  1.00  0.00    -0.508 OA
ATOM     27  H   UNL     1      39.827 -44.557 209.059  1.00  0.00     0.293 HD
ENDBRANCH   8  26
TORSDOF 6
ENDMDL
MODEL 3
REMARK VINA RESULT:    -4.370     13.992     16.065
REMARK INTER + INTRA:          -5.671
REMARK INTER:                  -5.286
REMARK INTRA:                  -0.384
REMARK UNBOUND:                -0.407
REMARK SMILES O=c1c(O)c(-c2ccc(O)cc2O)oc2cc(O)cc(O)c12
REMARK SMILES IDX 5 1 3 2 2 3 1 4 22 5 20 6 19 7 17 8 16 9 15 10 14 11 6 12
REMARK SMILES IDX 8 13 7 14 9 15 11 16 12 17 10 18 13 20 4 22 21 24 18 26
REMARK H PARENT 10 19 13 21 4 23 21 25 18 27
REMARK Flexibility Score: inf
ROOT
ATOM      1  C   UNL     1      23.011 -44.489 204.065  1.00  0.00     0.184 A 
ATOM      2  C   UNL     1      21.925 -45.046 204.757  1.00  0.00     0.208 A 
ATOM      3  C   UNL     1      21.395 -46.270 204.320  1.00  0.00     0.238 A 
ATOM      4  O   UNL     1      20.460 -46.793 204.980  1.00  0.00    -0.285 OA
ATOM      5  C   UNL     1      21.943 -46.908 203.180  1.00  0.00     0.111 A 
ATOM      6  C   UNL     1      21.461 -48.131 202.624  1.00  0.00     0.134 A 
ATOM      7  C   UNL     1      22.158 -48.731 201.569  1.00  0.00     0.093 A 
ATOM      8  C   UNL     1      23.282 -48.121 201.007  1.00  0.00     0.123 A 
ATOM      9  C   UNL     1      23.726 -46.898 201.503  1.00  0.00     0.094 A 
ATOM     10  C   UNL     1      23.073 -46.292 202.580  1.00  0.00     0.146 A 
ATOM     11  O   UNL     1      23.539 -45.133 203.032  1.00  0.00    -0.451 OA
ENDROOT
BRANCH   1  12
ATOM     12  C   UNL     1      23.595 -43.192 204.466  1.00  0.00     0.063 A 
ATOM     13  C   UNL     1      25.093 -41.939 205.919  1.00  0.00     0.047 A 
ATOM     14  C   UNL     1      24.566 -43.156 205.482  1.00  0.00     0.020 A 
ATOM     15  C   UNL     1      24.654 -40.740 205.354  1.00  0.00     0.119 A 
ATOM     16  C   UNL     1      23.686 -40.761 204.343  1.00  0.00     0.093 A 
ATOM     17  C   UNL     1      23.157 -41.976 203.888  1.00  0.00     0.130 A 
BRANCH  15  18
ATOM     18  O   UNL     1      25.186 -39.534 205.803  1.00  0.00    -0.508 OA
ATOM     19  H   UNL     1      24.676 -38.663 205.712  1.00  0.00     0.293 HD
ENDBRANCH  15  18
BRANCH  17  20
ATOM     20  O   UNL     1      22.221 -41.942 202.853  1.00  0.00    -0.507 OA
ATOM     21  H   UNL     1      22.451 -42.161 201.892  1.00  0.00     0.293 HD
ENDBRANCH  17  20
ENDBRANCH   1  12
BRANCH   2  22
ATOM     22  O   UNL     1      21.402 -44.392 205.876  1.00  0.00    -0.502 OA
ATOM     23  H   UNL     1      21.889 -43.635 206.338  1.00  0.00     0.293 HD
ENDBRANCH   2  22
BRANCH   6  24
ATOM     24  O   UNL     1      20.297 -48.778 203.051  1.00  0.00    -0.507 OA
ATOM     25  H   UNL     1      19.375 -48.609 202.680  1.00  0.00     0.293 HD
ENDBRANCH   6  24
BRANCH   8  26
ATOM     26  O   UNL     1      23.959 -48.718 199.945  1.00  0.00    -0.508 OA
ATOM     27  H   UNL     1      23.703 -49.636 199.603  1.00  0.00     0.293 HD
ENDBRANCH   8  26
TORSDOF 6
ENDMDL
MODEL 4
REMARK VINA RESULT:    -4.311      3.038      4.557
REMARK INTER + INTRA:          -5.600
REMARK INTER:                  -5.199
REMARK INTRA:                  -0.400
REMARK UNBOUND:                -0.407
REMARK SMILES O=c1c(O)c(-c2ccc(O)cc2O)oc2cc(O)cc(O)c12
REMARK SMILES IDX 5 1 3 2 2 3 1 4 22 5 20 6 19 7 17 8 16 9 15 10 14 11 6 12
REMARK SMILES IDX 8 13 7 14 9 15 11 16 12 17 10 18 13 20 4 22 21 24 18 26
REMARK H PARENT 10 19 13 21 4 23 21 25 18 27
REMARK Flexibility Score: inf
ROOT
ATOM      1  C   UNL     1      37.923 -44.138 205.643  1.00  0.00     0.184 A 
ATOM      2  C   UNL     1      38.834 -44.811 206.471  1.00  0.00     0.208 A 
ATOM      3  C   UNL     1      39.262 -46.097 206.108  1.00  0.00     0.238 A 
ATOM      4  O   UNL     1      40.125 -46.671 206.822  1.00  0.00    -0.285 OA
ATOM      5  C   UNL     1      38.750 -46.704 204.934  1.00  0.00     0.111 A 
ATOM      6  C   UNL     1      39.082 -48.020 204.491  1.00  0.00     0.134 A 
ATOM      7  C   UNL     1      38.611 -48.469 203.251  1.00  0.00     0.093 A 
ATOM      8  C   UNL     1      37.767 -47.677 202.470  1.00  0.00     0.123 A 
ATOM      9  C   UNL     1      37.389 -46.415 202.921  1.00  0.00     0.094 A 
ATOM     10  C   UNL     1      37.873 -45.923 204.137  1.00  0.00     0.146 A 
ATOM     11  O   UNL     1      37.499 -44.709 204.522  1.00  0.00    -0.451 OA
ENDROOT
BRANCH   1  12
ATOM     12  C   UNL     1      37.421 -42.791 205.987  1.00  0.00     0.063 A 
ATOM     13  C   UNL     1      35.871 -41.405 207.253  1.00  0.00     0.047 A 
ATOM     14  C   UNL     1      36.403 -42.659 206.949  1.00  0.00     0.020 A 
ATOM     15  C   UNL     1      36.339 -40.265 206.597  1.00  0.00     0.119 A 
ATOM     16  C   UNL     1      37.350 -40.382 205.636  1.00  0.00     0.093 A 
ATOM     17  C   UNL     1      37.901 -41.634 205.330  1.00  0.00     0.130 A 
BRANCH  15  18
ATOM     18  O   UNL     1      35.795 -39.021 206.907  1.00  0.00    -0.508 OA
ATOM     19  H   UNL     1      35.657 -38.728 207.867  1.00  0.00     0.293 HD
ENDBRANCH  15  18
BRANCH  17  20
ATOM     20  O   UNL     1      38.931 -41.689 204.389  1.00  0.00    -0.507 OA
ATOM     21  H   UNL     1      39.754 -41.102 204.436  1.00  0.00     0.293 HD
ENDBRANCH  17  20
ENDBRANCH   1  12
BRANCH   2  22
ATOM     22  O   UNL     1      39.319 -44.189 207.624  1.00  0.00    -0.502 OA
ATOM     23  H   UNL     1      38.726 -43.979 208.418  1.00  0.00     0.293 HD
ENDBRANCH   2  22
BRANCH   6  24
ATOM     24  O   UNL     1      39.844 -48.926 205.234  1.00  0.00    -0.507 OA
ATOM     25  H   UNL     1      40.621 -48.675 205.827  1.00  0.00     0.293 HD
ENDBRANCH   6  24
BRANCH   8  26
ATOM     26  O   UNL     1      37.289 -48.139 201.246  1.00  0.00    -0.508 OA
ATOM     27  H   UNL     1      37.101 -49.123 201.088  1.00  0.00     0.293 HD
ENDBRANCH   8  26
TORSDOF 6
ENDMDL
MODEL 5
REMARK VINA RESULT:    -4.285     14.068     15.724
REMARK INTER + INTRA:          -5.568
REMARK INTER:                  -5.369
REMARK INTRA:                  -0.199
REMARK UNBOUND:                -0.407
REMARK SMILES O=c1c(O)c(-c2ccc(O)cc2O)oc2cc(O)cc(O)c12
REMARK SMILES IDX 5 1 3 2 2 3 1 4 22 5 20 6 19 7 17 8 16 9 15 10 14 11 6 12
REMARK SMILES IDX 8 13 7 14 9 15 11 16 12 17 10 18 13 20 4 22 21 24 18 26
REMARK H PARENT 10 19 13 21 4 23 21 25 18 27
REMARK Flexibility Score: inf
ROOT
ATOM      1  C   UNL     1      23.327 -44.696 201.258  1.00  0.00     0.184 A 
ATOM      2  C   UNL     1      23.364 -43.704 202.249  1.00  0.00     0.208 A 
ATOM      3  C   UNL     1      22.685 -43.924 203.458  1.00  0.00     0.238 A 
ATOM      4  O   UNL     1      22.772 -43.056 204.366  1.00  0.00    -0.285 OA
ATOM      5  C   UNL     1      21.956 -45.124 203.648  1.00  0.00     0.111 A 
ATOM      6  C   UNL     1      21.198 -45.436 204.817  1.00  0.00     0.134 A 
ATOM      7  C   UNL     1      20.619 -46.704 204.944  1.00  0.00     0.093 A 
ATOM      8  C   UNL     1      20.713 -47.647 203.918  1.00  0.00     0.123 A 
ATOM      9  C   UNL     1      21.401 -47.331 202.749  1.00  0.00     0.094 A 
ATOM     10  C   UNL     1      22.022 -46.087 202.608  1.00  0.00     0.146 A 
ATOM     11  O   UNL     1      22.679 -45.833 201.482  1.00  0.00    -0.451 OA
ENDROOT
BRANCH   1  12
ATOM     12  C   UNL     1      24.003 -44.509 199.957  1.00  0.00     0.063 A 
ATOM     13  C   UNL     1      25.732 -45.198 198.388  1.00  0.00     0.047 A 
ATOM     14  C   UNL     1      25.038 -45.385 199.586  1.00  0.00     0.020 A 
ATOM     15  C   UNL     1      25.408 -44.131 197.548  1.00  0.00     0.119 A 
ATOM     16  C   UNL     1      24.381 -43.250 197.906  1.00  0.00     0.093 A 
ATOM     17  C   UNL     1      23.670 -43.433 199.100  1.00  0.00     0.130 A 
BRANCH  15  18
ATOM     18  O   UNL     1      26.111 -43.955 196.359  1.00  0.00    -0.508 OA
ATOM     19  H   UNL     1      26.134 -43.060 195.884  1.00  0.00     0.293 HD
ENDBRANCH  15  18
BRANCH  17  20
ATOM     20  O   UNL     1      22.632 -42.547 199.392  1.00  0.00    -0.507 OA
ATOM     21  H   UNL     1      21.963 -42.232 198.701  1.00  0.00     0.293 HD
ENDBRANCH  17  20
ENDBRANCH   1  12
BRANCH   2  22
ATOM     22  O   UNL     1      24.088 -42.528 202.033  1.00  0.00    -0.502 OA
ATOM     23  H   UNL     1      23.722 -41.614 202.269  1.00  0.00     0.293 HD
ENDBRANCH   2  22
BRANCH   6  24
ATOM     24  O   UNL     1      20.966 -44.535 205.861  1.00  0.00    -0.507 OA
ATOM     25  H   UNL     1      20.629 -44.790 206.777  1.00  0.00     0.293 HD
ENDBRANCH   6  24
BRANCH   8  26
ATOM     26  O   UNL     1      20.118 -48.900 204.048  1.00  0.00    -0.508 OA
ATOM     27  H   UNL     1      20.618 -49.751 203.815  1.00  0.00     0.293 HD
ENDBRANCH   8  26
TORSDOF 6
ENDMDL
MODEL 6
REMARK VINA RESULT:    -4.247      3.105      5.026
REMARK INTER + INTRA:          -5.522
REMARK INTER:                  -5.385
REMARK INTRA:                  -0.137
REMARK UNBOUND:                -0.407
REMARK SMILES O=c1c(O)c(-c2ccc(O)cc2O)oc2cc(O)cc(O)c12
REMARK SMILES IDX 5 1 3 2 2 3 1 4 22 5 20 6 19 7 17 8 16 9 15 10 14 11 6 12
REMARK SMILES IDX 8 13 7 14 9 15 11 16 12 17 10 18 13 20 4 22 21 24 18 26
REMARK H PARENT 10 19 13 21 4 23 21 25 18 27
REMARK Flexibility Score: inf
ROOT
ATOM      1  C   UNL     1      38.005 -46.615 202.765  1.00  0.00     0.184 A 
ATOM      2  C   UNL     1      38.124 -45.411 202.054  1.00  0.00     0.208 A 
ATOM      3  C   UNL     1      38.489 -44.245 202.745  1.00  0.00     0.238 A 
ATOM      4  O   UNL     1      38.653 -43.182 202.091  1.00  0.00    -0.285 OA
ATOM      5  C   UNL     1      38.703 -44.295 204.145  1.00  0.00     0.111 A 
ATOM      6  C   UNL     1      39.037 -43.167 204.954  1.00  0.00     0.134 A 
ATOM      7  C   UNL     1      39.346 -43.356 206.306  1.00  0.00     0.093 A 
ATOM      8  C   UNL     1      39.270 -44.621 206.894  1.00  0.00     0.123 A 
ATOM      9  C   UNL     1      38.887 -45.718 206.126  1.00  0.00     0.094 A 
ATOM     10  C   UNL     1      38.609 -45.568 204.765  1.00  0.00     0.146 A 
ATOM     11  O   UNL     1      38.262 -46.643 204.067  1.00  0.00    -0.451 OA
ENDROOT
BRANCH   1  12
ATOM     12  C   UNL     1      37.602 -47.869 202.094  1.00  0.00     0.063 A 
ATOM     13  C   UNL     1      36.069 -49.038 200.608  1.00  0.00     0.047 A 
ATOM     14  C   UNL     1      36.507 -47.857 201.213  1.00  0.00     0.020 A 
ATOM     15  C   UNL     1      36.712 -50.247 200.881  1.00  0.00     0.119 A 
ATOM     16  C   UNL     1      37.802 -50.273 201.759  1.00  0.00     0.093 A 
ATOM     17  C   UNL     1      38.258 -49.093 202.363  1.00  0.00     0.130 A 
BRANCH  15  18
ATOM     18  O   UNL     1      36.260 -51.417 200.274  1.00  0.00    -0.508 OA
ATOM     19  H   UNL     1      36.622 -51.722 199.379  1.00  0.00     0.293 HD
ENDBRANCH  15  18
BRANCH  17  20
ATOM     20  O   UNL     1      39.371 -49.170 203.202  1.00  0.00    -0.507 OA
ATOM     21  H   UNL     1      39.408 -48.732 204.113  1.00  0.00     0.293 HD
ENDBRANCH  17  20
ENDBRANCH   1  12
BRANCH   2  22
ATOM     22  O   UNL     1      37.903 -45.392 200.674  1.00  0.00    -0.502 OA
ATOM     23  H   UNL     1      38.547 -45.814 200.016  1.00  0.00     0.293 HD
ENDBRANCH   2  22
BRANCH   6  24
ATOM     24  O   UNL     1      39.055 -41.849 204.488  1.00  0.00    -0.507 OA
ATOM     25  H   UNL     1      38.405 -41.466 203.819  1.00  0.00     0.293 HD
ENDBRANCH   6  24
BRANCH   8  26
ATOM     26  O   UNL     1      39.562 -44.796 208.245  1.00  0.00    -0.508 OA
ATOM     27  H   UNL     1      39.031 -45.437 208.823  1.00  0.00     0.293 HD
ENDBRANCH   8  26
TORSDOF 6
ENDMDL
MODEL 7
REMARK VINA RESULT:    -4.239      3.051      5.567
REMARK INTER + INTRA:          -5.513
REMARK INTER:                  -5.106
REMARK INTRA:                  -0.407
REMARK UNBOUND:                -0.407
REMARK SMILES O=c1c(O)c(-c2ccc(O)cc2O)oc2cc(O)cc(O)c12
REMARK SMILES IDX 5 1 3 2 2 3 1 4 22 5 20 6 19 7 17 8 16 9 15 10 14 11 6 12
REMARK SMILES IDX 8 13 7 14 9 15 11 16 12 17 10 18 13 20 4 22 21 24 18 26
REMARK H PARENT 10 19 13 21 4 23 21 25 18 27
REMARK Flexibility Score: inf
ROOT
ATOM      1  C   UNL     1      38.017 -46.664 203.316  1.00  0.00     0.184 A 
ATOM      2  C   UNL     1      38.858 -45.726 202.699  1.00  0.00     0.208 A 
ATOM      3  C   UNL     1      38.956 -44.437 203.246  1.00  0.00     0.238 A 
ATOM      4  O   UNL     1      39.758 -43.619 202.723  1.00  0.00    -0.285 OA
ATOM      5  C   UNL     1      38.189 -44.096 204.387  1.00  0.00     0.111 A 
ATOM      6  C   UNL     1      38.180 -42.808 205.002  1.00  0.00     0.134 A 
ATOM      7  C   UNL     1      37.477 -42.620 206.198  1.00  0.00     0.093 A 
ATOM      8  C   UNL     1      36.732 -43.655 206.768  1.00  0.00     0.123 A 
ATOM      9  C   UNL     1      36.687 -44.900 206.144  1.00  0.00     0.094 A 
ATOM     10  C   UNL     1      37.408 -45.128 204.968  1.00  0.00     0.146 A 
ATOM     11  O   UNL     1      37.349 -46.334 204.415  1.00  0.00    -0.451 OA
ENDROOT
BRANCH   1  12
ATOM     12  C   UNL     1      37.856 -48.029 202.771  1.00  0.00     0.063 A 
ATOM     13  C   UNL     1      36.822 -49.516 201.145  1.00  0.00     0.047 A 
ATOM     14  C   UNL     1      37.037 -48.231 201.647  1.00  0.00     0.020 A 
ATOM     15  C   UNL     1      37.416 -50.619 201.762  1.00  0.00     0.119 A 
ATOM     16  C   UNL     1      38.232 -50.433 202.884  1.00  0.00     0.093 A 
ATOM     17  C   UNL     1      38.464 -49.147 203.391  1.00  0.00     0.130 A 
BRANCH  15  18
ATOM     18  O   UNL     1      37.189 -51.896 201.254  1.00  0.00    -0.508 OA
ATOM     19  H   UNL     1      37.158 -52.071 200.256  1.00  0.00     0.293 HD
ENDBRANCH  15  18
BRANCH  17  20
ATOM     20  O   UNL     1      39.315 -49.015 204.490  1.00  0.00    -0.507 OA
ATOM     21  H   UNL     1      39.753 -49.803 204.947  1.00  0.00     0.293 HD
ENDBRANCH  17  20
ENDBRANCH   1  12
BRANCH   2  22
ATOM     22  O   UNL     1      39.599 -46.090 201.572  1.00  0.00    -0.502 OA
ATOM     23  H   UNL     1      40.479 -45.648 201.335  1.00  0.00     0.293 HD
ENDBRANCH   2  22
BRANCH   6  24
ATOM     24  O   UNL     1      38.816 -41.683 204.469  1.00  0.00    -0.507 OA
ATOM     25  H   UNL     1      39.511 -41.706 203.739  1.00  0.00     0.293 HD
ENDBRANCH   6  24
BRANCH   8  26
ATOM     26  O   UNL     1      36.022 -43.454 207.950  1.00  0.00    -0.508 OA
ATOM     27  H   UNL     1      35.893 -44.200 208.624  1.00  0.00     0.293 HD
ENDBRANCH   8  26
TORSDOF 6
ENDMDL
MODEL 8
REMARK VINA RESULT:    -4.192      2.627      5.603
REMARK INTER + INTRA:          -5.456
REMARK INTER:                  -5.064
REMARK INTRA:                  -0.392
REMARK UNBOUND:                -0.407
REMARK SMILES O=c1c(O)c(-c2ccc(O)cc2O)oc2cc(O)cc(O)c12
REMARK SMILES IDX 5 1 3 2 2 3 1 4 22 5 20 6 19 7 17 8 16 9 15 10 14 11 6 12
REMARK SMILES IDX 8 13 7 14 9 15 11 16 12 17 10 18 13 20 4 22 21 24 18 26
REMARK H PARENT 10 19 13 21 4 23 21 25 18 27
REMARK Flexibility Score: inf
ROOT
ATOM      1  C   UNL     1      37.896 -46.843 204.439  1.00  0.00     0.184 A 
ATOM      2  C   UNL     1      38.753 -46.840 205.551  1.00  0.00     0.208 A 
ATOM      3  C   UNL     1      39.082 -45.616 206.153  1.00  0.00     0.238 A 
ATOM      4  O   UNL     1      39.802 -45.625 207.185  1.00  0.00    -0.285 OA
ATOM      5  C   UNL     1      38.572 -44.408 205.617  1.00  0.00     0.111 A 
ATOM      6  C   UNL     1      38.872 -43.106 206.121  1.00  0.00     0.134 A 
ATOM      7  C   UNL     1      38.213 -41.992 205.588  1.00  0.00     0.093 A 
ATOM      8  C   UNL     1      37.315 -42.124 204.527  1.00  0.00     0.123 A 
ATOM      9  C   UNL     1      37.060 -43.383 203.988  1.00  0.00     0.094 A 
ATOM     10  C   UNL     1      37.674 -44.518 204.523  1.00  0.00     0.146 A 
ATOM     11  O   UNL     1      37.391 -45.701 203.989  1.00  0.00    -0.451 OA
ENDROOT
BRANCH   1  12
ATOM     12  C   UNL     1      37.533 -48.100 203.751  1.00  0.00     0.063 A 
ATOM     13  C   UNL     1      36.114 -50.074 203.626  1.00  0.00     0.047 A 
ATOM     14  C   UNL     1      36.445 -48.855 204.222  1.00  0.00     0.020 A 
ATOM     15  C   UNL     1      36.869 -50.560 202.557  1.00  0.00     0.119 A 
ATOM     16  C   UNL     1      37.957 -49.820 202.079  1.00  0.00     0.093 A 
ATOM     17  C   UNL     1      38.292 -48.590 202.662  1.00  0.00     0.130 A 
BRANCH  15  18
ATOM     18  O   UNL     1      36.530 -51.780 201.976  1.00  0.00    -0.508 OA
ATOM     19  H   UNL     1      35.647 -52.234 202.174  1.00  0.00     0.293 HD
ENDBRANCH  15  18
BRANCH  17  20
ATOM     20  O   UNL     1      39.364 -47.876 202.123  1.00  0.00    -0.507 OA
ATOM     21  H   UNL     1      39.867 -48.173 201.298  1.00  0.00     0.293 HD
ENDBRANCH  17  20
ENDBRANCH   1  12
BRANCH   2  22
ATOM     22  O   UNL     1      39.244 -48.047 206.055  1.00  0.00    -0.502 OA
ATOM     23  H   UNL     1      40.163 -48.126 206.474  1.00  0.00     0.293 HD
ENDBRANCH   2  22
BRANCH   6  24
ATOM     24  O   UNL     1      39.819 -42.854 207.118  1.00  0.00    -0.507 OA
ATOM     25  H   UNL     1      40.791 -42.643 206.948  1.00  0.00     0.293 HD
ENDBRANCH   6  24
BRANCH   8  26
ATOM     26  O   UNL     1      36.677 -41.006 203.992  1.00  0.00    -0.508 OA
ATOM     27  H   UNL     1      37.202 -40.216 203.637  1.00  0.00     0.293 HD
ENDBRANCH   8  26
TORSDOF 6
ENDMDL
MODEL 9
REMARK VINA RESULT:    -4.048      2.423      4.225
REMARK INTER + INTRA:          -5.283
REMARK INTER:                  -4.889
REMARK INTRA:                  -0.394
REMARK UNBOUND:                -0.407
REMARK SMILES O=c1c(O)c(-c2ccc(O)cc2O)oc2cc(O)cc(O)c12
REMARK SMILES IDX 5 1 3 2 2 3 1 4 22 5 20 6 19 7 17 8 16 9 15 10 14 11 6 12
REMARK SMILES IDX 8 13 7 14 9 15 11 16 12 17 10 18 13 20 4 22 21 24 18 26
REMARK H PARENT 10 19 13 21 4 23 21 25 18 27
REMARK Flexibility Score: inf
ROOT
ATOM      1  C   UNL     1      37.300 -42.946 204.345  1.00  0.00     0.184 A 
ATOM      2  C   UNL     1      37.466 -43.116 202.963  1.00  0.00     0.208 A 
ATOM      3  C   UNL     1      38.119 -44.266 202.491  1.00  0.00     0.238 A 
ATOM      4  O   UNL     1      38.211 -44.441 201.248  1.00  0.00    -0.285 OA
ATOM      5  C   UNL     1      38.622 -45.217 203.413  1.00  0.00     0.111 A 
ATOM      6  C   UNL     1      39.336 -46.399 203.049  1.00  0.00     0.134 A 
ATOM      7  C   UNL     1      39.678 -47.329 204.038  1.00  0.00     0.093 A 
ATOM      8  C   UNL     1      39.391 -47.089 205.385  1.00  0.00     0.123 A 
ATOM      9  C   UNL     1      38.748 -45.912 205.756  1.00  0.00     0.094 A 
ATOM     10  C   UNL     1      38.360 -44.981 204.788  1.00  0.00     0.146 A 
ATOM     11  O   UNL     1      37.735 -43.879 205.184  1.00  0.00    -0.451 OA
ENDROOT
BRANCH   1  12
ATOM     12  C   UNL     1      36.641 -41.745 204.900  1.00  0.00     0.063 A 
ATOM     13  C   UNL     1      34.588 -40.586 205.507  1.00  0.00     0.047 A 
ATOM     14  C   UNL     1      35.242 -41.728 205.038  1.00  0.00     0.020 A 
ATOM     15  C   UNL     1      35.319 -39.443 205.836  1.00  0.00     0.119 A 
ATOM     16  C   UNL     1      36.713 -39.446 205.700  1.00  0.00     0.093 A 
ATOM     17  C   UNL     1      37.381 -40.589 205.242  1.00  0.00     0.130 A 
BRANCH  15  18
ATOM     18  O   UNL     1      34.653 -38.310 206.297  1.00  0.00    -0.508 OA
ATOM     19  H   UNL     1      34.921 -37.380 205.999  1.00  0.00     0.293 HD
ENDBRANCH  15  18
BRANCH  17  20
ATOM     20  O   UNL     1      38.775 -40.549 205.160  1.00  0.00    -0.507 OA
ATOM     21  H   UNL     1      39.381 -40.805 205.927  1.00  0.00     0.293 HD
ENDBRANCH  17  20
ENDBRANCH   1  12
BRANCH   2  22
ATOM     22  O   UNL     1      36.963 -42.159 202.078  1.00  0.00    -0.502 OA
ATOM     23  H   UNL     1      36.661 -41.242 202.384  1.00  0.00     0.293 HD
ENDBRANCH   2  22
BRANCH   6  24
ATOM     24  O   UNL     1      39.751 -46.692 201.747  1.00  0.00    -0.507 OA
ATOM     25  H   UNL     1      40.549 -47.261 201.512  1.00  0.00     0.293 HD
ENDBRANCH   6  24
BRANCH   8  26
ATOM     26  O   UNL     1      39.751 -48.013 206.364  1.00  0.00    -0.508 OA
ATOM     27  H   UNL     1      40.496 -48.683 206.212  1.00  0.00     0.293 HD
ENDBRANCH   8  26
TORSDOF 6
ENDMDL
