MODEL 1
REMARK VINA RESULT:    -4.076      0.000      0.000
REMARK INTER + INTRA:          -7.899
REMARK INTER:                  -6.459
REMARK INTRA:                  -1.440
REMARK UNBOUND:                -1.440
REMARK SMILES CCCCCCCCCCCC(=O)[O-]
REMARK SMILES IDX 7 1 8 2 9 3 10 4 11 5 12 6 13 7 14 8 6 9 5 10 4 11 3 12 2 13
REMARK SMILES IDX 1 14
REMARK H PARENT
REMARK Flexibility Score: inf
ROOT
ATOM      1  C   UNL     1      25.346   7.832   8.029  1.00  0.00     0.000 C 
ENDROOT
BRANCH   1   2
ATOM      2  C   UNL     1      25.759   7.548   9.485  1.00  0.00     0.000 C 
BRANCH   2   3
ATOM      3  C   UNL     1      25.071   6.336  10.138  1.00  0.00     0.000 C 
BRANCH   3   4
ATOM      4  C   UNL     1      26.068   5.305  10.694  1.00  0.00     0.006 C 
BRANCH   4   5
ATOM      5  C   UNL     1      27.521   5.664  10.356  1.00  0.00     0.053 C 
BRANCH   5   6
ATOM      6  C   UNL     1      28.490   4.969  11.263  1.00  0.00     0.041 C 
ATOM      7  O   UNL     1      28.763   3.752  11.086  1.00  0.00    -0.550 OA
ATOM      8  O   UNL     1      29.064   5.656  12.326  1.00  0.00    -0.550 OA
ENDBRANCH   5   6
ENDBRANCH   4   5
ENDBRANCH   3   4
ENDBRANCH   2   3
ENDBRANCH   1   2
BRANCH   1   9
ATOM      9  C   UNL     1      26.484   7.592   7.024  1.00  0.00     0.000 C 
BRANCH   9  10
ATOM     10  C   UNL     1      26.361   6.245   6.287  1.00  0.00    -0.000 C 
BRANCH  10  11
ATOM     11  C   UNL     1      25.049   5.478   6.527  1.00  0.00    -0.000 C 
BRANCH  11  12
ATOM     12  C   UNL     1      25.262   4.125   7.226  1.00  0.00    -0.000 C 
BRANCH  12  13
ATOM     13  C   UNL     1      26.498   3.379   6.699  1.00  0.00    -0.003 C 
ATOM     14  C   UNL     1      27.501   3.040   7.802  1.00  0.00     0.004 C 
ENDBRANCH  12  13
ENDBRANCH  11  12
ENDBRANCH  10  11
ENDBRANCH   9  10
ENDBRANCH   1   9
TORSDOF 10
ENDMDL
MODEL 2
REMARK VINA RESULT:    -3.960      3.592      5.836
REMARK INTER + INTRA:          -7.716
REMARK INTER:                  -6.693
REMARK INTRA:                  -1.023
REMARK UNBOUND:                -1.440
REMARK SMILES CCCCCCCCCCCC(=O)[O-]
REMARK SMILES IDX 7 1 8 2 9 3 10 4 11 5 12 6 13 7 14 8 6 9 5 10 4 11 3 12 2 13
REMARK SMILES IDX 1 14
REMARK H PARENT
REMARK Flexibility Score: inf
ROOT
ATOM      1  C   UNL     1      26.885   3.662   7.441  1.00  0.00     0.000 C 
ENDROOT
BRANCH   1   2
ATOM      2  C   UNL     1      27.900   2.564   7.809  1.00  0.00     0.000 C 
BRANCH   2   3
ATOM      3  C   UNL     1      27.285   1.224   8.250  1.00  0.00     0.000 C 
BRANCH   3   4
ATOM      4  C   UNL     1      28.304   0.285   8.918  1.00  0.00     0.006 C 
BRANCH   4   5
ATOM      5  C   UNL     1      27.670  -1.042   9.356  1.00  0.00     0.053 C 
BRANCH   5   6
ATOM      6  C   UNL     1      28.048  -2.166   8.441  1.00  0.00     0.041 C 
ATOM      7  O   UNL     1      27.872  -3.361   8.799  1.00  0.00    -0.550 OA
ATOM      8  O   UNL     1      28.628  -1.896   7.207  1.00  0.00    -0.550 OA
ENDBRANCH   5   6
ENDBRANCH   4   5
ENDBRANCH   3   4
ENDBRANCH   2   3
ENDBRANCH   1   2
BRANCH   1   9
ATOM      9  C   UNL     1      25.707   3.747   8.425  1.00  0.00     0.000 C 
BRANCH   9  10
ATOM     10  C   UNL     1      25.733   5.024   9.286  1.00  0.00    -0.000 C 
BRANCH  10  11
ATOM     11  C   UNL     1      26.478   4.901  10.627  1.00  0.00    -0.000 C 
BRANCH  11  12
ATOM     12  C   UNL     1      27.847   5.603  10.621  1.00  0.00    -0.000 C 
BRANCH  12  13
ATOM     13  C   UNL     1      28.925   4.796  11.361  1.00  0.00    -0.003 C 
ATOM     14  C   UNL     1      28.657   3.292  11.346  1.00  0.00     0.004 C 
ENDBRANCH  12  13
ENDBRANCH  11  12
ENDBRANCH  10  11
ENDBRANCH   9  10
ENDBRANCH   1   9
TORSDOF 10
ENDMDL
MODEL 3
REMARK VINA RESULT:    -3.872      2.789      4.340
REMARK INTER + INTRA:          -7.576
REMARK INTER:                  -6.913
REMARK INTRA:                  -0.663
REMARK UNBOUND:                -1.440
REMARK SMILES CCCCCCCCCCCC(=O)[O-]
REMARK SMILES IDX 7 1 8 2 9 3 10 4 11 5 12 6 13 7 14 8 6 9 5 10 4 11 3 12 2 13
REMARK SMILES IDX 1 14
REMARK H PARENT
REMARK Flexibility Score: inf
ROOT
ATOM      1  C   UNL     1      26.945   3.317   7.208  1.00  0.00     0.000 C 
ENDROOT
BRANCH   1   2
ATOM      2  C   UNL     1      26.659   4.680   7.864  1.00  0.00     0.000 C 
BRANCH   2   3
ATOM      3  C   UNL     1      25.574   4.668   8.956  1.00  0.00     0.000 C 
BRANCH   3   4
ATOM      4  C   UNL     1      26.119   5.024  10.350  1.00  0.00     0.006 C 
BRANCH   4   5
ATOM      5  C   UNL     1      27.562   5.541  10.294  1.00  0.00     0.053 C 
BRANCH   5   6
ATOM      6  C   UNL     1      28.429   4.878  11.319  1.00  0.00     0.041 C 
ATOM      7  O   UNL     1      28.512   3.621  11.363  1.00  0.00    -0.550 OA
ATOM      8  O   UNL     1      29.118   5.645  12.251  1.00  0.00    -0.550 OA
ENDBRANCH   5   6
ENDBRANCH   4   5
ENDBRANCH   3   4
ENDBRANCH   2   3
ENDBRANCH   1   2
BRANCH   1   9
ATOM      9  C   UNL     1      27.745   2.369   8.117  1.00  0.00     0.000 C 
BRANCH   9  10
ATOM     10  C   UNL     1      27.356   0.890   7.933  1.00  0.00    -0.000 C 
BRANCH  10  11
ATOM     11  C   UNL     1      28.397  -0.133   8.425  1.00  0.00    -0.000 C 
BRANCH  11  12
ATOM     12  C   UNL     1      28.063  -0.713   9.809  1.00  0.00    -0.000 C 
BRANCH  12  13
ATOM     13  C   UNL     1      27.452  -2.121   9.725  1.00  0.00    -0.003 C 
ATOM     14  C   UNL     1      28.013  -2.943   8.565  1.00  0.00     0.004 C 
ENDBRANCH  12  13
ENDBRANCH  11  12
ENDBRANCH  10  11
ENDBRANCH   9  10
ENDBRANCH   1   9
TORSDOF 10
ENDMDL
MODEL 4
REMARK VINA RESULT:    -3.834      2.723      4.359
REMARK INTER + INTRA:          -7.515
REMARK INTER:                  -6.388
REMARK INTRA:                  -1.127
REMARK UNBOUND:                -1.440
REMARK SMILES CCCCCCCCCCCC(=O)[O-]
REMARK SMILES IDX 7 1 8 2 9 3 10 4 11 5 12 6 13 7 14 8 6 9 5 10 4 11 3 12 2 13
REMARK SMILES IDX 1 14
REMARK H PARENT
REMARK Flexibility Score: inf
ROOT
ATOM      1  C   UNL     1      25.134   5.655   6.654  1.00  0.00     0.000 C 
ENDROOT
BRANCH   1   2
ATOM      2  C   UNL     1      26.395   6.500   6.398  1.00  0.00     0.000 C 
BRANCH   2   3
ATOM      3  C   UNL     1      26.441   7.851   7.135  1.00  0.00     0.000 C 
BRANCH   3   4
ATOM      4  C   UNL     1      26.135   7.726   8.638  1.00  0.00     0.006 C 
BRANCH   4   5
ATOM      5  C   UNL     1      25.033   8.695   9.087  1.00  0.00     0.053 C 
BRANCH   5   6
ATOM      6  C   UNL     1      23.790   7.969   9.500  1.00  0.00     0.041 C 
ATOM      7  O   UNL     1      22.931   7.641   8.638  1.00  0.00    -0.550 OA
ATOM      8  O   UNL     1      23.562   7.686  10.841  1.00  0.00    -0.550 OA
ENDBRANCH   5   6
ENDBRANCH   4   5
ENDBRANCH   3   4
ENDBRANCH   2   3
ENDBRANCH   1   2
BRANCH   1   9
ATOM      9  C   UNL     1      25.420   4.382   7.469  1.00  0.00     0.000 C 
BRANCH   9  10
ATOM     10  C   UNL     1      26.831   3.816   7.226  1.00  0.00    -0.000 C 
BRANCH  10  11
ATOM     11  C   UNL     1      27.612   3.421   8.492  1.00  0.00    -0.000 C 
BRANCH  11  12
ATOM     12  C   UNL     1      27.232   4.265   9.720  1.00  0.00    -0.000 C 
BRANCH  12  13
ATOM     13  C   UNL     1      28.355   5.225  10.145  1.00  0.00    -0.003 C 
ATOM     14  C   UNL     1      28.787   5.027  11.598  1.00  0.00     0.004 C 
ENDBRANCH  12  13
ENDBRANCH  11  12
ENDBRANCH  10  11
ENDBRANCH   9  10
ENDBRANCH   1   9
TORSDOF 10
ENDMDL
MODEL 5
REMARK VINA RESULT:    -3.809      0.963      3.354
REMARK INTER + INTRA:          -7.475
REMARK INTER:                  -6.031
REMARK INTRA:                  -1.444
REMARK UNBOUND:                -1.440
REMARK SMILES CCCCCCCCCCCC(=O)[O-]
REMARK SMILES IDX 7 1 8 2 9 3 10 4 11 5 12 6 13 7 14 8 6 9 5 10 4 11 3 12 2 13
REMARK SMILES IDX 1 14
REMARK H PARENT
REMARK Flexibility Score: inf
ROOT
ATOM      1  C   UNL     1      25.459   3.866   7.320  1.00  0.00     0.000 C 
ENDROOT
BRANCH   1   2
ATOM      2  C   UNL     1      26.876   3.410   6.925  1.00  0.00     0.000 C 
BRANCH   2   3
ATOM      3  C   UNL     1      27.769   2.957   8.094  1.00  0.00     0.000 C 
BRANCH   3   4
ATOM      4  C   UNL     1      27.363   3.583   9.439  1.00  0.00     0.006 C 
BRANCH   4   5
ATOM      5  C   UNL     1      28.294   4.731   9.850  1.00  0.00     0.053 C 
BRANCH   5   6
ATOM      6  C   UNL     1      28.714   4.620  11.283  1.00  0.00     0.041 C 
ATOM      7  O   UNL     1      28.820   5.654  11.994  1.00  0.00    -0.550 OA
ATOM      8  O   UNL     1      29.023   3.378  11.824  1.00  0.00    -0.550 OA
ENDBRANCH   5   6
ENDBRANCH   4   5
ENDBRANCH   3   4
ENDBRANCH   2   3
ENDBRANCH   1   2
BRANCH   1   9
ATOM      9  C   UNL     1      25.120   5.280   6.819  1.00  0.00     0.000 C 
BRANCH   9  10
ATOM     10  C   UNL     1      26.114   6.347   7.316  1.00  0.00    -0.000 C 
BRANCH  10  11
ATOM     11  C   UNL     1      25.518   7.426   8.238  1.00  0.00    -0.000 C 
BRANCH  11  12
ATOM     12  C   UNL     1      24.352   6.907   9.095  1.00  0.00    -0.000 C 
BRANCH  12  13
ATOM     13  C   UNL     1      24.827   6.266  10.409  1.00  0.00    -0.003 C 
ATOM     14  C   UNL     1      24.149   4.926  10.694  1.00  0.00     0.004 C 
ENDBRANCH  12  13
ENDBRANCH  11  12
ENDBRANCH  10  11
ENDBRANCH   9  10
ENDBRANCH   1   9
TORSDOF 10
ENDMDL
MODEL 6
REMARK VINA RESULT:    -3.804      2.089      4.131
REMARK INTER + INTRA:          -7.468
REMARK INTER:                  -6.263
REMARK INTRA:                  -1.205
REMARK UNBOUND:                -1.440
REMARK SMILES CCCCCCCCCCCC(=O)[O-]
REMARK SMILES IDX 7 1 8 2 9 3 10 4 11 5 12 6 13 7 14 8 6 9 5 10 4 11 3 12 2 13
REMARK SMILES IDX 1 14
REMARK H PARENT
REMARK Flexibility Score: inf
ROOT
ATOM      1  C   UNL     1      26.171   6.283   6.653  1.00  0.00     0.000 C 
ENDROOT
BRANCH   1   2
ATOM      2  C   UNL     1      25.596   4.860   6.775  1.00  0.00     0.000 C 
BRANCH   2   3
ATOM      3  C   UNL     1      26.640   3.729   6.782  1.00  0.00     0.000 C 
BRANCH   3   4
ATOM      4  C   UNL     1      26.467   2.757   7.962  1.00  0.00     0.006 C 
BRANCH   4   5
ATOM      5  C   UNL     1      27.813   2.286   8.528  1.00  0.00     0.053 C 
BRANCH   5   6
ATOM      6  C   UNL     1      27.960   0.798   8.445  1.00  0.00     0.041 C 
ATOM      7  O   UNL     1      27.574   0.179   7.419  1.00  0.00    -0.550 OA
ATOM      8  O   UNL     1      28.491   0.090   9.517  1.00  0.00    -0.550 OA
ENDBRANCH   5   6
ENDBRANCH   4   5
ENDBRANCH   3   4
ENDBRANCH   2   3
ENDBRANCH   1   2
BRANCH   1   9
ATOM      9  C   UNL     1      25.483   7.291   7.589  1.00  0.00     0.000 C 
BRANCH   9  10
ATOM     10  C   UNL     1      26.090   7.310   9.004  1.00  0.00    -0.000 C 
BRANCH  10  11
ATOM     11  C   UNL     1      25.411   6.381  10.026  1.00  0.00    -0.000 C 
BRANCH  11  12
ATOM     12  C   UNL     1      26.341   5.270  10.540  1.00  0.00    -0.000 C 
BRANCH  12  13
ATOM     13  C   UNL     1      27.828   5.618  10.364  1.00  0.00    -0.003 C 
ATOM     14  C   UNL     1      28.674   5.242  11.581  1.00  0.00     0.004 C 
ENDBRANCH  12  13
ENDBRANCH  11  12
ENDBRANCH  10  11
ENDBRANCH   9  10
ENDBRANCH   1   9
TORSDOF 10
ENDMDL
MODEL 7
REMARK VINA RESULT:    -3.791      2.883      5.212
REMARK INTER + INTRA:          -7.448
REMARK INTER:                  -5.953
REMARK INTRA:                  -1.495
REMARK UNBOUND:                -1.440
REMARK SMILES CCCCCCCCCCCC(=O)[O-]
REMARK SMILES IDX 7 1 8 2 9 3 10 4 11 5 12 6 13 7 14 8 6 9 5 10 4 11 3 12 2 13
REMARK SMILES IDX 1 14
REMARK H PARENT
REMARK Flexibility Score: inf
ROOT
ATOM      1  C   UNL     1      28.304   3.810   8.994  1.00  0.00     0.000 C 
ENDROOT
BRANCH   1   2
ATOM      2  C   UNL     1      27.266   2.860   8.368  1.00  0.00     0.000 C 
BRANCH   2   3
ATOM      3  C   UNL     1      26.778   3.256   6.962  1.00  0.00     0.000 C 
BRANCH   3   4
ATOM      4  C   UNL     1      25.833   4.470   6.973  1.00  0.00     0.006 C 
BRANCH   4   5
ATOM      5  C   UNL     1      26.459   5.699   6.300  1.00  0.00     0.053 C 
BRANCH   5   6
ATOM      6  C   UNL     1      25.531   6.874   6.316  1.00  0.00     0.041 C 
ATOM      7  O   UNL     1      25.842   7.919   6.945  1.00  0.00    -0.550 OA
ATOM      8  O   UNL     1      24.305   6.801   5.665  1.00  0.00    -0.550 OA
ENDBRANCH   5   6
ENDBRANCH   4   5
ENDBRANCH   3   4
ENDBRANCH   2   3
ENDBRANCH   1   2
BRANCH   1   9
ATOM      9  C   UNL     1      28.198   3.888  10.526  1.00  0.00     0.000 C 
BRANCH   9  10
ATOM     10  C   UNL     1      27.671   5.247  11.024  1.00  0.00    -0.000 C 
BRANCH  10  11
ATOM     11  C   UNL     1      27.055   6.153   9.943  1.00  0.00    -0.000 C 
BRANCH  11  12
ATOM     12  C   UNL     1      25.534   6.322  10.096  1.00  0.00    -0.000 C 
BRANCH  12  13
ATOM     13  C   UNL     1      24.915   5.267  11.025  1.00  0.00    -0.003 C 
ATOM     14  C   UNL     1      24.245   4.124  10.263  1.00  0.00     0.004 C 
ENDBRANCH  12  13
ENDBRANCH  11  12
ENDBRANCH  10  11
ENDBRANCH   9  10
ENDBRANCH   1   9
TORSDOF 10
ENDMDL
MODEL 8
REMARK VINA RESULT:    -3.783      3.094      4.665
REMARK INTER + INTRA:          -7.434
REMARK INTER:                  -6.615
REMARK INTRA:                  -0.819
REMARK UNBOUND:                -1.440
REMARK SMILES CCCCCCCCCCCC(=O)[O-]
REMARK SMILES IDX 7 1 8 2 9 3 10 4 11 5 12 6 13 7 14 8 6 9 5 10 4 11 3 12 2 13
REMARK SMILES IDX 1 14
REMARK H PARENT
REMARK Flexibility Score: inf
ROOT
ATOM      1  C   UNL     1      28.685   4.417  10.812  1.00  0.00     0.000 C 
ENDROOT
BRANCH   1   2
ATOM      2  C   UNL     1      27.890   5.683  10.443  1.00  0.00     0.000 C 
BRANCH   2   3
ATOM      3  C   UNL     1      26.368   5.587  10.657  1.00  0.00     0.000 C 
BRANCH   3   4
ATOM      4  C   UNL     1      25.559   6.001   9.416  1.00  0.00     0.006 C 
BRANCH   4   5
ATOM      5  C   UNL     1      26.443   6.627   8.330  1.00  0.00     0.053 C 
BRANCH   5   6
ATOM      6  C   UNL     1      26.186   6.017   6.986  1.00  0.00     0.041 C 
ATOM      7  O   UNL     1      25.649   4.881   6.898  1.00  0.00    -0.550 OA
ATOM      8  O   UNL     1      26.575   6.686   5.832  1.00  0.00    -0.550 OA
ENDBRANCH   5   6
ENDBRANCH   4   5
ENDBRANCH   3   4
ENDBRANCH   2   3
ENDBRANCH   1   2
BRANCH   1   9
ATOM      9  C   UNL     1      28.026   3.124  10.306  1.00  0.00     0.000 C 
BRANCH   9  10
ATOM     10  C   UNL     1      28.040   3.002   8.771  1.00  0.00    -0.000 C 
BRANCH  10  11
ATOM     11  C   UNL     1      27.536   1.660   8.210  1.00  0.00    -0.000 C 
BRANCH  11  12
ATOM     12  C   UNL     1      28.270   0.447   8.804  1.00  0.00    -0.000 C 
BRANCH  12  13
ATOM     13  C   UNL     1      27.468  -0.856   8.657  1.00  0.00    -0.003 C 
ATOM     14  C   UNL     1      27.607  -1.778   9.868  1.00  0.00     0.004 C 
ENDBRANCH  12  13
ENDBRANCH  11  12
ENDBRANCH  10  11
ENDBRANCH   9  10
ENDBRANCH   1   9
TORSDOF 10
ENDMDL
MODEL 9
REMARK VINA RESULT:    -3.775      2.165      3.160
REMARK INTER + INTRA:          -7.422
REMARK INTER:                  -5.805
REMARK INTRA:                  -1.616
REMARK UNBOUND:                -1.440
REMARK SMILES CCCCCCCCCCCC(=O)[O-]
REMARK SMILES IDX 7 1 8 2 9 3 10 4 11 5 12 6 13 7 14 8 6 9 5 10 4 11 3 12 2 13
REMARK SMILES IDX 1 14
REMARK H PARENT
REMARK Flexibility Score: inf
ROOT
ATOM      1  C   UNL     1      26.244   7.469   8.856  1.00  0.00     0.000 C 
ENDROOT
BRANCH   1   2
ATOM      2  C   UNL     1      27.189   6.366   9.369  1.00  0.00     0.000 C 
BRANCH   2   3
ATOM      3  C   UNL     1      26.522   5.279  10.231  1.00  0.00     0.000 C 
BRANCH   3   4
ATOM      4  C   UNL     1      26.812   3.853   9.731  1.00  0.00     0.006 C 
BRANCH   4   5
ATOM      5  C   UNL     1      27.652   3.849   8.447  1.00  0.00     0.053 C 
BRANCH   5   6
ATOM      6  C   UNL     1      27.601   2.521   7.755  1.00  0.00     0.041 C 
ATOM      7  O   UNL     1      27.898   1.469   8.380  1.00  0.00    -0.550 OA
ATOM      8  O   UNL     1      27.260   2.450   6.410  1.00  0.00    -0.550 OA
ENDBRANCH   5   6
ENDBRANCH   4   5
ENDBRANCH   3   4
ENDBRANCH   2   3
ENDBRANCH   1   2
BRANCH   1   9
ATOM      9  C   UNL     1      26.556   7.904   7.414  1.00  0.00     0.000 C 
BRANCH   9  10
ATOM     10  C   UNL     1      26.223   6.818   6.373  1.00  0.00    -0.000 C 
BRANCH  10  11
ATOM     11  C   UNL     1      24.766   6.324   6.377  1.00  0.00    -0.000 C 
BRANCH  11  12
ATOM     12  C   UNL     1      24.642   4.818   6.663  1.00  0.00    -0.000 C 
BRANCH  12  13
ATOM     13  C   UNL     1      23.487   4.494   7.624  1.00  0.00    -0.003 C 
ATOM     14  C   UNL     1      23.160   5.651   8.569  1.00  0.00     0.004 C 
ENDBRANCH  12  13
ENDBRANCH  11  12
ENDBRANCH  10  11
ENDBRANCH   9  10
ENDBRANCH   1   9
TORSDOF 10
ENDMDL
