MODEL 1
REMARK VINA RESULT:    -5.107      0.000      0.000
REMARK INTER + INTRA:         -15.239
REMARK INTER:                 -11.674
REMARK INTRA:                  -3.565
REMARK UNBOUND:                -3.565
REMARK SMILES CCCCCCCCCCCCCCCCCCCCCCCC(=O)[O-]
REMARK SMILES IDX 13 1 14 2 15 3 16 4 17 5 18 6 19 7 20 8 21 9 22 10 23 11
REMARK SMILES IDX 24 12 25 13 26 14 12 15 11 16 10 17 9 18 8 19 7 20 6 21 5 22
REMARK SMILES IDX 4 23 3 24 2 25 1 26
REMARK H PARENT
REMARK Flexibility Score: inf
ROOT
ATOM      1  C   UNL     1      -2.432  10.862  -6.832  1.00  0.00     0.000 C 
ENDROOT
BRANCH   1   2
ATOM      2  C   UNL     1      -3.888  10.378  -6.726  1.00  0.00     0.000 C 
BRANCH   2   3
ATOM      3  C   UNL     1      -4.723  11.230  -5.753  1.00  0.00     0.000 C 
BRANCH   3   4
ATOM      4  C   UNL     1      -5.918  11.914  -6.443  1.00  0.00     0.000 C 
BRANCH   4   5
ATOM      5  C   UNL     1      -5.548  13.151  -7.284  1.00  0.00     0.000 C 
BRANCH   5   6
ATOM      6  C   UNL     1      -5.571  12.866  -8.795  1.00  0.00     0.000 C 
BRANCH   6   7
ATOM      7  C   UNL     1      -6.647  11.839  -9.187  1.00  0.00     0.000 C 
BRANCH   7   8
ATOM      8  C   UNL     1      -6.262  11.018 -10.429  1.00  0.00     0.000 C 
BRANCH   8   9
ATOM      9  C   UNL     1      -4.799  10.544 -10.399  1.00  0.00     0.000 C 
BRANCH   9  10
ATOM     10  C   UNL     1      -4.641   9.039 -10.094  1.00  0.00     0.006 C 
BRANCH  10  11
ATOM     11  C   UNL     1      -5.993   8.316 -10.022  1.00  0.00     0.053 C 
BRANCH  11  12
ATOM     12  C   UNL     1      -5.892   6.954 -10.633  1.00  0.00     0.041 C 
ATOM     13  O   UNL     1      -4.969   6.694 -11.450  1.00  0.00    -0.550 OA
ATOM     14  O   UNL     1      -6.848   5.989 -10.345  1.00  0.00    -0.550 OA
ENDBRANCH  11  12
ENDBRANCH  10  11
ENDBRANCH   9  10
ENDBRANCH   8   9
ENDBRANCH   7   8
ENDBRANCH   6   7
ENDBRANCH   5   6
ENDBRANCH   4   5
ENDBRANCH   3   4
ENDBRANCH   2   3
ENDBRANCH   1   2
BRANCH   1  15
ATOM     15  C   UNL     1      -2.149  11.606  -8.146  1.00  0.00     0.000 C 
BRANCH  15  16
ATOM     16  C   UNL     1      -1.661  13.034  -7.875  1.00  0.00     0.000 C 
BRANCH  16  17
ATOM     17  C   UNL     1      -1.970  13.456  -6.431  1.00  0.00     0.000 C 
BRANCH  17  18
ATOM     18  C   UNL     1      -0.720  13.919  -5.667  1.00  0.00    -0.000 C 
BRANCH  18  19
ATOM     19  C   UNL     1      -0.601  13.275  -4.277  1.00  0.00    -0.000 C 
BRANCH  19  20
ATOM     20  C   UNL     1       0.645  12.384  -4.190  1.00  0.00    -0.000 C 
BRANCH  20  21
ATOM     21  C   UNL     1       1.613  12.679  -5.346  1.00  0.00    -0.000 C 
BRANCH  21  22
ATOM     22  C   UNL     1       1.933  11.431  -6.183  1.00  0.00    -0.000 C 
BRANCH  22  23
ATOM     23  C   UNL     1       1.439  11.548  -7.633  1.00  0.00    -0.000 C 
BRANCH  23  24
ATOM     24  C   UNL     1       1.637  10.224  -8.388  1.00  0.00    -0.000 C 
BRANCH  24  25
ATOM     25  C   UNL     1       3.112   9.799  -8.459  1.00  0.00    -0.003 C 
ATOM     26  C   UNL     1       3.605   9.611  -9.893  1.00  0.00     0.004 C 
ENDBRANCH  24  25
ENDBRANCH  23  24
ENDBRANCH  22  23
ENDBRANCH  21  22
ENDBRANCH  20  21
ENDBRANCH  19  20
ENDBRANCH  18  19
ENDBRANCH  17  18
ENDBRANCH  16  17
ENDBRANCH  15  16
ENDBRANCH   1  15
TORSDOF 22
ENDMDL
MODEL 2
REMARK VINA RESULT:    -4.999      1.220      2.173
REMARK INTER + INTRA:         -14.993
REMARK INTER:                 -10.426
REMARK INTRA:                  -4.567
REMARK UNBOUND:                -3.565
REMARK SMILES CCCCCCCCCCCCCCCCCCCCCCCC(=O)[O-]
REMARK SMILES IDX 13 1 14 2 15 3 16 4 17 5 18 6 19 7 20 8 21 9 22 10 23 11
REMARK SMILES IDX 24 12 25 13 26 14 12 15 11 16 10 17 9 18 8 19 7 20 6 21 5 22
REMARK SMILES IDX 4 23 3 24 2 25 1 26
REMARK H PARENT
REMARK Flexibility Score: inf
ROOT
ATOM      1  C   UNL     1      -1.554  10.520  -6.365  1.00  0.00     0.000 C 
ENDROOT
BRANCH   1   2
ATOM      2  C   UNL     1      -2.230  10.328  -4.997  1.00  0.00     0.000 C 
BRANCH   2   3
ATOM      3  C   UNL     1      -3.756  10.518  -5.061  1.00  0.00     0.000 C 
BRANCH   3   4
ATOM      4  C   UNL     1      -4.221  11.805  -4.353  1.00  0.00     0.000 C 
BRANCH   4   5
ATOM      5  C   UNL     1      -5.597  12.324  -4.810  1.00  0.00     0.000 C 
BRANCH   5   6
ATOM      6  C   UNL     1      -5.857  12.069  -6.305  1.00  0.00     0.000 C 
BRANCH   6   7
ATOM      7  C   UNL     1      -5.533  13.293  -7.179  1.00  0.00     0.000 C 
BRANCH   7   8
ATOM      8  C   UNL     1      -5.647  12.996  -8.683  1.00  0.00     0.000 C 
BRANCH   8   9
ATOM      9  C   UNL     1      -6.349  11.659  -8.976  1.00  0.00     0.000 C 
BRANCH   9  10
ATOM     10  C   UNL     1      -6.121  11.140 -10.411  1.00  0.00     0.006 C 
BRANCH  10  11
ATOM     11  C   UNL     1      -4.699  10.598 -10.612  1.00  0.00     0.053 C 
BRANCH  11  12
ATOM     12  C   UNL     1      -4.657   9.127 -10.344  1.00  0.00     0.041 C 
ATOM     13  O   UNL     1      -3.565   8.565 -10.061  1.00  0.00    -0.550 OA
ATOM     14  O   UNL     1      -5.812   8.364 -10.460  1.00  0.00    -0.550 OA
ENDBRANCH  11  12
ENDBRANCH  10  11
ENDBRANCH   9  10
ENDBRANCH   8   9
ENDBRANCH   7   8
ENDBRANCH   6   7
ENDBRANCH   5   6
ENDBRANCH   4   5
ENDBRANCH   3   4
ENDBRANCH   2   3
ENDBRANCH   1   2
BRANCH   1  15
ATOM     15  C   UNL     1      -2.540  10.959  -7.458  1.00  0.00     0.000 C 
BRANCH  15  16
ATOM     16  C   UNL     1      -2.038  12.214  -8.180  1.00  0.00     0.000 C 
BRANCH  16  17
ATOM     17  C   UNL     1      -1.143  13.058  -7.260  1.00  0.00     0.000 C 
BRANCH  17  18
ATOM     18  C   UNL     1      -1.939  14.075  -6.427  1.00  0.00    -0.000 C 
BRANCH  18  19
ATOM     19  C   UNL     1      -1.536  14.075  -4.945  1.00  0.00    -0.000 C 
BRANCH  19  20
ATOM     20  C   UNL     1      -0.012  13.985  -4.790  1.00  0.00    -0.000 C 
BRANCH  20  21
ATOM     21  C   UNL     1       0.375  12.875  -3.802  1.00  0.00    -0.000 C 
BRANCH  21  22
ATOM     22  C   UNL     1       1.341  11.848  -4.413  1.00  0.00    -0.000 C 
BRANCH  22  23
ATOM     23  C   UNL     1       2.083  12.393  -5.643  1.00  0.00    -0.000 C 
BRANCH  23  24
ATOM     24  C   UNL     1       2.600  11.244  -6.524  1.00  0.00    -0.000 C 
BRANCH  24  25
ATOM     25  C   UNL     1       1.891  11.177  -7.885  1.00  0.00    -0.003 C 
ATOM     26  C   UNL     1       1.780   9.752  -8.426  1.00  0.00     0.004 C 
ENDBRANCH  24  25
ENDBRANCH  23  24
ENDBRANCH  22  23
ENDBRANCH  21  22
ENDBRANCH  20  21
ENDBRANCH  19  20
ENDBRANCH  18  19
ENDBRANCH  17  18
ENDBRANCH  16  17
ENDBRANCH  15  16
ENDBRANCH   1  15
TORSDOF 22
ENDMDL
MODEL 3
REMARK VINA RESULT:    -4.984      3.003      6.750
REMARK INTER + INTRA:         -14.958
REMARK INTER:                 -10.984
REMARK INTRA:                  -3.974
REMARK UNBOUND:                -3.565
REMARK SMILES CCCCCCCCCCCCCCCCCCCCCCCC(=O)[O-]
REMARK SMILES IDX 13 1 14 2 15 3 16 4 17 5 18 6 19 7 20 8 21 9 22 10 23 11
REMARK SMILES IDX 24 12 25 13 26 14 12 15 11 16 10 17 9 18 8 19 7 20 6 21 5 22
REMARK SMILES IDX 4 23 3 24 2 25 1 26
REMARK H PARENT
REMARK Flexibility Score: inf
ROOT
ATOM      1  C   UNL     1      -3.681   9.274  -4.238  1.00  0.00     0.000 C 
ENDROOT
BRANCH   1   2
ATOM      2  C   UNL     1      -2.491  10.013  -4.872  1.00  0.00     0.000 C 
BRANCH   2   3
ATOM      3  C   UNL     1      -1.733  10.888  -3.857  1.00  0.00     0.000 C 
BRANCH   3   4
ATOM      4  C   UNL     1      -1.355  12.267  -4.432  1.00  0.00     0.000 C 
BRANCH   4   5
ATOM      5  C   UNL     1      -2.449  12.919  -5.299  1.00  0.00     0.000 C 
BRANCH   5   6
ATOM      6  C   UNL     1      -1.885  13.971  -6.269  1.00  0.00     0.000 C 
BRANCH   6   7
ATOM      7  C   UNL     1      -1.116  13.342  -7.443  1.00  0.00     0.000 C 
BRANCH   7   8
ATOM      8  C   UNL     1      -1.883  12.185  -8.104  1.00  0.00     0.000 C 
BRANCH   8   9
ATOM      9  C   UNL     1      -1.058  10.889  -8.178  1.00  0.00     0.000 C 
BRANCH   9  10
ATOM     10  C   UNL     1       0.409  11.061  -7.730  1.00  0.00     0.006 C 
BRANCH  10  11
ATOM     11  C   UNL     1       1.220   9.767  -7.891  1.00  0.00     0.053 C 
BRANCH  11  12
ATOM     12  C   UNL     1       2.650  10.081  -8.196  1.00  0.00     0.041 C 
ATOM     13  O   UNL     1       3.339  10.752  -7.382  1.00  0.00    -0.550 OA
ATOM     14  O   UNL     1       3.208   9.682  -9.404  1.00  0.00    -0.550 OA
ENDBRANCH  11  12
ENDBRANCH  10  11
ENDBRANCH   9  10
ENDBRANCH   8   9
ENDBRANCH   7   8
ENDBRANCH   6   7
ENDBRANCH   5   6
ENDBRANCH   4   5
ENDBRANCH   3   4
ENDBRANCH   2   3
ENDBRANCH   1   2
BRANCH   1  15
ATOM     15  C   UNL     1      -5.030   9.694  -4.844  1.00  0.00     0.000 C 
BRANCH  15  16
ATOM     16  C   UNL     1      -4.843  10.290  -6.243  1.00  0.00     0.000 C 
BRANCH  16  17
ATOM     17  C   UNL     1      -5.977  11.270  -6.581  1.00  0.00     0.000 C 
BRANCH  17  18
ATOM     18  C   UNL     1      -5.460  12.620  -7.100  1.00  0.00    -0.000 C 
BRANCH  18  19
ATOM     19  C   UNL     1      -5.459  12.705  -8.634  1.00  0.00    -0.000 C 
BRANCH  19  20
ATOM     20  C   UNL     1      -6.587  11.854  -9.232  1.00  0.00    -0.000 C 
BRANCH  20  21
ATOM     21  C   UNL     1      -6.078  11.021 -10.417  1.00  0.00    -0.000 C 
BRANCH  21  22
ATOM     22  C   UNL     1      -4.550  10.856 -10.412  1.00  0.00    -0.000 C 
BRANCH  22  23
ATOM     23  C   UNL     1      -4.110   9.407 -10.667  1.00  0.00    -0.000 C 
BRANCH  23  24
ATOM     24  C   UNL     1      -4.410   8.521  -9.447  1.00  0.00    -0.000 C 
BRANCH  24  25
ATOM     25  C   UNL     1      -5.503   7.479  -9.728  1.00  0.00    -0.003 C 
ATOM     26  C   UNL     1      -5.350   6.813 -11.095  1.00  0.00     0.004 C 
ENDBRANCH  24  25
ENDBRANCH  23  24
ENDBRANCH  22  23
ENDBRANCH  21  22
ENDBRANCH  20  21
ENDBRANCH  19  20
ENDBRANCH  18  19
ENDBRANCH  17  18
ENDBRANCH  16  17
ENDBRANCH  15  16
ENDBRANCH   1  15
TORSDOF 22
ENDMDL
MODEL 4
REMARK VINA RESULT:    -4.906      2.493      7.226
REMARK INTER + INTRA:         -14.780
REMARK INTER:                 -11.027
REMARK INTRA:                  -3.753
REMARK UNBOUND:                -3.565
REMARK SMILES CCCCCCCCCCCCCCCCCCCCCCCC(=O)[O-]
REMARK SMILES IDX 13 1 14 2 15 3 16 4 17 5 18 6 19 7 20 8 21 9 22 10 23 11
REMARK SMILES IDX 24 12 25 13 26 14 12 15 11 16 10 17 9 18 8 19 7 20 6 21 5 22
REMARK SMILES IDX 4 23 3 24 2 25 1 26
REMARK H PARENT
REMARK Flexibility Score: inf
ROOT
ATOM      1  C   UNL     1      -2.263  10.557  -6.544  1.00  0.00     0.000 C 
ENDROOT
BRANCH   1   2
ATOM      2  C   UNL     1      -2.302  10.815  -8.060  1.00  0.00     0.000 C 
BRANCH   2   3
ATOM      3  C   UNL     1      -2.066  12.295  -8.412  1.00  0.00     0.000 C 
BRANCH   3   4
ATOM      4  C   UNL     1      -1.163  13.010  -7.388  1.00  0.00     0.000 C 
BRANCH   4   5
ATOM      5  C   UNL     1      -1.898  14.010  -6.477  1.00  0.00     0.000 C 
BRANCH   5   6
ATOM      6  C   UNL     1      -1.350  14.013  -5.039  1.00  0.00     0.000 C 
BRANCH   6   7
ATOM      7  C   UNL     1      -0.284  12.928  -4.811  1.00  0.00     0.000 C 
BRANCH   7   8
ATOM      8  C   UNL     1       1.118  13.513  -4.571  1.00  0.00     0.000 C 
BRANCH   8   9
ATOM      9  C   UNL     1       2.202  12.830  -5.422  1.00  0.00     0.000 C 
BRANCH   9  10
ATOM     10  C   UNL     1       1.790  11.440  -5.951  1.00  0.00     0.006 C 
BRANCH  10  11
ATOM     11  C   UNL     1       2.884  10.802  -6.820  1.00  0.00     0.053 C 
BRANCH  11  12
ATOM     12  C   UNL     1       2.292  10.222  -8.064  1.00  0.00     0.041 C 
ATOM     13  O   UNL     1       1.058   9.973  -8.122  1.00  0.00    -0.550 OA
ATOM     14  O   UNL     1       3.109   9.902  -9.141  1.00  0.00    -0.550 OA
ENDBRANCH  11  12
ENDBRANCH  10  11
ENDBRANCH   9  10
ENDBRANCH   8   9
ENDBRANCH   7   8
ENDBRANCH   6   7
ENDBRANCH   5   6
ENDBRANCH   4   5
ENDBRANCH   3   4
ENDBRANCH   2   3
ENDBRANCH   1   2
BRANCH   1  15
ATOM     15  C   UNL     1      -3.657  10.299  -5.950  1.00  0.00     0.000 C 
BRANCH  15  16
ATOM     16  C   UNL     1      -3.973  11.302  -4.835  1.00  0.00     0.000 C 
BRANCH  16  17
ATOM     17  C   UNL     1      -5.198  12.156  -5.194  1.00  0.00     0.000 C 
BRANCH  17  18
ATOM     18  C   UNL     1      -5.648  11.967  -6.651  1.00  0.00    -0.000 C 
BRANCH  18  19
ATOM     19  C   UNL     1      -5.484  13.241  -7.493  1.00  0.00    -0.000 C 
BRANCH  19  20
ATOM     20  C   UNL     1      -5.556  12.922  -8.992  1.00  0.00    -0.000 C 
BRANCH  20  21
ATOM     21  C   UNL     1      -5.805  11.424  -9.223  1.00  0.00    -0.000 C 
BRANCH  21  22
ATOM     22  C   UNL     1      -5.259  10.934 -10.574  1.00  0.00    -0.000 C 
BRANCH  22  23
ATOM     23  C   UNL     1      -4.579   9.560 -10.475  1.00  0.00    -0.000 C 
BRANCH  23  24
ATOM     24  C   UNL     1      -5.610   8.461 -10.171  1.00  0.00    -0.000 C 
BRANCH  24  25
ATOM     25  C   UNL     1      -5.336   7.163 -10.947  1.00  0.00    -0.003 C 
ATOM     26  C   UNL     1      -6.378   6.079 -10.675  1.00  0.00     0.004 C 
ENDBRANCH  24  25
ENDBRANCH  23  24
ENDBRANCH  22  23
ENDBRANCH  21  22
ENDBRANCH  20  21
ENDBRANCH  19  20
ENDBRANCH  18  19
ENDBRANCH  17  18
ENDBRANCH  16  17
ENDBRANCH  15  16
ENDBRANCH   1  15
TORSDOF 22
ENDMDL
MODEL 5
REMARK VINA RESULT:    -4.815      2.730      7.103
REMARK INTER + INTRA:         -14.573
REMARK INTER:                 -10.156
REMARK INTRA:                  -4.417
REMARK UNBOUND:                -3.565
REMARK SMILES CCCCCCCCCCCCCCCCCCCCCCCC(=O)[O-]
REMARK SMILES IDX 13 1 14 2 15 3 16 4 17 5 18 6 19 7 20 8 21 9 22 10 23 11
REMARK SMILES IDX 24 12 25 13 26 14 12 15 11 16 10 17 9 18 8 19 7 20 6 21 5 22
REMARK SMILES IDX 4 23 3 24 2 25 1 26
REMARK H PARENT
REMARK Flexibility Score: inf
ROOT
ATOM      1  C   UNL     1      -3.600  10.942  -5.110  1.00  0.00     0.000 C 
ENDROOT
BRANCH   1   2
ATOM      2  C   UNL     1      -2.302  10.497  -4.417  1.00  0.00     0.000 C 
BRANCH   2   3
ATOM      3  C   UNL     1      -1.652  11.629  -3.600  1.00  0.00     0.000 C 
BRANCH   3   4
ATOM      4  C   UNL     1      -0.185  11.879  -3.999  1.00  0.00     0.000 C 
BRANCH   4   5
ATOM      5  C   UNL     1       0.030  13.112  -4.897  1.00  0.00     0.000 C 
BRANCH   5   6
ATOM      6  C   UNL     1      -1.179  14.064  -4.893  1.00  0.00     0.000 C 
BRANCH   6   7
ATOM      7  C   UNL     1      -1.894  14.117  -6.254  1.00  0.00     0.000 C 
BRANCH   7   8
ATOM      8  C   UNL     1      -1.127  13.370  -7.358  1.00  0.00     0.000 C 
BRANCH   8   9
ATOM      9  C   UNL     1      -1.953  12.242  -7.998  1.00  0.00     0.000 C 
BRANCH   9  10
ATOM     10  C   UNL     1      -1.105  11.039  -8.463  1.00  0.00     0.006 C 
BRANCH  10  11
ATOM     11  C   UNL     1      -0.237  10.470  -7.333  1.00  0.00     0.053 C 
BRANCH  11  12
ATOM     12  C   UNL     1       1.208  10.496  -7.719  1.00  0.00     0.041 C 
ATOM     13  O   UNL     1       1.670   9.625  -8.503  1.00  0.00    -0.550 OA
ATOM     14  O   UNL     1       2.059  11.446  -7.169  1.00  0.00    -0.550 OA
ENDBRANCH  11  12
ENDBRANCH  10  11
ENDBRANCH   9  10
ENDBRANCH   8   9
ENDBRANCH   7   8
ENDBRANCH   6   7
ENDBRANCH   5   6
ENDBRANCH   4   5
ENDBRANCH   3   4
ENDBRANCH   2   3
ENDBRANCH   1   2
BRANCH   1  15
ATOM     15  C   UNL     1      -4.625   9.804  -5.236  1.00  0.00     0.000 C 
BRANCH  15  16
ATOM     16  C   UNL     1      -5.001   9.563  -6.702  1.00  0.00     0.000 C 
BRANCH  16  17
ATOM     17  C   UNL     1      -6.108   8.504  -6.820  1.00  0.00     0.000 C 
BRANCH  17  18
ATOM     18  C   UNL     1      -6.465   8.179  -8.279  1.00  0.00    -0.000 C 
BRANCH  18  19
ATOM     19  C   UNL     1      -5.276   7.616  -9.071  1.00  0.00    -0.000 C 
BRANCH  19  20
ATOM     20  C   UNL     1      -5.070   8.391 -10.379  1.00  0.00    -0.000 C 
BRANCH  20  21
ATOM     21  C   UNL     1      -3.973   9.454 -10.221  1.00  0.00    -0.000 C 
BRANCH  21  22
ATOM     22  C   UNL     1      -4.487  10.878 -10.480  1.00  0.00    -0.000 C 
BRANCH  22  23
ATOM     23  C   UNL     1      -6.018  10.977 -10.409  1.00  0.00    -0.000 C 
BRANCH  23  24
ATOM     24  C   UNL     1      -6.458  11.813  -9.197  1.00  0.00    -0.000 C 
BRANCH  24  25
ATOM     25  C   UNL     1      -5.420  12.876  -8.805  1.00  0.00    -0.003 C 
ATOM     26  C   UNL     1      -5.481  13.246  -7.324  1.00  0.00     0.004 C 
ENDBRANCH  24  25
ENDBRANCH  23  24
ENDBRANCH  22  23
ENDBRANCH  21  22
ENDBRANCH  20  21
ENDBRANCH  19  20
ENDBRANCH  18  19
ENDBRANCH  17  18
ENDBRANCH  16  17
ENDBRANCH  15  16
ENDBRANCH   1  15
TORSDOF 22
ENDMDL
MODEL 6
REMARK VINA RESULT:    -4.754      3.331      5.242
REMARK INTER + INTRA:         -14.432
REMARK INTER:                 -11.356
REMARK INTRA:                  -3.076
REMARK UNBOUND:                -3.565
REMARK SMILES CCCCCCCCCCCCCCCCCCCCCCCC(=O)[O-]
REMARK SMILES IDX 13 1 14 2 15 3 16 4 17 5 18 6 19 7 20 8 21 9 22 10 23 11
REMARK SMILES IDX 24 12 25 13 26 14 12 15 11 16 10 17 9 18 8 19 7 20 6 21 5 22
REMARK SMILES IDX 4 23 3 24 2 25 1 26
REMARK H PARENT
REMARK Flexibility Score: inf
ROOT
ATOM      1  C   UNL     1      -3.743   9.260 -10.014  1.00  0.00     0.000 C 
ENDROOT
BRANCH   1   2
ATOM      2  C   UNL     1      -4.730   8.320 -10.727  1.00  0.00     0.000 C 
BRANCH   2   3
ATOM      3  C   UNL     1      -5.448   7.370  -9.752  1.00  0.00     0.000 C 
BRANCH   3   4
ATOM      4  C   UNL     1      -6.885   7.827  -9.432  1.00  0.00     0.000 C 
BRANCH   4   5
ATOM      5  C   UNL     1      -7.034   8.573  -8.093  1.00  0.00     0.000 C 
BRANCH   5   6
ATOM      6  C   UNL     1      -5.840   8.339  -7.150  1.00  0.00     0.000 C 
BRANCH   6   7
ATOM      7  C   UNL     1      -6.166   8.681  -5.687  1.00  0.00     0.000 C 
BRANCH   7   8
ATOM      8  C   UNL     1      -5.086   8.194  -4.708  1.00  0.00     0.000 C 
BRANCH   8   9
ATOM      9  C   UNL     1      -5.095   6.667  -4.521  1.00  0.00     0.000 C 
BRANCH   9  10
ATOM     10  C   UNL     1      -4.233   6.182  -3.336  1.00  0.00     0.006 C 
BRANCH  10  11
ATOM     11  C   UNL     1      -2.735   6.414  -3.575  1.00  0.00     0.053 C 
BRANCH  11  12
ATOM     12  C   UNL     1      -2.094   5.175  -4.115  1.00  0.00     0.041 C 
ATOM     13  O   UNL     1      -0.855   5.150  -4.342  1.00  0.00    -0.550 OA
ATOM     14  O   UNL     1      -2.871   4.066  -4.424  1.00  0.00    -0.550 OA
ENDBRANCH  11  12
ENDBRANCH  10  11
ENDBRANCH   9  10
ENDBRANCH   8   9
ENDBRANCH   7   8
ENDBRANCH   6   7
ENDBRANCH   5   6
ENDBRANCH   4   5
ENDBRANCH   3   4
ENDBRANCH   2   3
ENDBRANCH   1   2
BRANCH   1  15
ATOM     15  C   UNL     1      -3.947  10.735 -10.394  1.00  0.00     0.000 C 
BRANCH  15  16
ATOM     16  C   UNL     1      -5.402  11.163 -10.174  1.00  0.00     0.000 C 
BRANCH  16  17
ATOM     17  C   UNL     1      -5.580  11.823  -8.798  1.00  0.00     0.000 C 
BRANCH  17  18
ATOM     18  C   UNL     1      -4.602  12.986  -8.568  1.00  0.00    -0.000 C 
BRANCH  18  19
ATOM     19  C   UNL     1      -3.814  12.848  -7.256  1.00  0.00    -0.000 C 
BRANCH  19  20
ATOM     20  C   UNL     1      -3.635  11.373  -6.876  1.00  0.00    -0.000 C 
BRANCH  20  21
ATOM     21  C   UNL     1      -2.149  10.984  -6.864  1.00  0.00    -0.000 C 
BRANCH  21  22
ATOM     22  C   UNL     1      -1.229  12.152  -7.252  1.00  0.00    -0.000 C 
BRANCH  22  23
ATOM     23  C   UNL     1       0.024  11.692  -8.012  1.00  0.00    -0.000 C 
BRANCH  23  24
ATOM     24  C   UNL     1       0.472  10.300  -7.536  1.00  0.00    -0.000 C 
BRANCH  24  25
ATOM     25  C   UNL     1       1.687   9.773  -8.314  1.00  0.00    -0.003 C 
ATOM     26  C   UNL     1       2.973  10.533  -7.991  1.00  0.00     0.004 C 
ENDBRANCH  24  25
ENDBRANCH  23  24
ENDBRANCH  22  23
ENDBRANCH  21  22
ENDBRANCH  20  21
ENDBRANCH  19  20
ENDBRANCH  18  19
ENDBRANCH  17  18
ENDBRANCH  16  17
ENDBRANCH  15  16
ENDBRANCH   1  15
TORSDOF 22
ENDMDL
MODEL 7
REMARK VINA RESULT:    -4.700      2.198      3.251
REMARK INTER + INTRA:         -14.310
REMARK INTER:                 -10.555
REMARK INTRA:                  -3.754
REMARK UNBOUND:                -3.565
REMARK SMILES CCCCCCCCCCCCCCCCCCCCCCCC(=O)[O-]
REMARK SMILES IDX 13 1 14 2 15 3 16 4 17 5 18 6 19 7 20 8 21 9 22 10 23 11
REMARK SMILES IDX 24 12 25 13 26 14 12 15 11 16 10 17 9 18 8 19 7 20 6 21 5 22
REMARK SMILES IDX 4 23 3 24 2 25 1 26
REMARK H PARENT
REMARK Flexibility Score: inf
ROOT
ATOM      1  C   UNL     1      -3.004  12.263  -8.477  1.00  0.00     0.000 C 
ENDROOT
BRANCH   1   2
ATOM      2  C   UNL     1      -4.219  12.872  -7.757  1.00  0.00     0.000 C 
BRANCH   2   3
ATOM      3  C   UNL     1      -5.382  13.176  -8.718  1.00  0.00     0.000 C 
BRANCH   3   4
ATOM      4  C   UNL     1      -6.447  12.062  -8.727  1.00  0.00     0.000 C 
BRANCH   4   5
ATOM      5  C   UNL     1      -6.668  11.402 -10.101  1.00  0.00     0.000 C 
BRANCH   5   6
ATOM      6  C   UNL     1      -5.367  10.847 -10.706  1.00  0.00     0.000 C 
BRANCH   6   7
ATOM      7  C   UNL     1      -4.975   9.482 -10.113  1.00  0.00     0.000 C 
BRANCH   7   8
ATOM      8  C   UNL     1      -6.119   8.457 -10.174  1.00  0.00     0.000 C 
BRANCH   8   9
ATOM      9  C   UNL     1      -6.795   8.238  -8.810  1.00  0.00     0.000 C 
BRANCH   9  10
ATOM     10  C   UNL     1      -5.841   8.412  -7.609  1.00  0.00     0.006 C 
BRANCH  10  11
ATOM     11  C   UNL     1      -6.499   9.176  -6.452  1.00  0.00     0.053 C 
BRANCH  11  12
ATOM     12  C   UNL     1      -6.083   8.596  -5.138  1.00  0.00     0.041 C 
ATOM     13  O   UNL     1      -5.003   7.953  -5.043  1.00  0.00    -0.550 OA
ATOM     14  O   UNL     1      -6.912   8.714  -4.030  1.00  0.00    -0.550 OA
ENDBRANCH  11  12
ENDBRANCH  10  11
ENDBRANCH   9  10
ENDBRANCH   8   9
ENDBRANCH   7   8
ENDBRANCH   6   7
ENDBRANCH   5   6
ENDBRANCH   4   5
ENDBRANCH   3   4
ENDBRANCH   2   3
ENDBRANCH   1   2
BRANCH   1  15
ATOM     15  C   UNL     1      -2.540  10.942  -7.845  1.00  0.00     0.000 C 
BRANCH  15  16
ATOM     16  C   UNL     1      -3.088  10.792  -6.421  1.00  0.00     0.000 C 
BRANCH  16  17
ATOM     17  C   UNL     1      -1.950  10.568  -5.413  1.00  0.00     0.000 C 
BRANCH  17  18
ATOM     18  C   UNL     1      -1.893  11.658  -4.332  1.00  0.00    -0.000 C 
BRANCH  18  19
ATOM     19  C   UNL     1      -2.129  13.068  -4.895  1.00  0.00    -0.000 C 
BRANCH  19  20
ATOM     20  C   UNL     1      -0.890  13.574  -5.646  1.00  0.00    -0.000 C 
BRANCH  20  21
ATOM     21  C   UNL     1       0.374  13.417  -4.788  1.00  0.00    -0.000 C 
BRANCH  21  22
ATOM     22  C   UNL     1       1.581  12.918  -5.598  1.00  0.00    -0.000 C 
BRANCH  22  23
ATOM     23  C   UNL     1       1.393  11.485  -6.118  1.00  0.00    -0.000 C 
BRANCH  23  24
ATOM     24  C   UNL     1       1.187  11.478  -7.641  1.00  0.00    -0.000 C 
BRANCH  24  25
ATOM     25  C   UNL     1       1.259  10.066  -8.241  1.00  0.00    -0.003 C 
ATOM     26  C   UNL     1       2.633   9.739  -8.824  1.00  0.00     0.004 C 
ENDBRANCH  24  25
ENDBRANCH  23  24
ENDBRANCH  22  23
ENDBRANCH  21  22
ENDBRANCH  20  21
ENDBRANCH  19  20
ENDBRANCH  18  19
ENDBRANCH  17  18
ENDBRANCH  16  17
ENDBRANCH  15  16
ENDBRANCH   1  15
TORSDOF 22
ENDMDL
MODEL 8
REMARK VINA RESULT:    -4.681      2.760      7.281
REMARK INTER + INTRA:         -14.267
REMARK INTER:                 -10.164
REMARK INTRA:                  -4.103
REMARK UNBOUND:                -3.565
REMARK SMILES CCCCCCCCCCCCCCCCCCCCCCCC(=O)[O-]
REMARK SMILES IDX 13 1 14 2 15 3 16 4 17 5 18 6 19 7 20 8 21 9 22 10 23 11
REMARK SMILES IDX 24 12 25 13 26 14 12 15 11 16 10 17 9 18 8 19 7 20 6 21 5 22
REMARK SMILES IDX 4 23 3 24 2 25 1 26
REMARK H PARENT
REMARK Flexibility Score: inf
ROOT
ATOM      1  C   UNL     1      -3.303  10.001  -9.185  1.00  0.00     0.000 C 
ENDROOT
BRANCH   1   2
ATOM      2  C   UNL     1      -2.253  10.909  -8.524  1.00  0.00     0.000 C 
BRANCH   2   3
ATOM      3  C   UNL     1      -2.655  12.394  -8.553  1.00  0.00     0.000 C 
BRANCH   3   4
ATOM      4  C   UNL     1      -2.878  12.974  -7.143  1.00  0.00     0.000 C 
BRANCH   4   5
ATOM      5  C   UNL     1      -2.082  12.268  -6.029  1.00  0.00     0.000 C 
BRANCH   5   6
ATOM      6  C   UNL     1      -2.071  13.067  -4.714  1.00  0.00     0.000 C 
BRANCH   6   7
ATOM      7  C   UNL     1      -0.797  13.912  -4.546  1.00  0.00     0.000 C 
BRANCH   7   8
ATOM      8  C   UNL     1       0.277  13.584  -5.596  1.00  0.00     0.000 C 
BRANCH   8   9
ATOM      9  C   UNL     1       1.612  13.149  -4.967  1.00  0.00     0.000 C 
BRANCH   9  10
ATOM     10  C   UNL     1       2.180  11.842  -5.559  1.00  0.00     0.006 C 
BRANCH  10  11
ATOM     11  C   UNL     1       1.328  11.313  -6.722  1.00  0.00     0.053 C 
BRANCH  11  12
ATOM     12  C   UNL     1       2.165  10.495  -7.653  1.00  0.00     0.041 C 
ATOM     13  O   UNL     1       3.413  10.665  -7.698  1.00  0.00    -0.550 OA
ATOM     14  O   UNL     1       1.563   9.585  -8.514  1.00  0.00    -0.550 OA
ENDBRANCH  11  12
ENDBRANCH  10  11
ENDBRANCH   9  10
ENDBRANCH   8   9
ENDBRANCH   7   8
ENDBRANCH   6   7
ENDBRANCH   5   6
ENDBRANCH   4   5
ENDBRANCH   3   4
ENDBRANCH   2   3
ENDBRANCH   1   2
BRANCH   1  15
ATOM     15  C   UNL     1      -4.122  10.728 -10.264  1.00  0.00     0.000 C 
BRANCH  15  16
ATOM     16  C   UNL     1      -5.497  10.076 -10.442  1.00  0.00     0.000 C 
BRANCH  16  17
ATOM     17  C   UNL     1      -6.624  11.096 -10.219  1.00  0.00     0.000 C 
BRANCH  17  18
ATOM     18  C   UNL     1      -6.738  11.543  -8.753  1.00  0.00    -0.000 C 
BRANCH  18  19
ATOM     19  C   UNL     1      -6.402  13.029  -8.556  1.00  0.00    -0.000 C 
BRANCH  19  20
ATOM     20  C   UNL     1      -6.379  13.394  -7.066  1.00  0.00    -0.000 C 
BRANCH  20  21
ATOM     21  C   UNL     1      -6.696  12.169  -6.195  1.00  0.00    -0.000 C 
BRANCH  21  22
ATOM     22  C   UNL     1      -5.897  12.153  -4.883  1.00  0.00    -0.000 C 
BRANCH  22  23
ATOM     23  C   UNL     1      -5.211  10.803  -4.625  1.00  0.00    -0.000 C 
BRANCH  23  24
ATOM     24  C   UNL     1      -4.971  10.050  -5.943  1.00  0.00    -0.000 C 
BRANCH  24  25
ATOM     25  C   UNL     1      -5.617   8.656  -5.954  1.00  0.00    -0.003 C 
ATOM     26  C   UNL     1      -6.065   8.221  -7.348  1.00  0.00     0.004 C 
ENDBRANCH  24  25
ENDBRANCH  23  24
ENDBRANCH  22  23
ENDBRANCH  21  22
ENDBRANCH  20  21
ENDBRANCH  19  20
ENDBRANCH  18  19
ENDBRANCH  17  18
ENDBRANCH  16  17
ENDBRANCH  15  16
ENDBRANCH   1  15
TORSDOF 22
ENDMDL
MODEL 9
REMARK VINA RESULT:    -4.677      1.896      3.359
REMARK INTER + INTRA:         -14.258
REMARK INTER:                 -10.381
REMARK INTRA:                  -3.876
REMARK UNBOUND:                -3.565
REMARK SMILES CCCCCCCCCCCCCCCCCCCCCCCC(=O)[O-]
REMARK SMILES IDX 13 1 14 2 15 3 16 4 17 5 18 6 19 7 20 8 21 9 22 10 23 11
REMARK SMILES IDX 24 12 25 13 26 14 12 15 11 16 10 17 9 18 8 19 7 20 6 21 5 22
REMARK SMILES IDX 4 23 3 24 2 25 1 26
REMARK H PARENT
REMARK Flexibility Score: inf
ROOT
ATOM      1  C   UNL     1      -2.439  10.417  -8.422  1.00  0.00     0.000 C 
ENDROOT
BRANCH   1   2
ATOM      2  C   UNL     1      -3.181  11.327  -9.415  1.00  0.00     0.000 C 
BRANCH   2   3
ATOM      3  C   UNL     1      -3.850  10.536 -10.553  1.00  0.00     0.000 C 
BRANCH   3   4
ATOM      4  C   UNL     1      -4.687   9.350 -10.036  1.00  0.00     0.000 C 
BRANCH   4   5
ATOM      5  C   UNL     1      -6.202   9.618  -9.972  1.00  0.00     0.000 C 
BRANCH   5   6
ATOM      6  C   UNL     1      -6.548  11.106 -10.164  1.00  0.00     0.000 C 
BRANCH   6   7
ATOM      7  C   UNL     1      -7.077  11.761  -8.877  1.00  0.00     0.000 C 
BRANCH   7   8
ATOM      8  C   UNL     1      -6.286  13.019  -8.482  1.00  0.00     0.000 C 
BRANCH   8   9
ATOM      9  C   UNL     1      -5.424  12.811  -7.226  1.00  0.00     0.000 C 
BRANCH   9  10
ATOM     10  C   UNL     1      -5.876  11.620  -6.354  1.00  0.00     0.006 C 
BRANCH  10  11
ATOM     11  C   UNL     1      -4.725  11.042  -5.519  1.00  0.00     0.053 C 
BRANCH  11  12
ATOM     12  C   UNL     1      -4.796   9.549  -5.493  1.00  0.00     0.041 C 
ATOM     13  O   UNL     1      -4.302   8.908  -4.527  1.00  0.00    -0.550 OA
ATOM     14  O   UNL     1      -5.356   8.859  -6.560  1.00  0.00    -0.550 OA
ENDBRANCH  11  12
ENDBRANCH  10  11
ENDBRANCH   9  10
ENDBRANCH   8   9
ENDBRANCH   7   8
ENDBRANCH   6   7
ENDBRANCH   5   6
ENDBRANCH   4   5
ENDBRANCH   3   4
ENDBRANCH   2   3
ENDBRANCH   1   2
BRANCH   1  15
ATOM     15  C   UNL     1      -1.623  11.208  -7.388  1.00  0.00     0.000 C 
BRANCH  15  16
ATOM     16  C   UNL     1      -1.294  12.613  -7.905  1.00  0.00     0.000 C 
BRANCH  16  17
ATOM     17  C   UNL     1      -1.574  13.675  -6.831  1.00  0.00     0.000 C 
BRANCH  17  18
ATOM     18  C   UNL     1      -1.692  13.076  -5.421  1.00  0.00    -0.000 C 
BRANCH  18  19
ATOM     19  C   UNL     1      -1.315  14.076  -4.317  1.00  0.00    -0.000 C 
BRANCH  19  20
ATOM     20  C   UNL     1       0.176  14.434  -4.386  1.00  0.00    -0.000 C 
BRANCH  20  21
ATOM     21  C   UNL     1       1.050  13.195  -4.138  1.00  0.00    -0.000 C 
BRANCH  21  22
ATOM     22  C   UNL     1       1.985  12.885  -5.317  1.00  0.00    -0.000 C 
BRANCH  22  23
ATOM     23  C   UNL     1       1.836  11.443  -5.826  1.00  0.00    -0.000 C 
BRANCH  23  24
ATOM     24  C   UNL     1       2.037  11.377  -7.349  1.00  0.00    -0.000 C 
BRANCH  24  25
ATOM     25  C   UNL     1       1.890   9.951  -7.903  1.00  0.00    -0.003 C 
ATOM     26  C   UNL     1       2.852   9.661  -9.054  1.00  0.00     0.004 C 
ENDBRANCH  24  25
ENDBRANCH  23  24
ENDBRANCH  22  23
ENDBRANCH  21  22
ENDBRANCH  20  21
ENDBRANCH  19  20
ENDBRANCH  18  19
ENDBRANCH  17  18
ENDBRANCH  16  17
ENDBRANCH  15  16
ENDBRANCH   1  15
TORSDOF 22
ENDMDL
