MODEL 1
REMARK VINA RESULT:     1.289      0.000      0.000
REMARK INTER + INTRA:           1.555
REMARK INTER:                   3.398
REMARK INTRA:                  -1.843
REMARK UNBOUND:                -1.843
REMARK SMILES CCCCCCCCCCCCCCCCCCCCCCCCCCCCCC(=O)[O-]
REMARK SMILES IDX 16 1 17 2 18 3 19 4 20 5 21 6 22 7 23 8 24 9 25 10 26 11
REMARK SMILES IDX 27 12 28 13 29 14 30 15 31 16 32 17 15 18 14 19 13 20 12 21
REMARK SMILES IDX 11 22 10 23 9 24 8 25 7 26 6 27 5 28 4 29 3 30 2 31 1 32
REMARK H PARENT
REMARK Flexibility Score: inf
ROOT
ATOM      1  C   UNL     1      -4.520   8.367  -2.399  1.00  0.00     0.000 C 
ENDROOT
BRANCH   1   2
ATOM      2  C   UNL     1      -3.462   8.117  -1.309  1.00  0.00     0.000 C 
BRANCH   2   3
ATOM      3  C   UNL     1      -2.025   8.145  -1.854  1.00  0.00     0.000 C 
BRANCH   3   4
ATOM      4  C   UNL     1      -1.041   8.850  -0.903  1.00  0.00     0.000 C 
BRANCH   4   5
ATOM      5  C   UNL     1      -1.059   8.339   0.551  1.00  0.00     0.000 C 
BRANCH   5   6
ATOM      6  C   UNL     1      -1.481   9.382   1.604  1.00  0.00     0.000 C 
BRANCH   6   7
ATOM      7  C   UNL     1      -2.378  10.515   1.069  1.00  0.00     0.000 C 
BRANCH   7   8
ATOM      8  C   UNL     1      -3.594  10.857   1.952  1.00  0.00     0.000 C 
BRANCH   8   9
ATOM      9  C   UNL     1      -3.277  11.116   3.437  1.00  0.00     0.000 C 
BRANCH   9  10
ATOM     10  C   UNL     1      -4.313  10.497   4.388  1.00  0.00     0.000 C 
BRANCH  10  11
ATOM     11  C   UNL     1      -5.753  10.951   4.082  1.00  0.00     0.000 C 
BRANCH  11  12
ATOM     12  C   UNL     1      -6.849  10.289   4.939  1.00  0.00     0.000 C 
BRANCH  12  13
ATOM     13  C   UNL     1      -7.750   9.284   4.197  1.00  0.00     0.006 C 
BRANCH  13  14
ATOM     14  C   UNL     1      -7.118   7.892   4.016  1.00  0.00     0.053 C 
BRANCH  14  15
ATOM     15  C   UNL     1      -8.009   6.791   4.507  1.00  0.00     0.041 C 
ATOM     16  O   UNL     1      -8.433   6.799   5.692  1.00  0.00    -0.550 OA
ATOM     17  O   UNL     1      -8.397   5.772   3.647  1.00  0.00    -0.550 OA
ENDBRANCH  14  15
ENDBRANCH  13  14
ENDBRANCH  12  13
ENDBRANCH  11  12
ENDBRANCH  10  11
ENDBRANCH   9  10
ENDBRANCH   8   9
ENDBRANCH   7   8
ENDBRANCH   6   7
ENDBRANCH   5   6
ENDBRANCH   4   5
ENDBRANCH   3   4
ENDBRANCH   2   3
ENDBRANCH   1   2
BRANCH   1  18
ATOM     18  C   UNL     1      -4.830   7.153  -3.300  1.00  0.00     0.000 C 
BRANCH  18  19
ATOM     19  C   UNL     1      -3.887   6.961  -4.501  1.00  0.00     0.000 C 
BRANCH  19  20
ATOM     20  C   UNL     1      -3.349   8.289  -5.062  1.00  0.00     0.000 C 
BRANCH  20  21
ATOM     21  C   UNL     1      -1.826   8.265  -5.294  1.00  0.00     0.000 C 
BRANCH  21  22
ATOM     22  C   UNL     1      -1.211   9.603  -5.741  1.00  0.00     0.000 C 
BRANCH  22  23
ATOM     23  C   UNL     1      -0.876   9.638  -7.239  1.00  0.00     0.000 C 
BRANCH  23  24
ATOM     24  C   UNL     1      -1.379  10.936  -7.886  1.00  0.00    -0.000 C 
BRANCH  24  25
ATOM     25  C   UNL     1      -1.042  11.030  -9.386  1.00  0.00    -0.000 C 
BRANCH  25  26
ATOM     26  C   UNL     1      -2.263  11.123 -10.319  1.00  0.00    -0.000 C 
BRANCH  26  27
ATOM     27  C   UNL     1      -2.080  10.330 -11.624  1.00  0.00    -0.000 C 
BRANCH  27  28
ATOM     28  C   UNL     1      -1.157   9.113 -11.450  1.00  0.00    -0.000 C 
BRANCH  28  29
ATOM     29  C   UNL     1      -1.533   7.951 -12.380  1.00  0.00    -0.000 C 
BRANCH  29  30
ATOM     30  C   UNL     1      -3.022   7.595 -12.239  1.00  0.00    -0.000 C 
BRANCH  30  31
ATOM     31  C   UNL     1      -3.385   6.285 -12.956  1.00  0.00    -0.003 C 
ATOM     32  C   UNL     1      -4.749   5.739 -12.535  1.00  0.00     0.004 C 
ENDBRANCH  30  31
ENDBRANCH  29  30
ENDBRANCH  28  29
ENDBRANCH  27  28
ENDBRANCH  26  27
ENDBRANCH  25  26
ENDBRANCH  24  25
ENDBRANCH  23  24
ENDBRANCH  22  23
ENDBRANCH  21  22
ENDBRANCH  20  21
ENDBRANCH  19  20
ENDBRANCH  18  19
ENDBRANCH   1  18
TORSDOF 28
ENDMDL
MODEL 2
REMARK VINA RESULT:     1.957      1.563      2.259
REMARK INTER + INTRA:           3.318
REMARK INTER:                   1.798
REMARK INTRA:                   1.520
REMARK UNBOUND:                -1.843
REMARK SMILES CCCCCCCCCCCCCCCCCCCCCCCCCCCCCC(=O)[O-]
REMARK SMILES IDX 16 1 17 2 18 3 19 4 20 5 21 6 22 7 23 8 24 9 25 10 26 11
REMARK SMILES IDX 27 12 28 13 29 14 30 15 31 16 32 17 15 18 14 19 13 20 12 21
REMARK SMILES IDX 11 22 10 23 9 24 8 25 7 26 6 27 5 28 4 29 3 30 2 31 1 32
REMARK H PARENT
REMARK Flexibility Score: inf
ROOT
ATOM      1  C   UNL     1      -4.003   7.661  -2.455  1.00  0.00     0.000 C 
ENDROOT
BRANCH   1   2
ATOM      2  C   UNL     1      -3.640   8.109  -1.028  1.00  0.00     0.000 C 
BRANCH   2   3
ATOM      3  C   UNL     1      -2.378   7.415  -0.488  1.00  0.00     0.000 C 
BRANCH   3   4
ATOM      4  C   UNL     1      -1.135   7.680  -1.356  1.00  0.00     0.000 C 
BRANCH   4   5
ATOM      5  C   UNL     1      -0.894   9.160  -1.716  1.00  0.00     0.000 C 
BRANCH   5   6
ATOM      6  C   UNL     1      -1.963  10.140  -1.194  1.00  0.00     0.000 C 
BRANCH   6   7
ATOM      7  C   UNL     1      -1.468  11.123  -0.115  1.00  0.00     0.000 C 
BRANCH   7   8
ATOM      8  C   UNL     1      -1.009  10.469   1.203  1.00  0.00     0.000 C 
BRANCH   8   9
ATOM      9  C   UNL     1      -2.144   9.973   2.120  1.00  0.00     0.000 C 
BRANCH   9  10
ATOM     10  C   UNL     1      -2.912  11.120   2.795  1.00  0.00     0.000 C 
BRANCH  10  11
ATOM     11  C   UNL     1      -4.431  10.876   2.845  1.00  0.00     0.000 C 
BRANCH  11  12
ATOM     12  C   UNL     1      -4.951  10.209   4.133  1.00  0.00     0.000 C 
BRANCH  12  13
ATOM     13  C   UNL     1      -6.456   9.882   4.147  1.00  0.00     0.006 C 
BRANCH  13  14
ATOM     14  C   UNL     1      -6.796   8.534   4.811  1.00  0.00     0.053 C 
BRANCH  14  15
ATOM     15  C   UNL     1      -8.075   7.949   4.294  1.00  0.00     0.041 C 
ATOM     16  O   UNL     1      -8.647   8.456   3.295  1.00  0.00    -0.550 OA
ATOM     17  O   UNL     1      -8.620   6.822   4.897  1.00  0.00    -0.550 OA
ENDBRANCH  14  15
ENDBRANCH  13  14
ENDBRANCH  12  13
ENDBRANCH  11  12
ENDBRANCH  10  11
ENDBRANCH   9  10
ENDBRANCH   8   9
ENDBRANCH   7   8
ENDBRANCH   6   7
ENDBRANCH   5   6
ENDBRANCH   4   5
ENDBRANCH   3   4
ENDBRANCH   2   3
ENDBRANCH   1   2
BRANCH   1  18
ATOM     18  C   UNL     1      -2.972   8.036  -3.541  1.00  0.00     0.000 C 
BRANCH  18  19
ATOM     19  C   UNL     1      -2.848   7.039  -4.708  1.00  0.00     0.000 C 
BRANCH  19  20
ATOM     20  C   UNL     1      -1.424   6.480  -4.873  1.00  0.00     0.000 C 
BRANCH  20  21
ATOM     21  C   UNL     1      -0.944   6.494  -6.337  1.00  0.00     0.000 C 
BRANCH  21  22
ATOM     22  C   UNL     1      -0.917   7.882  -7.004  1.00  0.00     0.000 C 
BRANCH  22  23
ATOM     23  C   UNL     1      -1.489   8.989  -6.105  1.00  0.00     0.000 C 
BRANCH  23  24
ATOM     24  C   UNL     1      -0.899  10.357  -6.475  1.00  0.00    -0.000 C 
BRANCH  24  25
ATOM     25  C   UNL     1      -1.633  11.031  -7.649  1.00  0.00    -0.000 C 
BRANCH  25  26
ATOM     26  C   UNL     1      -0.961  10.850  -9.022  1.00  0.00    -0.000 C 
BRANCH  26  27
ATOM     27  C   UNL     1      -1.266   9.485  -9.662  1.00  0.00    -0.000 C 
BRANCH  27  28
ATOM     28  C   UNL     1      -1.059   9.488 -11.185  1.00  0.00    -0.000 C 
BRANCH  28  29
ATOM     29  C   UNL     1      -1.373  10.852 -11.818  1.00  0.00    -0.000 C 
BRANCH  29  30
ATOM     30  C   UNL     1      -2.199  10.683 -13.103  1.00  0.00    -0.000 C 
BRANCH  30  31
ATOM     31  C   UNL     1      -3.571  10.042 -12.843  1.00  0.00    -0.003 C 
ATOM     32  C   UNL     1      -4.711  11.060 -12.850  1.00  0.00     0.004 C 
ENDBRANCH  30  31
ENDBRANCH  29  30
ENDBRANCH  28  29
ENDBRANCH  27  28
ENDBRANCH  26  27
ENDBRANCH  25  26
ENDBRANCH  24  25
ENDBRANCH  23  24
ENDBRANCH  22  23
ENDBRANCH  21  22
ENDBRANCH  20  21
ENDBRANCH  19  20
ENDBRANCH  18  19
ENDBRANCH   1  18
TORSDOF 28
ENDMDL
MODEL 3
REMARK VINA RESULT:     3.503      1.910      3.163
REMARK INTER + INTRA:           7.393
REMARK INTER:                   6.767
REMARK INTRA:                   0.626
REMARK UNBOUND:                -1.843
REMARK SMILES CCCCCCCCCCCCCCCCCCCCCCCCCCCCCC(=O)[O-]
REMARK SMILES IDX 16 1 17 2 18 3 19 4 20 5 21 6 22 7 23 8 24 9 25 10 26 11
REMARK SMILES IDX 27 12 28 13 29 14 30 15 31 16 32 17 15 18 14 19 13 20 12 21
REMARK SMILES IDX 11 22 10 23 9 24 8 25 7 26 6 27 5 28 4 29 3 30 2 31 1 32
REMARK H PARENT
REMARK Flexibility Score: inf
ROOT
ATOM      1  C   UNL     1      -1.750   7.428  -2.548  1.00  0.00     0.000 C 
ENDROOT
BRANCH   1   2
ATOM      2  C   UNL     1      -1.776   8.946  -2.800  1.00  0.00     0.000 C 
BRANCH   2   3
ATOM      3  C   UNL     1      -2.930   9.377  -3.720  1.00  0.00     0.000 C 
BRANCH   3   4
ATOM      4  C   UNL     1      -3.396  10.820  -3.455  1.00  0.00     0.000 C 
BRANCH   4   5
ATOM      5  C   UNL     1      -4.280  11.001  -2.205  1.00  0.00     0.000 C 
BRANCH   5   6
ATOM      6  C   UNL     1      -3.514  11.080  -0.870  1.00  0.00     0.000 C 
BRANCH   6   7
ATOM      7  C   UNL     1      -4.156  10.297   0.292  1.00  0.00     0.000 C 
BRANCH   7   8
ATOM      8  C   UNL     1      -3.223   9.293   0.997  1.00  0.00     0.000 C 
BRANCH   8   9
ATOM      9  C   UNL     1      -1.726   9.656   0.969  1.00  0.00     0.000 C 
BRANCH   9  10
ATOM     10  C   UNL     1      -1.432  11.035   1.581  1.00  0.00     0.000 C 
BRANCH  10  11
ATOM     11  C   UNL     1      -1.312  10.995   3.116  1.00  0.00     0.000 C 
BRANCH  11  12
ATOM     12  C   UNL     1      -2.647  11.043   3.883  1.00  0.00     0.000 C 
BRANCH  12  13
ATOM     13  C   UNL     1      -3.896  10.677   3.059  1.00  0.00     0.006 C 
BRANCH  13  14
ATOM     14  C   UNL     1      -4.806   9.634   3.735  1.00  0.00     0.053 C 
BRANCH  14  15
ATOM     15  C   UNL     1      -6.203  10.140   3.938  1.00  0.00     0.041 C 
ATOM     16  O   UNL     1      -6.623  11.125   3.278  1.00  0.00    -0.550 OA
ATOM     17  O   UNL     1      -7.050   9.503   4.836  1.00  0.00    -0.550 OA
ENDBRANCH  14  15
ENDBRANCH  13  14
ENDBRANCH  12  13
ENDBRANCH  11  12
ENDBRANCH  10  11
ENDBRANCH   9  10
ENDBRANCH   8   9
ENDBRANCH   7   8
ENDBRANCH   6   7
ENDBRANCH   5   6
ENDBRANCH   4   5
ENDBRANCH   3   4
ENDBRANCH   2   3
ENDBRANCH   1   2
BRANCH   1  18
ATOM     18  C   UNL     1      -1.634   6.556  -3.815  1.00  0.00     0.000 C 
BRANCH  18  19
ATOM     19  C   UNL     1      -0.935   7.221  -5.015  1.00  0.00     0.000 C 
BRANCH  19  20
ATOM     20  C   UNL     1      -1.435   6.694  -6.371  1.00  0.00     0.000 C 
BRANCH  20  21
ATOM     21  C   UNL     1      -1.949   7.815  -7.294  1.00  0.00     0.000 C 
BRANCH  21  22
ATOM     22  C   UNL     1      -0.879   8.470  -8.187  1.00  0.00     0.000 C 
BRANCH  22  23
ATOM     23  C   UNL     1      -1.400   9.705  -8.937  1.00  0.00     0.000 C 
BRANCH  23  24
ATOM     24  C   UNL     1      -1.050   9.629 -10.430  1.00  0.00    -0.000 C 
BRANCH  24  25
ATOM     25  C   UNL     1      -1.730  10.731 -11.264  1.00  0.00    -0.000 C 
BRANCH  25  26
ATOM     26  C   UNL     1      -1.905  10.398 -12.757  1.00  0.00    -0.000 C 
BRANCH  26  27
ATOM     27  C   UNL     1      -2.310   8.935 -12.999  1.00  0.00    -0.000 C 
BRANCH  27  28
ATOM     28  C   UNL     1      -3.815   8.698 -12.795  1.00  0.00    -0.000 C 
BRANCH  28  29
ATOM     29  C   UNL     1      -4.102   7.525 -11.846  1.00  0.00    -0.000 C 
BRANCH  29  30
ATOM     30  C   UNL     1      -3.083   6.393 -12.047  1.00  0.00    -0.000 C 
BRANCH  30  31
ATOM     31  C   UNL     1      -3.715   5.131 -12.653  1.00  0.00    -0.003 C 
ATOM     32  C   UNL     1      -5.216   5.279 -12.898  1.00  0.00     0.004 C 
ENDBRANCH  30  31
ENDBRANCH  29  30
ENDBRANCH  28  29
ENDBRANCH  27  28
ENDBRANCH  26  27
ENDBRANCH  25  26
ENDBRANCH  24  25
ENDBRANCH  23  24
ENDBRANCH  22  23
ENDBRANCH  21  22
ENDBRANCH  20  21
ENDBRANCH  19  20
ENDBRANCH  18  19
ENDBRANCH   1  18
TORSDOF 28
ENDMDL
MODEL 4
REMARK VINA RESULT:     3.788      3.534      5.309
REMARK INTER + INTRA:           8.144
REMARK INTER:                   7.283
REMARK INTRA:                   0.861
REMARK UNBOUND:                -1.843
REMARK SMILES CCCCCCCCCCCCCCCCCCCCCCCCCCCCCC(=O)[O-]
REMARK SMILES IDX 16 1 17 2 18 3 19 4 20 5 21 6 22 7 23 8 24 9 25 10 26 11
REMARK SMILES IDX 27 12 28 13 29 14 30 15 31 16 32 17 15 18 14 19 13 20 12 21
REMARK SMILES IDX 11 22 10 23 9 24 8 25 7 26 6 27 5 28 4 29 3 30 2 31 1 32
REMARK H PARENT
REMARK Flexibility Score: inf
ROOT
ATOM      1  C   UNL     1      -5.052   9.040  -2.947  1.00  0.00     0.000 C 
ENDROOT
BRANCH   1   2
ATOM      2  C   UNL     1      -4.395   8.914  -1.561  1.00  0.00     0.000 C 
BRANCH   2   3
ATOM      3  C   UNL     1      -5.410   8.616  -0.446  1.00  0.00     0.000 C 
BRANCH   3   4
ATOM      4  C   UNL     1      -5.356   9.643   0.700  1.00  0.00     0.000 C 
BRANCH   4   5
ATOM      5  C   UNL     1      -4.017   9.700   1.462  1.00  0.00     0.000 C 
BRANCH   5   6
ATOM      6  C   UNL     1      -3.853  10.911   2.402  1.00  0.00     0.000 C 
BRANCH   6   7
ATOM      7  C   UNL     1      -2.424  11.125   2.937  1.00  0.00     0.000 C 
BRANCH   7   8
ATOM      8  C   UNL     1      -1.542   9.861   2.968  1.00  0.00     0.000 C 
BRANCH   8   9
ATOM      9  C   UNL     1      -1.785   8.862   1.820  1.00  0.00     0.000 C 
BRANCH   9  10
ATOM     10  C   UNL     1      -0.876   9.112   0.607  1.00  0.00     0.000 C 
BRANCH  10  11
ATOM     11  C   UNL     1      -1.613   8.959  -0.736  1.00  0.00     0.000 C 
BRANCH  11  12
ATOM     12  C   UNL     1      -1.725   7.517  -1.266  1.00  0.00     0.000 C 
BRANCH  12  13
ATOM     13  C   UNL     1      -1.183   7.292  -2.690  1.00  0.00     0.006 C 
BRANCH  13  14
ATOM     14  C   UNL     1      -2.117   7.804  -3.803  1.00  0.00     0.053 C 
BRANCH  14  15
ATOM     15  C   UNL     1      -1.904   7.088  -5.102  1.00  0.00     0.041 C 
ATOM     16  O   UNL     1      -1.287   7.651  -6.043  1.00  0.00    -0.550 OA
ATOM     17  O   UNL     1      -2.361   5.786  -5.264  1.00  0.00    -0.550 OA
ENDBRANCH  14  15
ENDBRANCH  13  14
ENDBRANCH  12  13
ENDBRANCH  11  12
ENDBRANCH  10  11
ENDBRANCH   9  10
ENDBRANCH   8   9
ENDBRANCH   7   8
ENDBRANCH   6   7
ENDBRANCH   5   6
ENDBRANCH   4   5
ENDBRANCH   3   4
ENDBRANCH   2   3
ENDBRANCH   1   2
BRANCH   1  18
ATOM     18  C   UNL     1      -4.914  10.425  -3.613  1.00  0.00     0.000 C 
BRANCH  18  19
ATOM     19  C   UNL     1      -3.503  11.041  -3.576  1.00  0.00     0.000 C 
BRANCH  19  20
ATOM     20  C   UNL     1      -2.838  11.107  -4.961  1.00  0.00     0.000 C 
BRANCH  20  21
ATOM     21  C   UNL     1      -3.650  10.379  -6.049  1.00  0.00     0.000 C 
BRANCH  21  22
ATOM     22  C   UNL     1      -3.223  10.681  -7.496  1.00  0.00     0.000 C 
BRANCH  22  23
ATOM     23  C   UNL     1      -1.723  10.458  -7.737  1.00  0.00     0.000 C 
BRANCH  23  24
ATOM     24  C   UNL     1      -1.465   9.940  -9.159  1.00  0.00    -0.000 C 
BRANCH  24  25
ATOM     25  C   UNL     1      -0.940  11.032 -10.110  1.00  0.00    -0.000 C 
BRANCH  25  26
ATOM     26  C   UNL     1      -1.673  11.121 -11.461  1.00  0.00    -0.000 C 
BRANCH  26  27
ATOM     27  C   UNL     1      -1.377   9.924 -12.382  1.00  0.00    -0.000 C 
BRANCH  27  28
ATOM     28  C   UNL     1      -1.109   8.630 -11.597  1.00  0.00    -0.000 C 
BRANCH  28  29
ATOM     29  C   UNL     1      -1.529   7.374 -12.374  1.00  0.00    -0.000 C 
BRANCH  29  30
ATOM     30  C   UNL     1      -2.772   6.727 -11.743  1.00  0.00    -0.000 C 
BRANCH  30  31
ATOM     31  C   UNL     1      -3.827   6.334 -12.789  1.00  0.00    -0.003 C 
ATOM     32  C   UNL     1      -4.858   5.344 -12.247  1.00  0.00     0.004 C 
ENDBRANCH  30  31
ENDBRANCH  29  30
ENDBRANCH  28  29
ENDBRANCH  27  28
ENDBRANCH  26  27
ENDBRANCH  25  26
ENDBRANCH  24  25
ENDBRANCH  23  24
ENDBRANCH  22  23
ENDBRANCH  21  22
ENDBRANCH  20  21
ENDBRANCH  19  20
ENDBRANCH  18  19
ENDBRANCH   1  18
TORSDOF 28
ENDMDL
