MODEL 1
REMARK VINA RESULT:    -5.555      0.000      0.000
REMARK INTER + INTRA:         -10.286
REMARK INTER:                  -9.452
REMARK INTRA:                  -0.835
REMARK UNBOUND:                -0.835
REMARK SMILES CCCCCCCCCCCCCC(=O)[O-]
REMARK SMILES IDX 8 1 9 2 10 3 11 4 12 5 13 6 14 7 15 8 16 9 7 10 6 11 5 12
REMARK SMILES IDX 4 13 3 14 2 15 1 16
REMARK H PARENT
REMARK Flexibility Score: inf
ROOT
ATOM      1  C   UNL     1     104.524 312.009 195.725  1.00  0.00     0.000 C 
ENDROOT
BRANCH   1   2
ATOM      2  C   UNL     1     104.205 311.417 197.113  1.00  0.00     0.000 C 
BRANCH   2   3
ATOM      3  C   UNL     1     103.719 312.439 198.161  1.00  0.00     0.000 C 
BRANCH   3   4
ATOM      4  C   UNL     1     103.254 311.831 199.496  1.00  0.00     0.000 C 
BRANCH   4   5
ATOM      5  C   UNL     1     104.299 311.972 200.612  1.00  0.00     0.006 C 
BRANCH   5   6
ATOM      6  C   UNL     1     103.635 312.352 201.939  1.00  0.00     0.053 C 
BRANCH   6   7
ATOM      7  C   UNL     1     103.326 311.128 202.740  1.00  0.00     0.041 C 
ATOM      8  O   UNL     1     102.180 310.609 202.688  1.00  0.00    -0.550 OA
ATOM      9  O   UNL     1     104.318 310.531 203.509  1.00  0.00    -0.550 OA
ENDBRANCH   6   7
ENDBRANCH   5   6
ENDBRANCH   4   5
ENDBRANCH   3   4
ENDBRANCH   2   3
ENDBRANCH   1   2
BRANCH   1  10
ATOM     10  C   UNL     1     103.442 311.769 194.654  1.00  0.00     0.000 C 
BRANCH  10  11
ATOM     11  C   UNL     1     103.977 311.427 193.249  1.00  0.00    -0.000 C 
BRANCH  11  12
ATOM     12  C   UNL     1     105.439 311.833 192.985  1.00  0.00    -0.000 C 
BRANCH  12  13
ATOM     13  C   UNL     1     105.563 313.162 192.222  1.00  0.00    -0.000 C 
BRANCH  13  14
ATOM     14  C   UNL     1     104.279 313.534 191.457  1.00  0.00    -0.000 C 
BRANCH  14  15
ATOM     15  C   UNL     1     103.715 314.933 191.770  1.00  0.00    -0.003 C 
ATOM     16  C   UNL     1     103.577 315.202 193.268  1.00  0.00     0.004 C 
ENDBRANCH  14  15
ENDBRANCH  13  14
ENDBRANCH  12  13
ENDBRANCH  11  12
ENDBRANCH  10  11
ENDBRANCH   1  10
TORSDOF 12
ENDMDL
MODEL 2
REMARK VINA RESULT:    -5.518      1.004      1.163
REMARK INTER + INTRA:         -10.223
REMARK INTER:                  -9.381
REMARK INTRA:                  -0.843
REMARK UNBOUND:                -0.835
REMARK SMILES CCCCCCCCCCCCCC(=O)[O-]
REMARK SMILES IDX 8 1 9 2 10 3 11 4 12 5 13 6 14 7 15 8 16 9 7 10 6 11 5 12
REMARK SMILES IDX 4 13 3 14 2 15 1 16
REMARK H PARENT
REMARK Flexibility Score: inf
ROOT
ATOM      1  C   UNL     1     104.516 311.928 195.774  1.00  0.00     0.000 C 
ENDROOT
BRANCH   1   2
ATOM      2  C   UNL     1     103.946 312.645 197.014  1.00  0.00     0.000 C 
BRANCH   2   3
ATOM      3  C   UNL     1     103.662 311.729 198.223  1.00  0.00     0.000 C 
BRANCH   3   4
ATOM      4  C   UNL     1     104.172 312.259 199.575  1.00  0.00     0.000 C 
BRANCH   4   5
ATOM      5  C   UNL     1     103.542 311.538 200.775  1.00  0.00     0.006 C 
BRANCH   5   6
ATOM      6  C   UNL     1     102.036 311.808 200.848  1.00  0.00     0.053 C 
BRANCH   6   7
ATOM      7  C   UNL     1     101.416 311.022 201.959  1.00  0.00     0.041 C 
ATOM      8  O   UNL     1     100.182 310.774 201.949  1.00  0.00    -0.550 OA
ATOM      9  O   UNL     1     102.211 310.521 202.983  1.00  0.00    -0.550 OA
ENDBRANCH   6   7
ENDBRANCH   5   6
ENDBRANCH   4   5
ENDBRANCH   3   4
ENDBRANCH   2   3
ENDBRANCH   1   2
BRANCH   1  10
ATOM     10  C   UNL     1     103.501 311.693 194.638  1.00  0.00     0.000 C 
BRANCH  10  11
ATOM     11  C   UNL     1     104.121 311.392 193.259  1.00  0.00    -0.000 C 
BRANCH  11  12
ATOM     12  C   UNL     1     105.550 311.927 193.049  1.00  0.00    -0.000 C 
BRANCH  12  13
ATOM     13  C   UNL     1     105.604 313.126 192.088  1.00  0.00    -0.000 C 
BRANCH  13  14
ATOM     14  C   UNL     1     104.218 313.521 191.545  1.00  0.00    -0.000 C 
BRANCH  14  15
ATOM     15  C   UNL     1     103.766 314.952 191.889  1.00  0.00    -0.003 C 
ATOM     16  C   UNL     1     103.490 315.152 193.379  1.00  0.00     0.004 C 
ENDBRANCH  14  15
ENDBRANCH  13  14
ENDBRANCH  12  13
ENDBRANCH  11  12
ENDBRANCH  10  11
ENDBRANCH   1  10
TORSDOF 12
ENDMDL
MODEL 3
REMARK VINA RESULT:    -5.488     19.152     20.598
REMARK INTER + INTRA:         -10.172
REMARK INTER:                  -9.238
REMARK INTRA:                  -0.935
REMARK UNBOUND:                -0.835
REMARK SMILES CCCCCCCCCCCCCC(=O)[O-]
REMARK SMILES IDX 8 1 9 2 10 3 11 4 12 5 13 6 14 7 15 8 16 9 7 10 6 11 5 12
REMARK SMILES IDX 4 13 3 14 2 15 1 16
REMARK H PARENT
REMARK Flexibility Score: inf
ROOT
ATOM      1  C   UNL     1      87.973 326.113 196.652  1.00  0.00     0.000 C 
ENDROOT
BRANCH   1   2
ATOM      2  C   UNL     1      88.639 326.352 198.022  1.00  0.00     0.000 C 
BRANCH   2   3
ATOM      3  C   UNL     1      88.962 325.073 198.821  1.00  0.00     0.000 C 
BRANCH   3   4
ATOM      4  C   UNL     1      90.019 325.245 199.927  1.00  0.00     0.000 C 
BRANCH   4   5
ATOM      5  C   UNL     1      89.888 326.580 200.675  1.00  0.00     0.006 C 
BRANCH   5   6
ATOM      6  C   UNL     1      88.875 326.471 201.818  1.00  0.00     0.053 C 
BRANCH   6   7
ATOM      7  C   UNL     1      89.545 326.697 203.136  1.00  0.00     0.041 C 
ATOM      8  O   UNL     1      89.118 327.585 203.919  1.00  0.00    -0.550 OA
ATOM      9  O   UNL     1      90.612 325.895 203.520  1.00  0.00    -0.550 OA
ENDBRANCH   6   7
ENDBRANCH   5   6
ENDBRANCH   4   5
ENDBRANCH   3   4
ENDBRANCH   2   3
ENDBRANCH   1   2
BRANCH   1  10
ATOM     10  C   UNL     1      88.866 326.418 195.434  1.00  0.00     0.000 C 
BRANCH  10  11
ATOM     11  C   UNL     1      88.110 326.668 194.114  1.00  0.00    -0.000 C 
BRANCH  11  12
ATOM     12  C   UNL     1      86.653 326.168 194.086  1.00  0.00    -0.000 C 
BRANCH  12  13
ATOM     13  C   UNL     1      86.476 324.890 193.251  1.00  0.00    -0.000 C 
BRANCH  13  14
ATOM     14  C   UNL     1      87.725 324.539 192.422  1.00  0.00    -0.000 C 
BRANCH  14  15
ATOM     15  C   UNL     1      88.346 323.163 192.727  1.00  0.00    -0.003 C 
ATOM     16  C   UNL     1      88.609 322.940 194.217  1.00  0.00     0.004 C 
ENDBRANCH  14  15
ENDBRANCH  13  14
ENDBRANCH  12  13
ENDBRANCH  11  12
ENDBRANCH  10  11
ENDBRANCH   1  10
TORSDOF 12
ENDMDL
MODEL 4
REMARK VINA RESULT:    -5.475     19.855     20.816
REMARK INTER + INTRA:         -10.151
REMARK INTER:                  -9.748
REMARK INTRA:                  -0.403
REMARK UNBOUND:                -0.835
REMARK SMILES CCCCCCCCCCCCCC(=O)[O-]
REMARK SMILES IDX 8 1 9 2 10 3 11 4 12 5 13 6 14 7 15 8 16 9 7 10 6 11 5 12
REMARK SMILES IDX 4 13 3 14 2 15 1 16
REMARK H PARENT
REMARK Flexibility Score: inf
ROOT
ATOM      1  C   UNL     1      88.818 326.186 195.517  1.00  0.00     0.000 C 
ENDROOT
BRANCH   1   2
ATOM      2  C   UNL     1      88.098 326.097 196.877  1.00  0.00     0.000 C 
BRANCH   2   3
ATOM      3  C   UNL     1      88.861 326.726 198.061  1.00  0.00     0.000 C 
BRANCH   3   4
ATOM      4  C   UNL     1      89.013 325.818 199.294  1.00  0.00     0.000 C 
BRANCH   4   5
ATOM      5  C   UNL     1      89.647 326.538 200.492  1.00  0.00     0.006 C 
BRANCH   5   6
ATOM      6  C   UNL     1      88.850 326.277 201.773  1.00  0.00     0.053 C 
BRANCH   6   7
ATOM      7  C   UNL     1      89.565 326.844 202.959  1.00  0.00     0.041 C 
ATOM      8  O   UNL     1      90.743 327.271 202.845  1.00  0.00    -0.550 OA
ATOM      9  O   UNL     1      88.911 326.944 204.182  1.00  0.00    -0.550 OA
ENDBRANCH   6   7
ENDBRANCH   5   6
ENDBRANCH   4   5
ENDBRANCH   3   4
ENDBRANCH   2   3
ENDBRANCH   1   2
BRANCH   1  10
ATOM     10  C   UNL     1      87.931 326.650 194.344  1.00  0.00     0.000 C 
BRANCH  10  11
ATOM     11  C   UNL     1      86.501 326.073 194.337  1.00  0.00    -0.000 C 
BRANCH  11  12
ATOM     12  C   UNL     1      86.212 325.046 193.226  1.00  0.00    -0.000 C 
BRANCH  12  13
ATOM     13  C   UNL     1      87.491 324.431 192.633  1.00  0.00    -0.000 C 
BRANCH  13  14
ATOM     14  C   UNL     1      87.216 323.556 191.397  1.00  0.00    -0.000 C 
BRANCH  14  15
ATOM     15  C   UNL     1      88.445 323.269 190.514  1.00  0.00    -0.003 C 
ATOM     16  C   UNL     1      88.082 322.973 189.059  1.00  0.00     0.004 C 
ENDBRANCH  14  15
ENDBRANCH  13  14
ENDBRANCH  12  13
ENDBRANCH  11  12
ENDBRANCH  10  11
ENDBRANCH   1  10
TORSDOF 12
ENDMDL
MODEL 5
REMARK VINA RESULT:    -5.461     19.700     20.811
REMARK INTER + INTRA:         -10.126
REMARK INTER:                  -9.331
REMARK INTRA:                  -0.796
REMARK UNBOUND:                -0.835
REMARK SMILES CCCCCCCCCCCCCC(=O)[O-]
REMARK SMILES IDX 8 1 9 2 10 3 11 4 12 5 13 6 14 7 15 8 16 9 7 10 6 11 5 12
REMARK SMILES IDX 4 13 3 14 2 15 1 16
REMARK H PARENT
REMARK Flexibility Score: inf
ROOT
ATOM      1  C   UNL     1      88.201 325.794 196.463  1.00  0.00     0.000 C 
ENDROOT
BRANCH   1   2
ATOM      2  C   UNL     1      88.518 326.591 197.744  1.00  0.00     0.000 C 
BRANCH   2   3
ATOM      3  C   UNL     1      88.943 325.737 198.955  1.00  0.00     0.000 C 
BRANCH   3   4
ATOM      4  C   UNL     1      89.427 326.536 200.178  1.00  0.00     0.000 C 
BRANCH   4   5
ATOM      5  C   UNL     1      88.806 326.049 201.494  1.00  0.00     0.006 C 
BRANCH   5   6
ATOM      6  C   UNL     1      89.890 325.732 202.528  1.00  0.00     0.053 C 
BRANCH   6   7
ATOM      7  C   UNL     1      90.561 326.987 202.986  1.00  0.00     0.041 C 
ATOM      8  O   UNL     1      89.994 327.741 203.820  1.00  0.00    -0.550 OA
ATOM      9  O   UNL     1      91.835 327.302 202.529  1.00  0.00    -0.550 OA
ENDBRANCH   6   7
ENDBRANCH   5   6
ENDBRANCH   4   5
ENDBRANCH   3   4
ENDBRANCH   2   3
ENDBRANCH   1   2
BRANCH   1  10
ATOM     10  C   UNL     1      88.744 326.416 195.161  1.00  0.00     0.000 C 
BRANCH  10  11
ATOM     11  C   UNL     1      87.672 326.780 194.114  1.00  0.00    -0.000 C 
BRANCH  11  12
ATOM     12  C   UNL     1      86.295 326.123 194.327  1.00  0.00    -0.000 C 
BRANCH  12  13
ATOM     13  C   UNL     1      86.007 324.999 193.319  1.00  0.00    -0.000 C 
BRANCH  13  14
ATOM     14  C   UNL     1      86.744 323.690 193.656  1.00  0.00    -0.000 C 
BRANCH  14  15
ATOM     15  C   UNL     1      88.032 323.439 192.850  1.00  0.00    -0.003 C 
ATOM     16  C   UNL     1      88.020 324.111 191.477  1.00  0.00     0.004 C 
ENDBRANCH  14  15
ENDBRANCH  13  14
ENDBRANCH  12  13
ENDBRANCH  11  12
ENDBRANCH  10  11
ENDBRANCH   1  10
TORSDOF 12
ENDMDL
MODEL 6
REMARK VINA RESULT:    -5.426     18.895     20.578
REMARK INTER + INTRA:         -10.068
REMARK INTER:                  -8.728
REMARK INTRA:                  -1.339
REMARK UNBOUND:                -0.835
REMARK SMILES CCCCCCCCCCCCCC(=O)[O-]
REMARK SMILES IDX 8 1 9 2 10 3 11 4 12 5 13 6 14 7 15 8 16 9 7 10 6 11 5 12
REMARK SMILES IDX 4 13 3 14 2 15 1 16
REMARK H PARENT
REMARK Flexibility Score: inf
ROOT
ATOM      1  C   UNL     1      88.155 326.752 194.007  1.00  0.00     0.000 C 
ENDROOT
BRANCH   1   2
ATOM      2  C   UNL     1      88.949 326.480 195.301  1.00  0.00     0.000 C 
BRANCH   2   3
ATOM      3  C   UNL     1      88.092 326.085 196.521  1.00  0.00     0.000 C 
BRANCH   3   4
ATOM      4  C   UNL     1      88.489 326.765 197.843  1.00  0.00     0.000 C 
BRANCH   4   5
ATOM      5  C   UNL     1      88.868 325.761 198.941  1.00  0.00     0.006 C 
BRANCH   5   6
ATOM      6  C   UNL     1      89.592 326.459 200.096  1.00  0.00     0.053 C 
BRANCH   6   7
ATOM      7  C   UNL     1      88.958 326.102 201.403  1.00  0.00     0.041 C 
ATOM      8  O   UNL     1      89.238 326.754 202.442  1.00  0.00    -0.550 OA
ATOM      9  O   UNL     1      88.020 325.078 201.464  1.00  0.00    -0.550 OA
ENDBRANCH   6   7
ENDBRANCH   5   6
ENDBRANCH   4   5
ENDBRANCH   3   4
ENDBRANCH   2   3
ENDBRANCH   1   2
BRANCH   1  10
ATOM     10  C   UNL     1      86.701 326.241 194.020  1.00  0.00     0.000 C 
BRANCH  10  11
ATOM     11  C   UNL     1      86.454 324.952 193.211  1.00  0.00    -0.000 C 
BRANCH  11  12
ATOM     12  C   UNL     1      87.647 324.467 192.366  1.00  0.00    -0.000 C 
BRANCH  12  13
ATOM     13  C   UNL     1      88.267 323.166 192.901  1.00  0.00    -0.000 C 
BRANCH  13  14
ATOM     14  C   UNL     1      88.021 322.960 194.406  1.00  0.00    -0.000 C 
BRANCH  14  15
ATOM     15  C   UNL     1      89.266 322.570 195.225  1.00  0.00    -0.003 C 
ATOM     16  C   UNL     1      88.979 322.418 196.718  1.00  0.00     0.004 C 
ENDBRANCH  14  15
ENDBRANCH  13  14
ENDBRANCH  12  13
ENDBRANCH  11  12
ENDBRANCH  10  11
ENDBRANCH   1  10
TORSDOF 12
ENDMDL
MODEL 7
REMARK VINA RESULT:    -5.406      6.390      9.218
REMARK INTER + INTRA:         -10.032
REMARK INTER:                  -8.808
REMARK INTRA:                  -1.225
REMARK UNBOUND:                -0.835
REMARK SMILES CCCCCCCCCCCCCC(=O)[O-]
REMARK SMILES IDX 8 1 9 2 10 3 11 4 12 5 13 6 14 7 15 8 16 9 7 10 6 11 5 12
REMARK SMILES IDX 4 13 3 14 2 15 1 16
REMARK H PARENT
REMARK Flexibility Score: inf
ROOT
ATOM      1  C   UNL     1     106.027 313.003 192.373  1.00  0.00     0.000 C 
ENDROOT
BRANCH   1   2
ATOM      2  C   UNL     1     105.276 314.303 192.720  1.00  0.00     0.000 C 
BRANCH   2   3
ATOM      3  C   UNL     1     103.957 314.519 191.951  1.00  0.00     0.000 C 
BRANCH   3   4
ATOM      4  C   UNL     1     103.937 313.954 190.519  1.00  0.00     0.000 C 
BRANCH   4   5
ATOM      5  C   UNL     1     103.539 315.001 189.469  1.00  0.00     0.006 C 
BRANCH   5   6
ATOM      6  C   UNL     1     102.533 314.421 188.471  1.00  0.00     0.053 C 
BRANCH   6   7
ATOM      7  C   UNL     1     101.608 315.488 187.978  1.00  0.00     0.041 C 
ATOM      8  O   UNL     1     102.069 316.580 187.555  1.00  0.00    -0.550 OA
ATOM      9  O   UNL     1     100.238 315.258 187.942  1.00  0.00    -0.550 OA
ENDBRANCH   6   7
ENDBRANCH   5   6
ENDBRANCH   4   5
ENDBRANCH   3   4
ENDBRANCH   2   3
ENDBRANCH   1   2
BRANCH   1  10
ATOM     10  C   UNL     1     105.710 311.806 193.291  1.00  0.00     0.000 C 
BRANCH  10  11
ATOM     11  C   UNL     1     104.237 311.351 193.289  1.00  0.00    -0.000 C 
BRANCH  11  12
ATOM     12  C   UNL     1     103.454 311.649 194.582  1.00  0.00    -0.000 C 
BRANCH  12  13
ATOM     13  C   UNL     1     104.367 312.039 195.756  1.00  0.00    -0.000 C 
BRANCH  13  14
ATOM     14  C   UNL     1     104.129 313.480 196.246  1.00  0.00    -0.000 C 
BRANCH  14  15
ATOM     15  C   UNL     1     102.949 314.210 195.578  1.00  0.00    -0.003 C 
ATOM     16  C   UNL     1     101.987 314.841 196.585  1.00  0.00     0.004 C 
ENDBRANCH  14  15
ENDBRANCH  13  14
ENDBRANCH  12  13
ENDBRANCH  11  12
ENDBRANCH  10  11
ENDBRANCH   1  10
TORSDOF 12
ENDMDL
MODEL 8
REMARK VINA RESULT:    -5.392     19.849     20.709
REMARK INTER + INTRA:         -10.009
REMARK INTER:                  -9.298
REMARK INTRA:                  -0.711
REMARK UNBOUND:                -0.835
REMARK SMILES CCCCCCCCCCCCCC(=O)[O-]
REMARK SMILES IDX 8 1 9 2 10 3 11 4 12 5 13 6 14 7 15 8 16 9 7 10 6 11 5 12
REMARK SMILES IDX 4 13 3 14 2 15 1 16
REMARK H PARENT
REMARK Flexibility Score: inf
ROOT
ATOM      1  C   UNL     1      88.558 325.142 197.492  1.00  0.00     0.000 C 
ENDROOT
BRANCH   1   2
ATOM      2  C   UNL     1      88.860 326.489 198.178  1.00  0.00     0.000 C 
BRANCH   2   3
ATOM      3  C   UNL     1      88.840 326.454 199.719  1.00  0.00     0.000 C 
BRANCH   3   4
ATOM      4  C   UNL     1      90.225 326.468 200.389  1.00  0.00     0.000 C 
BRANCH   4   5
ATOM      5  C   UNL     1      90.221 325.825 201.783  1.00  0.00     0.006 C 
BRANCH   5   6
ATOM      6  C   UNL     1      89.132 326.439 202.667  1.00  0.00     0.053 C 
BRANCH   6   7
ATOM      7  C   UNL     1      89.744 327.251 203.764  1.00  0.00     0.041 C 
ATOM      8  O   UNL     1      89.077 327.528 204.795  1.00  0.00    -0.550 OA
ATOM      9  O   UNL     1      91.068 327.662 203.670  1.00  0.00    -0.550 OA
ENDBRANCH   6   7
ENDBRANCH   5   6
ENDBRANCH   4   5
ENDBRANCH   3   4
ENDBRANCH   2   3
ENDBRANCH   1   2
BRANCH   1  10
ATOM     10  C   UNL     1      88.869 325.099 195.983  1.00  0.00     0.000 C 
BRANCH  10  11
ATOM     11  C   UNL     1      88.910 326.473 195.284  1.00  0.00    -0.000 C 
BRANCH  11  12
ATOM     12  C   UNL     1      87.985 326.616 194.060  1.00  0.00    -0.000 C 
BRANCH  12  13
ATOM     13  C   UNL     1      86.767 325.681 194.120  1.00  0.00    -0.000 C 
BRANCH  13  14
ATOM     14  C   UNL     1      86.684 324.729 192.913  1.00  0.00    -0.000 C 
BRANCH  14  15
ATOM     15  C   UNL     1      88.005 324.528 192.148  1.00  0.00    -0.003 C 
ATOM     16  C   UNL     1      87.878 323.553 190.977  1.00  0.00     0.004 C 
ENDBRANCH  14  15
ENDBRANCH  13  14
ENDBRANCH  12  13
ENDBRANCH  11  12
ENDBRANCH  10  11
ENDBRANCH   1  10
TORSDOF 12
ENDMDL
MODEL 9
REMARK VINA RESULT:    -5.369      1.826      2.950
REMARK INTER + INTRA:          -9.971
REMARK INTER:                  -9.277
REMARK INTRA:                  -0.694
REMARK UNBOUND:                -0.835
REMARK SMILES CCCCCCCCCCCCCC(=O)[O-]
REMARK SMILES IDX 8 1 9 2 10 3 11 4 12 5 13 6 14 7 15 8 16 9 7 10 6 11 5 12
REMARK SMILES IDX 4 13 3 14 2 15 1 16
REMARK H PARENT
REMARK Flexibility Score: inf
ROOT
ATOM      1  C   UNL     1     105.272 311.356 193.347  1.00  0.00     0.000 C 
ENDROOT
BRANCH   1   2
ATOM      2  C   UNL     1     105.741 311.855 194.729  1.00  0.00     0.000 C 
BRANCH   2   3
ATOM      3  C   UNL     1     104.639 312.493 195.599  1.00  0.00     0.000 C 
BRANCH   3   4
ATOM      4  C   UNL     1     104.124 311.610 196.749  1.00  0.00     0.000 C 
BRANCH   4   5
ATOM      5  C   UNL     1     103.711 312.420 197.986  1.00  0.00     0.006 C 
BRANCH   5   6
ATOM      6  C   UNL     1     103.445 311.500 199.181  1.00  0.00     0.053 C 
BRANCH   6   7
ATOM      7  C   UNL     1     102.383 312.078 200.061  1.00  0.00     0.041 C 
ATOM      8  O   UNL     1     101.627 312.986 199.629  1.00  0.00    -0.550 OA
ATOM      9  O   UNL     1     102.197 311.579 201.345  1.00  0.00    -0.550 OA
ENDBRANCH   6   7
ENDBRANCH   5   6
ENDBRANCH   4   5
ENDBRANCH   3   4
ENDBRANCH   2   3
ENDBRANCH   1   2
BRANCH   1  10
ATOM     10  C   UNL     1     103.895 311.885 192.900  1.00  0.00     0.000 C 
BRANCH  10  11
ATOM     11  C   UNL     1     103.939 313.086 191.934  1.00  0.00    -0.000 C 
BRANCH  11  12
ATOM     12  C   UNL     1     105.347 313.630 191.624  1.00  0.00    -0.000 C 
BRANCH  12  13
ATOM     13  C   UNL     1     105.329 314.797 190.623  1.00  0.00    -0.000 C 
BRANCH  13  14
ATOM     14  C   UNL     1     103.904 315.229 190.232  1.00  0.00    -0.000 C 
BRANCH  14  15
ATOM     15  C   UNL     1     103.611 315.219 188.720  1.00  0.00    -0.003 C 
ATOM     16  C   UNL     1     102.311 314.496 188.366  1.00  0.00     0.004 C 
ENDBRANCH  14  15
ENDBRANCH  13  14
ENDBRANCH  12  13
ENDBRANCH  11  12
ENDBRANCH  10  11
ENDBRANCH   1  10
TORSDOF 12
ENDMDL
