MODEL 1
REMARK VINA RESULT:    -5.319      0.000      0.000
REMARK INTER + INTRA:          -8.286
REMARK INTER:                  -7.340
REMARK INTRA:                  -0.947
REMARK UNBOUND:                -0.947
REMARK SMILES CC[C@@H](CC[C@@H](C)[C@H]1CC[C@@H]2[C@H]3CC=C4C[C@H](O)CC[C@]4(C)[C@H]3CC[C@]21C)C(C)C
REMARK SMILES IDX 5 1 4 2 3 3 2 4 1 5 28 6 29 7 30 8 6 9 7 10 8 11 9 12 26 13
REMARK SMILES IDX 10 14 11 15 25 16 27 17 12 18 24 19 23 20 13 21 21 22 14 23
REMARK SMILES IDX 15 24 20 25 22 26 16 27 19 28 17 29 18 30
REMARK H PARENT 18 31
REMARK Flexibility Score: inf
ROOT
ATOM      1  C   UNL     1      13.691  -1.857   7.106  1.00  0.00     0.004 C 
ENDROOT
BRANCH   1   2
ATOM      2  C   UNL     1      13.907  -2.081   5.590  1.00  0.00     0.004 C 
BRANCH   2   3
ATOM      3  C   UNL     1      13.189  -1.025   4.704  1.00  0.00    -0.009 C 
BRANCH   3   4
ATOM      4  C   UNL     1      12.668  -1.692   3.397  1.00  0.00     0.000 C 
ATOM      5  C   UNL     1      11.341  -2.436   3.552  1.00  0.00     0.004 C 
ENDBRANCH   3   4
BRANCH   3   6
ATOM      6  C   UNL     1      14.125   0.218   4.492  1.00  0.00    -0.014 C 
ATOM      7  C   UNL     1      14.120   0.765   3.056  1.00  0.00     0.007 C 
ATOM      8  C   UNL     1      13.873   1.344   5.508  1.00  0.00     0.007 C 
ENDBRANCH   3   6
ENDBRANCH   2   3
ENDBRANCH   1   2
BRANCH   1   9
ATOM      9  C   UNL     1      12.582  -2.741   7.740  1.00  0.00    -0.011 C 
ATOM     10  C   UNL     1      13.143  -3.406   9.019  1.00  0.00     0.008 C 
BRANCH   9  11
ATOM     11  C   UNL     1      11.189  -2.050   8.039  1.00  0.00    -0.002 C 
ATOM     12  C   UNL     1      10.664  -1.091   6.928  1.00  0.00     0.005 C 
ATOM     13  C   UNL     1       9.980  -3.038   8.232  1.00  0.00    -0.026 C 
ATOM     14  C   UNL     1       9.575  -1.830   6.146  1.00  0.00     0.005 C 
ATOM     15  C   UNL     1       9.494  -3.213   6.781  1.00  0.00    -0.001 C 
ATOM     16  C   UNL     1      10.239  -4.455   8.863  1.00  0.00     0.007 C 
ATOM     17  C   UNL     1       8.921  -2.311   9.124  1.00  0.00     0.012 C 
ATOM     18  C   UNL     1       8.126  -3.933   6.688  1.00  0.00     0.000 C 
ATOM     19  C   UNL     1       9.500  -5.611   8.141  1.00  0.00     0.005 C 
ATOM     20  C   UNL     1       8.093  -5.230   7.588  1.00  0.00     0.003 C 
ATOM     21  C   UNL     1       7.756  -4.213   5.227  1.00  0.00     0.031 C 
ATOM     22  C   UNL     1       7.307  -6.473   6.970  1.00  0.00    -0.008 C 
ATOM     23  C   UNL     1       6.466  -4.969   5.163  1.00  0.00    -0.027 C 
ATOM     24  C   UNL     1       6.218  -6.000   5.993  1.00  0.00    -0.065 C 
ATOM     25  C   UNL     1       6.660  -7.276   8.147  1.00  0.00     0.014 C 
ATOM     26  C   UNL     1       8.248  -7.427   6.183  1.00  0.00     0.016 C 
ATOM     27  C   UNL     1       5.000  -6.859   5.707  1.00  0.00     0.063 C 
ATOM     28  C   UNL     1       5.590  -8.278   7.700  1.00  0.00     0.033 C 
ATOM     29  C   UNL     1       4.459  -7.564   6.952  1.00  0.00     0.118 C 
BRANCH  29  30
ATOM     30  O   UNL     1       3.826  -6.626   7.785  1.00  0.00    -0.393 OA
ATOM     31  H   UNL     1       2.931  -6.996   8.002  1.00  0.00     0.210 HD
ENDBRANCH  29  30
ENDBRANCH   9  11
ENDBRANCH   1   9
TORSDOF 7
ENDMDL
MODEL 2
REMARK VINA RESULT:    -5.190      1.404      2.259
REMARK INTER + INTRA:          -8.109
REMARK INTER:                  -7.098
REMARK INTRA:                  -1.011
REMARK UNBOUND:                -0.947
REMARK SMILES CC[C@@H](CC[C@@H](C)[C@H]1CC[C@@H]2[C@H]3CC=C4C[C@H](O)CC[C@]4(C)[C@H]3CC[C@]21C)C(C)C
REMARK SMILES IDX 5 1 4 2 3 3 2 4 1 5 28 6 29 7 30 8 6 9 7 10 8 11 9 12 26 13
REMARK SMILES IDX 10 14 11 15 25 16 27 17 12 18 24 19 23 20 13 21 21 22 14 23
REMARK SMILES IDX 15 24 20 25 22 26 16 27 19 28 17 29 18 30
REMARK H PARENT 18 31
REMARK Flexibility Score: inf
ROOT
ATOM      1  C   UNL     1      12.500  -1.657   5.921  1.00  0.00     0.004 C 
ENDROOT
BRANCH   1   2
ATOM      2  C   UNL     1      11.620  -1.279   4.706  1.00  0.00     0.004 C 
BRANCH   2   3
ATOM      3  C   UNL     1      11.337  -2.476   3.755  1.00  0.00    -0.009 C 
BRANCH   3   4
ATOM      4  C   UNL     1      12.607  -2.802   2.917  1.00  0.00     0.000 C 
ATOM      5  C   UNL     1      13.773  -1.836   3.132  1.00  0.00     0.004 C 
ENDBRANCH   3   4
BRANCH   3   6
ATOM      6  C   UNL     1      10.038  -2.196   2.918  1.00  0.00    -0.014 C 
ATOM      7  C   UNL     1       9.152  -3.433   2.708  1.00  0.00     0.007 C 
ATOM      8  C   UNL     1       9.213  -1.016   3.458  1.00  0.00     0.007 C 
ENDBRANCH   3   6
ENDBRANCH   2   3
ENDBRANCH   1   2
BRANCH   1   9
ATOM      9  C   UNL     1      11.944  -2.822   6.785  1.00  0.00    -0.011 C 
ATOM     10  C   UNL     1      13.073  -3.346   7.705  1.00  0.00     0.008 C 
BRANCH   9  11
ATOM     11  C   UNL     1      10.631  -2.538   7.625  1.00  0.00    -0.002 C 
ATOM     12  C   UNL     1       9.673  -1.464   7.027  1.00  0.00     0.005 C 
ATOM     13  C   UNL     1       9.678  -3.775   7.815  1.00  0.00    -0.026 C 
ATOM     14  C   UNL     1       8.502  -2.196   6.366  1.00  0.00     0.005 C 
ATOM     15  C   UNL     1       8.798  -3.679   6.555  1.00  0.00    -0.001 C 
ATOM     16  C   UNL     1      10.298  -5.217   7.902  1.00  0.00     0.007 C 
ATOM     17  C   UNL     1       8.857  -3.535   9.125  1.00  0.00     0.012 C 
ATOM     18  C   UNL     1       7.573  -4.625   6.603  1.00  0.00     0.000 C 
ATOM     19  C   UNL     1       9.530  -6.284   7.081  1.00  0.00     0.005 C 
ATOM     20  C   UNL     1       7.985  -6.082   7.048  1.00  0.00     0.003 C 
ATOM     21  C   UNL     1       6.814  -4.601   5.272  1.00  0.00     0.031 C 
ATOM     22  C   UNL     1       7.215  -7.268   6.309  1.00  0.00    -0.008 C 
ATOM     23  C   UNL     1       5.676  -5.572   5.316  1.00  0.00    -0.027 C 
ATOM     24  C   UNL     1       5.829  -6.806   5.833  1.00  0.00    -0.065 C 
ATOM     25  C   UNL     1       7.069  -8.458   7.315  1.00  0.00     0.014 C 
ATOM     26  C   UNL     1       7.986  -7.774   5.058  1.00  0.00     0.016 C 
ATOM     27  C   UNL     1       4.704  -7.803   5.623  1.00  0.00     0.063 C 
ATOM     28  C   UNL     1       6.052  -9.518   6.877  1.00  0.00     0.033 C 
ATOM     29  C   UNL     1       4.665  -8.894   6.694  1.00  0.00     0.118 C 
BRANCH  29  30
ATOM     30  O   UNL     1       4.200  -8.350   7.904  1.00  0.00    -0.393 OA
ATOM     31  H   UNL     1       4.981  -8.308   8.516  1.00  0.00     0.210 HD
ENDBRANCH  29  30
ENDBRANCH   9  11
ENDBRANCH   1   9
TORSDOF 7
ENDMDL
MODEL 3
REMARK VINA RESULT:    -4.834      1.662      3.297
REMARK INTER + INTRA:          -7.617
REMARK INTER:                  -7.249
REMARK INTRA:                  -0.368
REMARK UNBOUND:                -0.947
REMARK SMILES CC[C@@H](CC[C@@H](C)[C@H]1CC[C@@H]2[C@H]3CC=C4C[C@H](O)CC[C@]4(C)[C@H]3CC[C@]21C)C(C)C
REMARK SMILES IDX 5 1 4 2 3 3 2 4 1 5 28 6 29 7 30 8 6 9 7 10 8 11 9 12 26 13
REMARK SMILES IDX 10 14 11 15 25 16 27 17 12 18 24 19 23 20 13 21 21 22 14 23
REMARK SMILES IDX 15 24 20 25 22 26 16 27 19 28 17 29 18 30
REMARK H PARENT 18 31
REMARK Flexibility Score: inf
ROOT
ATOM      1  C   UNL     1       9.555  -1.126   5.566  1.00  0.00     0.004 C 
ENDROOT
BRANCH   1   2
ATOM      2  C   UNL     1      10.567  -0.647   4.499  1.00  0.00     0.004 C 
BRANCH   2   3
ATOM      3  C   UNL     1      12.034  -1.057   4.814  1.00  0.00    -0.009 C 
BRANCH   3   4
ATOM      4  C   UNL     1      12.942   0.206   4.858  1.00  0.00     0.000 C 
ATOM      5  C   UNL     1      13.879   0.269   6.065  1.00  0.00     0.004 C 
ENDBRANCH   3   4
BRANCH   3   6
ATOM      6  C   UNL     1      12.498  -2.181   3.819  1.00  0.00    -0.014 C 
ATOM      7  C   UNL     1      11.457  -2.532   2.745  1.00  0.00     0.007 C 
ATOM      8  C   UNL     1      13.868  -1.896   3.182  1.00  0.00     0.007 C 
ENDBRANCH   3   6
ENDBRANCH   2   3
ENDBRANCH   1   2
BRANCH   1   9
ATOM      9  C   UNL     1      10.139  -1.262   6.998  1.00  0.00    -0.011 C 
ATOM     10  C   UNL     1       9.044  -0.881   8.023  1.00  0.00     0.008 C 
BRANCH   9  11
ATOM     11  C   UNL     1      10.798  -2.651   7.382  1.00  0.00    -0.002 C 
ATOM     12  C   UNL     1      10.770  -3.009   8.900  1.00  0.00     0.005 C 
ATOM     13  C   UNL     1      10.130  -3.913   6.724  1.00  0.00    -0.026 C 
ATOM     14  C   UNL     1       9.654  -4.035   9.119  1.00  0.00     0.005 C 
ATOM     15  C   UNL     1       9.026  -4.243   7.746  1.00  0.00    -0.001 C 
ATOM     16  C   UNL     1       9.487  -3.785   5.295  1.00  0.00     0.007 C 
ATOM     17  C   UNL     1      11.219  -5.034   6.652  1.00  0.00     0.012 C 
ATOM     18  C   UNL     1       8.365  -5.620   7.494  1.00  0.00     0.000 C 
ATOM     19  C   UNL     1       8.112  -4.487   5.157  1.00  0.00     0.005 C 
ATOM     20  C   UNL     1       7.978  -5.806   5.975  1.00  0.00     0.003 C 
ATOM     21  C   UNL     1       7.181  -5.838   8.442  1.00  0.00     0.031 C 
ATOM     22  C   UNL     1       6.603  -6.570   5.707  1.00  0.00    -0.008 C 
ATOM     23  C   UNL     1       6.515  -7.143   8.136  1.00  0.00    -0.027 C 
ATOM     24  C   UNL     1       6.273  -7.524   6.867  1.00  0.00    -0.065 C 
ATOM     25  C   UNL     1       6.744  -7.376   4.373  1.00  0.00     0.014 C 
ATOM     26  C   UNL     1       5.407  -5.588   5.564  1.00  0.00     0.016 C 
ATOM     27  C   UNL     1       5.387  -8.737   6.651  1.00  0.00     0.063 C 
ATOM     28  C   UNL     1       5.651  -8.431   4.168  1.00  0.00     0.033 C 
ATOM     29  C   UNL     1       5.651  -9.441   5.319  1.00  0.00     0.118 C 
BRANCH  29  30
ATOM     30  O   UNL     1       6.878 -10.124   5.383  1.00  0.00    -0.393 OA
ATOM     31  H   UNL     1       7.499  -9.545   5.898  1.00  0.00     0.210 HD
ENDBRANCH  29  30
ENDBRANCH   9  11
ENDBRANCH   1   9
TORSDOF 7
ENDMDL
MODEL 4
REMARK VINA RESULT:    -4.699      3.081      8.160
REMARK INTER + INTRA:          -7.432
REMARK INTER:                  -7.250
REMARK INTRA:                  -0.182
REMARK UNBOUND:                -0.947
REMARK SMILES CC[C@@H](CC[C@@H](C)[C@H]1CC[C@@H]2[C@H]3CC=C4C[C@H](O)CC[C@]4(C)[C@H]3CC[C@]21C)C(C)C
REMARK SMILES IDX 5 1 4 2 3 3 2 4 1 5 28 6 29 7 30 8 6 9 7 10 8 11 9 12 26 13
REMARK SMILES IDX 10 14 11 15 25 16 27 17 12 18 24 19 23 20 13 21 21 22 14 23
REMARK SMILES IDX 15 24 20 25 22 26 16 27 19 28 17 29 18 30
REMARK H PARENT 18 31
REMARK Flexibility Score: inf
ROOT
ATOM      1  C   UNL     1       6.145  -8.971   4.638  1.00  0.00     0.004 C 
ENDROOT
BRANCH   1   2
ATOM      2  C   UNL     1       5.735 -10.031   3.589  1.00  0.00     0.004 C 
BRANCH   2   3
ATOM      3  C   UNL     1       6.696 -10.092   2.368  1.00  0.00    -0.009 C 
BRANCH   3   4
ATOM      4  C   UNL     1       7.852  -9.067   2.548  1.00  0.00     0.000 C 
ATOM      5  C   UNL     1       9.249  -9.638   2.302  1.00  0.00     0.004 C 
ENDBRANCH   3   4
BRANCH   3   6
ATOM      6  C   UNL     1       5.876  -9.948   1.036  1.00  0.00    -0.014 C 
ATOM      7  C   UNL     1       5.041  -8.660   0.954  1.00  0.00     0.007 C 
ATOM      8  C   UNL     1       6.735 -10.125  -0.226  1.00  0.00     0.007 C 
ENDBRANCH   3   6
ENDBRANCH   2   3
ENDBRANCH   1   2
BRANCH   1   9
ATOM      9  C   UNL     1       5.997  -9.431   6.115  1.00  0.00    -0.011 C 
ATOM     10  C   UNL     1       7.358  -9.977   6.607  1.00  0.00     0.008 C 
BRANCH   9  11
ATOM     11  C   UNL     1       5.416  -8.377   7.146  1.00  0.00    -0.002 C 
ATOM     12  C   UNL     1       5.684  -8.694   8.649  1.00  0.00     0.005 C 
ATOM     13  C   UNL     1       5.983  -6.917   7.000  1.00  0.00    -0.026 C 
ATOM     14  C   UNL     1       6.828  -7.792   9.121  1.00  0.00     0.005 C 
ATOM     15  C   UNL     1       7.235  -6.985   7.894  1.00  0.00    -0.001 C 
ATOM     16  C   UNL     1       6.394  -6.390   5.577  1.00  0.00     0.007 C 
ATOM     17  C   UNL     1       4.905  -5.939   7.572  1.00  0.00     0.012 C 
ATOM     18  C   UNL     1       7.860  -5.593   8.162  1.00  0.00     0.000 C 
ATOM     19  C   UNL     1       7.736  -5.615   5.555  1.00  0.00     0.005 C 
ATOM     20  C   UNL     1       8.006  -4.759   6.830  1.00  0.00     0.003 C 
ATOM     21  C   UNL     1       9.180  -5.727   8.930  1.00  0.00     0.031 C 
ATOM     22  C   UNL     1       9.328  -3.873   6.718  1.00  0.00    -0.008 C 
ATOM     23  C   UNL     1       9.799  -4.377   9.118  1.00  0.00    -0.027 C 
ATOM     24  C   UNL     1       9.842  -3.482   8.113  1.00  0.00    -0.065 C 
ATOM     25  C   UNL     1       8.987  -2.589   5.892  1.00  0.00     0.014 C 
ATOM     26  C   UNL     1      10.479  -4.629   5.999  1.00  0.00     0.016 C 
ATOM     27  C   UNL     1      10.693  -2.240   8.311  1.00  0.00     0.063 C 
ATOM     28  C   UNL     1      10.042  -1.483   6.001  1.00  0.00     0.033 C 
ATOM     29  C   UNL     1      10.230  -1.056   7.461  1.00  0.00     0.118 C 
BRANCH  29  30
ATOM     30  O   UNL     1       9.033  -0.540   7.987  1.00  0.00    -0.393 OA
ATOM     31  H   UNL     1       9.104  -0.607   8.974  1.00  0.00     0.210 HD
ENDBRANCH  29  30
ENDBRANCH   9  11
ENDBRANCH   1   9
TORSDOF 7
ENDMDL
MODEL 5
REMARK VINA RESULT:    -4.062      1.582      3.669
REMARK INTER + INTRA:          -6.553
REMARK INTER:                  -5.278
REMARK INTRA:                  -1.275
REMARK UNBOUND:                -0.947
REMARK SMILES CC[C@@H](CC[C@@H](C)[C@H]1CC[C@@H]2[C@H]3CC=C4C[C@H](O)CC[C@]4(C)[C@H]3CC[C@]21C)C(C)C
REMARK SMILES IDX 5 1 4 2 3 3 2 4 1 5 28 6 29 7 30 8 6 9 7 10 8 11 9 12 26 13
REMARK SMILES IDX 10 14 11 15 25 16 27 17 12 18 24 19 23 20 13 21 21 22 14 23
REMARK SMILES IDX 15 24 20 25 22 26 16 27 19 28 17 29 18 30
REMARK H PARENT 18 31
REMARK Flexibility Score: inf
ROOT
ATOM      1  C   UNL     1      11.314  -3.586   5.434  1.00  0.00     0.004 C 
ENDROOT
BRANCH   1   2
ATOM      2  C   UNL     1      11.906  -3.277   6.830  1.00  0.00     0.004 C 
BRANCH   2   3
ATOM      3  C   UNL     1      11.912  -1.760   7.173  1.00  0.00    -0.009 C 
BRANCH   3   4
ATOM      4  C   UNL     1      13.374  -1.226   7.202  1.00  0.00     0.000 C 
ATOM      5  C   UNL     1      13.679  -0.161   6.148  1.00  0.00     0.004 C 
ENDBRANCH   3   4
BRANCH   3   6
ATOM      6  C   UNL     1      11.081  -1.507   8.481  1.00  0.00    -0.014 C 
ATOM      7  C   UNL     1       9.950  -0.480   8.313  1.00  0.00     0.007 C 
ATOM      8  C   UNL     1      10.556  -2.800   9.124  1.00  0.00     0.007 C 
ENDBRANCH   3   6
ENDBRANCH   2   3
ENDBRANCH   1   2
BRANCH   1   9
ATOM      9  C   UNL     1      11.074  -2.339   4.541  1.00  0.00    -0.011 C 
ATOM     10  C   UNL     1      12.218  -2.239   3.504  1.00  0.00     0.008 C 
BRANCH   9  11
ATOM     11  C   UNL     1       9.666  -2.221   3.825  1.00  0.00    -0.002 C 
ATOM     12  C   UNL     1       9.607  -2.771   2.368  1.00  0.00     0.005 C 
ATOM     13  C   UNL     1       8.492  -2.996   4.528  1.00  0.00    -0.026 C 
ATOM     14  C   UNL     1       8.922  -4.140   2.411  1.00  0.00     0.005 C 
ATOM     15  C   UNL     1       8.616  -4.389   3.883  1.00  0.00    -0.001 C 
ATOM     16  C   UNL     1       8.501  -3.151   6.093  1.00  0.00     0.007 C 
ATOM     17  C   UNL     1       7.158  -2.282   4.133  1.00  0.00     0.012 C 
ATOM     18  C   UNL     1       7.405  -5.304   4.188  1.00  0.00     0.000 C 
ATOM     19  C   UNL     1       8.120  -4.569   6.588  1.00  0.00     0.005 C 
ATOM     20  C   UNL     1       7.038  -5.285   5.724  1.00  0.00     0.003 C 
ATOM     21  C   UNL     1       7.641  -6.720   3.650  1.00  0.00     0.031 C 
ATOM     22  C   UNL     1       6.574  -6.683   6.335  1.00  0.00    -0.008 C 
ATOM     23  C   UNL     1       6.491  -7.603   4.016  1.00  0.00    -0.027 C 
ATOM     24  C   UNL     1       5.950  -7.574   5.249  1.00  0.00    -0.065 C 
ATOM     25  C   UNL     1       5.528  -6.400   7.464  1.00  0.00     0.014 C 
ATOM     26  C   UNL     1       7.761  -7.473   6.952  1.00  0.00     0.016 C 
ATOM     27  C   UNL     1       4.954  -8.661   5.609  1.00  0.00     0.063 C 
ATOM     28  C   UNL     1       4.733  -7.636   7.896  1.00  0.00     0.033 C 
ATOM     29  C   UNL     1       3.977  -8.237   6.707  1.00  0.00     0.118 C 
BRANCH  29  30
ATOM     30  O   UNL     1       3.055  -7.313   6.185  1.00  0.00    -0.393 OA
ATOM     31  H   UNL     1       3.564  -6.713   5.581  1.00  0.00     0.210 HD
ENDBRANCH  29  30
ENDBRANCH   9  11
ENDBRANCH   1   9
TORSDOF 7
ENDMDL
MODEL 6
REMARK VINA RESULT:    -3.265      2.697      8.944
REMARK INTER + INTRA:          -5.452
REMARK INTER:                  -5.037
REMARK INTRA:                  -0.416
REMARK UNBOUND:                -0.947
REMARK SMILES CC[C@@H](CC[C@@H](C)[C@H]1CC[C@@H]2[C@H]3CC=C4C[C@H](O)CC[C@]4(C)[C@H]3CC[C@]21C)C(C)C
REMARK SMILES IDX 5 1 4 2 3 3 2 4 1 5 28 6 29 7 30 8 6 9 7 10 8 11 9 12 26 13
REMARK SMILES IDX 10 14 11 15 25 16 27 17 12 18 24 19 23 20 13 21 21 22 14 23
REMARK SMILES IDX 15 24 20 25 22 26 16 27 19 28 17 29 18 30
REMARK H PARENT 18 31
REMARK Flexibility Score: inf
ROOT
ATOM      1  C   UNL     1       4.495  -7.723   5.280  1.00  0.00     0.004 C 
ENDROOT
BRANCH   1   2
ATOM      2  C   UNL     1       3.464  -7.501   6.412  1.00  0.00     0.004 C 
BRANCH   2   3
ATOM      3  C   UNL     1       2.876  -8.825   6.977  1.00  0.00    -0.009 C 
BRANCH   3   4
ATOM      4  C   UNL     1       1.378  -8.956   6.574  1.00  0.00     0.000 C 
ATOM      5  C   UNL     1       0.588  -9.971   7.401  1.00  0.00     0.004 C 
ENDBRANCH   3   4
BRANCH   3   6
ATOM      6  C   UNL     1       3.165  -8.922   8.517  1.00  0.00    -0.014 C 
ATOM      7  C   UNL     1       4.059 -10.109   8.910  1.00  0.00     0.007 C 
ATOM      8  C   UNL     1       3.701  -7.611   9.116  1.00  0.00     0.007 C 
ENDBRANCH   3   6
ENDBRANCH   2   3
ENDBRANCH   1   2
BRANCH   1   9
ATOM      9  C   UNL     1       5.811  -8.416   5.729  1.00  0.00    -0.011 C 
ATOM     10  C   UNL     1       6.923  -8.089   4.704  1.00  0.00     0.008 C 
BRANCH   9  11
ATOM     11  C   UNL     1       6.314  -8.128   7.203  1.00  0.00    -0.002 C 
ATOM     12  C   UNL     1       7.458  -9.056   7.713  1.00  0.00     0.005 C 
ATOM     13  C   UNL     1       6.912  -6.692   7.437  1.00  0.00    -0.026 C 
ATOM     14  C   UNL     1       8.770  -8.269   7.636  1.00  0.00     0.005 C 
ATOM     15  C   UNL     1       8.389  -6.911   7.059  1.00  0.00    -0.001 C 
ATOM     16  C   UNL     1       6.344  -5.480   6.613  1.00  0.00     0.007 C 
ATOM     17  C   UNL     1       6.737  -6.355   8.954  1.00  0.00     0.012 C 
ATOM     18  C   UNL     1       9.294  -5.718   7.453  1.00  0.00     0.000 C 
ATOM     19  C   UNL     1       7.434  -4.524   6.065  1.00  0.00     0.005 C 
ATOM     20  C   UNL     1       8.663  -4.341   7.005  1.00  0.00     0.003 C 
ATOM     21  C   UNL     1      10.720  -5.918   6.927  1.00  0.00     0.031 C 
ATOM     22  C   UNL     1       9.701  -3.253   6.474  1.00  0.00    -0.008 C 
ATOM     23  C   UNL     1      11.558  -4.724   7.259  1.00  0.00    -0.027 C 
ATOM     24  C   UNL     1      11.089  -3.473   7.095  1.00  0.00    -0.065 C 
ATOM     25  C   UNL     1       9.160  -1.835   6.855  1.00  0.00     0.014 C 
ATOM     26  C   UNL     1       9.872  -3.314   4.930  1.00  0.00     0.016 C 
ATOM     27  C   UNL     1      12.076  -2.326   7.224  1.00  0.00     0.063 C 
ATOM     28  C   UNL     1      10.204  -0.719   6.732  1.00  0.00     0.033 C 
ATOM     29  C   UNL     1      11.413  -1.008   7.628  1.00  0.00     0.118 C 
BRANCH  29  30
ATOM     30  O   UNL     1      11.029  -1.069   8.978  1.00  0.00    -0.393 OA
ATOM     31  H   UNL     1      10.769  -2.010   9.158  1.00  0.00     0.210 HD
ENDBRANCH  29  30
ENDBRANCH   9  11
ENDBRANCH   1   9
TORSDOF 7
ENDMDL
MODEL 7
REMARK VINA RESULT:    -3.243      2.688      8.875
REMARK INTER + INTRA:          -5.422
REMARK INTER:                  -5.962
REMARK INTRA:                   0.540
REMARK UNBOUND:                -0.947
REMARK SMILES CC[C@@H](CC[C@@H](C)[C@H]1CC[C@@H]2[C@H]3CC=C4C[C@H](O)CC[C@]4(C)[C@H]3CC[C@]21C)C(C)C
REMARK SMILES IDX 5 1 4 2 3 3 2 4 1 5 28 6 29 7 30 8 6 9 7 10 8 11 9 12 26 13
REMARK SMILES IDX 10 14 11 15 25 16 27 17 12 18 24 19 23 20 13 21 21 22 14 23
REMARK SMILES IDX 15 24 20 25 22 26 16 27 19 28 17 29 18 30
REMARK H PARENT 18 31
REMARK Flexibility Score: inf
ROOT
ATOM      1  C   UNL     1       5.506  -9.983   8.531  1.00  0.00     0.004 C 
ENDROOT
BRANCH   1   2
ATOM      2  C   UNL     1       4.129 -10.125   7.839  1.00  0.00     0.004 C 
BRANCH   2   3
ATOM      3  C   UNL     1       3.010  -9.287   8.519  1.00  0.00    -0.009 C 
BRANCH   3   4
ATOM      4  C   UNL     1       1.700 -10.123   8.611  1.00  0.00     0.000 C 
ATOM      5  C   UNL     1       0.758  -9.955   7.417  1.00  0.00     0.004 C 
ENDBRANCH   3   4
BRANCH   3   6
ATOM      6  C   UNL     1       2.869  -7.900   7.797  1.00  0.00    -0.014 C 
ATOM      7  C   UNL     1       3.902  -6.854   8.247  1.00  0.00     0.007 C 
ATOM      8  C   UNL     1       2.840  -8.016   6.264  1.00  0.00     0.007 C 
ENDBRANCH   3   6
ENDBRANCH   2   3
ENDBRANCH   1   2
BRANCH   1   9
ATOM      9  C   UNL     1       6.344  -8.762   8.060  1.00  0.00    -0.011 C 
ATOM     10  C   UNL     1       7.440  -8.473   9.114  1.00  0.00     0.008 C 
BRANCH   9  11
ATOM     11  C   UNL     1       6.975  -8.833   6.609  1.00  0.00    -0.002 C 
ATOM     12  C   UNL     1       5.968  -8.655   5.432  1.00  0.00     0.005 C 
ATOM     13  C   UNL     1       8.059  -7.738   6.297  1.00  0.00    -0.026 C 
ATOM     14  C   UNL     1       6.121  -7.229   4.896  1.00  0.00     0.005 C 
ATOM     15  C   UNL     1       7.185  -6.582   5.775  1.00  0.00    -0.001 C 
ATOM     16  C   UNL     1       8.973  -7.207   7.461  1.00  0.00     0.007 C 
ATOM     17  C   UNL     1       8.998  -8.313   5.185  1.00  0.00     0.012 C 
ATOM     18  C   UNL     1       8.013  -5.445   5.129  1.00  0.00     0.000 C 
ATOM     19  C   UNL     1       9.167  -5.669   7.459  1.00  0.00     0.005 C 
ATOM     20  C   UNL     1       9.234  -5.030   6.039  1.00  0.00     0.003 C 
ATOM     21  C   UNL     1       7.115  -4.259   4.760  1.00  0.00     0.031 C 
ATOM     22  C   UNL     1       9.566  -3.470   6.072  1.00  0.00    -0.008 C 
ATOM     23  C   UNL     1       7.945  -3.145   4.201  1.00  0.00    -0.027 C 
ATOM     24  C   UNL     1       9.111  -2.788   4.772  1.00  0.00    -0.065 C 
ATOM     25  C   UNL     1      11.111  -3.303   6.254  1.00  0.00     0.014 C 
ATOM     26  C   UNL     1       8.852  -2.745   7.246  1.00  0.00     0.016 C 
ATOM     27  C   UNL     1       9.767  -1.505   4.293  1.00  0.00     0.063 C 
ATOM     28  C   UNL     1      11.622  -1.890   5.948  1.00  0.00     0.033 C 
ATOM     29  C   UNL     1      11.281  -1.491   4.509  1.00  0.00     0.118 C 
BRANCH  29  30
ATOM     30  O   UNL     1      11.895  -2.361   3.592  1.00  0.00    -0.393 OA
ATOM     31  H   UNL     1      11.172  -2.914   3.196  1.00  0.00     0.210 HD
ENDBRANCH  29  30
ENDBRANCH   9  11
ENDBRANCH   1   9
TORSDOF 7
ENDMDL
MODEL 8
REMARK VINA RESULT:    -2.931      1.877      3.258
REMARK INTER + INTRA:          -4.991
REMARK INTER:                  -3.048
REMARK INTRA:                  -1.943
REMARK UNBOUND:                -0.947
REMARK SMILES CC[C@@H](CC[C@@H](C)[C@H]1CC[C@@H]2[C@H]3CC=C4C[C@H](O)CC[C@]4(C)[C@H]3CC[C@]21C)C(C)C
REMARK SMILES IDX 5 1 4 2 3 3 2 4 1 5 28 6 29 7 30 8 6 9 7 10 8 11 9 12 26 13
REMARK SMILES IDX 10 14 11 15 25 16 27 17 12 18 24 19 23 20 13 21 21 22 14 23
REMARK SMILES IDX 15 24 20 25 22 26 16 27 19 28 17 29 18 30
REMARK H PARENT 18 31
REMARK Flexibility Score: inf
ROOT
ATOM      1  C   UNL     1      10.129  -1.138   5.646  1.00  0.00     0.004 C 
ENDROOT
BRANCH   1   2
ATOM      2  C   UNL     1      10.281  -0.752   4.155  1.00  0.00     0.004 C 
BRANCH   2   3
ATOM      3  C   UNL     1       9.409  -1.619   3.203  1.00  0.00    -0.009 C 
BRANCH   3   4
ATOM      4  C   UNL     1       8.125  -2.095   3.942  1.00  0.00     0.000 C 
ATOM      5  C   UNL     1       8.140  -3.567   4.354  1.00  0.00     0.004 C 
ENDBRANCH   3   4
BRANCH   3   6
ATOM      6  C   UNL     1      10.282  -2.764   2.575  1.00  0.00    -0.014 C 
ATOM      7  C   UNL     1       9.989  -3.029   1.090  1.00  0.00     0.007 C 
ATOM      8  C   UNL     1      11.789  -2.574   2.811  1.00  0.00     0.007 C 
ENDBRANCH   3   6
ENDBRANCH   2   3
ENDBRANCH   1   2
BRANCH   1   9
ATOM      9  C   UNL     1      11.330  -1.926   6.236  1.00  0.00    -0.011 C 
ATOM     10  C   UNL     1      12.598  -1.044   6.150  1.00  0.00     0.008 C 
BRANCH   9  11
ATOM     11  C   UNL     1      11.161  -2.513   7.698  1.00  0.00    -0.002 C 
ATOM     12  C   UNL     1      10.116  -1.784   8.596  1.00  0.00     0.005 C 
ATOM     13  C   UNL     1      10.682  -4.009   7.767  1.00  0.00    -0.026 C 
ATOM     14  C   UNL     1       8.849  -2.644   8.634  1.00  0.00     0.005 C 
ATOM     15  C   UNL     1       9.152  -3.842   7.742  1.00  0.00    -0.001 C 
ATOM     16  C   UNL     1      11.110  -5.006   6.629  1.00  0.00     0.007 C 
ATOM     17  C   UNL     1      11.187  -4.599   9.125  1.00  0.00     0.012 C 
ATOM     18  C   UNL     1       8.397  -5.153   8.072  1.00  0.00     0.000 C 
ATOM     19  C   UNL     1       9.967  -5.929   6.137  1.00  0.00     0.005 C 
ATOM     20  C   UNL     1       8.972  -6.373   7.252  1.00  0.00     0.003 C 
ATOM     21  C   UNL     1       6.886  -4.973   7.892  1.00  0.00     0.031 C 
ATOM     22  C   UNL     1       7.889  -7.426   6.740  1.00  0.00    -0.008 C 
ATOM     23  C   UNL     1       6.183  -6.269   8.150  1.00  0.00    -0.027 C 
ATOM     24  C   UNL     1       6.655  -7.430   7.657  1.00  0.00    -0.065 C 
ATOM     25  C   UNL     1       8.552  -8.843   6.726  1.00  0.00     0.014 C 
ATOM     26  C   UNL     1       7.392  -7.101   5.303  1.00  0.00     0.016 C 
ATOM     27  C   UNL     1       5.763  -8.654   7.759  1.00  0.00     0.063 C 
ATOM     28  C   UNL     1       7.550  -9.996   6.603  1.00  0.00     0.033 C 
ATOM     29  C   UNL     1       6.547  -9.967   7.761  1.00  0.00     0.118 C 
BRANCH  29  30
ATOM     30  O   UNL     1       7.205 -10.121   8.993  1.00  0.00    -0.393 OA
ATOM     31  H   UNL     1       7.501 -11.067   9.042  1.00  0.00     0.210 HD
ENDBRANCH  29  30
ENDBRANCH   9  11
ENDBRANCH   1   9
TORSDOF 7
ENDMDL
MODEL 9
REMARK VINA RESULT:    -2.480      1.893      4.325
REMARK INTER + INTRA:          -4.368
REMARK INTER:                  -4.558
REMARK INTRA:                   0.189
REMARK UNBOUND:                -0.947
REMARK SMILES CC[C@@H](CC[C@@H](C)[C@H]1CC[C@@H]2[C@H]3CC=C4C[C@H](O)CC[C@]4(C)[C@H]3CC[C@]21C)C(C)C
REMARK SMILES IDX 5 1 4 2 3 3 2 4 1 5 28 6 29 7 30 8 6 9 7 10 8 11 9 12 26 13
REMARK SMILES IDX 10 14 11 15 25 16 27 17 12 18 24 19 23 20 13 21 21 22 14 23
REMARK SMILES IDX 15 24 20 25 22 26 16 27 19 28 17 29 18 30
REMARK H PARENT 18 31
REMARK Flexibility Score: inf
ROOT
ATOM      1  C   UNL     1      10.151  -1.316   5.053  1.00  0.00     0.004 C 
ENDROOT
BRANCH   1   2
ATOM      2  C   UNL     1      11.418  -1.814   5.789  1.00  0.00     0.004 C 
BRANCH   2   3
ATOM      3  C   UNL     1      11.233  -1.919   7.330  1.00  0.00    -0.009 C 
BRANCH   3   4
ATOM      4  C   UNL     1      10.381  -0.723   7.847  1.00  0.00     0.000 C 
ATOM      5  C   UNL     1       9.151  -1.128   8.660  1.00  0.00     0.004 C 
ENDBRANCH   3   4
BRANCH   3   6
ATOM      6  C   UNL     1      12.631  -2.094   8.024  1.00  0.00    -0.014 C 
ATOM      7  C   UNL     1      12.803  -3.437   8.749  1.00  0.00     0.007 C 
ATOM      8  C   UNL     1      13.813  -1.825   7.079  1.00  0.00     0.007 C 
ENDBRANCH   3   6
ENDBRANCH   2   3
ENDBRANCH   1   2
BRANCH   1   9
ATOM      9  C   UNL     1       8.989  -2.345   4.996  1.00  0.00    -0.011 C 
ATOM     10  C   UNL     1       8.005  -1.926   3.877  1.00  0.00     0.008 C 
BRANCH   9  11
ATOM     11  C   UNL     1       9.381  -3.872   4.848  1.00  0.00    -0.002 C 
ATOM     12  C   UNL     1      10.373  -4.417   5.920  1.00  0.00     0.005 C 
ATOM     13  C   UNL     1       8.181  -4.883   4.952  1.00  0.00    -0.026 C 
ATOM     14  C   UNL     1       9.565  -5.229   6.937  1.00  0.00     0.005 C 
ATOM     15  C   UNL     1       8.118  -5.128   6.471  1.00  0.00    -0.001 C 
ATOM     16  C   UNL     1       6.760  -4.445   4.441  1.00  0.00     0.007 C 
ATOM     17  C   UNL     1       8.587  -6.173   4.165  1.00  0.00     0.012 C 
ATOM     18  C   UNL     1       7.189  -6.307   6.852  1.00  0.00     0.000 C 
ATOM     19  C   UNL     1       5.599  -4.845   5.387  1.00  0.00     0.005 C 
ATOM     20  C   UNL     1       5.799  -6.211   6.110  1.00  0.00     0.003 C 
ATOM     21  C   UNL     1       7.045  -6.417   8.375  1.00  0.00     0.031 C 
ATOM     22  C   UNL     1       4.531  -6.654   6.970  1.00  0.00    -0.008 C 
ATOM     23  C   UNL     1       6.091  -7.517   8.719  1.00  0.00    -0.027 C 
ATOM     24  C   UNL     1       4.932  -7.672   8.051  1.00  0.00    -0.065 C 
ATOM     25  C   UNL     1       3.479  -7.287   6.000  1.00  0.00     0.014 C 
ATOM     26  C   UNL     1       3.868  -5.450   7.696  1.00  0.00     0.016 C 
ATOM     27  C   UNL     1       3.919  -8.652   8.613  1.00  0.00     0.063 C 
ATOM     28  C   UNL     1       2.374  -8.075   6.713  1.00  0.00     0.033 C 
ATOM     29  C   UNL     1       2.972  -9.211   7.549  1.00  0.00     0.118 C 
BRANCH  29  30
ATOM     30  O   UNL     1       3.667 -10.119   6.731  1.00  0.00    -0.393 OA
ATOM     31  H   UNL     1       3.041 -10.390   6.010  1.00  0.00     0.210 HD
ENDBRANCH  29  30
ENDBRANCH   9  11
ENDBRANCH   1   9
TORSDOF 7
ENDMDL
