MODEL 1
REMARK VINA RESULT:    59.070      0.000      0.000
REMARK INTER + INTRA:          78.430
REMARK INTER:                  78.062
REMARK INTRA:                   0.368
REMARK UNBOUND:                 0.368
REMARK SMILES CC[C@H](C=C[C@@H](C)[C@H]1CC[C@@H]2C3=CC[C@H]4C[C@H](O)CC[C@@]4(C)[C@H]3CC[C@@]21C)C(C)C
REMARK SMILES IDX 6 1 7 2 5 3 4 4 3 5 2 6 1 7 28 8 29 9 30 10 8 11 9 12 26 13
REMARK SMILES IDX 10 14 11 15 25 16 27 17 12 18 24 19 23 20 13 21 21 22 14 23
REMARK SMILES IDX 15 24 20 25 22 26 16 27 19 28 17 29 18 30
REMARK H PARENT 18 31
REMARK Flexibility Score: inf
ROOT
ATOM      1  C   UNL     1     -27.457  29.288  -3.660  1.00  0.00     0.012 C 
ATOM      2  C   UNL     1     -28.459  28.149  -3.955  1.00  0.00     0.012 C 
ENDROOT
BRANCH   1   3
ATOM      3  C   UNL     1     -28.260  30.463  -3.132  1.00  0.00    -0.028 C 
ATOM      4  C   UNL     1     -29.535  30.320  -2.739  1.00  0.00    -0.027 C 
BRANCH   4   5
ATOM      5  C   UNL     1     -30.372  31.498  -2.283  1.00  0.00     0.014 C 
BRANCH   5   6
ATOM      6  C   UNL     1     -31.764  30.975  -1.851  1.00  0.00     0.004 C 
ATOM      7  C   UNL     1     -32.640  30.536  -3.025  1.00  0.00     0.004 C 
ENDBRANCH   5   6
BRANCH   5   8
ATOM      8  C   UNL     1     -29.637  32.339  -1.192  1.00  0.00    -0.011 C 
ATOM      9  C   UNL     1     -29.981  31.842   0.220  1.00  0.00     0.008 C 
ATOM     10  C   UNL     1     -29.903  33.850  -1.295  1.00  0.00     0.008 C 
ENDBRANCH   5   8
ENDBRANCH   4   5
ENDBRANCH   1   3
BRANCH   1  11
ATOM     11  C   UNL     1     -26.614  29.713  -4.920  1.00  0.00     0.002 C 
ATOM     12  C   UNL     1     -27.171  29.066  -6.205  1.00  0.00     0.005 C 
ATOM     13  C   UNL     1     -26.496  31.255  -5.262  1.00  0.00    -0.023 C 
ATOM     14  C   UNL     1     -27.937  30.138  -6.950  1.00  0.00     0.009 C 
ATOM     15  C   UNL     1     -27.300  31.477  -6.585  1.00  0.00     0.021 C 
ATOM     16  C   UNL     1     -24.989  31.651  -5.433  1.00  0.00     0.008 C 
ATOM     17  C   UNL     1     -27.076  32.208  -4.187  1.00  0.00     0.012 C 
ATOM     18  C   UNL     1     -26.417  32.008  -7.708  1.00  0.00    -0.067 C 
ATOM     19  C   UNL     1     -24.300  31.112  -6.710  1.00  0.00     0.009 C 
ATOM     20  C   UNL     1     -25.157  31.219  -8.009  1.00  0.00     0.021 C 
ATOM     21  C   UNL     1     -26.615  33.253  -8.189  1.00  0.00    -0.027 C 
ATOM     22  C   UNL     1     -24.452  31.662  -9.354  1.00  0.00    -0.023 C 
ATOM     23  C   UNL     1     -25.802  33.860  -9.299  1.00  0.00     0.031 C 
ATOM     24  C   UNL     1     -24.415  33.213  -9.507  1.00  0.00     0.002 C 
ATOM     25  C   UNL     1     -23.017  31.055  -9.549  1.00  0.00     0.010 C 
ATOM     26  C   UNL     1     -25.317  31.090 -10.521  1.00  0.00     0.012 C 
ATOM     27  C   UNL     1     -23.344  33.872  -8.622  1.00  0.00     0.036 C 
ATOM     28  C   UNL     1     -21.824  31.808  -8.916  1.00  0.00     0.032 C 
ATOM     29  C   UNL     1     -21.935  33.350  -8.954  1.00  0.00     0.114 C 
BRANCH  29  30
ATOM     30  O   UNL     1     -21.487  33.873 -10.183  1.00  0.00    -0.393 OA
ATOM     31  H   UNL     1     -21.053  34.748 -10.010  1.00  0.00     0.210 HD
ENDBRANCH  29  30
ENDBRANCH   1  11
TORSDOF 6
ENDMDL
MODEL 2
REMARK VINA RESULT:    60.058      3.629      9.395
REMARK INTER + INTRA:          79.736
REMARK INTER:                  79.290
REMARK INTRA:                   0.446
REMARK UNBOUND:                 0.368
REMARK SMILES CC[C@H](C=C[C@@H](C)[C@H]1CC[C@@H]2C3=CC[C@H]4C[C@H](O)CC[C@@]4(C)[C@H]3CC[C@@]21C)C(C)C
REMARK SMILES IDX 6 1 7 2 5 3 4 4 3 5 2 6 1 7 28 8 29 9 30 10 8 11 9 12 26 13
REMARK SMILES IDX 10 14 11 15 25 16 27 17 12 18 24 19 23 20 13 21 21 22 14 23
REMARK SMILES IDX 15 24 20 25 22 26 16 27 19 28 17 29 18 30
REMARK H PARENT 18 31
REMARK Flexibility Score: inf
ROOT
ATOM      1  C   UNL     1     -27.500  33.238  -3.258  1.00  0.00     0.012 C 
ATOM      2  C   UNL     1     -27.668  34.666  -3.824  1.00  0.00     0.012 C 
ENDROOT
BRANCH   1   3
ATOM      3  C   UNL     1     -26.461  32.539  -4.117  1.00  0.00    -0.028 C 
ATOM      4  C   UNL     1     -26.787  31.974  -5.290  1.00  0.00    -0.027 C 
BRANCH   4   5
ATOM      5  C   UNL     1     -25.778  31.207  -6.120  1.00  0.00     0.014 C 
BRANCH   5   6
ATOM      6  C   UNL     1     -26.166  29.708  -6.105  1.00  0.00     0.004 C 
ATOM      7  C   UNL     1     -27.430  29.398  -6.907  1.00  0.00     0.004 C 
ENDBRANCH   5   6
BRANCH   5   8
ATOM      8  C   UNL     1     -25.627  31.815  -7.550  1.00  0.00    -0.011 C 
ATOM      9  C   UNL     1     -26.915  31.641  -8.369  1.00  0.00     0.008 C 
ATOM     10  C   UNL     1     -24.428  31.258  -8.335  1.00  0.00     0.008 C 
ENDBRANCH   5   8
ENDBRANCH   4   5
ENDBRANCH   1   3
BRANCH   1  11
ATOM     11  C   UNL     1     -28.843  32.418  -3.235  1.00  0.00     0.002 C 
ATOM     12  C   UNL     1     -28.582  30.932  -2.916  1.00  0.00     0.005 C 
ATOM     13  C   UNL     1     -29.977  32.857  -2.220  1.00  0.00    -0.023 C 
ATOM     14  C   UNL     1     -28.978  30.708  -1.472  1.00  0.00     0.009 C 
ATOM     15  C   UNL     1     -30.073  31.722  -1.147  1.00  0.00     0.021 C 
ATOM     16  C   UNL     1     -31.334  33.044  -2.981  1.00  0.00     0.008 C 
ATOM     17  C   UNL     1     -29.709  34.191  -1.478  1.00  0.00     0.012 C 
ATOM     18  C   UNL     1     -31.453  31.076  -1.121  1.00  0.00    -0.067 C 
ATOM     19  C   UNL     1     -32.005  31.739  -3.474  1.00  0.00     0.009 C 
ATOM     20  C   UNL     1     -31.987  30.566  -2.446  1.00  0.00     0.021 C 
ATOM     21  C   UNL     1     -32.244  31.222  -0.038  1.00  0.00    -0.027 C 
ATOM     22  C   UNL     1     -33.279  29.665  -2.292  1.00  0.00    -0.023 C 
ATOM     23  C   UNL     1     -33.615  30.616   0.083  1.00  0.00     0.031 C 
ATOM     24  C   UNL     1     -34.285  30.266  -1.263  1.00  0.00     0.002 C 
ATOM     25  C   UNL     1     -34.000  29.351  -3.651  1.00  0.00     0.010 C 
ATOM     26  C   UNL     1     -32.799  28.287  -1.737  1.00  0.00     0.012 C 
ATOM     27  C   UNL     1     -35.073  31.459  -1.830  1.00  0.00     0.036 C 
ATOM     28  C   UNL     1     -35.029  30.380  -4.174  1.00  0.00     0.032 C 
ATOM     29  C   UNL     1     -35.881  31.062  -3.078  1.00  0.00     0.114 C 
BRANCH  29  30
ATOM     30  O   UNL     1     -36.995  30.276  -2.722  1.00  0.00    -0.393 OA
ATOM     31  H   UNL     1     -37.596  30.212  -3.507  1.00  0.00     0.210 HD
ENDBRANCH  29  30
ENDBRANCH   1  11
TORSDOF 6
ENDMDL
MODEL 3
REMARK VINA RESULT:    60.484      1.790      3.449
REMARK INTER + INTRA:          80.299
REMARK INTER:                  80.155
REMARK INTRA:                   0.144
REMARK UNBOUND:                 0.368
REMARK SMILES CC[C@H](C=C[C@@H](C)[C@H]1CC[C@@H]2C3=CC[C@H]4C[C@H](O)CC[C@@]4(C)[C@H]3CC[C@@]21C)C(C)C
REMARK SMILES IDX 6 1 7 2 5 3 4 4 3 5 2 6 1 7 28 8 29 9 30 10 8 11 9 12 26 13
REMARK SMILES IDX 10 14 11 15 25 16 27 17 12 18 24 19 23 20 13 21 21 22 14 23
REMARK SMILES IDX 15 24 20 25 22 26 16 27 19 28 17 29 18 30
REMARK H PARENT 18 31
REMARK Flexibility Score: inf
ROOT
ATOM      1  C   UNL     1     -27.710  34.519  -3.314  1.00  0.00     0.012 C 
ATOM      2  C   UNL     1     -26.811  35.343  -2.365  1.00  0.00     0.012 C 
ENDROOT
BRANCH   1   3
ATOM      3  C   UNL     1     -28.409  33.471  -2.466  1.00  0.00    -0.028 C 
ATOM      4  C   UNL     1     -29.747  33.425  -2.372  1.00  0.00    -0.027 C 
BRANCH   4   5
ATOM      5  C   UNL     1     -30.456  32.434  -1.471  1.00  0.00     0.014 C 
BRANCH   5   6
ATOM      6  C   UNL     1     -30.679  31.122  -2.261  1.00  0.00     0.004 C 
ATOM      7  C   UNL     1     -32.153  30.820  -2.536  1.00  0.00     0.004 C 
ENDBRANCH   5   6
BRANCH   5   8
ATOM      8  C   UNL     1     -29.703  32.246  -0.116  1.00  0.00    -0.011 C 
ATOM      9  C   UNL     1     -30.243  31.033   0.658  1.00  0.00     0.008 C 
ATOM     10  C   UNL     1     -29.726  33.493   0.783  1.00  0.00     0.008 C 
ENDBRANCH   5   8
ENDBRANCH   4   5
ENDBRANCH   1   3
BRANCH   1  11
ATOM     11  C   UNL     1     -26.914  33.840  -4.489  1.00  0.00     0.002 C 
ATOM     12  C   UNL     1     -25.652  33.124  -3.965  1.00  0.00     0.005 C 
ATOM     13  C   UNL     1     -27.655  32.756  -5.375  1.00  0.00    -0.023 C 
ATOM     14  C   UNL     1     -25.953  31.641  -3.949  1.00  0.00     0.009 C 
ATOM     15  C   UNL     1     -26.982  31.382  -5.047  1.00  0.00     0.021 C 
ATOM     16  C   UNL     1     -27.513  33.118  -6.893  1.00  0.00     0.008 C 
ATOM     17  C   UNL     1     -29.174  32.619  -5.102  1.00  0.00     0.012 C 
ATOM     18  C   UNL     1     -26.348  30.749  -6.280  1.00  0.00    -0.067 C 
ATOM     19  C   UNL     1     -26.098  32.928  -7.492  1.00  0.00     0.009 C 
ATOM     20  C   UNL     1     -25.377  31.614  -7.062  1.00  0.00     0.021 C 
ATOM     21  C   UNL     1     -26.851  29.602  -6.783  1.00  0.00    -0.027 C 
ATOM     22  C   UNL     1     -24.554  30.804  -8.144  1.00  0.00    -0.023 C 
ATOM     23  C   UNL     1     -26.288  28.900  -7.987  1.00  0.00     0.031 C 
ATOM     24  C   UNL     1     -25.456  29.800  -8.926  1.00  0.00     0.002 C 
ATOM     25  C   UNL     1     -23.749  31.713  -9.140  1.00  0.00     0.010 C 
ATOM     26  C   UNL     1     -23.485  29.976  -7.365  1.00  0.00     0.012 C 
ATOM     27  C   UNL     1     -26.338  30.489  -9.980  1.00  0.00     0.036 C 
ATOM     28  C   UNL     1     -24.487  32.238 -10.392  1.00  0.00     0.032 C 
ATOM     29  C   UNL     1     -25.492  31.245 -11.019  1.00  0.00     0.114 C 
BRANCH  29  30
ATOM     30  O   UNL     1     -24.856  30.344 -11.894  1.00  0.00    -0.393 OA
ATOM     31  H   UNL     1     -24.734  30.791 -12.771  1.00  0.00     0.210 HD
ENDBRANCH  29  30
ENDBRANCH   1  11
TORSDOF 6
ENDMDL
MODEL 4
REMARK VINA RESULT:    61.144      1.674      3.588
REMARK INTER + INTRA:          81.172
REMARK INTER:                  80.276
REMARK INTRA:                   0.895
REMARK UNBOUND:                 0.368
REMARK SMILES CC[C@H](C=C[C@@H](C)[C@H]1CC[C@@H]2C3=CC[C@H]4C[C@H](O)CC[C@@]4(C)[C@H]3CC[C@@]21C)C(C)C
REMARK SMILES IDX 6 1 7 2 5 3 4 4 3 5 2 6 1 7 28 8 29 9 30 10 8 11 9 12 26 13
REMARK SMILES IDX 10 14 11 15 25 16 27 17 12 18 24 19 23 20 13 21 21 22 14 23
REMARK SMILES IDX 15 24 20 25 22 26 16 27 19 28 17 29 18 30
REMARK H PARENT 18 31
REMARK Flexibility Score: inf
ROOT
ATOM      1  C   UNL     1     -28.498  32.254  -2.769  1.00  0.00     0.012 C 
ATOM      2  C   UNL     1     -27.904  31.155  -1.860  1.00  0.00     0.012 C 
ENDROOT
BRANCH   1   3
ATOM      3  C   UNL     1     -29.984  31.968  -2.902  1.00  0.00    -0.028 C 
ATOM      4  C   UNL     1     -30.645  31.257  -1.976  1.00  0.00    -0.027 C 
BRANCH   4   5
ATOM      5  C   UNL     1     -32.109  30.899  -2.132  1.00  0.00     0.014 C 
BRANCH   5   6
ATOM      6  C   UNL     1     -32.611  31.459  -3.485  1.00  0.00     0.004 C 
ATOM      7  C   UNL     1     -34.030  31.012  -3.840  1.00  0.00     0.004 C 
ENDBRANCH   5   6
BRANCH   5   8
ATOM      8  C   UNL     1     -32.352  29.370  -1.941  1.00  0.00    -0.011 C 
ATOM      9  C   UNL     1     -31.656  28.553  -3.040  1.00  0.00     0.008 C 
ATOM     10  C   UNL     1     -33.839  28.984  -1.864  1.00  0.00     0.008 C 
ENDBRANCH   5   8
ENDBRANCH   4   5
ENDBRANCH   1   3
BRANCH   1  11
ATOM     11  C   UNL     1     -27.818  32.320  -4.187  1.00  0.00     0.002 C 
ATOM     12  C   UNL     1     -26.688  33.370  -4.214  1.00  0.00     0.005 C 
ATOM     13  C   UNL     1     -27.159  31.002  -4.769  1.00  0.00    -0.023 C 
ATOM     14  C   UNL     1     -25.376  32.617  -4.147  1.00  0.00     0.009 C 
ATOM     15  C   UNL     1     -25.614  31.248  -4.780  1.00  0.00     0.021 C 
ATOM     16  C   UNL     1     -27.707  30.721  -6.210  1.00  0.00     0.008 C 
ATOM     17  C   UNL     1     -27.429  29.718  -3.944  1.00  0.00     0.012 C 
ATOM     18  C   UNL     1     -25.034  31.167  -6.187  1.00  0.00    -0.067 C 
ATOM     19  C   UNL     1     -27.211  31.691  -7.310  1.00  0.00     0.009 C 
ATOM     20  C   UNL     1     -25.692  32.036  -7.243  1.00  0.00     0.021 C 
ATOM     21  C   UNL     1     -24.183  30.170  -6.508  1.00  0.00    -0.027 C 
ATOM     22  C   UNL     1     -24.866  32.113  -8.590  1.00  0.00    -0.023 C 
ATOM     23  C   UNL     1     -23.553  30.013  -7.865  1.00  0.00     0.031 C 
ATOM     24  C   UNL     1     -24.311  30.717  -9.011  1.00  0.00     0.002 C 
ATOM     25  C   UNL     1     -25.649  32.777  -9.778  1.00  0.00     0.010 C 
ATOM     26  C   UNL     1     -23.645  33.045  -8.312  1.00  0.00     0.012 C 
ATOM     27  C   UNL     1     -25.392  29.808  -9.619  1.00  0.00     0.036 C 
ATOM     28  C   UNL     1     -26.565  31.870 -10.632  1.00  0.00     0.032 C 
ATOM     29  C   UNL     1     -26.027  30.441 -10.870  1.00  0.00     0.114 C 
BRANCH  29  30
ATOM     30  O   UNL     1     -25.134  30.396 -11.959  1.00  0.00    -0.393 OA
ATOM     31  H   UNL     1     -25.461  29.718 -12.603  1.00  0.00     0.210 HD
ENDBRANCH  29  30
ENDBRANCH   1  11
TORSDOF 6
ENDMDL
MODEL 5
REMARK VINA RESULT:    61.743      4.639      7.031
REMARK INTER + INTRA:          81.963
REMARK INTER:                  83.044
REMARK INTRA:                  -1.081
REMARK UNBOUND:                 0.368
REMARK SMILES CC[C@H](C=C[C@@H](C)[C@H]1CC[C@@H]2C3=CC[C@H]4C[C@H](O)CC[C@@]4(C)[C@H]3CC[C@@]21C)C(C)C
REMARK SMILES IDX 6 1 7 2 5 3 4 4 3 5 2 6 1 7 28 8 29 9 30 10 8 11 9 12 26 13
REMARK SMILES IDX 10 14 11 15 25 16 27 17 12 18 24 19 23 20 13 21 21 22 14 23
REMARK SMILES IDX 15 24 20 25 22 26 16 27 19 28 17 29 18 30
REMARK H PARENT 18 31
REMARK Flexibility Score: inf
ROOT
ATOM      1  C   UNL     1     -26.511  24.014  -7.888  1.00  0.00     0.012 C 
ATOM      2  C   UNL     1     -25.944  23.151  -9.037  1.00  0.00     0.012 C 
ENDROOT
BRANCH   1   3
ATOM      3  C   UNL     1     -27.933  23.542  -7.637  1.00  0.00    -0.028 C 
ATOM      4  C   UNL     1     -28.196  22.278  -7.271  1.00  0.00    -0.027 C 
BRANCH   4   5
ATOM      5  C   UNL     1     -29.613  21.772  -7.091  1.00  0.00     0.014 C 
BRANCH   5   6
ATOM      6  C   UNL     1     -30.587  22.964  -7.264  1.00  0.00     0.004 C 
ATOM      7  C   UNL     1     -31.157  23.482  -5.943  1.00  0.00     0.004 C 
ENDBRANCH   5   6
BRANCH   5   8
ATOM      8  C   UNL     1     -29.915  20.558  -8.024  1.00  0.00    -0.011 C 
ATOM      9  C   UNL     1     -31.406  20.493  -8.390  1.00  0.00     0.008 C 
ATOM     10  C   UNL     1     -29.459  19.207  -7.447  1.00  0.00     0.008 C 
ENDBRANCH   5   8
ENDBRANCH   4   5
ENDBRANCH   1   3
BRANCH   1  11
ATOM     11  C   UNL     1     -26.487  25.557  -8.200  1.00  0.00     0.002 C 
ATOM     12  C   UNL     1     -27.913  26.145  -8.206  1.00  0.00     0.005 C 
ATOM     13  C   UNL     1     -25.661  26.507  -7.239  1.00  0.00    -0.023 C 
ATOM     14  C   UNL     1     -28.092  26.897  -6.904  1.00  0.00     0.009 C 
ATOM     15  C   UNL     1     -26.709  27.381  -6.474  1.00  0.00     0.021 C 
ATOM     16  C   UNL     1     -24.678  27.393  -8.079  1.00  0.00     0.008 C 
ATOM     17  C   UNL     1     -24.792  25.775  -6.186  1.00  0.00     0.012 C 
ATOM     18  C   UNL     1     -26.519  28.868  -6.747  1.00  0.00    -0.067 C 
ATOM     19  C   UNL     1     -25.343  28.502  -8.929  1.00  0.00     0.009 C 
ATOM     20  C   UNL     1     -26.477  29.289  -8.204  1.00  0.00     0.021 C 
ATOM     21  C   UNL     1     -26.129  29.691  -5.752  1.00  0.00    -0.027 C 
ATOM     22  C   UNL     1     -26.566  30.857  -8.402  1.00  0.00    -0.023 C 
ATOM     23  C   UNL     1     -25.926  31.171  -5.922  1.00  0.00     0.031 C 
ATOM     24  C   UNL     1     -25.674  31.622  -7.378  1.00  0.00     0.002 C 
ATOM     25  C   UNL     1     -26.255  31.330  -9.867  1.00  0.00     0.010 C 
ATOM     26  C   UNL     1     -28.050  31.258  -8.132  1.00  0.00     0.012 C 
ATOM     27  C   UNL     1     -24.179  31.570  -7.736  1.00  0.00     0.036 C 
ATOM     28  C   UNL     1     -24.776  31.572 -10.246  1.00  0.00     0.032 C 
ATOM     29  C   UNL     1     -23.907  32.182  -9.122  1.00  0.00     0.114 C 
BRANCH  29  30
ATOM     30  O   UNL     1     -24.023  33.585  -9.079  1.00  0.00    -0.393 OA
ATOM     31  H   UNL     1     -23.159  33.978  -9.365  1.00  0.00     0.210 HD
ENDBRANCH  29  30
ENDBRANCH   1  11
TORSDOF 6
ENDMDL
MODEL 6
REMARK VINA RESULT:    61.930      1.544      2.350
REMARK INTER + INTRA:          82.211
REMARK INTER:                  81.817
REMARK INTRA:                   0.394
REMARK UNBOUND:                 0.368
REMARK SMILES CC[C@H](C=C[C@@H](C)[C@H]1CC[C@@H]2C3=CC[C@H]4C[C@H](O)CC[C@@]4(C)[C@H]3CC[C@@]21C)C(C)C
REMARK SMILES IDX 6 1 7 2 5 3 4 4 3 5 2 6 1 7 28 8 29 9 30 10 8 11 9 12 26 13
REMARK SMILES IDX 10 14 11 15 25 16 27 17 12 18 24 19 23 20 13 21 21 22 14 23
REMARK SMILES IDX 15 24 20 25 22 26 16 27 19 28 17 29 18 30
REMARK H PARENT 18 31
REMARK Flexibility Score: inf
ROOT
ATOM      1  C   UNL     1     -26.475  31.652  -1.337  1.00  0.00     0.012 C 
ATOM      2  C   UNL     1     -25.835  30.796  -0.221  1.00  0.00     0.012 C 
ENDROOT
BRANCH   1   3
ATOM      3  C   UNL     1     -27.977  31.446  -1.250  1.00  0.00    -0.028 C 
ATOM      4  C   UNL     1     -28.837  32.348  -1.748  1.00  0.00    -0.027 C 
BRANCH   4   5
ATOM      5  C   UNL     1     -30.337  32.194  -1.601  1.00  0.00     0.014 C 
BRANCH   5   6
ATOM      6  C   UNL     1     -30.780  30.928  -2.374  1.00  0.00     0.004 C 
ATOM      7  C   UNL     1     -32.273  30.907  -2.705  1.00  0.00     0.004 C 
ENDBRANCH   5   6
BRANCH   5   8
ATOM      8  C   UNL     1     -30.775  32.217  -0.103  1.00  0.00    -0.011 C 
ATOM      9  C   UNL     1     -30.067  33.342   0.667  1.00  0.00     0.008 C 
ATOM     10  C   UNL     1     -30.569  30.876   0.622  1.00  0.00     0.008 C 
ENDBRANCH   5   8
ENDBRANCH   4   5
ENDBRANCH   1   3
BRANCH   1  11
ATOM     11  C   UNL     1     -25.948  31.289  -2.775  1.00  0.00     0.002 C 
ATOM     12  C   UNL     1     -26.343  29.849  -3.165  1.00  0.00     0.005 C 
ATOM     13  C   UNL     1     -26.416  32.182  -3.997  1.00  0.00    -0.023 C 
ATOM     14  C   UNL     1     -27.501  29.950  -4.135  1.00  0.00     0.009 C 
ATOM     15  C   UNL     1     -27.355  31.282  -4.867  1.00  0.00     0.021 C 
ATOM     16  C   UNL     1     -25.170  32.668  -4.813  1.00  0.00     0.008 C 
ATOM     17  C   UNL     1     -27.206  33.457  -3.609  1.00  0.00     0.012 C 
ATOM     18  C   UNL     1     -26.817  31.095  -6.280  1.00  0.00    -0.067 C 
ATOM     19  C   UNL     1     -24.444  31.575  -5.634  1.00  0.00     0.009 C 
ATOM     20  C   UNL     1     -25.388  30.599  -6.401  1.00  0.00     0.021 C 
ATOM     21  C   UNL     1     -27.486  31.617  -7.330  1.00  0.00    -0.027 C 
ATOM     22  C   UNL     1     -25.003  30.162  -7.872  1.00  0.00    -0.023 C 
ATOM     23  C   UNL     1     -27.039  31.476  -8.759  1.00  0.00     0.031 C 
ATOM     24  C   UNL     1     -25.535  31.171  -8.936  1.00  0.00     0.002 C 
ATOM     25  C   UNL     1     -23.468  29.903  -8.076  1.00  0.00     0.010 C 
ATOM     26  C   UNL     1     -25.702  28.789  -8.128  1.00  0.00     0.012 C 
ATOM     27  C   UNL     1     -24.699  32.459  -9.002  1.00  0.00     0.036 C 
ATOM     28  C   UNL     1     -22.574  31.117  -8.422  1.00  0.00     0.032 C 
ATOM     29  C   UNL     1     -23.230  32.164  -9.351  1.00  0.00     0.114 C 
BRANCH  29  30
ATOM     30  O   UNL     1     -23.102  31.808 -10.708  1.00  0.00    -0.393 OA
ATOM     31  H   UNL     1     -22.168  31.987 -10.991  1.00  0.00     0.210 HD
ENDBRANCH  29  30
ENDBRANCH   1  11
TORSDOF 6
ENDMDL
