MODEL 1
REMARK VINA RESULT:    -5.034      0.000      0.000
REMARK INTER + INTRA:         -11.869
REMARK INTER:                  -9.447
REMARK INTRA:                  -2.421
REMARK UNBOUND:                -2.421
REMARK SMILES CCCCCCCCC=CCCCCCCCC(=O)[O-]
REMARK SMILES IDX 10 1 9 2 11 3 12 4 13 5 14 6 15 7 16 8 17 9 18 10 19 11
REMARK SMILES IDX 20 12 8 13 7 14 6 15 5 16 4 17 3 18 2 19 1 20
REMARK H PARENT
REMARK Flexibility Score: inf
ROOT
ATOM      1  C   UNL     1      60.127  31.497  23.513  1.00  0.00    -0.031 C 
ATOM      2  C   UNL     1      59.652  32.503  22.757  1.00  0.00    -0.031 C 
ENDROOT
BRANCH   1   3
ATOM      3  C   UNL     1      59.571  30.094  23.529  1.00  0.00     0.027 C 
BRANCH   3   4
ATOM      4  C   UNL     1      60.636  29.045  23.167  1.00  0.00     0.004 C 
BRANCH   4   5
ATOM      5  C   UNL     1      61.961  29.188  23.944  1.00  0.00     0.000 C 
BRANCH   5   6
ATOM      6  C   UNL     1      62.074  28.314  25.208  1.00  0.00     0.000 C 
BRANCH   6   7
ATOM      7  C   UNL     1      61.538  28.960  26.502  1.00  0.00     0.000 C 
BRANCH   7   8
ATOM      8  C   UNL     1      60.290  28.284  27.096  1.00  0.00     0.006 C 
BRANCH   8   9
ATOM      9  C   UNL     1      59.928  26.973  26.387  1.00  0.00     0.053 C 
BRANCH   9  10
ATOM     10  C   UNL     1      58.446  26.769  26.390  1.00  0.00     0.041 C 
ATOM     11  O   UNL     1      57.679  27.705  26.739  1.00  0.00    -0.550 OA
ATOM     12  O   UNL     1      57.909  25.561  25.962  1.00  0.00    -0.550 OA
ENDBRANCH   9  10
ENDBRANCH   8   9
ENDBRANCH   7   8
ENDBRANCH   6   7
ENDBRANCH   5   6
ENDBRANCH   4   5
ENDBRANCH   3   4
ENDBRANCH   1   3
BRANCH   2  13
ATOM     13  C   UNL     1      58.558  32.361  21.726  1.00  0.00     0.027 C 
BRANCH  13  14
ATOM     14  C   UNL     1      59.104  31.867  20.378  1.00  0.00     0.004 C 
BRANCH  14  15
ATOM     15  C   UNL     1      60.175  32.811  19.806  1.00  0.00     0.000 C 
BRANCH  15  16
ATOM     16  C   UNL     1      61.427  32.069  19.304  1.00  0.00     0.000 C 
BRANCH  16  17
ATOM     17  C   UNL     1      61.863  30.867  20.163  1.00  0.00    -0.000 C 
BRANCH  17  18
ATOM     18  C   UNL     1      63.045  31.191  21.093  1.00  0.00    -0.000 C 
BRANCH  18  19
ATOM     19  C   UNL     1      64.137  30.110  21.055  1.00  0.00    -0.003 C 
ATOM     20  C   UNL     1      63.755  28.912  20.185  1.00  0.00     0.004 C 
ENDBRANCH  18  19
ENDBRANCH  17  18
ENDBRANCH  16  17
ENDBRANCH  15  16
ENDBRANCH  14  15
ENDBRANCH  13  14
ENDBRANCH   2  13
TORSDOF 15
ENDMDL
MODEL 2
REMARK VINA RESULT:    -4.917      1.052      1.581
REMARK INTER + INTRA:         -11.649
REMARK INTER:                  -9.432
REMARK INTRA:                  -2.218
REMARK UNBOUND:                -2.421
REMARK SMILES CCCCCCCCC=CCCCCCCCC(=O)[O-]
REMARK SMILES IDX 10 1 9 2 11 3 12 4 13 5 14 6 15 7 16 8 17 9 18 10 19 11
REMARK SMILES IDX 20 12 8 13 7 14 6 15 5 16 4 17 3 18 2 19 1 20
REMARK H PARENT
REMARK Flexibility Score: inf
ROOT
ATOM      1  C   UNL     1      59.630  31.680  24.265  1.00  0.00    -0.031 C 
ATOM      2  C   UNL     1      58.591  32.091  23.515  1.00  0.00    -0.031 C 
ENDROOT
BRANCH   1   3
ATOM      3  C   UNL     1      61.073  32.041  24.012  1.00  0.00     0.027 C 
BRANCH   3   4
ATOM      4  C   UNL     1      61.889  30.843  23.498  1.00  0.00     0.004 C 
BRANCH   4   5
ATOM      5  C   UNL     1      61.229  29.471  23.745  1.00  0.00     0.000 C 
BRANCH   5   6
ATOM      6  C   UNL     1      61.925  28.593  24.804  1.00  0.00     0.000 C 
BRANCH   6   7
ATOM      7  C   UNL     1      61.135  28.394  26.113  1.00  0.00     0.000 C 
BRANCH   7   8
ATOM      8  C   UNL     1      59.648  28.041  25.927  1.00  0.00     0.006 C 
BRANCH   8   9
ATOM      9  C   UNL     1      59.077  27.231  27.097  1.00  0.00     0.053 C 
BRANCH   9  10
ATOM     10  C   UNL     1      57.825  26.525  26.682  1.00  0.00     0.041 C 
ATOM     11  O   UNL     1      57.887  25.510  25.938  1.00  0.00    -0.550 OA
ATOM     12  O   UNL     1      56.593  26.958  27.155  1.00  0.00    -0.550 OA
ENDBRANCH   9  10
ENDBRANCH   8   9
ENDBRANCH   7   8
ENDBRANCH   6   7
ENDBRANCH   5   6
ENDBRANCH   4   5
ENDBRANCH   3   4
ENDBRANCH   1   3
BRANCH   2  13
ATOM     13  C   UNL     1      58.693  33.066  22.367  1.00  0.00     0.027 C 
BRANCH  13  14
ATOM     14  C   UNL     1      58.563  32.362  21.008  1.00  0.00     0.004 C 
BRANCH  14  15
ATOM     15  C   UNL     1      59.933  32.046  20.386  1.00  0.00     0.000 C 
BRANCH  15  16
ATOM     16  C   UNL     1      60.250  30.539  20.361  1.00  0.00     0.000 C 
BRANCH  16  17
ATOM     17  C   UNL     1      61.560  30.157  19.647  1.00  0.00    -0.000 C 
BRANCH  17  18
ATOM     18  C   UNL     1      62.163  28.840  20.164  1.00  0.00    -0.000 C 
BRANCH  18  19
ATOM     19  C   UNL     1      63.687  28.920  20.339  1.00  0.00    -0.003 C 
ATOM     20  C   UNL     1      64.169  30.323  20.710  1.00  0.00     0.004 C 
ENDBRANCH  18  19
ENDBRANCH  17  18
ENDBRANCH  16  17
ENDBRANCH  15  16
ENDBRANCH  14  15
ENDBRANCH  13  14
ENDBRANCH   2  13
TORSDOF 15
ENDMDL
MODEL 3
REMARK VINA RESULT:    -4.908      0.874      1.747
REMARK INTER + INTRA:         -11.633
REMARK INTER:                  -9.004
REMARK INTRA:                  -2.630
REMARK UNBOUND:                -2.421
REMARK SMILES CCCCCCCCC=CCCCCCCCC(=O)[O-]
REMARK SMILES IDX 10 1 9 2 11 3 12 4 13 5 14 6 15 7 16 8 17 9 18 10 19 11
REMARK SMILES IDX 20 12 8 13 7 14 6 15 5 16 4 17 3 18 2 19 1 20
REMARK H PARENT
REMARK Flexibility Score: inf
ROOT
ATOM      1  C   UNL     1      60.468  29.189  23.054  1.00  0.00    -0.031 C 
ATOM      2  C   UNL     1      59.575  30.182  22.898  1.00  0.00    -0.031 C 
ENDROOT
BRANCH   1   3
ATOM      3  C   UNL     1      61.878  29.369  23.561  1.00  0.00     0.027 C 
BRANCH   3   4
ATOM      4  C   UNL     1      62.120  28.613  24.879  1.00  0.00     0.004 C 
BRANCH   4   5
ATOM      5  C   UNL     1      61.939  29.472  26.147  1.00  0.00     0.000 C 
BRANCH   5   6
ATOM      6  C   UNL     1      60.768  29.053  27.058  1.00  0.00     0.000 C 
BRANCH   6   7
ATOM      7  C   UNL     1      59.398  29.651  26.681  1.00  0.00     0.000 C 
BRANCH   7   8
ATOM      8  C   UNL     1      58.388  28.644  26.101  1.00  0.00     0.006 C 
BRANCH   8   9
ATOM      9  C   UNL     1      58.788  27.185  26.357  1.00  0.00     0.053 C 
BRANCH   9  10
ATOM     10  C   UNL     1      57.588  26.373  26.727  1.00  0.00     0.041 C 
ATOM     11  O   UNL     1      56.861  26.721  27.695  1.00  0.00    -0.550 OA
ATOM     12  O   UNL     1      57.243  25.258  25.973  1.00  0.00    -0.550 OA
ENDBRANCH   9  10
ENDBRANCH   8   9
ENDBRANCH   7   8
ENDBRANCH   6   7
ENDBRANCH   5   6
ENDBRANCH   4   5
ENDBRANCH   3   4
ENDBRANCH   1   3
BRANCH   2  13
ATOM     13  C   UNL     1      59.804  31.617  23.307  1.00  0.00     0.027 C 
BRANCH  13  14
ATOM     14  C   UNL     1      59.417  32.598  22.190  1.00  0.00     0.004 C 
BRANCH  14  15
ATOM     15  C   UNL     1      59.374  31.919  20.812  1.00  0.00     0.000 C 
BRANCH  15  16
ATOM     16  C   UNL     1      60.610  32.231  19.948  1.00  0.00     0.000 C 
BRANCH  16  17
ATOM     17  C   UNL     1      61.662  31.107  19.880  1.00  0.00    -0.000 C 
BRANCH  17  18
ATOM     18  C   UNL     1      62.978  31.473  20.587  1.00  0.00    -0.000 C 
BRANCH  18  19
ATOM     19  C   UNL     1      63.919  30.267  20.739  1.00  0.00    -0.003 C 
ATOM     20  C   UNL     1      63.424  29.031  19.988  1.00  0.00     0.004 C 
ENDBRANCH  18  19
ENDBRANCH  17  18
ENDBRANCH  16  17
ENDBRANCH  15  16
ENDBRANCH  14  15
ENDBRANCH  13  14
ENDBRANCH   2  13
TORSDOF 15
ENDMDL
MODEL 4
REMARK VINA RESULT:    -4.850      1.737      2.684
REMARK INTER + INTRA:         -11.525
REMARK INTER:                  -9.041
REMARK INTRA:                  -2.485
REMARK UNBOUND:                -2.421
REMARK SMILES CCCCCCCCC=CCCCCCCCC(=O)[O-]
REMARK SMILES IDX 10 1 9 2 11 3 12 4 13 5 14 6 15 7 16 8 17 9 18 10 19 11
REMARK SMILES IDX 20 12 8 13 7 14 6 15 5 16 4 17 3 18 2 19 1 20
REMARK H PARENT
REMARK Flexibility Score: inf
ROOT
ATOM      1  C   UNL     1      59.615  32.747  22.989  1.00  0.00    -0.031 C 
ATOM      2  C   UNL     1      59.143  32.736  21.730  1.00  0.00    -0.031 C 
ENDROOT
BRANCH   1   3
ATOM      3  C   UNL     1      60.662  31.802  23.526  1.00  0.00     0.027 C 
BRANCH   3   4
ATOM      4  C   UNL     1      61.905  32.546  24.042  1.00  0.00     0.004 C 
BRANCH   4   5
ATOM      5  C   UNL     1      61.804  33.015  25.507  1.00  0.00     0.000 C 
BRANCH   5   6
ATOM      6  C   UNL     1      62.476  32.085  26.538  1.00  0.00     0.000 C 
BRANCH   6   7
ATOM      7  C   UNL     1      61.636  30.865  26.965  1.00  0.00     0.000 C 
BRANCH   7   8
ATOM      8  C   UNL     1      62.351  29.508  26.834  1.00  0.00     0.006 C 
BRANCH   8   9
ATOM      9  C   UNL     1      62.078  28.818  25.491  1.00  0.00     0.053 C 
BRANCH   9  10
ATOM     10  C   UNL     1      60.748  28.134  25.517  1.00  0.00     0.041 C 
ATOM     11  O   UNL     1      60.613  27.033  26.114  1.00  0.00    -0.550 OA
ATOM     12  O   UNL     1      59.645  28.735  24.922  1.00  0.00    -0.550 OA
ENDBRANCH   9  10
ENDBRANCH   8   9
ENDBRANCH   7   8
ENDBRANCH   6   7
ENDBRANCH   5   6
ENDBRANCH   4   5
ENDBRANCH   3   4
ENDBRANCH   1   3
BRANCH   2  13
ATOM     13  C   UNL     1      59.662  31.848  20.625  1.00  0.00     0.027 C 
BRANCH  13  14
ATOM     14  C   UNL     1      60.669  32.583  19.728  1.00  0.00     0.004 C 
BRANCH  14  15
ATOM     15  C   UNL     1      61.895  31.714  19.400  1.00  0.00     0.000 C 
BRANCH  15  16
ATOM     16  C   UNL     1      62.893  31.617  20.568  1.00  0.00     0.000 C 
BRANCH  16  17
ATOM     17  C   UNL     1      63.911  30.466  20.465  1.00  0.00    -0.000 C 
BRANCH  17  18
ATOM     18  C   UNL     1      63.268  29.079  20.639  1.00  0.00    -0.000 C 
BRANCH  18  19
ATOM     19  C   UNL     1      62.320  29.018  21.846  1.00  0.00    -0.003 C 
ATOM     20  C   UNL     1      60.904  28.586  21.467  1.00  0.00     0.004 C 
ENDBRANCH  18  19
ENDBRANCH  17  18
ENDBRANCH  16  17
ENDBRANCH  15  16
ENDBRANCH  14  15
ENDBRANCH  13  14
ENDBRANCH   2  13
TORSDOF 15
ENDMDL
MODEL 5
REMARK VINA RESULT:    -4.794      1.376      2.438
REMARK INTER + INTRA:         -11.419
REMARK INTER:                  -9.151
REMARK INTRA:                  -2.268
REMARK UNBOUND:                -2.421
REMARK SMILES CCCCCCCCC=CCCCCCCCC(=O)[O-]
REMARK SMILES IDX 10 1 9 2 11 3 12 4 13 5 14 6 15 7 16 8 17 9 18 10 19 11
REMARK SMILES IDX 20 12 8 13 7 14 6 15 5 16 4 17 3 18 2 19 1 20
REMARK H PARENT
REMARK Flexibility Score: inf
ROOT
ATOM      1  C   UNL     1      59.234  32.923  22.997  1.00  0.00    -0.031 C 
ATOM      2  C   UNL     1      58.985  32.641  21.705  1.00  0.00    -0.031 C 
ENDROOT
BRANCH   1   3
ATOM      3  C   UNL     1      60.527  32.617  23.713  1.00  0.00     0.027 C 
BRANCH   3   4
ATOM      4  C   UNL     1      60.334  31.595  24.846  1.00  0.00     0.004 C 
BRANCH   4   5
ATOM      5  C   UNL     1      58.870  31.172  25.079  1.00  0.00     0.000 C 
BRANCH   5   6
ATOM      6  C   UNL     1      58.617  29.651  25.052  1.00  0.00     0.000 C 
BRANCH   6   7
ATOM      7  C   UNL     1      59.883  28.775  25.134  1.00  0.00     0.000 C 
BRANCH   7   8
ATOM      8  C   UNL     1      60.060  28.013  26.460  1.00  0.00     0.006 C 
BRANCH   8   9
ATOM      9  C   UNL     1      59.761  26.514  26.329  1.00  0.00     0.053 C 
BRANCH   9  10
ATOM     10  C   UNL     1      58.333  26.234  26.679  1.00  0.00     0.041 C 
ATOM     11  O   UNL     1      57.637  25.484  25.946  1.00  0.00    -0.550 OA
ATOM     12  O   UNL     1      57.786  26.763  27.841  1.00  0.00    -0.550 OA
ENDBRANCH   9  10
ENDBRANCH   8   9
ENDBRANCH   7   8
ENDBRANCH   6   7
ENDBRANCH   5   6
ENDBRANCH   4   5
ENDBRANCH   3   4
ENDBRANCH   1   3
BRANCH   2  13
ATOM     13  C   UNL     1      59.997  32.074  20.739  1.00  0.00     0.027 C 
BRANCH  13  14
ATOM     14  C   UNL     1      59.662  30.628  20.346  1.00  0.00     0.004 C 
BRANCH  14  15
ATOM     15  C   UNL     1      59.703  29.675  21.552  1.00  0.00     0.000 C 
BRANCH  15  16
ATOM     16  C   UNL     1      60.832  28.633  21.459  1.00  0.00     0.000 C 
BRANCH  16  17
ATOM     17  C   UNL     1      61.855  28.875  20.333  1.00  0.00    -0.000 C 
BRANCH  17  18
ATOM     18  C   UNL     1      63.306  28.926  20.841  1.00  0.00    -0.000 C 
BRANCH  18  19
ATOM     19  C   UNL     1      63.937  30.317  20.679  1.00  0.00    -0.003 C 
ATOM     20  C   UNL     1      63.387  31.337  21.677  1.00  0.00     0.004 C 
ENDBRANCH  18  19
ENDBRANCH  17  18
ENDBRANCH  16  17
ENDBRANCH  15  16
ENDBRANCH  14  15
ENDBRANCH  13  14
ENDBRANCH   2  13
TORSDOF 15
ENDMDL
MODEL 6
REMARK VINA RESULT:    -4.767      1.528      2.282
REMARK INTER + INTRA:         -11.368
REMARK INTER:                  -8.510
REMARK INTRA:                  -2.858
REMARK UNBOUND:                -2.421
REMARK SMILES CCCCCCCCC=CCCCCCCCC(=O)[O-]
REMARK SMILES IDX 10 1 9 2 11 3 12 4 13 5 14 6 15 7 16 8 17 9 18 10 19 11
REMARK SMILES IDX 20 12 8 13 7 14 6 15 5 16 4 17 3 18 2 19 1 20
REMARK H PARENT
REMARK Flexibility Score: inf
ROOT
ATOM      1  C   UNL     1      61.838  30.272  23.744  1.00  0.00    -0.031 C 
ATOM      2  C   UNL     1      60.877  29.452  23.283  1.00  0.00    -0.031 C 
ENDROOT
BRANCH   1   3
ATOM      3  C   UNL     1      61.796  31.778  23.668  1.00  0.00     0.027 C 
BRANCH   3   4
ATOM      4  C   UNL     1      61.463  32.418  25.027  1.00  0.00     0.004 C 
BRANCH   4   5
ATOM      5  C   UNL     1      61.866  31.566  26.247  1.00  0.00     0.000 C 
BRANCH   5   6
ATOM      6  C   UNL     1      60.733  31.292  27.255  1.00  0.00     0.000 C 
BRANCH   6   7
ATOM      7  C   UNL     1      59.546  30.477  26.703  1.00  0.00     0.000 C 
BRANCH   7   8
ATOM      8  C   UNL     1      59.558  28.982  27.070  1.00  0.00     0.006 C 
BRANCH   8   9
ATOM      9  C   UNL     1      58.795  28.115  26.061  1.00  0.00     0.053 C 
BRANCH   9  10
ATOM     10  C   UNL     1      59.136  26.671  26.251  1.00  0.00     0.041 C 
ATOM     11  O   UNL     1      58.270  25.782  26.040  1.00  0.00    -0.550 OA
ATOM     12  O   UNL     1      60.426  26.303  26.613  1.00  0.00    -0.550 OA
ENDBRANCH   9  10
ENDBRANCH   8   9
ENDBRANCH   7   8
ENDBRANCH   6   7
ENDBRANCH   5   6
ENDBRANCH   4   5
ENDBRANCH   3   4
ENDBRANCH   1   3
BRANCH   2  13
ATOM     13  C   UNL     1      59.555  29.910  22.715  1.00  0.00     0.027 C 
BRANCH  13  14
ATOM     14  C   UNL     1      59.610  30.054  21.186  1.00  0.00     0.004 C 
BRANCH  14  15
ATOM     15  C   UNL     1      59.515  31.522  20.739  1.00  0.00     0.000 C 
BRANCH  15  16
ATOM     16  C   UNL     1      60.759  31.999  19.968  1.00  0.00     0.000 C 
BRANCH  16  17
ATOM     17  C   UNL     1      61.864  30.941  19.789  1.00  0.00    -0.000 C 
BRANCH  17  18
ATOM     18  C   UNL     1      63.207  31.363  20.410  1.00  0.00    -0.000 C 
BRANCH  18  19
ATOM     19  C   UNL     1      64.091  30.160  20.772  1.00  0.00    -0.003 C 
ATOM     20  C   UNL     1      63.401  28.819  20.521  1.00  0.00     0.004 C 
ENDBRANCH  18  19
ENDBRANCH  17  18
ENDBRANCH  16  17
ENDBRANCH  15  16
ENDBRANCH  14  15
ENDBRANCH  13  14
ENDBRANCH   2  13
TORSDOF 15
ENDMDL
MODEL 7
REMARK VINA RESULT:    -4.592      1.251      2.667
REMARK INTER + INTRA:         -11.040
REMARK INTER:                  -8.721
REMARK INTRA:                  -2.319
REMARK UNBOUND:                -2.421
REMARK SMILES CCCCCCCCC=CCCCCCCCC(=O)[O-]
REMARK SMILES IDX 10 1 9 2 11 3 12 4 13 5 14 6 15 7 16 8 17 9 18 10 19 11
REMARK SMILES IDX 20 12 8 13 7 14 6 15 5 16 4 17 3 18 2 19 1 20
REMARK H PARENT
REMARK Flexibility Score: inf
ROOT
ATOM      1  C   UNL     1      58.942  31.855  21.661  1.00  0.00    -0.031 C 
ATOM      2  C   UNL     1      59.306  31.876  20.366  1.00  0.00    -0.031 C 
ENDROOT
BRANCH   1   3
ATOM      3  C   UNL     1      59.768  32.403  22.798  1.00  0.00     0.027 C 
BRANCH   3   4
ATOM      4  C   UNL     1      59.408  31.751  24.143  1.00  0.00     0.004 C 
BRANCH   4   5
ATOM      5  C   UNL     1      58.151  30.858  24.101  1.00  0.00     0.000 C 
BRANCH   5   6
ATOM      6  C   UNL     1      58.066  29.799  25.218  1.00  0.00     0.000 C 
BRANCH   6   7
ATOM      7  C   UNL     1      59.337  28.949  25.415  1.00  0.00     0.000 C 
BRANCH   7   8
ATOM      8  C   UNL     1      59.323  28.038  26.655  1.00  0.00     0.006 C 
BRANCH   8   9
ATOM      9  C   UNL     1      59.001  26.576  26.317  1.00  0.00     0.053 C 
BRANCH   9  10
ATOM     10  C   UNL     1      57.612  26.233  26.753  1.00  0.00     0.041 C 
ATOM     11  O   UNL     1      57.097  26.815  27.744  1.00  0.00    -0.550 OA
ATOM     12  O   UNL     1      56.867  25.307  26.034  1.00  0.00    -0.550 OA
ENDBRANCH   9  10
ENDBRANCH   8   9
ENDBRANCH   7   8
ENDBRANCH   6   7
ENDBRANCH   5   6
ENDBRANCH   4   5
ENDBRANCH   3   4
ENDBRANCH   1   3
BRANCH   2  13
ATOM     13  C   UNL     1      60.548  32.548  19.833  1.00  0.00     0.027 C 
BRANCH  13  14
ATOM     14  C   UNL     1      61.670  31.537  19.557  1.00  0.00     0.004 C 
BRANCH  14  15
ATOM     15  C   UNL     1      62.829  31.670  20.558  1.00  0.00     0.000 C 
BRANCH  15  16
ATOM     16  C   UNL     1      63.803  30.477  20.515  1.00  0.00     0.000 C 
BRANCH  16  17
ATOM     17  C   UNL     1      63.380  29.256  21.352  1.00  0.00    -0.000 C 
BRANCH  17  18
ATOM     18  C   UNL     1      62.468  29.626  22.535  1.00  0.00    -0.000 C 
BRANCH  18  19
ATOM     19  C   UNL     1      61.104  28.923  22.468  1.00  0.00    -0.003 C 
ATOM     20  C   UNL     1      60.809  28.329  21.091  1.00  0.00     0.004 C 
ENDBRANCH  18  19
ENDBRANCH  17  18
ENDBRANCH  16  17
ENDBRANCH  15  16
ENDBRANCH  14  15
ENDBRANCH  13  14
ENDBRANCH   2  13
TORSDOF 15
ENDMDL
MODEL 8
REMARK VINA RESULT:    -4.589      2.443      3.149
REMARK INTER + INTRA:         -11.035
REMARK INTER:                  -8.447
REMARK INTRA:                  -2.587
REMARK UNBOUND:                -2.421
REMARK SMILES CCCCCCCCC=CCCCCCCCC(=O)[O-]
REMARK SMILES IDX 10 1 9 2 11 3 12 4 13 5 14 6 15 7 16 8 17 9 18 10 19 11
REMARK SMILES IDX 20 12 8 13 7 14 6 15 5 16 4 17 3 18 2 19 1 20
REMARK H PARENT
REMARK Flexibility Score: inf
ROOT
ATOM      1  C   UNL     1      59.455  31.877  24.084  1.00  0.00    -0.031 C 
ATOM      2  C   UNL     1      58.411  32.049  23.252  1.00  0.00    -0.031 C 
ENDROOT
BRANCH   1   3
ATOM      3  C   UNL     1      60.863  32.343  23.807  1.00  0.00     0.027 C 
BRANCH   3   4
ATOM      4  C   UNL     1      61.864  31.176  23.778  1.00  0.00     0.004 C 
BRANCH   4   5
ATOM      5  C   UNL     1      61.213  29.781  23.694  1.00  0.00     0.000 C 
BRANCH   5   6
ATOM      6  C   UNL     1      61.985  28.656  24.412  1.00  0.00     0.000 C 
BRANCH   6   7
ATOM      7  C   UNL     1      61.367  28.184  25.744  1.00  0.00     0.000 C 
BRANCH   7   8
ATOM      8  C   UNL     1      61.311  29.254  26.849  1.00  0.00     0.006 C 
BRANCH   8   9
ATOM      9  C   UNL     1      62.694  29.811  27.210  1.00  0.00     0.053 C 
BRANCH   9  10
ATOM     10  C   UNL     1      62.595  31.259  27.570  1.00  0.00     0.041 C 
ATOM     11  O   UNL     1      63.571  31.846  28.108  1.00  0.00    -0.550 OA
ATOM     12  O   UNL     1      61.443  31.974  27.268  1.00  0.00    -0.550 OA
ENDBRANCH   9  10
ENDBRANCH   8   9
ENDBRANCH   7   8
ENDBRANCH   6   7
ENDBRANCH   5   6
ENDBRANCH   4   5
ENDBRANCH   3   4
ENDBRANCH   1   3
BRANCH   2  13
ATOM     13  C   UNL     1      58.460  32.829  21.961  1.00  0.00     0.027 C 
BRANCH  13  14
ATOM     14  C   UNL     1      58.819  31.933  20.766  1.00  0.00     0.004 C 
BRANCH  14  15
ATOM     15  C   UNL     1      60.004  32.490  19.960  1.00  0.00     0.000 C 
BRANCH  15  16
ATOM     16  C   UNL     1      61.300  31.683  20.158  1.00  0.00     0.000 C 
BRANCH  16  17
ATOM     17  C   UNL     1      61.126  30.152  20.149  1.00  0.00    -0.000 C 
BRANCH  17  18
ATOM     18  C   UNL     1      62.359  29.411  19.604  1.00  0.00    -0.000 C 
BRANCH  18  19
ATOM     19  C   UNL     1      63.331  28.990  20.717  1.00  0.00    -0.003 C 
ATOM     20  C   UNL     1      64.343  30.082  21.065  1.00  0.00     0.004 C 
ENDBRANCH  18  19
ENDBRANCH  17  18
ENDBRANCH  16  17
ENDBRANCH  15  16
ENDBRANCH  14  15
ENDBRANCH  13  14
ENDBRANCH   2  13
TORSDOF 15
ENDMDL
MODEL 9
REMARK VINA RESULT:    -4.474      1.722      4.999
REMARK INTER + INTRA:         -10.818
REMARK INTER:                  -8.407
REMARK INTRA:                  -2.411
REMARK UNBOUND:                -2.421
REMARK SMILES CCCCCCCCC=CCCCCCCCC(=O)[O-]
REMARK SMILES IDX 10 1 9 2 11 3 12 4 13 5 14 6 15 7 16 8 17 9 18 10 19 11
REMARK SMILES IDX 20 12 8 13 7 14 6 15 5 16 4 17 3 18 2 19 1 20
REMARK H PARENT
REMARK Flexibility Score: inf
ROOT
ATOM      1  C   UNL     1      62.780  31.655  20.822  1.00  0.00    -0.031 C 
ATOM      2  C   UNL     1      63.297  30.718  21.638  1.00  0.00    -0.031 C 
ENDROOT
BRANCH   1   3
ATOM      3  C   UNL     1      61.857  31.374  19.662  1.00  0.00     0.027 C 
BRANCH   3   4
ATOM      4  C   UNL     1      60.684  32.366  19.602  1.00  0.00     0.004 C 
BRANCH   4   5
ATOM      5  C   UNL     1      59.491  31.996  20.506  1.00  0.00     0.000 C 
BRANCH   5   6
ATOM      6  C   UNL     1      59.521  32.620  21.915  1.00  0.00     0.000 C 
BRANCH   6   7
ATOM      7  C   UNL     1      58.159  32.685  22.634  1.00  0.00     0.000 C 
BRANCH   7   8
ATOM      8  C   UNL     1      58.124  32.018  24.021  1.00  0.00     0.006 C 
BRANCH   8   9
ATOM      9  C   UNL     1      57.995  30.491  23.944  1.00  0.00     0.053 C 
BRANCH   9  10
ATOM     10  C   UNL     1      57.601  29.933  25.275  1.00  0.00     0.041 C 
ATOM     11  O   UNL     1      56.618  30.413  25.897  1.00  0.00    -0.550 OA
ATOM     12  O   UNL     1      58.290  28.849  25.805  1.00  0.00    -0.550 OA
ENDBRANCH   9  10
ENDBRANCH   8   9
ENDBRANCH   7   8
ENDBRANCH   6   7
ENDBRANCH   5   6
ENDBRANCH   4   5
ENDBRANCH   3   4
ENDBRANCH   1   3
BRANCH   2  13
ATOM     13  C   UNL     1      62.951  29.250  21.588  1.00  0.00     0.027 C 
BRANCH  13  14
ATOM     14  C   UNL     1      61.486  28.996  21.975  1.00  0.00     0.004 C 
BRANCH  14  15
ATOM     15  C   UNL     1      61.149  29.554  23.367  1.00  0.00     0.000 C 
BRANCH  15  16
ATOM     16  C   UNL     1      61.922  28.853  24.500  1.00  0.00     0.000 C 
BRANCH  16  17
ATOM     17  C   UNL     1      61.838  29.544  25.874  1.00  0.00    -0.000 C 
BRANCH  17  18
ATOM     18  C   UNL     1      61.199  30.942  25.805  1.00  0.00    -0.000 C 
BRANCH  18  19
ATOM     19  C   UNL     1      62.246  32.065  25.733  1.00  0.00    -0.003 C 
ATOM     20  C   UNL     1      61.907  33.125  24.685  1.00  0.00     0.004 C 
ENDBRANCH  18  19
ENDBRANCH  17  18
ENDBRANCH  16  17
ENDBRANCH  15  16
ENDBRANCH  14  15
ENDBRANCH  13  14
ENDBRANCH   2  13
TORSDOF 15
ENDMDL
