MODEL 1
REMARK VINA RESULT:    -3.691      0.000      0.000
REMARK INTER + INTRA:          -3.691
REMARK INTER:                  -3.691
REMARK INTRA:                   0.000
REMARK UNBOUND:                 0.000
REMARK SMILES CC1(C)O[C@]2(C)CC[C@H]1CC2
REMARK SMILES IDX 1 1 2 2 9 3 8 4 7 5 5 6 4 7 11 8 10 9 6 10 3 11
REMARK H PARENT
REMARK Flexibility Score: inf
ROOT
ATOM      1  C   UNL     1       8.636   1.198  -2.278  1.00  0.00     0.042 C 
ATOM      2  C   UNL     1       7.854   2.362  -1.630  1.00  0.00     0.066 C 
ATOM      3  C   UNL     1       6.307   2.210  -1.899  1.00  0.00     0.021 C 
ATOM      4  C   UNL     1       5.570   3.369  -1.185  1.00  0.00     0.009 C 
ATOM      5  C   UNL     1       6.021   3.423   0.294  1.00  0.00     0.035 C 
ATOM      6  C   UNL     1       6.989   2.243   0.594  1.00  0.00     0.066 C 
ATOM      7  O   UNL     1       8.151   2.371  -0.226  1.00  0.00    -0.369 OA
ATOM      8  C   UNL     1       6.273   0.903   0.260  1.00  0.00     0.035 C 
ATOM      9  C   UNL     1       5.817   0.908  -1.220  1.00  0.00     0.009 C 
ATOM     10  C   UNL     1       7.417   2.265   2.065  1.00  0.00     0.042 C 
ATOM     11  C   UNL     1       8.389   3.674  -2.243  1.00  0.00     0.042 C 
ENDROOT
TORSDOF 0
ENDMDL
MODEL 2
REMARK VINA RESULT:    -3.614      1.318      3.134
REMARK INTER + INTRA:          -3.614
REMARK INTER:                  -3.614
REMARK INTRA:                   0.000
REMARK UNBOUND:                 0.000
REMARK SMILES CC1(C)O[C@]2(C)CC[C@H]1CC2
REMARK SMILES IDX 1 1 2 2 9 3 8 4 7 5 5 6 4 7 11 8 10 9 6 10 3 11
REMARK H PARENT
REMARK Flexibility Score: inf
ROOT
ATOM      1  C   UNL     1       7.520   0.071  -1.948  1.00  0.00     0.042 C 
ATOM      2  C   UNL     1       6.684   1.008  -1.049  1.00  0.00     0.066 C 
ATOM      3  C   UNL     1       7.600   1.712   0.026  1.00  0.00     0.021 C 
ATOM      4  C   UNL     1       6.722   2.675   0.862  1.00  0.00     0.009 C 
ATOM      5  C   UNL     1       5.929   3.598  -0.094  1.00  0.00     0.035 C 
ATOM      6  C   UNL     1       6.345   3.316  -1.566  1.00  0.00     0.066 C 
ATOM      7  O   UNL     1       6.023   1.963  -1.892  1.00  0.00    -0.369 OA
ATOM      8  C   UNL     1       7.880   3.525  -1.707  1.00  0.00     0.035 C 
ATOM      9  C   UNL     1       8.627   2.602  -0.713  1.00  0.00     0.009 C 
ATOM     10  C   UNL     1       5.591   4.247  -2.521  1.00  0.00     0.042 C 
ATOM     11  C   UNL     1       5.603   0.144  -0.364  1.00  0.00     0.042 C 
ENDROOT
TORSDOF 0
ENDMDL
MODEL 3
REMARK VINA RESULT:    -3.602      1.280      2.419
REMARK INTER + INTRA:          -3.602
REMARK INTER:                  -3.602
REMARK INTRA:                   0.000
REMARK UNBOUND:                 0.000
REMARK SMILES CC1(C)O[C@]2(C)CC[C@H]1CC2
REMARK SMILES IDX 1 1 2 2 9 3 8 4 7 5 5 6 4 7 11 8 10 9 6 10 3 11
REMARK H PARENT
REMARK Flexibility Score: inf
ROOT
ATOM      1  C   UNL     1       6.953   3.368  -2.365  1.00  0.00     0.042 C 
ATOM      2  C   UNL     1       7.538   2.725  -1.088  1.00  0.00     0.066 C 
ATOM      3  C   UNL     1       6.719   3.169   0.184  1.00  0.00     0.021 C 
ATOM      4  C   UNL     1       7.315   2.457   1.423  1.00  0.00     0.009 C 
ATOM      5  C   UNL     1       7.401   0.937   1.142  1.00  0.00     0.035 C 
ATOM      6  C   UNL     1       6.778   0.622  -0.248  1.00  0.00     0.066 C 
ATOM      7  O   UNL     1       7.524   1.301  -1.260  1.00  0.00    -0.369 OA
ATOM      8  C   UNL     1       5.308   1.128  -0.270  1.00  0.00     0.035 C 
ATOM      9  C   UNL     1       5.270   2.644   0.043  1.00  0.00     0.009 C 
ATOM     10  C   UNL     1       6.827  -0.885  -0.524  1.00  0.00     0.042 C 
ATOM     11  C   UNL     1       9.009   3.180  -0.978  1.00  0.00     0.042 C 
ENDROOT
TORSDOF 0
ENDMDL
MODEL 4
REMARK VINA RESULT:    -3.597      0.908      3.147
REMARK INTER + INTRA:          -3.597
REMARK INTER:                  -3.597
REMARK INTRA:                   0.000
REMARK UNBOUND:                 0.000
REMARK SMILES CC1(C)O[C@]2(C)CC[C@H]1CC2
REMARK SMILES IDX 1 1 2 2 9 3 8 4 7 5 5 6 4 7 11 8 10 9 6 10 3 11
REMARK H PARENT
REMARK Flexibility Score: inf
ROOT
ATOM      1  C   UNL     1       7.472   2.222   1.800  1.00  0.00     0.042 C 
ATOM      2  C   UNL     1       7.336   1.580   0.401  1.00  0.00     0.066 C 
ATOM      3  C   UNL     1       5.818   1.371   0.031  1.00  0.00     0.021 C 
ATOM      4  C   UNL     1       5.740   0.774  -1.396  1.00  0.00     0.009 C 
ATOM      5  C   UNL     1       6.581   1.647  -2.358  1.00  0.00     0.035 C 
ATOM      6  C   UNL     1       7.146   2.880  -1.594  1.00  0.00     0.066 C 
ATOM      7  O   UNL     1       8.004   2.427  -0.545  1.00  0.00    -0.369 OA
ATOM      8  C   UNL     1       5.963   3.679  -0.978  1.00  0.00     0.035 C 
ATOM      9  C   UNL     1       5.136   2.758  -0.047  1.00  0.00     0.009 C 
ATOM     10  C   UNL     1       7.953   3.771  -2.544  1.00  0.00     0.042 C 
ATOM     11  C   UNL     1       8.080   0.228   0.443  1.00  0.00     0.042 C 
ENDROOT
TORSDOF 0
ENDMDL
MODEL 5
REMARK VINA RESULT:    -3.448      1.122      3.073
REMARK INTER + INTRA:          -3.448
REMARK INTER:                  -3.448
REMARK INTRA:                   0.000
REMARK UNBOUND:                 0.000
REMARK SMILES CC1(C)O[C@]2(C)CC[C@H]1CC2
REMARK SMILES IDX 1 1 2 2 9 3 8 4 7 5 5 6 4 7 11 8 10 9 6 10 3 11
REMARK H PARENT
REMARK Flexibility Score: inf
ROOT
ATOM      1  C   UNL     1       9.065   3.406  -1.022  1.00  0.00     0.042 C 
ATOM      2  C   UNL     1       8.209   2.128  -0.886  1.00  0.00     0.066 C 
ATOM      3  C   UNL     1       7.187   2.268   0.308  1.00  0.00     0.021 C 
ATOM      4  C   UNL     1       6.323   0.984   0.364  1.00  0.00     0.009 C 
ATOM      5  C   UNL     1       5.728   0.710  -1.038  1.00  0.00     0.035 C 
ATOM      6  C   UNL     1       6.118   1.860  -2.011  1.00  0.00     0.066 C 
ATOM      7  O   UNL     1       7.540   1.905  -2.136  1.00  0.00    -0.369 OA
ATOM      8  C   UNL     1       5.614   3.210  -1.425  1.00  0.00     0.035 C 
ATOM      9  C   UNL     1       6.213   3.426  -0.014  1.00  0.00     0.009 C 
ATOM     10  C   UNL     1       5.507   1.618  -3.394  1.00  0.00     0.042 C 
ATOM     11  C   UNL     1       9.176   0.950  -0.642  1.00  0.00     0.042 C 
ENDROOT
TORSDOF 0
ENDMDL
MODEL 6
REMARK VINA RESULT:    -3.339      0.998      2.197
REMARK INTER + INTRA:          -3.339
REMARK INTER:                  -3.339
REMARK INTRA:                   0.000
REMARK UNBOUND:                 0.000
REMARK SMILES CC1(C)O[C@]2(C)CC[C@H]1CC2
REMARK SMILES IDX 1 1 2 2 9 3 8 4 7 5 5 6 4 7 11 8 10 9 6 10 3 11
REMARK H PARENT
REMARK Flexibility Score: inf
ROOT
ATOM      1  C   UNL     1       5.420   0.188  -1.889  1.00  0.00     0.042 C 
ATOM      2  C   UNL     1       6.750   0.952  -1.706  1.00  0.00     0.066 C 
ATOM      3  C   UNL     1       6.606   2.444  -2.200  1.00  0.00     0.021 C 
ATOM      4  C   UNL     1       7.947   3.174  -1.945  1.00  0.00     0.009 C 
ATOM      5  C   UNL     1       8.370   2.963  -0.472  1.00  0.00     0.035 C 
ATOM      6  C   UNL     1       7.266   2.168   0.285  1.00  0.00     0.066 C 
ATOM      7  O   UNL     1       7.117   0.883  -0.321  1.00  0.00    -0.369 OA
ATOM      8  C   UNL     1       5.922   2.943   0.177  1.00  0.00     0.035 C 
ATOM      9  C   UNL     1       5.556   3.154  -1.312  1.00  0.00     0.009 C 
ATOM     10  C   UNL     1       7.657   1.981   1.754  1.00  0.00     0.042 C 
ATOM     11  C   UNL     1       7.825   0.207  -2.525  1.00  0.00     0.042 C 
ENDROOT
TORSDOF 0
ENDMDL
MODEL 7
REMARK VINA RESULT:    -3.295      1.165      3.383
REMARK INTER + INTRA:          -3.295
REMARK INTER:                  -3.295
REMARK INTRA:                   0.000
REMARK UNBOUND:                 0.000
REMARK SMILES CC1(C)O[C@]2(C)CC[C@H]1CC2
REMARK SMILES IDX 1 1 2 2 9 3 8 4 7 5 5 6 4 7 11 8 10 9 6 10 3 11
REMARK H PARENT
REMARK Flexibility Score: inf
ROOT
ATOM      1  C   UNL     1       5.272   3.028  -0.014  1.00  0.00     0.042 C 
ATOM      2  C   UNL     1       6.396   2.194  -0.667  1.00  0.00     0.066 C 
ATOM      3  C   UNL     1       6.012   1.803  -2.146  1.00  0.00     0.021 C 
ATOM      4  C   UNL     1       7.192   1.016  -2.765  1.00  0.00     0.009 C 
ATOM      5  C   UNL     1       8.499   1.823  -2.572  1.00  0.00     0.035 C 
ATOM      6  C   UNL     1       8.179   3.192  -1.906  1.00  0.00     0.066 C 
ATOM      7  O   UNL     1       7.607   2.962  -0.617  1.00  0.00    -0.369 OA
ATOM      8  C   UNL     1       7.154   3.958  -2.790  1.00  0.00     0.035 C 
ATOM      9  C   UNL     1       5.879   3.100  -2.977  1.00  0.00     0.009 C 
ATOM     10  C   UNL     1       9.460   4.015  -1.739  1.00  0.00     0.042 C 
ATOM     11  C   UNL     1       6.593   0.932   0.200  1.00  0.00     0.042 C 
ENDROOT
TORSDOF 0
ENDMDL
MODEL 8
REMARK VINA RESULT:    -3.294      2.299      3.669
REMARK INTER + INTRA:          -3.294
REMARK INTER:                  -3.294
REMARK INTRA:                   0.000
REMARK UNBOUND:                 0.000
REMARK SMILES CC1(C)O[C@]2(C)CC[C@H]1CC2
REMARK SMILES IDX 1 1 2 2 9 3 8 4 7 5 5 6 4 7 11 8 10 9 6 10 3 11
REMARK H PARENT
REMARK Flexibility Score: inf
ROOT
ATOM      1  C   UNL     1       5.924   5.934  -3.777  1.00  0.00     0.042 C 
ATOM      2  C   UNL     1       5.475   4.497  -3.431  1.00  0.00     0.066 C 
ATOM      3  C   UNL     1       6.469   3.440  -4.051  1.00  0.00     0.021 C 
ATOM      4  C   UNL     1       6.002   2.025  -3.631  1.00  0.00     0.009 C 
ATOM      5  C   UNL     1       5.809   1.988  -2.096  1.00  0.00     0.035 C 
ATOM      6  C   UNL     1       6.236   3.351  -1.478  1.00  0.00     0.066 C 
ATOM      7  O   UNL     1       5.401   4.384  -2.003  1.00  0.00    -0.369 OA
ATOM      8  C   UNL     1       7.714   3.641  -1.866  1.00  0.00     0.035 C 
ATOM      9  C   UNL     1       7.862   3.640  -3.407  1.00  0.00     0.009 C 
ATOM     10  C   UNL     1       6.082   3.316   0.046  1.00  0.00     0.042 C 
ATOM     11  C   UNL     1       4.053   4.310  -4.002  1.00  0.00     0.042 C 
ENDROOT
TORSDOF 0
ENDMDL
MODEL 9
REMARK VINA RESULT:    -3.157      1.527      2.096
REMARK INTER + INTRA:          -3.157
REMARK INTER:                  -3.157
REMARK INTRA:                   0.000
REMARK UNBOUND:                 0.000
REMARK SMILES CC1(C)O[C@]2(C)CC[C@H]1CC2
REMARK SMILES IDX 1 1 2 2 9 3 8 4 7 5 5 6 4 7 11 8 10 9 6 10 3 11
REMARK H PARENT
REMARK Flexibility Score: inf
ROOT
ATOM      1  C   UNL     1       9.508   1.715  -1.533  1.00  0.00     0.042 C 
ATOM      2  C   UNL     1       8.578   2.916  -1.815  1.00  0.00     0.066 C 
ATOM      3  C   UNL     1       7.891   2.766  -3.227  1.00  0.00     0.021 C 
ATOM      4  C   UNL     1       6.934   3.966  -3.435  1.00  0.00     0.009 C 
ATOM      5  C   UNL     1       5.997   4.087  -2.209  1.00  0.00     0.035 C 
ATOM      6  C   UNL     1       6.264   2.912  -1.224  1.00  0.00     0.066 C 
ATOM      7  O   UNL     1       7.612   2.990  -0.758  1.00  0.00    -0.369 OA
ATOM      8  C   UNL     1       6.059   1.566  -1.974  1.00  0.00     0.035 C 
ATOM      9  C   UNL     1       6.996   1.504  -3.205  1.00  0.00     0.009 C 
ATOM     10  C   UNL     1       5.319   3.002  -0.021  1.00  0.00     0.042 C 
ATOM     11  C   UNL     1       9.446   4.192  -1.763  1.00  0.00     0.042 C 
ENDROOT
TORSDOF 0
ENDMDL
