MODEL 1
REMARK VINA RESULT:    -4.788      0.000      0.000
REMARK INTER + INTRA:          -5.068
REMARK INTER:                  -5.068
REMARK INTRA:                   0.000
REMARK UNBOUND:                 0.000
REMARK SMILES O=c1ccc2cc(O)c(O)cc2o1
REMARK SMILES IDX 4 1 3 2 2 3 1 4 13 5 12 6 11 7 9 8 7 9 6 10 5 11 8 12 10 14
REMARK H PARENT 8 13 10 15
REMARK Flexibility Score: inf
ROOT
ATOM      1  C   UNL     1     -13.561 -22.273  12.996  1.00  0.00     0.019 A 
ATOM      2  C   UNL     1     -12.479 -21.672  13.639  1.00  0.00     0.094 A 
ATOM      3  C   UNL     1     -12.582 -20.333  14.029  1.00  0.00     0.336 A 
ATOM      4  O   UNL     1     -11.616 -19.772  14.610  1.00  0.00    -0.246 OA
ATOM      5  O   UNL     1     -13.696 -19.645  13.791  1.00  0.00    -0.423 OA
ATOM      6  C   UNL     1     -14.751 -20.181  13.182  1.00  0.00     0.142 A 
ATOM      7  C   UNL     1     -15.896 -19.409  12.958  1.00  0.00     0.098 A 
ATOM      8  C   UNL     1     -17.011 -19.968  12.316  1.00  0.00     0.161 A 
ATOM      9  C   UNL     1     -16.978 -21.310  11.895  1.00  0.00     0.158 A 
ATOM     10  C   UNL     1     -15.834 -22.085  12.118  1.00  0.00     0.062 A 
ATOM     11  C   UNL     1     -14.720 -21.527  12.759  1.00  0.00     0.022 A 
ENDROOT
BRANCH   9  12
ATOM     12  O   UNL     1     -18.073 -21.890  11.255  1.00  0.00    -0.504 OA
ATOM     13  H   UNL     1     -18.075 -22.083  10.261  1.00  0.00     0.293 HD
ENDBRANCH   9  12
BRANCH   8  14
ATOM     14  O   UNL     1     -18.150 -19.195  12.095  1.00  0.00    -0.504 OA
ATOM     15  H   UNL     1     -18.179 -18.489  11.368  1.00  0.00     0.293 HD
ENDBRANCH   8  14
TORSDOF 2
ENDMDL
MODEL 2
REMARK VINA RESULT:    -4.748      2.306      2.760
REMARK INTER + INTRA:          -5.025
REMARK INTER:                  -5.025
REMARK INTRA:                   0.000
REMARK UNBOUND:                 0.000
REMARK SMILES O=c1ccc2cc(O)c(O)cc2o1
REMARK SMILES IDX 4 1 3 2 2 3 1 4 13 5 12 6 11 7 9 8 7 9 6 10 5 11 8 12 10 14
REMARK H PARENT 8 13 10 15
REMARK Flexibility Score: inf
ROOT
ATOM      1  C   UNL     1     -16.197 -19.144  14.588  1.00  0.00     0.019 A 
ATOM      2  C   UNL     1     -15.191 -18.191  14.742  1.00  0.00     0.094 A 
ATOM      3  C   UNL     1     -14.294 -17.977  13.690  1.00  0.00     0.336 A 
ATOM      4  O   UNL     1     -13.378 -17.121  13.810  1.00  0.00    -0.246 OA
ATOM      5  O   UNL     1     -14.400 -18.673  12.561  1.00  0.00    -0.423 OA
ATOM      6  C   UNL     1     -15.346 -19.590  12.372  1.00  0.00     0.142 A 
ATOM      7  C   UNL     1     -15.410 -20.290  11.164  1.00  0.00     0.098 A 
ATOM      8  C   UNL     1     -16.404 -21.259  10.959  1.00  0.00     0.161 A 
ATOM      9  C   UNL     1     -17.341 -21.528  11.974  1.00  0.00     0.158 A 
ATOM     10  C   UNL     1     -17.279 -20.827  13.185  1.00  0.00     0.062 A 
ATOM     11  C   UNL     1     -16.286 -19.860  13.389  1.00  0.00     0.022 A 
ENDROOT
BRANCH   9  12
ATOM     12  O   UNL     1     -18.339 -22.485  11.797  1.00  0.00    -0.504 OA
ATOM     13  H   UNL     1     -18.615 -23.118  12.537  1.00  0.00     0.293 HD
ENDBRANCH   9  12
BRANCH   8  14
ATOM     14  O   UNL     1     -16.464 -21.955   9.753  1.00  0.00    -0.504 OA
ATOM     15  H   UNL     1     -15.758 -21.834   9.035  1.00  0.00     0.293 HD
ENDBRANCH   8  14
TORSDOF 2
ENDMDL
MODEL 3
REMARK VINA RESULT:    -4.563      1.002      2.256
REMARK INTER + INTRA:          -4.830
REMARK INTER:                  -4.830
REMARK INTRA:                   0.000
REMARK UNBOUND:                 0.000
REMARK SMILES O=c1ccc2cc(O)c(O)cc2o1
REMARK SMILES IDX 4 1 3 2 2 3 1 4 13 5 12 6 11 7 9 8 7 9 6 10 5 11 8 12 10 14
REMARK H PARENT 8 13 10 15
REMARK Flexibility Score: inf
ROOT
ATOM      1  C   UNL     1     -13.842 -18.869  14.133  1.00  0.00     0.019 A 
ATOM      2  C   UNL     1     -12.640 -19.510  14.430  1.00  0.00     0.094 A 
ATOM      3  C   UNL     1     -12.455 -20.832  14.010  1.00  0.00     0.336 A 
ATOM      4  O   UNL     1     -11.377 -21.428  14.269  1.00  0.00    -0.246 OA
ATOM      5  O   UNL     1     -13.413 -21.465  13.337  1.00  0.00    -0.423 OA
ATOM      6  C   UNL     1     -14.573 -20.890  13.033  1.00  0.00     0.142 A 
ATOM      7  C   UNL     1     -15.543 -21.605  12.323  1.00  0.00     0.098 A 
ATOM      8  C   UNL     1     -16.769 -21.004  12.000  1.00  0.00     0.161 A 
ATOM      9  C   UNL     1     -17.025 -19.677  12.391  1.00  0.00     0.158 A 
ATOM     10  C   UNL     1     -16.055 -18.959  13.101  1.00  0.00     0.062 A 
ATOM     11  C   UNL     1     -14.831 -19.559  13.424  1.00  0.00     0.022 A 
ENDROOT
BRANCH   9  12
ATOM     12  O   UNL     1     -18.234 -19.056  12.082  1.00  0.00    -0.504 OA
ATOM     13  H   UNL     1     -19.113 -19.358  12.486  1.00  0.00     0.293 HD
ENDBRANCH   9  12
BRANCH   8  14
ATOM     14  O   UNL     1     -17.733 -21.720  11.293  1.00  0.00    -0.504 OA
ATOM     15  H   UNL     1     -18.446 -21.252  10.744  1.00  0.00     0.293 HD
ENDBRANCH   8  14
TORSDOF 2
ENDMDL
MODEL 4
REMARK VINA RESULT:    -4.376      3.283      5.530
REMARK INTER + INTRA:          -4.632
REMARK INTER:                  -4.632
REMARK INTRA:                   0.000
REMARK UNBOUND:                 0.000
REMARK SMILES O=c1ccc2cc(O)c(O)cc2o1
REMARK SMILES IDX 4 1 3 2 2 3 1 4 13 5 12 6 11 7 9 8 7 9 6 10 5 11 8 12 10 14
REMARK H PARENT 8 13 10 15
REMARK Flexibility Score: inf
ROOT
ATOM      1  C   UNL     1     -15.337 -15.425  12.316  1.00  0.00     0.019 A 
ATOM      2  C   UNL     1     -15.753 -15.052  11.039  1.00  0.00     0.094 A 
ATOM      3  C   UNL     1     -16.570 -15.924  10.311  1.00  0.00     0.336 A 
ATOM      4  O   UNL     1     -16.956 -15.606   9.156  1.00  0.00    -0.246 OA
ATOM      5  O   UNL     1     -16.943 -17.090  10.832  1.00  0.00    -0.423 OA
ATOM      6  C   UNL     1     -16.569 -17.484  12.047  1.00  0.00     0.142 A 
ATOM      7  C   UNL     1     -16.993 -18.721  12.542  1.00  0.00     0.098 A 
ATOM      8  C   UNL     1     -16.601 -19.141  13.822  1.00  0.00     0.161 A 
ATOM      9  C   UNL     1     -15.779 -18.316  14.611  1.00  0.00     0.158 A 
ATOM     10  C   UNL     1     -15.354 -17.077  14.118  1.00  0.00     0.062 A 
ATOM     11  C   UNL     1     -15.744 -16.657  12.839  1.00  0.00     0.022 A 
ENDROOT
BRANCH   9  12
ATOM     12  O   UNL     1     -15.376 -18.710  15.886  1.00  0.00    -0.504 OA
ATOM     13  H   UNL     1     -14.400 -18.834  16.128  1.00  0.00     0.293 HD
ENDBRANCH   9  12
BRANCH   8  14
ATOM     14  O   UNL     1     -17.025 -20.375  14.313  1.00  0.00    -0.504 OA
ATOM     15  H   UNL     1     -16.372 -21.132  14.482  1.00  0.00     0.293 HD
ENDBRANCH   8  14
TORSDOF 2
ENDMDL
MODEL 5
REMARK VINA RESULT:    -4.372      8.701     11.495
REMARK INTER + INTRA:          -4.628
REMARK INTER:                  -4.628
REMARK INTRA:                   0.000
REMARK UNBOUND:                 0.000
REMARK SMILES O=c1ccc2cc(O)c(O)cc2o1
REMARK SMILES IDX 4 1 3 2 2 3 1 4 13 5 12 6 11 7 9 8 7 9 6 10 5 11 8 12 10 14
REMARK H PARENT 8 13 10 15
REMARK Flexibility Score: inf
ROOT
ATOM      1  C   UNL     1     -10.213 -14.246  16.790  1.00  0.00     0.019 A 
ATOM      2  C   UNL     1     -10.008 -15.622  16.877  1.00  0.00     0.094 A 
ATOM      3  C   UNL     1      -8.705 -16.103  17.043  1.00  0.00     0.336 A 
ATOM      4  O   UNL     1      -8.498 -17.343  17.124  1.00  0.00    -0.246 OA
ATOM      5  O   UNL     1      -7.679 -15.259  17.116  1.00  0.00    -0.423 OA
ATOM      6  C   UNL     1      -7.831 -13.939  17.038  1.00  0.00     0.142 A 
ATOM      7  C   UNL     1      -6.715 -13.100  17.121  1.00  0.00     0.098 A 
ATOM      8  C   UNL     1      -6.870 -11.708  17.039  1.00  0.00     0.161 A 
ATOM      9  C   UNL     1      -8.152 -11.153  16.872  1.00  0.00     0.158 A 
ATOM     10  C   UNL     1      -9.271 -11.991  16.789  1.00  0.00     0.062 A 
ATOM     11  C   UNL     1      -9.117 -13.381  16.870  1.00  0.00     0.022 A 
ENDROOT
BRANCH   9  12
ATOM     12  O   UNL     1      -8.333  -9.773  16.788  1.00  0.00    -0.504 OA
ATOM     13  H   UNL     1      -8.673  -9.325  15.945  1.00  0.00     0.293 HD
ENDBRANCH   9  12
BRANCH   8  14
ATOM     14  O   UNL     1      -5.756 -10.875  17.123  1.00  0.00    -0.504 OA
ATOM     15  H   UNL     1      -4.965 -11.104  17.716  1.00  0.00     0.293 HD
ENDBRANCH   8  14
TORSDOF 2
ENDMDL
MODEL 6
REMARK VINA RESULT:    -4.285      2.075      4.373
REMARK INTER + INTRA:          -4.535
REMARK INTER:                  -4.535
REMARK INTRA:                   0.000
REMARK UNBOUND:                 0.000
REMARK SMILES O=c1ccc2cc(O)c(O)cc2o1
REMARK SMILES IDX 4 1 3 2 2 3 1 4 13 5 12 6 11 7 9 8 7 9 6 10 5 11 8 12 10 14
REMARK H PARENT 8 13 10 15
REMARK Flexibility Score: inf
ROOT
ATOM      1  C   UNL     1     -16.936 -20.568  12.339  1.00  0.00     0.019 A 
ATOM      2  C   UNL     1     -16.605 -21.164  11.122  1.00  0.00     0.094 A 
ATOM      3  C   UNL     1     -15.256 -21.267  10.764  1.00  0.00     0.336 A 
ATOM      4  O   UNL     1     -14.936 -21.801   9.669  1.00  0.00    -0.246 OA
ATOM      5  O   UNL     1     -14.306 -20.803  11.572  1.00  0.00    -0.423 OA
ATOM      6  C   UNL     1     -14.580 -20.229  12.742  1.00  0.00     0.142 A 
ATOM      7  C   UNL     1     -13.540 -19.761  13.550  1.00  0.00     0.098 A 
ATOM      8  C   UNL     1     -13.821 -19.154  14.783  1.00  0.00     0.161 A 
ATOM      9  C   UNL     1     -15.155 -19.016  15.209  1.00  0.00     0.158 A 
ATOM     10  C   UNL     1     -16.198 -19.485  14.402  1.00  0.00     0.062 A 
ATOM     11  C   UNL     1     -15.917 -20.090  13.169  1.00  0.00     0.022 A 
ENDROOT
BRANCH   9  12
ATOM     12  O   UNL     1     -15.463 -18.417  16.430  1.00  0.00    -0.504 OA
ATOM     13  H   UNL     1     -15.513 -17.412  16.539  1.00  0.00     0.293 HD
ENDBRANCH   9  12
BRANCH   8  14
ATOM     14  O   UNL     1     -12.782 -18.688  15.587  1.00  0.00    -0.504 OA
ATOM     15  H   UNL     1     -12.233 -17.876  15.327  1.00  0.00     0.293 HD
ENDBRANCH   8  14
TORSDOF 2
ENDMDL
MODEL 7
REMARK VINA RESULT:    -4.258      2.323      3.362
REMARK INTER + INTRA:          -4.507
REMARK INTER:                  -4.507
REMARK INTRA:                   0.000
REMARK UNBOUND:                 0.000
REMARK SMILES O=c1ccc2cc(O)c(O)cc2o1
REMARK SMILES IDX 4 1 3 2 2 3 1 4 13 5 12 6 11 7 9 8 7 9 6 10 5 11 8 12 10 14
REMARK H PARENT 8 13 10 15
REMARK Flexibility Score: inf
ROOT
ATOM      1  C   UNL     1     -13.615 -18.301  13.119  1.00  0.00     0.019 A 
ATOM      2  C   UNL     1     -13.934 -16.967  13.372  1.00  0.00     0.094 A 
ATOM      3  C   UNL     1     -15.278 -16.608  13.516  1.00  0.00     0.336 A 
ATOM      4  O   UNL     1     -15.587 -15.409  13.745  1.00  0.00    -0.246 OA
ATOM      5  O   UNL     1     -16.236 -17.526  13.413  1.00  0.00    -0.423 OA
ATOM      6  C   UNL     1     -15.975 -18.809  13.173  1.00  0.00     0.142 A 
ATOM      7  C   UNL     1     -17.023 -19.729  13.075  1.00  0.00     0.098 A 
ATOM      8  C   UNL     1     -16.754 -21.083  12.822  1.00  0.00     0.161 A 
ATOM      9  C   UNL     1     -15.425 -21.516  12.666  1.00  0.00     0.158 A 
ATOM     10  C   UNL     1     -14.373 -20.597  12.764  1.00  0.00     0.062 A 
ATOM     11  C   UNL     1     -14.642 -19.245  13.016  1.00  0.00     0.022 A 
ENDROOT
BRANCH   9  12
ATOM     12  O   UNL     1     -15.129 -22.855  12.414  1.00  0.00    -0.504 OA
ATOM     13  H   UNL     1     -15.441 -23.600  13.026  1.00  0.00     0.293 HD
ENDBRANCH   9  12
BRANCH   8  14
ATOM     14  O   UNL     1     -17.801 -21.997  12.725  1.00  0.00    -0.504 OA
ATOM     15  H   UNL     1     -18.019 -22.464  11.852  1.00  0.00     0.293 HD
ENDBRANCH   8  14
TORSDOF 2
ENDMDL
MODEL 8
REMARK VINA RESULT:    -4.255      1.738      4.813
REMARK INTER + INTRA:          -4.504
REMARK INTER:                  -4.504
REMARK INTRA:                   0.000
REMARK UNBOUND:                 0.000
REMARK SMILES O=c1ccc2cc(O)c(O)cc2o1
REMARK SMILES IDX 4 1 3 2 2 3 1 4 13 5 12 6 11 7 9 8 7 9 6 10 5 11 8 12 10 14
REMARK H PARENT 8 13 10 15
REMARK Flexibility Score: inf
ROOT
ATOM      1  C   UNL     1     -14.603 -18.744  14.436  1.00  0.00     0.019 A 
ATOM      2  C   UNL     1     -15.883 -18.411  13.994  1.00  0.00     0.094 A 
ATOM      3  C   UNL     1     -16.487 -19.203  13.013  1.00  0.00     0.336 A 
ATOM      4  O   UNL     1     -17.643 -18.919  12.600  1.00  0.00    -0.246 OA
ATOM      5  O   UNL     1     -15.850 -20.258  12.509  1.00  0.00    -0.423 OA
ATOM      6  C   UNL     1     -14.629 -20.610  12.904  1.00  0.00     0.142 A 
ATOM      7  C   UNL     1     -14.008 -21.729  12.339  1.00  0.00     0.098 A 
ATOM      8  C   UNL     1     -12.721 -22.105  12.750  1.00  0.00     0.161 A 
ATOM      9  C   UNL     1     -12.051 -21.355  13.734  1.00  0.00     0.158 A 
ATOM     10  C   UNL     1     -12.670 -20.235  14.301  1.00  0.00     0.062 A 
ATOM     11  C   UNL     1     -13.956 -19.858  13.890  1.00  0.00     0.022 A 
ENDROOT
BRANCH   9  12
ATOM     12  O   UNL     1     -10.771 -21.707  14.160  1.00  0.00    -0.504 OA
ATOM     13  H   UNL     1      -9.998 -21.813  13.515  1.00  0.00     0.293 HD
ENDBRANCH   9  12
BRANCH   8  14
ATOM     14  O   UNL     1     -12.105 -23.221  12.185  1.00  0.00    -0.504 OA
ATOM     15  H   UNL     1     -11.355 -23.711  12.661  1.00  0.00     0.293 HD
ENDBRANCH   8  14
TORSDOF 2
ENDMDL
MODEL 9
REMARK VINA RESULT:    -4.247      2.961      4.936
REMARK INTER + INTRA:          -4.495
REMARK INTER:                  -4.495
REMARK INTRA:                   0.000
REMARK UNBOUND:                 0.000
REMARK SMILES O=c1ccc2cc(O)c(O)cc2o1
REMARK SMILES IDX 4 1 3 2 2 3 1 4 13 5 12 6 11 7 9 8 7 9 6 10 5 11 8 12 10 14
REMARK H PARENT 8 13 10 15
REMARK Flexibility Score: inf
ROOT
ATOM      1  C   UNL     1     -16.569 -19.439  14.315  1.00  0.00     0.019 A 
ATOM      2  C   UNL     1     -17.070 -20.581  13.692  1.00  0.00     0.094 A 
ATOM      3  C   UNL     1     -16.960 -20.697  12.302  1.00  0.00     0.336 A 
ATOM      4  O   UNL     1     -17.407 -21.721  11.720  1.00  0.00    -0.246 OA
ATOM      5  O   UNL     1     -16.386 -19.732  11.588  1.00  0.00    -0.423 OA
ATOM      6  C   UNL     1     -15.895 -18.627  12.143  1.00  0.00     0.142 A 
ATOM      7  C   UNL     1     -15.302 -17.646  11.342  1.00  0.00     0.098 A 
ATOM      8  C   UNL     1     -14.782 -16.479  11.922  1.00  0.00     0.161 A 
ATOM      9  C   UNL     1     -14.858 -16.294  13.314  1.00  0.00     0.158 A 
ATOM     10  C   UNL     1     -15.451 -17.274  14.119  1.00  0.00     0.062 A 
ATOM     11  C   UNL     1     -15.970 -18.440  13.540  1.00  0.00     0.022 A 
ENDROOT
BRANCH   9  12
ATOM     12  O   UNL     1     -14.350 -15.143  13.916  1.00  0.00    -0.504 OA
ATOM     13  H   UNL     1     -14.875 -14.620  14.606  1.00  0.00     0.293 HD
ENDBRANCH   9  12
BRANCH   8  14
ATOM     14  O   UNL     1     -14.192 -15.504  11.120  1.00  0.00    -0.504 OA
ATOM     15  H   UNL     1     -13.405 -15.717  10.517  1.00  0.00     0.293 HD
ENDBRANCH   8  14
TORSDOF 2
ENDMDL
