MODEL 1
REMARK VINA RESULT:    21.160      0.000      0.000
REMARK INTER + INTRA:          52.532
REMARK INTER:                  53.323
REMARK INTRA:                  -0.791
REMARK UNBOUND:                -0.791
REMARK SMILES CCCCCCCCCCCCCCCCCCCCCCCCCCCC(=O)[O-]
REMARK SMILES IDX 15 1 16 2 17 3 18 4 19 5 20 6 21 7 22 8 23 9 24 10 25 11
REMARK SMILES IDX 26 12 27 13 28 14 29 15 30 16 14 17 13 18 12 19 11 20 10 21
REMARK SMILES IDX 9 22 8 23 7 24 6 25 5 26 4 27 3 28 2 29 1 30
REMARK H PARENT
REMARK Flexibility Score: inf
ROOT
ATOM      1  C   UNL     1     -13.470  31.137 -20.845  1.00  0.00     0.000 C 
ENDROOT
BRANCH   1   2
ATOM      2  C   UNL     1     -13.071  29.766 -20.269  1.00  0.00     0.000 C 
BRANCH   2   3
ATOM      3  C   UNL     1     -14.248  28.899 -19.784  1.00  0.00     0.000 C 
BRANCH   3   4
ATOM      4  C   UNL     1     -15.610  29.408 -20.284  1.00  0.00     0.000 C 
BRANCH   4   5
ATOM      5  C   UNL     1     -16.688  28.311 -20.284  1.00  0.00     0.000 C 
BRANCH   5   6
ATOM      6  C   UNL     1     -16.841  27.626 -18.918  1.00  0.00     0.000 C 
BRANCH   6   7
ATOM      7  C   UNL     1     -17.352  26.185 -19.078  1.00  0.00     0.000 C 
BRANCH   7   8
ATOM      8  C   UNL     1     -16.797  25.241 -17.990  1.00  0.00     0.000 C 
BRANCH   8   9
ATOM      9  C   UNL     1     -15.734  24.256 -18.506  1.00  0.00     0.000 C 
BRANCH   9  10
ATOM     10  C   UNL     1     -15.572  24.296 -20.033  1.00  0.00     0.000 C 
BRANCH  10  11
ATOM     11  C   UNL     1     -15.712  22.911 -20.686  1.00  0.00     0.000 C 
BRANCH  11  12
ATOM     12  C   UNL     1     -15.313  22.887 -22.177  1.00  0.00     0.006 C 
BRANCH  12  13
ATOM     13  C   UNL     1     -14.909  24.274 -22.692  1.00  0.00     0.053 C 
BRANCH  13  14
ATOM     14  C   UNL     1     -13.425  24.360 -22.860  1.00  0.00     0.041 C 
ATOM     15  O   UNL     1     -12.711  23.330 -22.725  1.00  0.00    -0.550 OA
ATOM     16  O   UNL     1     -12.824  25.585 -23.124  1.00  0.00    -0.550 OA
ENDBRANCH  13  14
ENDBRANCH  12  13
ENDBRANCH  11  12
ENDBRANCH  10  11
ENDBRANCH   9  10
ENDBRANCH   8   9
ENDBRANCH   7   8
ENDBRANCH   6   7
ENDBRANCH   5   6
ENDBRANCH   4   5
ENDBRANCH   3   4
ENDBRANCH   2   3
ENDBRANCH   1   2
BRANCH   1  17
ATOM     17  C   UNL     1     -12.271  31.923 -21.406  1.00  0.00     0.000 C 
BRANCH  17  18
ATOM     18  C   UNL     1     -12.369  33.429 -21.120  1.00  0.00     0.000 C 
BRANCH  18  19
ATOM     19  C   UNL     1     -11.156  34.210 -21.658  1.00  0.00     0.000 C 
BRANCH  19  20
ATOM     20  C   UNL     1     -10.296  34.803 -20.529  1.00  0.00     0.000 C 
BRANCH  20  21
ATOM     21  C   UNL     1      -9.286  33.787 -19.969  1.00  0.00     0.000 C 
BRANCH  21  22
ATOM     22  C   UNL     1      -7.852  34.343 -19.911  1.00  0.00    -0.000 C 
BRANCH  22  23
ATOM     23  C   UNL     1      -7.587  35.341 -18.765  1.00  0.00    -0.000 C 
BRANCH  23  24
ATOM     24  C   UNL     1      -6.135  35.374 -18.244  1.00  0.00    -0.000 C 
BRANCH  24  25
ATOM     25  C   UNL     1      -5.994  35.356 -16.712  1.00  0.00    -0.000 C 
BRANCH  25  26
ATOM     26  C   UNL     1      -6.423  34.014 -16.093  1.00  0.00    -0.000 C 
BRANCH  26  27
ATOM     27  C   UNL     1      -7.725  33.466 -16.699  1.00  0.00    -0.000 C 
BRANCH  27  28
ATOM     28  C   UNL     1      -8.838  33.150 -15.681  1.00  0.00    -0.000 C 
BRANCH  28  29
ATOM     29  C   UNL     1      -8.757  31.728 -15.084  1.00  0.00    -0.003 C 
ATOM     30  C   UNL     1      -7.983  31.689 -13.767  1.00  0.00     0.004 C 
ENDBRANCH  28  29
ENDBRANCH  27  28
ENDBRANCH  26  27
ENDBRANCH  25  26
ENDBRANCH  24  25
ENDBRANCH  23  24
ENDBRANCH  22  23
ENDBRANCH  21  22
ENDBRANCH  20  21
ENDBRANCH  19  20
ENDBRANCH  18  19
ENDBRANCH  17  18
ENDBRANCH   1  17
TORSDOF 26
ENDMDL
MODEL 2
REMARK VINA RESULT:    22.725      4.020     11.158
REMARK INTER + INTRA:          56.476
REMARK INTER:                  57.520
REMARK INTRA:                  -1.044
REMARK UNBOUND:                -0.791
REMARK SMILES CCCCCCCCCCCCCCCCCCCCCCCCCCCC(=O)[O-]
REMARK SMILES IDX 15 1 16 2 17 3 18 4 19 5 20 6 21 7 22 8 23 9 24 10 25 11
REMARK SMILES IDX 26 12 27 13 28 14 29 15 30 16 14 17 13 18 12 19 11 20 10 21
REMARK SMILES IDX 9 22 8 23 7 24 6 25 5 26 4 27 3 28 2 29 1 30
REMARK H PARENT
REMARK Flexibility Score: inf
ROOT
ATOM      1  C   UNL     1     -11.213  33.801 -20.668  1.00  0.00     0.000 C 
ENDROOT
BRANCH   1   2
ATOM      2  C   UNL     1      -9.743  33.370 -20.517  1.00  0.00     0.000 C 
BRANCH   2   3
ATOM      3  C   UNL     1      -9.077  33.787 -19.192  1.00  0.00     0.000 C 
BRANCH   3   4
ATOM      4  C   UNL     1      -9.148  32.689 -18.118  1.00  0.00     0.000 C 
BRANCH   4   5
ATOM      5  C   UNL     1      -7.873  32.616 -17.261  1.00  0.00     0.000 C 
BRANCH   5   6
ATOM      6  C   UNL     1      -7.757  33.778 -16.264  1.00  0.00     0.000 C 
BRANCH   6   7
ATOM      7  C   UNL     1      -8.370  33.401 -14.906  1.00  0.00     0.000 C 
BRANCH   7   8
ATOM      8  C   UNL     1      -8.389  31.875 -14.673  1.00  0.00     0.000 C 
BRANCH   8   9
ATOM      9  C   UNL     1      -7.215  31.363 -13.822  1.00  0.00     0.000 C 
BRANCH   9  10
ATOM     10  C   UNL     1      -7.623  30.248 -12.848  1.00  0.00     0.000 C 
BRANCH  10  11
ATOM     11  C   UNL     1      -6.475  29.813 -11.922  1.00  0.00     0.000 C 
BRANCH  11  12
ATOM     12  C   UNL     1      -6.892  28.764 -10.869  1.00  0.00     0.006 C 
BRANCH  12  13
ATOM     13  C   UNL     1      -8.170  29.168 -10.122  1.00  0.00     0.053 C 
BRANCH  13  14
ATOM     14  C   UNL     1      -9.056  27.980  -9.917  1.00  0.00     0.041 C 
ATOM     15  O   UNL     1      -8.554  26.845  -9.702  1.00  0.00    -0.550 OA
ATOM     16  O   UNL     1     -10.436  28.118 -10.004  1.00  0.00    -0.550 OA
ENDBRANCH  13  14
ENDBRANCH  12  13
ENDBRANCH  11  12
ENDBRANCH  10  11
ENDBRANCH   9  10
ENDBRANCH   8   9
ENDBRANCH   7   8
ENDBRANCH   6   7
ENDBRANCH   5   6
ENDBRANCH   4   5
ENDBRANCH   3   4
ENDBRANCH   2   3
ENDBRANCH   1   2
BRANCH   1  17
ATOM     17  C   UNL     1     -11.822  33.389 -22.021  1.00  0.00     0.000 C 
BRANCH  17  18
ATOM     18  C   UNL     1     -13.077  32.518 -21.860  1.00  0.00     0.000 C 
BRANCH  18  19
ATOM     19  C   UNL     1     -12.985  31.570 -20.651  1.00  0.00     0.000 C 
BRANCH  19  20
ATOM     20  C   UNL     1     -13.878  30.328 -20.814  1.00  0.00     0.000 C 
BRANCH  20  21
ATOM     21  C   UNL     1     -14.994  30.267 -19.758  1.00  0.00     0.000 C 
BRANCH  21  22
ATOM     22  C   UNL     1     -15.354  28.826 -19.355  1.00  0.00    -0.000 C 
BRANCH  22  23
ATOM     23  C   UNL     1     -16.708  28.319 -19.896  1.00  0.00    -0.000 C 
BRANCH  23  24
ATOM     24  C   UNL     1     -17.160  26.947 -19.353  1.00  0.00    -0.000 C 
BRANCH  24  25
ATOM     25  C   UNL     1     -16.435  26.482 -18.078  1.00  0.00    -0.000 C 
BRANCH  25  26
ATOM     26  C   UNL     1     -16.836  25.058 -17.655  1.00  0.00    -0.000 C 
BRANCH  26  27
ATOM     27  C   UNL     1     -16.753  24.046 -18.810  1.00  0.00    -0.000 C 
BRANCH  27  28
ATOM     28  C   UNL     1     -15.505  24.174 -19.704  1.00  0.00    -0.000 C 
BRANCH  28  29
ATOM     29  C   UNL     1     -15.506  23.224 -20.921  1.00  0.00    -0.003 C 
ATOM     30  C   UNL     1     -14.604  23.719 -22.051  1.00  0.00     0.004 C 
ENDBRANCH  28  29
ENDBRANCH  27  28
ENDBRANCH  26  27
ENDBRANCH  25  26
ENDBRANCH  24  25
ENDBRANCH  23  24
ENDBRANCH  22  23
ENDBRANCH  21  22
ENDBRANCH  20  21
ENDBRANCH  19  20
ENDBRANCH  18  19
ENDBRANCH  17  18
ENDBRANCH   1  17
TORSDOF 26
ENDMDL
MODEL 3
REMARK VINA RESULT:    22.869      2.942     11.342
REMARK INTER + INTRA:          56.838
REMARK INTER:                  55.963
REMARK INTRA:                   0.875
REMARK UNBOUND:                -0.791
REMARK SMILES CCCCCCCCCCCCCCCCCCCCCCCCCCCC(=O)[O-]
REMARK SMILES IDX 15 1 16 2 17 3 18 4 19 5 20 6 21 7 22 8 23 9 24 10 25 11
REMARK SMILES IDX 26 12 27 13 28 14 29 15 30 16 14 17 13 18 12 19 11 20 10 21
REMARK SMILES IDX 9 22 8 23 7 24 6 25 5 26 4 27 3 28 2 29 1 30
REMARK H PARENT
REMARK Flexibility Score: inf
ROOT
ATOM      1  C   UNL     1     -13.627  31.410 -20.380  1.00  0.00     0.000 C 
ENDROOT
BRANCH   1   2
ATOM      2  C   UNL     1     -12.934  32.106 -21.566  1.00  0.00     0.000 C 
BRANCH   2   3
ATOM      3  C   UNL     1     -12.321  33.482 -21.243  1.00  0.00     0.000 C 
BRANCH   3   4
ATOM      4  C   UNL     1     -10.793  33.510 -21.417  1.00  0.00     0.000 C 
BRANCH   4   5
ATOM      5  C   UNL     1     -10.042  33.397 -20.080  1.00  0.00     0.000 C 
BRANCH   5   6
ATOM      6  C   UNL     1      -8.641  34.024 -20.128  1.00  0.00     0.000 C 
BRANCH   6   7
ATOM      7  C   UNL     1      -8.145  34.374 -18.716  1.00  0.00     0.000 C 
BRANCH   7   8
ATOM      8  C   UNL     1      -6.701  34.921 -18.719  1.00  0.00     0.000 C 
BRANCH   8   9
ATOM      9  C   UNL     1      -6.138  35.191 -17.314  1.00  0.00     0.000 C 
BRANCH   9  10
ATOM     10  C   UNL     1      -6.492  34.090 -16.304  1.00  0.00     0.000 C 
BRANCH  10  11
ATOM     11  C   UNL     1      -7.512  34.551 -15.250  1.00  0.00     0.000 C 
BRANCH  11  12
ATOM     12  C   UNL     1      -8.816  33.725 -15.246  1.00  0.00     0.006 C 
BRANCH  12  13
ATOM     13  C   UNL     1      -8.590  32.286 -14.765  1.00  0.00     0.053 C 
BRANCH  13  14
ATOM     14  C   UNL     1      -8.008  31.450 -15.861  1.00  0.00     0.041 C 
ATOM     15  O   UNL     1      -8.363  31.636 -17.055  1.00  0.00    -0.550 OA
ATOM     16  O   UNL     1      -7.106  30.437 -15.560  1.00  0.00    -0.550 OA
ENDBRANCH  13  14
ENDBRANCH  12  13
ENDBRANCH  11  12
ENDBRANCH  10  11
ENDBRANCH   9  10
ENDBRANCH   8   9
ENDBRANCH   7   8
ENDBRANCH   6   7
ENDBRANCH   5   6
ENDBRANCH   4   5
ENDBRANCH   3   4
ENDBRANCH   2   3
ENDBRANCH   1   2
BRANCH   1  17
ATOM     17  C   UNL     1     -14.894  30.640 -20.796  1.00  0.00     0.000 C 
BRANCH  17  18
ATOM     18  C   UNL     1     -14.974  29.248 -20.151  1.00  0.00     0.000 C 
BRANCH  18  19
ATOM     19  C   UNL     1     -16.306  28.536 -20.451  1.00  0.00     0.000 C 
BRANCH  19  20
ATOM     20  C   UNL     1     -17.340  29.479 -21.088  1.00  0.00     0.000 C 
BRANCH  20  21
ATOM     21  C   UNL     1     -18.462  28.715 -21.811  1.00  0.00     0.000 C 
BRANCH  21  22
ATOM     22  C   UNL     1     -19.379  27.947 -20.842  1.00  0.00    -0.000 C 
BRANCH  22  23
ATOM     23  C   UNL     1     -18.807  27.752 -19.422  1.00  0.00    -0.000 C 
BRANCH  23  24
ATOM     24  C   UNL     1     -17.851  26.552 -19.258  1.00  0.00    -0.000 C 
BRANCH  24  25
ATOM     25  C   UNL     1     -17.009  26.563 -17.970  1.00  0.00    -0.000 C 
BRANCH  25  26
ATOM     26  C   UNL     1     -17.214  25.298 -17.118  1.00  0.00    -0.000 C 
BRANCH  26  27
ATOM     27  C   UNL     1     -16.546  24.054 -17.727  1.00  0.00    -0.000 C 
BRANCH  27  28
ATOM     28  C   UNL     1     -15.380  24.343 -18.691  1.00  0.00    -0.000 C 
BRANCH  28  29
ATOM     29  C   UNL     1     -15.674  23.971 -20.161  1.00  0.00    -0.003 C 
ATOM     30  C   UNL     1     -16.740  22.883 -20.287  1.00  0.00     0.004 C 
ENDBRANCH  28  29
ENDBRANCH  27  28
ENDBRANCH  26  27
ENDBRANCH  25  26
ENDBRANCH  24  25
ENDBRANCH  23  24
ENDBRANCH  22  23
ENDBRANCH  21  22
ENDBRANCH  20  21
ENDBRANCH  19  20
ENDBRANCH  18  19
ENDBRANCH  17  18
ENDBRANCH   1  17
TORSDOF 26
ENDMDL
MODEL 4
REMARK VINA RESULT:    22.883      3.996     11.045
REMARK INTER + INTRA:          56.873
REMARK INTER:                  57.181
REMARK INTRA:                  -0.309
REMARK UNBOUND:                -0.791
REMARK SMILES CCCCCCCCCCCCCCCCCCCCCCCCCCCC(=O)[O-]
REMARK SMILES IDX 15 1 16 2 17 3 18 4 19 5 20 6 21 7 22 8 23 9 24 10 25 11
REMARK SMILES IDX 26 12 27 13 28 14 29 15 30 16 14 17 13 18 12 19 11 20 10 21
REMARK SMILES IDX 9 22 8 23 7 24 6 25 5 26 4 27 3 28 2 29 1 30
REMARK H PARENT
REMARK Flexibility Score: inf
ROOT
ATOM      1  C   UNL     1      -9.342  33.901 -18.993  1.00  0.00     0.000 C 
ENDROOT
BRANCH   1   2
ATOM      2  C   UNL     1      -7.807  33.990 -18.914  1.00  0.00     0.000 C 
BRANCH   2   3
ATOM      3  C   UNL     1      -7.256  35.376 -18.529  1.00  0.00     0.000 C 
BRANCH   3   4
ATOM      4  C   UNL     1      -5.962  35.295 -17.702  1.00  0.00     0.000 C 
BRANCH   4   5
ATOM      5  C   UNL     1      -6.182  34.653 -16.322  1.00  0.00     0.000 C 
BRANCH   5   6
ATOM      6  C   UNL     1      -7.299  33.600 -16.325  1.00  0.00     0.000 C 
BRANCH   6   7
ATOM      7  C   UNL     1      -8.097  33.638 -15.011  1.00  0.00     0.000 C 
BRANCH   7   8
ATOM      8  C   UNL     1      -8.463  32.227 -14.505  1.00  0.00     0.000 C 
BRANCH   8   9
ATOM      9  C   UNL     1      -7.838  31.090 -15.332  1.00  0.00     0.000 C 
BRANCH   9  10
ATOM     10  C   UNL     1      -7.107  30.053 -14.467  1.00  0.00     0.000 C 
BRANCH  10  11
ATOM     11  C   UNL     1      -7.305  30.284 -12.960  1.00  0.00     0.000 C 
BRANCH  11  12
ATOM     12  C   UNL     1      -6.731  29.153 -12.080  1.00  0.00     0.006 C 
BRANCH  12  13
ATOM     13  C   UNL     1      -6.910  29.436 -10.582  1.00  0.00     0.053 C 
BRANCH  13  14
ATOM     14  C   UNL     1      -8.194  28.849 -10.087  1.00  0.00     0.041 C 
ATOM     15  O   UNL     1      -8.463  27.638 -10.305  1.00  0.00    -0.550 OA
ATOM     16  O   UNL     1      -9.114  29.649  -9.420  1.00  0.00    -0.550 OA
ENDBRANCH  13  14
ENDBRANCH  12  13
ENDBRANCH  11  12
ENDBRANCH  10  11
ENDBRANCH   9  10
ENDBRANCH   8   9
ENDBRANCH   7   8
ENDBRANCH   6   7
ENDBRANCH   5   6
ENDBRANCH   4   5
ENDBRANCH   3   4
ENDBRANCH   2   3
ENDBRANCH   1   2
BRANCH   1  17
ATOM     17  C   UNL     1      -9.859  33.744 -20.435  1.00  0.00     0.000 C 
BRANCH  17  18
ATOM     18  C   UNL     1     -11.383  33.558 -20.496  1.00  0.00     0.000 C 
BRANCH  18  19
ATOM     19  C   UNL     1     -11.875  33.200 -21.910  1.00  0.00     0.000 C 
BRANCH  19  20
ATOM     20  C   UNL     1     -13.187  32.398 -21.886  1.00  0.00     0.000 C 
BRANCH  20  21
ATOM     21  C   UNL     1     -13.184  31.301 -20.807  1.00  0.00     0.000 C 
BRANCH  21  22
ATOM     22  C   UNL     1     -14.596  30.791 -20.473  1.00  0.00    -0.000 C 
BRANCH  22  23
ATOM     23  C   UNL     1     -14.642  29.412 -19.781  1.00  0.00    -0.000 C 
BRANCH  23  24
ATOM     24  C   UNL     1     -16.044  28.944 -19.339  1.00  0.00    -0.000 C 
BRANCH  24  25
ATOM     25  C   UNL     1     -16.569  27.692 -20.062  1.00  0.00    -0.000 C 
BRANCH  25  26
ATOM     26  C   UNL     1     -17.547  26.875 -19.199  1.00  0.00    -0.000 C 
BRANCH  26  27
ATOM     27  C   UNL     1     -16.936  26.437 -17.858  1.00  0.00    -0.000 C 
BRANCH  27  28
ATOM     28  C   UNL     1     -16.917  24.916 -17.614  1.00  0.00    -0.000 C 
BRANCH  28  29
ATOM     29  C   UNL     1     -15.785  24.176 -18.359  1.00  0.00    -0.003 C 
ATOM     30  C   UNL     1     -16.191  23.757 -19.772  1.00  0.00     0.004 C 
ENDBRANCH  28  29
ENDBRANCH  27  28
ENDBRANCH  26  27
ENDBRANCH  25  26
ENDBRANCH  24  25
ENDBRANCH  23  24
ENDBRANCH  22  23
ENDBRANCH  21  22
ENDBRANCH  20  21
ENDBRANCH  19  20
ENDBRANCH  18  19
ENDBRANCH  17  18
ENDBRANCH   1  17
TORSDOF 26
ENDMDL
MODEL 5
REMARK VINA RESULT:    23.243      3.034     11.216
REMARK INTER + INTRA:          57.781
REMARK INTER:                  55.109
REMARK INTRA:                   2.672
REMARK UNBOUND:                -0.791
REMARK SMILES CCCCCCCCCCCCCCCCCCCCCCCCCCCC(=O)[O-]
REMARK SMILES IDX 15 1 16 2 17 3 18 4 19 5 20 6 21 7 22 8 23 9 24 10 25 11
REMARK SMILES IDX 26 12 27 13 28 14 29 15 30 16 14 17 13 18 12 19 11 20 10 21
REMARK SMILES IDX 9 22 8 23 7 24 6 25 5 26 4 27 3 28 2 29 1 30
REMARK H PARENT
REMARK Flexibility Score: inf
ROOT
ATOM      1  C   UNL     1     -13.026  32.958 -21.631  1.00  0.00     0.000 C 
ENDROOT
BRANCH   1   2
ATOM      2  C   UNL     1     -12.465  33.398 -22.995  1.00  0.00     0.000 C 
BRANCH   2   3
ATOM      3  C   UNL     1     -11.094  34.099 -22.938  1.00  0.00     0.000 C 
BRANCH   3   4
ATOM      4  C   UNL     1     -10.089  33.371 -22.031  1.00  0.00     0.000 C 
BRANCH   4   5
ATOM      5  C   UNL     1     -10.011  33.983 -20.622  1.00  0.00     0.000 C 
BRANCH   5   6
ATOM      6  C   UNL     1      -9.004  33.263 -19.714  1.00  0.00     0.000 C 
BRANCH   6   7
ATOM      7  C   UNL     1      -8.426  34.223 -18.662  1.00  0.00     0.000 C 
BRANCH   7   8
ATOM      8  C   UNL     1      -7.146  33.668 -18.001  1.00  0.00     0.000 C 
BRANCH   8   9
ATOM      9  C   UNL     1      -6.487  34.645 -17.012  1.00  0.00     0.000 C 
BRANCH   9  10
ATOM     10  C   UNL     1      -7.441  35.111 -15.903  1.00  0.00     0.000 C 
BRANCH  10  11
ATOM     11  C   UNL     1      -8.572  34.106 -15.626  1.00  0.00     0.000 C 
BRANCH  11  12
ATOM     12  C   UNL     1      -8.668  33.675 -14.147  1.00  0.00     0.006 C 
BRANCH  12  13
ATOM     13  C   UNL     1      -7.940  32.351 -13.880  1.00  0.00     0.053 C 
BRANCH  13  14
ATOM     14  C   UNL     1      -7.864  31.532 -15.129  1.00  0.00     0.041 C 
ATOM     15  O   UNL     1      -7.545  30.315 -15.071  1.00  0.00    -0.550 OA
ATOM     16  O   UNL     1      -8.105  32.122 -16.364  1.00  0.00    -0.550 OA
ENDBRANCH  13  14
ENDBRANCH  12  13
ENDBRANCH  11  12
ENDBRANCH  10  11
ENDBRANCH   9  10
ENDBRANCH   8   9
ENDBRANCH   7   8
ENDBRANCH   6   7
ENDBRANCH   5   6
ENDBRANCH   4   5
ENDBRANCH   3   4
ENDBRANCH   2   3
ENDBRANCH   1   2
BRANCH   1  17
ATOM     17  C   UNL     1     -13.811  31.636 -21.705  1.00  0.00     0.000 C 
BRANCH  17  18
ATOM     18  C   UNL     1     -13.233  30.556 -20.777  1.00  0.00     0.000 C 
BRANCH  18  19
ATOM     19  C   UNL     1     -14.245  29.436 -20.476  1.00  0.00     0.000 C 
BRANCH  19  20
ATOM     20  C   UNL     1     -14.872  29.576 -19.079  1.00  0.00     0.000 C 
BRANCH  20  21
ATOM     21  C   UNL     1     -16.076  28.639 -18.881  1.00  0.00     0.000 C 
BRANCH  21  22
ATOM     22  C   UNL     1     -17.036  28.641 -20.084  1.00  0.00    -0.000 C 
BRANCH  22  23
ATOM     23  C   UNL     1     -17.939  27.394 -20.196  1.00  0.00    -0.000 C 
BRANCH  23  24
ATOM     24  C   UNL     1     -17.753  26.345 -19.080  1.00  0.00    -0.000 C 
BRANCH  24  25
ATOM     25  C   UNL     1     -16.423  25.573 -19.130  1.00  0.00    -0.000 C 
BRANCH  25  26
ATOM     26  C   UNL     1     -16.331  24.627 -20.340  1.00  0.00    -0.000 C 
BRANCH  26  27
ATOM     27  C   UNL     1     -15.623  23.303 -20.011  1.00  0.00    -0.000 C 
BRANCH  27  28
ATOM     28  C   UNL     1     -14.498  22.903 -20.985  1.00  0.00    -0.000 C 
BRANCH  28  29
ATOM     29  C   UNL     1     -14.772  23.294 -22.453  1.00  0.00    -0.003 C 
ATOM     30  C   UNL     1     -13.561  23.947 -23.120  1.00  0.00     0.004 C 
ENDBRANCH  28  29
ENDBRANCH  27  28
ENDBRANCH  26  27
ENDBRANCH  25  26
ENDBRANCH  24  25
ENDBRANCH  23  24
ENDBRANCH  22  23
ENDBRANCH  21  22
ENDBRANCH  20  21
ENDBRANCH  19  20
ENDBRANCH  18  19
ENDBRANCH  17  18
ENDBRANCH   1  17
TORSDOF 26
ENDMDL
MODEL 6
REMARK VINA RESULT:    23.246      4.307     11.473
REMARK INTER + INTRA:          57.788
REMARK INTER:                  56.748
REMARK INTRA:                   1.040
REMARK UNBOUND:                -0.791
REMARK SMILES CCCCCCCCCCCCCCCCCCCCCCCCCCCC(=O)[O-]
REMARK SMILES IDX 15 1 16 2 17 3 18 4 19 5 20 6 21 7 22 8 23 9 24 10 25 11
REMARK SMILES IDX 26 12 27 13 28 14 29 15 30 16 14 17 13 18 12 19 11 20 10 21
REMARK SMILES IDX 9 22 8 23 7 24 6 25 5 26 4 27 3 28 2 29 1 30
REMARK H PARENT
REMARK Flexibility Score: inf
ROOT
ATOM      1  C   UNL     1      -9.630  34.093 -19.576  1.00  0.00     0.000 C 
ENDROOT
BRANCH   1   2
ATOM      2  C   UNL     1      -8.133  34.428 -19.701  1.00  0.00     0.000 C 
BRANCH   2   3
ATOM      3  C   UNL     1      -7.665  35.632 -18.862  1.00  0.00     0.000 C 
BRANCH   3   4
ATOM      4  C   UNL     1      -6.162  35.587 -18.540  1.00  0.00     0.000 C 
BRANCH   4   5
ATOM      5  C   UNL     1      -5.876  35.702 -17.034  1.00  0.00     0.000 C 
BRANCH   5   6
ATOM      6  C   UNL     1      -6.080  34.376 -16.285  1.00  0.00     0.000 C 
BRANCH   6   7
ATOM      7  C   UNL     1      -7.535  33.896 -16.401  1.00  0.00     0.000 C 
BRANCH   7   8
ATOM      8  C   UNL     1      -7.636  32.454 -16.943  1.00  0.00     0.000 C 
BRANCH   8   9
ATOM      9  C   UNL     1      -8.239  31.456 -15.940  1.00  0.00     0.000 C 
BRANCH   9  10
ATOM     10  C   UNL     1      -8.860  32.140 -14.714  1.00  0.00     0.000 C 
BRANCH  10  11
ATOM     11  C   UNL     1      -8.030  33.332 -14.210  1.00  0.00     0.000 C 
BRANCH  11  12
ATOM     12  C   UNL     1      -8.572  33.957 -12.906  1.00  0.00     0.006 C 
BRANCH  12  13
ATOM     13  C   UNL     1      -9.546  35.111 -13.177  1.00  0.00     0.053 C 
BRANCH  13  14
ATOM     14  C   UNL     1     -10.336  35.431 -11.947  1.00  0.00     0.041 C 
ATOM     15  O   UNL     1     -11.370  36.147 -12.026  1.00  0.00    -0.550 OA
ATOM     16  O   UNL     1      -9.908  34.974 -10.706  1.00  0.00    -0.550 OA
ENDBRANCH  13  14
ENDBRANCH  12  13
ENDBRANCH  11  12
ENDBRANCH  10  11
ENDBRANCH   9  10
ENDBRANCH   8   9
ENDBRANCH   7   8
ENDBRANCH   6   7
ENDBRANCH   5   6
ENDBRANCH   4   5
ENDBRANCH   3   4
ENDBRANCH   2   3
ENDBRANCH   1   2
BRANCH   1  17
ATOM     17  C   UNL     1     -10.236  33.565 -20.889  1.00  0.00     0.000 C 
BRANCH  17  18
ATOM     18  C   UNL     1     -11.757  33.777 -20.963  1.00  0.00     0.000 C 
BRANCH  18  19
ATOM     19  C   UNL     1     -12.380  33.141 -22.218  1.00  0.00     0.000 C 
BRANCH  19  20
ATOM     20  C   UNL     1     -12.895  31.716 -21.956  1.00  0.00     0.000 C 
BRANCH  20  21
ATOM     21  C   UNL     1     -13.496  31.560 -20.548  1.00  0.00     0.000 C 
BRANCH  21  22
ATOM     22  C   UNL     1     -13.841  30.100 -20.206  1.00  0.00    -0.000 C 
BRANCH  22  23
ATOM     23  C   UNL     1     -15.315  29.854 -19.821  1.00  0.00    -0.000 C 
BRANCH  23  24
ATOM     24  C   UNL     1     -15.631  28.435 -19.305  1.00  0.00    -0.000 C 
BRANCH  24  25
ATOM     25  C   UNL     1     -16.666  27.658 -20.137  1.00  0.00    -0.000 C 
BRANCH  25  26
ATOM     26  C   UNL     1     -17.583  26.778 -19.269  1.00  0.00    -0.000 C 
BRANCH  26  27
ATOM     27  C   UNL     1     -16.896  26.284 -17.985  1.00  0.00    -0.000 C 
BRANCH  27  28
ATOM     28  C   UNL     1     -16.193  24.917 -18.103  1.00  0.00    -0.000 C 
BRANCH  28  29
ATOM     29  C   UNL     1     -16.681  24.062 -19.293  1.00  0.00    -0.003 C 
ATOM     30  C   UNL     1     -15.697  24.073 -20.463  1.00  0.00     0.004 C 
ENDBRANCH  28  29
ENDBRANCH  27  28
ENDBRANCH  26  27
ENDBRANCH  25  26
ENDBRANCH  24  25
ENDBRANCH  23  24
ENDBRANCH  22  23
ENDBRANCH  21  22
ENDBRANCH  20  21
ENDBRANCH  19  20
ENDBRANCH  18  19
ENDBRANCH  17  18
ENDBRANCH   1  17
TORSDOF 26
ENDMDL
