MODEL 1
REMARK VINA RESULT:    34.800      0.000      0.000
REMARK INTER + INTRA:          50.779
REMARK INTER:                  50.058
REMARK INTRA:                   0.721
REMARK UNBOUND:                 0.721
REMARK SMILES O=c1c(O[C@H]2O[C@H](CO)[C@@H](O)[C@@H](O)[C@H]2O)c(-c2ccc(O)cc2)oc2cc(O)cc(O)c12
REMARK SMILES IDX 4 1 3 2 16 3 24 4 2 5 25 6 1 7 32 8 26 9 30 10 27 11 29 12
REMARK SMILES IDX 17 13 18 14 19 15 20 16 23 17 22 18 21 19 31 21 28 23 5 25
REMARK SMILES IDX 14 26 6 27 12 28 7 29 10 30 15 31 13 33 8 35 9 36 11 38
REMARK H PARENT 21 20 31 22 28 24 15 32 13 34 9 37 11 39
REMARK Flexibility Score: inf
ROOT
ATOM      1  O   UNL     1       8.840  23.333  35.306  1.00  0.00    -0.454 OA
ENDROOT
BRANCH   1   2
ATOM      2  C   UNL     1       9.874  22.658  35.981  1.00  0.00     0.214 A 
ATOM      3  C   UNL     1      10.386  23.233  37.156  1.00  0.00     0.180 A 
ATOM      4  O   UNL     1      11.319  22.605  37.865  1.00  0.00    -0.452 OA
ATOM      5  C   UNL     1      10.402  21.422  35.552  1.00  0.00     0.239 A 
ATOM      6  C   UNL     1      11.841  21.441  37.504  1.00  0.00     0.146 A 
ATOM      7  O   UNL     1       9.996  20.900  34.479  1.00  0.00    -0.285 OA
ATOM      8  C   UNL     1      11.407  20.792  36.322  1.00  0.00     0.111 A 
ATOM      9  C   UNL     1      12.837  20.866  38.301  1.00  0.00     0.094 A 
ATOM     10  C   UNL     1      12.006  19.562  35.953  1.00  0.00     0.134 A 
ATOM     11  C   UNL     1      13.440  19.667  37.922  1.00  0.00     0.123 A 
ATOM     12  C   UNL     1      13.028  19.022  36.749  1.00  0.00     0.093 A 
BRANCH   3  13
ATOM     13  C   UNL     1       9.884  24.528  37.642  1.00  0.00     0.021 A 
ATOM     14  C   UNL     1       8.502  24.757  37.747  1.00  0.00     0.016 A 
ATOM     15  C   UNL     1       8.030  25.996  38.196  1.00  0.00     0.047 A 
ATOM     16  C   UNL     1       8.932  27.009  38.544  1.00  0.00     0.115 A 
ATOM     17  C   UNL     1      10.787  25.545  37.989  1.00  0.00     0.016 A 
ATOM     18  C   UNL     1      10.313  26.777  38.450  1.00  0.00     0.047 A 
BRANCH  16  19
ATOM     19  O   UNL     1       8.448  28.240  38.984  1.00  0.00    -0.508 OA
ATOM     20  H   UNL     1       7.681  28.705  38.511  1.00  0.00     0.293 HD
ENDBRANCH  16  19
ENDBRANCH   3  13
BRANCH  10  21
ATOM     21  O   UNL     1      11.594  18.875  34.805  1.00  0.00    -0.507 OA
ATOM     22  H   UNL     1      11.678  17.871  34.725  1.00  0.00     0.293 HD
ENDBRANCH  10  21
BRANCH  11  23
ATOM     23  O   UNL     1      14.455  19.130  38.711  1.00  0.00    -0.508 OA
ATOM     24  H   UNL     1      14.622  18.131  38.748  1.00  0.00     0.293 HD
ENDBRANCH  11  23
ENDBRANCH   1   2
BRANCH   1  25
ATOM     25  C   UNL     1       8.206  22.891  34.101  1.00  0.00     0.339 C 
ATOM     26  C   UNL     1       7.430  24.046  33.438  1.00  0.00     0.214 C 
ATOM     27  O   UNL     1       7.363  21.773  34.338  1.00  0.00    -0.332 OA
ATOM     28  C   UNL     1       6.197  24.433  34.277  1.00  0.00     0.180 C 
ATOM     29  C   UNL     1       6.297  22.081  35.225  1.00  0.00     0.179 C 
ATOM     30  C   UNL     1       5.381  23.171  34.610  1.00  0.00     0.177 C 
BRANCH  26  31
ATOM     31  O   UNL     1       8.277  25.153  33.269  1.00  0.00    -0.384 OA
ATOM     32  H   UNL     1       8.661  25.355  34.162  1.00  0.00     0.211 HD
ENDBRANCH  26  31
BRANCH  28  33
ATOM     33  O   UNL     1       6.595  25.079  35.462  1.00  0.00    -0.387 OA
ATOM     34  H   UNL     1       5.985  24.771  36.183  1.00  0.00     0.211 HD
ENDBRANCH  28  33
BRANCH  29  35
ATOM     35  C   UNL     1       5.523  20.779  35.496  1.00  0.00     0.191 C 
BRANCH  35  36
ATOM     36  O   UNL     1       4.343  21.024  36.211  1.00  0.00    -0.394 OA
ATOM     37  H   UNL     1       4.556  21.725  36.882  1.00  0.00     0.210 HD
ENDBRANCH  35  36
ENDBRANCH  29  35
BRANCH  30  38
ATOM     38  O   UNL     1       4.296  23.489  35.449  1.00  0.00    -0.387 OA
ATOM     39  H   UNL     1       3.461  23.252  34.970  1.00  0.00     0.211 HD
ENDBRANCH  30  38
ENDBRANCH   1  25
TORSDOF 11
ENDMDL
MODEL 2
REMARK VINA RESULT:    37.465      1.727      6.134
REMARK INTER + INTRA:          54.612
REMARK INTER:                  51.935
REMARK INTRA:                   2.677
REMARK UNBOUND:                 0.721
REMARK SMILES O=c1c(O[C@H]2O[C@H](CO)[C@@H](O)[C@@H](O)[C@H]2O)c(-c2ccc(O)cc2)oc2cc(O)cc(O)c12
REMARK SMILES IDX 4 1 3 2 16 3 24 4 2 5 25 6 1 7 32 8 26 9 30 10 27 11 29 12
REMARK SMILES IDX 17 13 18 14 19 15 20 16 23 17 22 18 21 19 31 21 28 23 5 25
REMARK SMILES IDX 14 26 6 27 12 28 7 29 10 30 15 31 13 33 8 35 9 36 11 38
REMARK H PARENT 21 20 31 22 28 24 15 32 13 34 9 37 11 39
REMARK Flexibility Score: inf
ROOT
ATOM      1  O   UNL     1       8.367  24.085  36.388  1.00  0.00    -0.454 OA
ENDROOT
BRANCH   1   2
ATOM      2  C   UNL     1       8.851  25.186  37.118  1.00  0.00     0.214 A 
ATOM      3  C   UNL     1      10.005  25.011  37.899  1.00  0.00     0.180 A 
ATOM      4  O   UNL     1      10.538  26.035  38.558  1.00  0.00    -0.452 OA
ATOM      5  C   UNL     1       8.250  26.462  37.085  1.00  0.00     0.239 A 
ATOM      6  C   UNL     1      10.012  27.252  38.552  1.00  0.00     0.146 A 
ATOM      7  O   UNL     1       7.188  26.644  36.429  1.00  0.00    -0.285 OA
ATOM      8  C   UNL     1       8.834  27.524  37.814  1.00  0.00     0.111 A 
ATOM      9  C   UNL     1      10.630  28.263  39.296  1.00  0.00     0.094 A 
ATOM     10  C   UNL     1       8.285  28.830  37.852  1.00  0.00     0.134 A 
ATOM     11  C   UNL     1      10.072  29.540  39.349  1.00  0.00     0.123 A 
ATOM     12  C   UNL     1       8.901  29.819  38.633  1.00  0.00     0.093 A 
BRANCH   3  13
ATOM     13  C   UNL     1      10.665  23.698  37.984  1.00  0.00     0.021 A 
ATOM     14  C   UNL     1      10.462  22.738  36.979  1.00  0.00     0.016 A 
ATOM     15  C   UNL     1      11.080  21.486  37.073  1.00  0.00     0.047 A 
ATOM     16  C   UNL     1      11.905  21.187  38.165  1.00  0.00     0.115 A 
ATOM     17  C   UNL     1      11.489  23.397  39.080  1.00  0.00     0.016 A 
ATOM     18  C   UNL     1      12.117  22.150  39.164  1.00  0.00     0.047 A 
BRANCH  16  19
ATOM     19  O   UNL     1      12.509  19.933  38.248  1.00  0.00    -0.508 OA
ATOM     20  H   UNL     1      13.491  19.806  38.032  1.00  0.00     0.293 HD
ENDBRANCH  16  19
ENDBRANCH   3  13
BRANCH  10  21
ATOM     21  O   UNL     1       7.135  29.150  37.121  1.00  0.00    -0.507 OA
ATOM     22  H   UNL     1       7.054  28.941  36.134  1.00  0.00     0.293 HD
ENDBRANCH  10  21
BRANCH  11  23
ATOM     23  O   UNL     1      10.683  30.523  40.125  1.00  0.00    -0.508 OA
ATOM     24  H   UNL     1      10.364  31.485  40.105  1.00  0.00     0.293 HD
ENDBRANCH  11  23
ENDBRANCH   1   2
BRANCH   1  25
ATOM     25  C   UNL     1       8.427  23.940  34.965  1.00  0.00     0.339 C 
ATOM     26  C   UNL     1       7.009  23.852  34.366  1.00  0.00     0.214 C 
ATOM     27  O   UNL     1       9.214  22.818  34.590  1.00  0.00    -0.332 OA
ATOM     28  C   UNL     1       6.328  22.526  34.755  1.00  0.00     0.180 C 
ATOM     29  C   UNL     1       8.668  21.595  35.065  1.00  0.00     0.179 C 
ATOM     30  C   UNL     1       7.270  21.350  34.441  1.00  0.00     0.177 C 
BRANCH  26  31
ATOM     31  O   UNL     1       6.242  24.946  34.801  1.00  0.00    -0.384 OA
ATOM     32  H   UNL     1       5.512  25.061  34.139  1.00  0.00     0.211 HD
ENDBRANCH  26  31
BRANCH  28  33
ATOM     33  O   UNL     1       5.996  22.530  36.123  1.00  0.00    -0.387 OA
ATOM     34  H   UNL     1       5.976  21.583  36.421  1.00  0.00     0.211 HD
ENDBRANCH  28  33
BRANCH  29  35
ATOM     35  C   UNL     1       9.654  20.471  34.701  1.00  0.00     0.191 C 
BRANCH  35  36
ATOM     36  O   UNL     1      10.445  20.820  33.598  1.00  0.00    -0.394 OA
ATOM     37  H   UNL     1      11.206  20.182  33.580  1.00  0.00     0.210 HD
ENDBRANCH  35  36
ENDBRANCH  29  35
BRANCH  30  38
ATOM     38  O   UNL     1       6.703  20.134  34.868  1.00  0.00    -0.387 OA
ATOM     39  H   UNL     1       5.979  20.345  35.512  1.00  0.00     0.211 HD
ENDBRANCH  30  38
ENDBRANCH   1  25
TORSDOF 11
ENDMDL
