MODEL 1
REMARK VINA RESULT:     4.875      0.000      0.000
REMARK INTER + INTRA:           8.180
REMARK INTER:                   8.865
REMARK INTRA:                  -0.685
REMARK UNBOUND:                -0.685
REMARK SMILES CCCCCCCCCCCCCCCC(=O)[O-]
REMARK SMILES IDX 9 1 10 2 11 3 12 4 13 5 14 6 15 7 16 8 17 9 18 10 8 11 7 12
REMARK SMILES IDX 6 13 5 14 4 15 3 16 2 17 1 18
REMARK H PARENT
REMARK Flexibility Score: inf
ROOT
ATOM      1  C   UNL     1     -37.632  23.989   7.628  1.00  0.00     0.000 C 
ENDROOT
BRANCH   1   2
ATOM      2  C   UNL     1     -39.114  24.351   7.862  1.00  0.00     0.000 C 
BRANCH   2   3
ATOM      3  C   UNL     1     -39.842  23.325   8.744  1.00  0.00     0.000 C 
BRANCH   3   4
ATOM      4  C   UNL     1     -41.323  23.222   8.363  1.00  0.00     0.000 C 
BRANCH   4   5
ATOM      5  C   UNL     1     -41.634  21.862   7.720  1.00  0.00     0.000 C 
BRANCH   5   6
ATOM      6  C   UNL     1     -41.439  21.873   6.195  1.00  0.00     0.006 C 
BRANCH   6   7
ATOM      7  C   UNL     1     -42.125  23.067   5.523  1.00  0.00     0.053 C 
BRANCH   7   8
ATOM      8  C   UNL     1     -41.115  24.110   5.160  1.00  0.00     0.041 C 
ATOM      9  O   UNL     1     -41.364  25.328   5.356  1.00  0.00    -0.550 OA
ATOM     10  O   UNL     1     -39.885  23.734   4.632  1.00  0.00    -0.550 OA
ENDBRANCH   7   8
ENDBRANCH   6   7
ENDBRANCH   5   6
ENDBRANCH   4   5
ENDBRANCH   3   4
ENDBRANCH   2   3
ENDBRANCH   1   2
BRANCH   1  11
ATOM     11  C   UNL     1     -37.133  24.296   6.203  1.00  0.00     0.000 C 
BRANCH  11  12
ATOM     12  C   UNL     1     -35.764  24.997   6.124  1.00  0.00    -0.000 C 
BRANCH  12  13
ATOM     13  C   UNL     1     -35.647  26.287   6.957  1.00  0.00    -0.000 C 
BRANCH  13  14
ATOM     14  C   UNL     1     -34.527  26.216   8.009  1.00  0.00    -0.000 C 
BRANCH  14  15
ATOM     15  C   UNL     1     -33.519  25.085   7.713  1.00  0.00    -0.000 C 
BRANCH  15  16
ATOM     16  C   UNL     1     -32.180  25.242   8.458  1.00  0.00    -0.000 C 
BRANCH  16  17
ATOM     17  C   UNL     1     -30.960  24.998   7.558  1.00  0.00    -0.003 C 
ATOM     18  C   UNL     1     -30.244  26.305   7.232  1.00  0.00     0.004 C 
ENDBRANCH  16  17
ENDBRANCH  15  16
ENDBRANCH  14  15
ENDBRANCH  13  14
ENDBRANCH  12  13
ENDBRANCH  11  12
ENDBRANCH   1  11
TORSDOF 14
ENDMDL
MODEL 2
REMARK VINA RESULT:     5.823     15.802     18.278
REMARK INTER + INTRA:           9.903
REMARK INTER:                  10.527
REMARK INTRA:                  -0.624
REMARK UNBOUND:                -0.685
REMARK SMILES CCCCCCCCCCCCCCCC(=O)[O-]
REMARK SMILES IDX 9 1 10 2 11 3 12 4 13 5 14 6 15 7 16 8 17 9 18 10 8 11 7 12
REMARK SMILES IDX 6 13 5 14 4 15 3 16 2 17 1 18
REMARK H PARENT
REMARK Flexibility Score: inf
ROOT
ATOM      1  C   UNL     1     -41.429  28.970  -8.437  1.00  0.00     0.000 C 
ENDROOT
BRANCH   1   2
ATOM      2  C   UNL     1     -42.124  30.267  -8.901  1.00  0.00     0.000 C 
BRANCH   2   3
ATOM      3  C   UNL     1     -41.417  30.921 -10.097  1.00  0.00     0.000 C 
BRANCH   3   4
ATOM      4  C   UNL     1     -41.920  32.352 -10.321  1.00  0.00     0.000 C 
BRANCH   4   5
ATOM      5  C   UNL     1     -40.869  33.198 -11.055  1.00  0.00     0.000 C 
BRANCH   5   6
ATOM      6  C   UNL     1     -39.430  32.791 -10.697  1.00  0.00     0.006 C 
BRANCH   6   7
ATOM      7  C   UNL     1     -38.444  33.959 -10.805  1.00  0.00     0.053 C 
BRANCH   7   8
ATOM      8  C   UNL     1     -39.074  35.220 -10.302  1.00  0.00     0.041 C 
ATOM      9  O   UNL     1     -39.433  36.114 -11.113  1.00  0.00    -0.550 OA
ATOM     10  O   UNL     1     -39.295  35.394  -8.941  1.00  0.00    -0.550 OA
ENDBRANCH   7   8
ENDBRANCH   6   7
ENDBRANCH   5   6
ENDBRANCH   4   5
ENDBRANCH   3   4
ENDBRANCH   2   3
ENDBRANCH   1   2
BRANCH   1  11
ATOM     11  C   UNL     1     -42.125  27.683  -8.923  1.00  0.00     0.000 C 
BRANCH  11  12
ATOM     12  C   UNL     1     -41.616  26.379  -8.279  1.00  0.00    -0.000 C 
BRANCH  12  13
ATOM     13  C   UNL     1     -40.439  26.555  -7.302  1.00  0.00    -0.000 C 
BRANCH  13  14
ATOM     14  C   UNL     1     -40.338  25.409  -6.281  1.00  0.00    -0.000 C 
BRANCH  14  15
ATOM     15  C   UNL     1     -41.064  24.134  -6.759  1.00  0.00    -0.000 C 
BRANCH  15  16
ATOM     16  C   UNL     1     -40.112  22.981  -7.123  1.00  0.00    -0.000 C 
BRANCH  16  17
ATOM     17  C   UNL     1     -38.850  23.453  -7.860  1.00  0.00    -0.003 C 
ATOM     18  C   UNL     1     -38.052  22.271  -8.401  1.00  0.00     0.004 C 
ENDBRANCH  16  17
ENDBRANCH  15  16
ENDBRANCH  14  15
ENDBRANCH  13  14
ENDBRANCH  12  13
ENDBRANCH  11  12
ENDBRANCH   1  11
TORSDOF 14
ENDMDL
MODEL 3
REMARK VINA RESULT:     5.885     16.436     18.354
REMARK INTER + INTRA:          10.017
REMARK INTER:                  10.478
REMARK INTRA:                  -0.461
REMARK UNBOUND:                -0.685
REMARK SMILES CCCCCCCCCCCCCCCC(=O)[O-]
REMARK SMILES IDX 9 1 10 2 11 3 12 4 13 5 14 6 15 7 16 8 17 9 18 10 8 11 7 12
REMARK SMILES IDX 6 13 5 14 4 15 3 16 2 17 1 18
REMARK H PARENT
REMARK Flexibility Score: inf
ROOT
ATOM      1  C   UNL     1     -42.125  31.603  -9.843  1.00  0.00     0.000 C 
ENDROOT
BRANCH   1   2
ATOM      2  C   UNL     1     -41.040  30.676  -9.256  1.00  0.00     0.000 C 
BRANCH   2   3
ATOM      3  C   UNL     1     -41.625  29.571  -8.365  1.00  0.00     0.000 C 
BRANCH   3   4
ATOM      4  C   UNL     1     -42.123  28.390  -9.206  1.00  0.00     0.000 C 
BRANCH   4   5
ATOM      5  C   UNL     1     -42.074  27.081  -8.403  1.00  0.00     0.000 C 
BRANCH   5   6
ATOM      6  C   UNL     1     -40.640  26.676  -8.025  1.00  0.00     0.006 C 
BRANCH   6   7
ATOM      7  C   UNL     1     -40.600  25.616  -6.918  1.00  0.00     0.053 C 
BRANCH   7   8
ATOM      8  C   UNL     1     -40.807  24.252  -7.498  1.00  0.00     0.041 C 
ATOM      9  O   UNL     1     -41.956  23.888  -7.863  1.00  0.00    -0.550 OA
ATOM     10  O   UNL     1     -39.727  23.394  -7.663  1.00  0.00    -0.550 OA
ENDBRANCH   7   8
ENDBRANCH   6   7
ENDBRANCH   5   6
ENDBRANCH   4   5
ENDBRANCH   3   4
ENDBRANCH   2   3
ENDBRANCH   1   2
BRANCH   1  11
ATOM     11  C   UNL     1     -41.632  32.474 -11.016  1.00  0.00     0.000 C 
BRANCH  11  12
ATOM     12  C   UNL     1     -42.060  33.953 -10.959  1.00  0.00    -0.000 C 
BRANCH  12  13
ATOM     13  C   UNL     1     -41.422  34.769  -9.820  1.00  0.00    -0.000 C 
BRANCH  13  14
ATOM     14  C   UNL     1     -40.442  35.839 -10.333  1.00  0.00    -0.000 C 
BRANCH  14  15
ATOM     15  C   UNL     1     -39.234  35.222 -11.067  1.00  0.00    -0.000 C 
BRANCH  15  16
ATOM     16  C   UNL     1     -38.709  33.929 -10.415  1.00  0.00    -0.000 C 
BRANCH  16  17
ATOM     17  C   UNL     1     -37.220  33.678 -10.692  1.00  0.00    -0.003 C 
ATOM     18  C   UNL     1     -36.513  34.963 -11.114  1.00  0.00     0.004 C 
ENDBRANCH  16  17
ENDBRANCH  15  16
ENDBRANCH  14  15
ENDBRANCH  13  14
ENDBRANCH  12  13
ENDBRANCH  11  12
ENDBRANCH   1  11
TORSDOF 14
ENDMDL
MODEL 4
REMARK VINA RESULT:     6.269     15.138     17.613
REMARK INTER + INTRA:          10.716
REMARK INTER:                  10.495
REMARK INTRA:                   0.220
REMARK UNBOUND:                -0.685
REMARK SMILES CCCCCCCCCCCCCCCC(=O)[O-]
REMARK SMILES IDX 9 1 10 2 11 3 12 4 13 5 14 6 15 7 16 8 17 9 18 10 8 11 7 12
REMARK SMILES IDX 6 13 5 14 4 15 3 16 2 17 1 18
REMARK H PARENT
REMARK Flexibility Score: inf
ROOT
ATOM      1  C   UNL     1     -41.611  26.779  -7.783  1.00  0.00     0.000 C 
ENDROOT
BRANCH   1   2
ATOM      2  C   UNL     1     -41.911  27.638  -9.030  1.00  0.00     0.000 C 
BRANCH   2   3
ATOM      3  C   UNL     1     -42.124  29.120  -8.690  1.00  0.00     0.000 C 
BRANCH   3   4
ATOM      4  C   UNL     1     -42.122  29.981  -9.958  1.00  0.00     0.000 C 
BRANCH   4   5
ATOM      5  C   UNL     1     -42.119  31.477  -9.609  1.00  0.00     0.000 C 
BRANCH   5   6
ATOM      6  C   UNL     1     -42.016  32.372 -10.855  1.00  0.00     0.006 C 
BRANCH   6   7
ATOM      7  C   UNL     1     -41.725  33.837 -10.506  1.00  0.00     0.053 C 
BRANCH   7   8
ATOM      8  C   UNL     1     -40.269  34.023 -10.218  1.00  0.00     0.041 C 
ATOM      9  O   UNL     1     -39.542  33.027  -9.960  1.00  0.00    -0.550 OA
ATOM     10  O   UNL     1     -39.707  35.293 -10.264  1.00  0.00    -0.550 OA
ENDBRANCH   7   8
ENDBRANCH   6   7
ENDBRANCH   5   6
ENDBRANCH   4   5
ENDBRANCH   3   4
ENDBRANCH   2   3
ENDBRANCH   1   2
BRANCH   1  11
ATOM     11  C   UNL     1     -40.140  26.331  -7.675  1.00  0.00     0.000 C 
BRANCH  11  12
ATOM     12  C   UNL     1     -39.857  25.264  -6.600  1.00  0.00    -0.000 C 
BRANCH  12  13
ATOM     13  C   UNL     1     -41.110  24.602  -5.998  1.00  0.00    -0.000 C 
BRANCH  13  14
ATOM     14  C   UNL     1     -41.688  23.497  -6.897  1.00  0.00    -0.000 C 
BRANCH  14  15
ATOM     15  C   UNL     1     -40.710  23.081  -8.015  1.00  0.00    -0.000 C 
BRANCH  15  16
ATOM     16  C   UNL     1     -39.523  22.236  -7.515  1.00  0.00    -0.000 C 
BRANCH  16  17
ATOM     17  C   UNL     1     -38.171  22.716  -8.063  1.00  0.00    -0.003 C 
ATOM     18  C   UNL     1     -37.798  21.970  -9.341  1.00  0.00     0.004 C 
ENDBRANCH  16  17
ENDBRANCH  15  16
ENDBRANCH  14  15
ENDBRANCH  13  14
ENDBRANCH  12  13
ENDBRANCH  11  12
ENDBRANCH   1  11
TORSDOF 14
ENDMDL
