MODEL 1
REMARK VINA RESULT:    -8.169      0.000      0.000
REMARK INTER + INTRA:          -9.844
REMARK INTER:                  -9.840
REMARK INTRA:                  -0.004
REMARK UNBOUND:                -0.004
REMARK SMILES O=c1c(O)c(-c2ccc(O)c(O)c2)oc2cc(O)cc(O)c12
REMARK SMILES IDX 5 1 3 2 2 3 1 4 22 5 20 6 19 7 17 8 16 9 15 10 14 11 6 12
REMARK SMILES IDX 7 13 8 14 9 15 13 16 11 17 10 18 12 20 4 22 21 24 18 26
REMARK H PARENT 10 19 12 21 4 23 21 25 18 27
REMARK Flexibility Score: inf
ROOT
ATOM      1  C   UNL     1      -4.186  21.818  48.228  1.00  0.00     0.180 A 
ATOM      2  C   UNL     1      -3.731  21.876  46.899  1.00  0.00     0.208 A 
ATOM      3  C   UNL     1      -3.224  20.711  46.301  1.00  0.00     0.238 A 
ATOM      4  O   UNL     1      -2.769  20.782  45.129  1.00  0.00    -0.285 OA
ATOM      5  C   UNL     1      -3.192  19.500  47.033  1.00  0.00     0.111 A 
ATOM      6  C   UNL     1      -2.737  18.251  46.514  1.00  0.00     0.134 A 
ATOM      7  C   UNL     1      -2.628  17.147  47.369  1.00  0.00     0.093 A 
ATOM      8  C   UNL     1      -3.019  17.230  48.708  1.00  0.00     0.123 A 
ATOM      9  C   UNL     1      -3.521  18.429  49.209  1.00  0.00     0.094 A 
ATOM     10  C   UNL     1      -3.607  19.558  48.389  1.00  0.00     0.146 A 
ATOM     11  O   UNL     1      -4.081  20.684  48.910  1.00  0.00    -0.452 OA
ENDROOT
BRANCH   1  12
ATOM     12  C   UNL     1      -4.757  22.998  48.917  1.00  0.00     0.025 A 
ATOM     13  C   UNL     1      -5.785  23.728  48.299  1.00  0.00     0.016 A 
ATOM     14  C   UNL     1      -6.323  24.858  48.922  1.00  0.00     0.051 A 
ATOM     15  C   UNL     1      -5.830  25.283  50.162  1.00  0.00     0.157 A 
ATOM     16  C   UNL     1      -4.251  23.441  50.152  1.00  0.00     0.062 A 
ATOM     17  C   UNL     1      -4.790  24.576  50.776  1.00  0.00     0.158 A 
BRANCH  15  18
ATOM     18  O   UNL     1      -6.365  26.407  50.786  1.00  0.00    -0.504 OA
ATOM     19  H   UNL     1      -6.326  27.323  50.353  1.00  0.00     0.293 HD
ENDBRANCH  15  18
BRANCH  17  20
ATOM     20  O   UNL     1      -4.291  25.009  52.003  1.00  0.00    -0.504 OA
ATOM     21  H   UNL     1      -4.558  24.561  52.873  1.00  0.00     0.293 HD
ENDBRANCH  17  20
ENDBRANCH   1  12
BRANCH   2  22
ATOM     22  O   UNL     1      -3.752  23.087  46.201  1.00  0.00    -0.502 OA
ATOM     23  H   UNL     1      -4.575  23.419  45.712  1.00  0.00     0.293 HD
ENDBRANCH   2  22
BRANCH   6  24
ATOM     24  O   UNL     1      -2.410  18.036  45.173  1.00  0.00    -0.507 OA
ATOM     25  H   UNL     1      -2.468  17.147  44.702  1.00  0.00     0.293 HD
ENDBRANCH   6  24
BRANCH   8  26
ATOM     26  O   UNL     1      -2.921  16.123  49.547  1.00  0.00    -0.508 OA
ATOM     27  H   UNL     1      -3.645  15.902  50.221  1.00  0.00     0.293 HD
ENDBRANCH   8  26
TORSDOF 6
ENDMDL
MODEL 2
REMARK VINA RESULT:    -7.498      1.482      6.767
REMARK INTER + INTRA:          -9.036
REMARK INTER:                  -8.811
REMARK INTRA:                  -0.226
REMARK UNBOUND:                -0.004
REMARK SMILES O=c1c(O)c(-c2ccc(O)c(O)c2)oc2cc(O)cc(O)c12
REMARK SMILES IDX 5 1 3 2 2 3 1 4 22 5 20 6 19 7 17 8 16 9 15 10 14 11 6 12
REMARK SMILES IDX 7 13 8 14 9 15 13 16 11 17 10 18 12 20 4 22 21 24 18 26
REMARK H PARENT 10 19 12 21 4 23 21 25 18 27
REMARK Flexibility Score: inf
ROOT
ATOM      1  C   UNL     1      -3.475  21.361  48.257  1.00  0.00     0.180 A 
ATOM      2  C   UNL     1      -4.047  22.019  47.155  1.00  0.00     0.208 A 
ATOM      3  C   UNL     1      -4.545  23.322  47.321  1.00  0.00     0.238 A 
ATOM      4  O   UNL     1      -5.103  23.885  46.344  1.00  0.00    -0.285 OA
ATOM      5  C   UNL     1      -4.450  23.956  48.583  1.00  0.00     0.111 A 
ATOM      6  C   UNL     1      -4.884  25.288  48.856  1.00  0.00     0.134 A 
ATOM      7  C   UNL     1      -4.861  25.766  50.172  1.00  0.00     0.093 A 
ATOM      8  C   UNL     1      -4.358  24.984  51.214  1.00  0.00     0.123 A 
ATOM      9  C   UNL     1      -3.877  23.704  50.948  1.00  0.00     0.094 A 
ATOM     10  C   UNL     1      -3.921  23.186  49.652  1.00  0.00     0.146 A 
ATOM     11  O   UNL     1      -3.461  21.958  49.444  1.00  0.00    -0.452 OA
ENDROOT
BRANCH   1  12
ATOM     12  C   UNL     1      -2.908  19.998  48.153  1.00  0.00     0.025 A 
ATOM     13  C   UNL     1      -3.511  18.943  48.857  1.00  0.00     0.016 A 
ATOM     14  C   UNL     1      -2.979  17.652  48.791  1.00  0.00     0.051 A 
ATOM     15  C   UNL     1      -1.829  17.401  48.031  1.00  0.00     0.157 A 
ATOM     16  C   UNL     1      -1.742  19.745  47.409  1.00  0.00     0.062 A 
ATOM     17  C   UNL     1      -1.207  18.449  47.343  1.00  0.00     0.158 A 
BRANCH  15  18
ATOM     18  O   UNL     1      -1.297  16.115  47.961  1.00  0.00    -0.504 OA
ATOM     19  H   UNL     1      -1.259  15.605  47.086  1.00  0.00     0.293 HD
ENDBRANCH  15  18
BRANCH  17  20
ATOM     20  O   UNL     1      -0.054  18.199  46.601  1.00  0.00    -0.504 OA
ATOM     21  H   UNL     1       0.635  18.923  46.430  1.00  0.00     0.293 HD
ENDBRANCH  17  20
ENDBRANCH   1  12
BRANCH   2  22
ATOM     22  O   UNL     1      -4.150  21.367  45.922  1.00  0.00    -0.502 OA
ATOM     23  H   UNL     1      -4.003  20.370  45.821  1.00  0.00     0.293 HD
ENDBRANCH   2  22
BRANCH   6  24
ATOM     24  O   UNL     1      -5.316  26.184  47.874  1.00  0.00    -0.507 OA
ATOM     25  H   UNL     1      -6.225  26.621  47.854  1.00  0.00     0.293 HD
ENDBRANCH   6  24
BRANCH   8  26
ATOM     26  O   UNL     1      -4.325  25.473  52.518  1.00  0.00    -0.508 OA
ATOM     27  H   UNL     1      -4.693  24.936  53.295  1.00  0.00     0.293 HD
ENDBRANCH   8  26
TORSDOF 6
ENDMDL
MODEL 3
REMARK VINA RESULT:    -7.480      1.573      2.017
REMARK INTER + INTRA:          -9.014
REMARK INTER:                  -8.741
REMARK INTRA:                  -0.273
REMARK UNBOUND:                -0.004
REMARK SMILES O=c1c(O)c(-c2ccc(O)c(O)c2)oc2cc(O)cc(O)c12
REMARK SMILES IDX 5 1 3 2 2 3 1 4 22 5 20 6 19 7 17 8 16 9 15 10 14 11 6 12
REMARK SMILES IDX 7 13 8 14 9 15 13 16 11 17 10 18 12 20 4 22 21 24 18 26
REMARK H PARENT 10 19 12 21 4 23 21 25 18 27
REMARK Flexibility Score: inf
ROOT
ATOM      1  C   UNL     1      -3.158  21.810  48.722  1.00  0.00     0.180 A 
ATOM      2  C   UNL     1      -2.041  22.002  47.891  1.00  0.00     0.208 A 
ATOM      3  C   UNL     1      -1.310  20.883  47.462  1.00  0.00     0.238 A 
ATOM      4  O   UNL     1      -0.280  21.065  46.762  1.00  0.00    -0.285 OA
ATOM      5  C   UNL     1      -1.714  19.584  47.856  1.00  0.00     0.111 A 
ATOM      6  C   UNL     1      -1.072  18.377  47.447  1.00  0.00     0.134 A 
ATOM      7  C   UNL     1      -1.478  17.157  48.004  1.00  0.00     0.093 A 
ATOM      8  C   UNL     1      -2.545  17.094  48.903  1.00  0.00     0.123 A 
ATOM      9  C   UNL     1      -3.216  18.261  49.262  1.00  0.00     0.094 A 
ATOM     10  C   UNL     1      -2.811  19.497  48.752  1.00  0.00     0.146 A 
ATOM     11  O   UNL     1      -3.472  20.585  49.129  1.00  0.00    -0.452 OA
ENDROOT
BRANCH   1  12
ATOM     12  C   UNL     1      -3.992  22.939  49.194  1.00  0.00     0.025 A 
ATOM     13  C   UNL     1      -3.934  23.323  50.544  1.00  0.00     0.016 A 
ATOM     14  C   UNL     1      -4.729  24.371  51.016  1.00  0.00     0.051 A 
ATOM     15  C   UNL     1      -5.603  25.040  50.149  1.00  0.00     0.157 A 
ATOM     16  C   UNL     1      -4.886  23.599  48.333  1.00  0.00     0.062 A 
ATOM     17  C   UNL     1      -5.684  24.651  48.807  1.00  0.00     0.158 A 
BRANCH  15  18
ATOM     18  O   UNL     1      -6.395  26.087  50.615  1.00  0.00    -0.504 OA
ATOM     19  H   UNL     1      -7.381  25.958  50.813  1.00  0.00     0.293 HD
ENDBRANCH  15  18
BRANCH  17  20
ATOM     20  O   UNL     1      -6.565  25.309  47.950  1.00  0.00    -0.504 OA
ATOM     21  H   UNL     1      -6.449  26.289  47.719  1.00  0.00     0.293 HD
ENDBRANCH  17  20
ENDBRANCH   1  12
BRANCH   2  22
ATOM     22  O   UNL     1      -1.647  23.294  47.531  1.00  0.00    -0.502 OA
ATOM     23  H   UNL     1      -0.721  23.501  47.177  1.00  0.00     0.293 HD
ENDBRANCH   2  22
BRANCH   6  24
ATOM     24  O   UNL     1      -0.059  18.318  46.487  1.00  0.00    -0.507 OA
ATOM     25  H   UNL     1       0.753  17.724  46.543  1.00  0.00     0.293 HD
ENDBRANCH   6  24
BRANCH   8  26
ATOM     26  O   UNL     1      -2.951  15.875  49.440  1.00  0.00    -0.508 OA
ATOM     27  H   UNL     1      -2.349  15.061  49.423  1.00  0.00     0.293 HD
ENDBRANCH   8  26
TORSDOF 6
ENDMDL
MODEL 4
REMARK VINA RESULT:    -7.426      1.723      6.952
REMARK INTER + INTRA:          -8.949
REMARK INTER:                  -8.671
REMARK INTRA:                  -0.278
REMARK UNBOUND:                -0.004
REMARK SMILES O=c1c(O)c(-c2ccc(O)c(O)c2)oc2cc(O)cc(O)c12
REMARK SMILES IDX 5 1 3 2 2 3 1 4 22 5 20 6 19 7 17 8 16 9 15 10 14 11 6 12
REMARK SMILES IDX 7 13 8 14 9 15 13 16 11 17 10 18 12 20 4 22 21 24 18 26
REMARK H PARENT 10 19 12 21 4 23 21 25 18 27
REMARK Flexibility Score: inf
ROOT
ATOM      1  C   UNL     1      -3.835  22.307  49.042  1.00  0.00     0.180 A 
ATOM      2  C   UNL     1      -4.990  23.047  48.730  1.00  0.00     0.208 A 
ATOM      3  C   UNL     1      -5.255  24.227  49.442  1.00  0.00     0.238 A 
ATOM      4  O   UNL     1      -6.317  24.857  49.195  1.00  0.00    -0.285 OA
ATOM      5  C   UNL     1      -4.356  24.663  50.446  1.00  0.00     0.111 A 
ATOM      6  C   UNL     1      -4.505  25.864  51.201  1.00  0.00     0.134 A 
ATOM      7  C   UNL     1      -3.625  26.128  52.258  1.00  0.00     0.093 A 
ATOM      8  C   UNL     1      -2.563  25.267  52.544  1.00  0.00     0.123 A 
ATOM      9  C   UNL     1      -2.374  24.122  51.774  1.00  0.00     0.094 A 
ATOM     10  C   UNL     1      -3.257  23.813  50.736  1.00  0.00     0.146 A 
ATOM     11  O   UNL     1      -3.047  22.706  50.033  1.00  0.00    -0.452 OA
ENDROOT
BRANCH   1  12
ATOM     12  C   UNL     1      -3.476  21.067  48.318  1.00  0.00     0.025 A 
ATOM     13  C   UNL     1      -2.937  21.153  47.024  1.00  0.00     0.016 A 
ATOM     14  C   UNL     1      -2.611  19.994  46.315  1.00  0.00     0.051 A 
ATOM     15  C   UNL     1      -2.834  18.733  46.882  1.00  0.00     0.157 A 
ATOM     16  C   UNL     1      -3.717  19.798  48.875  1.00  0.00     0.062 A 
ATOM     17  C   UNL     1      -3.391  18.635  48.162  1.00  0.00     0.158 A 
BRANCH  15  18
ATOM     18  O   UNL     1      -2.508  17.575  46.178  1.00  0.00    -0.504 OA
ATOM     19  H   UNL     1      -2.062  17.616  45.269  1.00  0.00     0.293 HD
ENDBRANCH  15  18
BRANCH  17  20
ATOM     20  O   UNL     1      -3.625  17.378  48.718  1.00  0.00    -0.504 OA
ATOM     21  H   UNL     1      -3.098  17.045  49.518  1.00  0.00     0.293 HD
ENDBRANCH  17  20
ENDBRANCH   1  12
BRANCH   2  22
ATOM     22  O   UNL     1      -5.875  22.588  47.750  1.00  0.00    -0.502 OA
ATOM     23  H   UNL     1      -5.750  22.793  46.766  1.00  0.00     0.293 HD
ENDBRANCH   2  22
BRANCH   6  24
ATOM     24  O   UNL     1      -5.475  26.836  50.939  1.00  0.00    -0.507 OA
ATOM     25  H   UNL     1      -6.391  26.861  51.358  1.00  0.00     0.293 HD
ENDBRANCH   6  24
BRANCH   8  26
ATOM     26  O   UNL     1      -1.683  25.545  53.588  1.00  0.00    -0.508 OA
ATOM     27  H   UNL     1      -1.867  25.232  54.534  1.00  0.00     0.293 HD
ENDBRANCH   8  26
TORSDOF 6
ENDMDL
MODEL 5
REMARK VINA RESULT:    -6.972      1.626      7.209
REMARK INTER + INTRA:          -8.402
REMARK INTER:                  -8.101
REMARK INTRA:                  -0.301
REMARK UNBOUND:                -0.004
REMARK SMILES O=c1c(O)c(-c2ccc(O)c(O)c2)oc2cc(O)cc(O)c12
REMARK SMILES IDX 5 1 3 2 2 3 1 4 22 5 20 6 19 7 17 8 16 9 15 10 14 11 6 12
REMARK SMILES IDX 7 13 8 14 9 15 13 16 11 17 10 18 12 20 4 22 21 24 18 26
REMARK H PARENT 10 19 12 21 4 23 21 25 18 27
REMARK Flexibility Score: inf
ROOT
ATOM      1  C   UNL     1      -3.849  22.406  48.951  1.00  0.00     0.180 A 
ATOM      2  C   UNL     1      -2.895  22.933  49.840  1.00  0.00     0.208 A 
ATOM      3  C   UNL     1      -3.157  24.158  50.474  1.00  0.00     0.238 A 
ATOM      4  O   UNL     1      -2.277  24.650  51.227  1.00  0.00    -0.285 OA
ATOM      5  C   UNL     1      -4.377  24.833  50.225  1.00  0.00     0.111 A 
ATOM      6  C   UNL     1      -4.766  26.059  50.844  1.00  0.00     0.134 A 
ATOM      7  C   UNL     1      -5.936  26.703  50.424  1.00  0.00     0.093 A 
ATOM      8  C   UNL     1      -6.765  26.133  49.455  1.00  0.00     0.123 A 
ATOM      9  C   UNL     1      -6.425  24.907  48.889  1.00  0.00     0.094 A 
ATOM     10  C   UNL     1      -5.244  24.258  49.261  1.00  0.00     0.146 A 
ATOM     11  O   UNL     1      -4.952  23.096  48.688  1.00  0.00    -0.452 OA
ENDROOT
BRANCH   1  12
ATOM     12  C   UNL     1      -3.653  21.109  48.264  1.00  0.00     0.025 A 
ATOM     13  C   UNL     1      -3.302  21.094  46.905  1.00  0.00     0.016 A 
ATOM     14  C   UNL     1      -3.134  19.881  46.231  1.00  0.00     0.051 A 
ATOM     15  C   UNL     1      -3.329  18.667  46.903  1.00  0.00     0.157 A 
ATOM     16  C   UNL     1      -3.868  19.889  48.929  1.00  0.00     0.062 A 
ATOM     17  C   UNL     1      -3.701  18.671  48.253  1.00  0.00     0.158 A 
BRANCH  15  18
ATOM     18  O   UNL     1      -3.161  17.456  46.236  1.00  0.00    -0.504 OA
ATOM     19  H   UNL     1      -2.272  17.200  45.819  1.00  0.00     0.293 HD
ENDBRANCH  15  18
BRANCH  17  20
ATOM     20  O   UNL     1      -3.908  17.463  48.915  1.00  0.00    -0.504 OA
ATOM     21  H   UNL     1      -3.139  16.942  49.322  1.00  0.00     0.293 HD
ENDBRANCH  17  20
ENDBRANCH   1  12
BRANCH   2  22
ATOM     22  O   UNL     1      -1.688  22.261  50.055  1.00  0.00    -0.502 OA
ATOM     23  H   UNL     1      -1.335  21.560  49.415  1.00  0.00     0.293 HD
ENDBRANCH   2  22
BRANCH   6  24
ATOM     24  O   UNL     1      -4.058  26.666  51.885  1.00  0.00    -0.507 OA
ATOM     25  H   UNL     1      -3.821  26.218  52.757  1.00  0.00     0.293 HD
ENDBRANCH   6  24
BRANCH   8  26
ATOM     26  O   UNL     1      -7.935  26.773  49.055  1.00  0.00    -0.508 OA
ATOM     27  H   UNL     1      -8.725  26.876  49.681  1.00  0.00     0.293 HD
ENDBRANCH   8  26
TORSDOF 6
ENDMDL
MODEL 6
REMARK VINA RESULT:    -6.965      2.591      3.168
REMARK INTER + INTRA:          -8.394
REMARK INTER:                  -8.394
REMARK INTRA:                   0.001
REMARK UNBOUND:                -0.004
REMARK SMILES O=c1c(O)c(-c2ccc(O)c(O)c2)oc2cc(O)cc(O)c12
REMARK SMILES IDX 5 1 3 2 2 3 1 4 22 5 20 6 19 7 17 8 16 9 15 10 14 11 6 12
REMARK SMILES IDX 7 13 8 14 9 15 13 16 11 17 10 18 12 20 4 22 21 24 18 26
REMARK H PARENT 10 19 12 21 4 23 21 25 18 27
REMARK Flexibility Score: inf
ROOT
ATOM      1  C   UNL     1      -3.006  21.844  48.351  1.00  0.00     0.180 A 
ATOM      2  C   UNL     1      -3.436  20.627  47.794  1.00  0.00     0.208 A 
ATOM      3  C   UNL     1      -2.478  19.727  47.302  1.00  0.00     0.238 A 
ATOM      4  O   UNL     1      -2.872  18.663  46.757  1.00  0.00    -0.285 OA
ATOM      5  C   UNL     1      -1.101  20.046  47.387  1.00  0.00     0.111 A 
ATOM      6  C   UNL     1      -0.043  19.191  46.957  1.00  0.00     0.134 A 
ATOM      7  C   UNL     1       1.275  19.665  46.969  1.00  0.00     0.093 A 
ATOM      8  C   UNL     1       1.579  20.939  47.456  1.00  0.00     0.123 A 
ATOM      9  C   UNL     1       0.559  21.758  47.933  1.00  0.00     0.094 A 
ATOM     10  C   UNL     1      -0.769  21.327  47.900  1.00  0.00     0.146 A 
ATOM     11  O   UNL     1      -1.712  22.144  48.356  1.00  0.00    -0.452 OA
ENDROOT
BRANCH   1  12
ATOM     12  C   UNL     1      -3.955  22.833  48.912  1.00  0.00     0.025 A 
ATOM     13  C   UNL     1      -5.018  23.297  48.121  1.00  0.00     0.016 A 
ATOM     14  C   UNL     1      -5.912  24.246  48.622  1.00  0.00     0.051 A 
ATOM     15  C   UNL     1      -5.748  24.755  49.917  1.00  0.00     0.157 A 
ATOM     16  C   UNL     1      -3.782  23.362  50.203  1.00  0.00     0.062 A 
ATOM     17  C   UNL     1      -4.680  24.316  50.707  1.00  0.00     0.158 A 
BRANCH  15  18
ATOM     18  O   UNL     1      -6.639  25.700  50.422  1.00  0.00    -0.504 OA
ATOM     19  H   UNL     1      -6.454  26.694  50.350  1.00  0.00     0.293 HD
ENDBRANCH  15  18
BRANCH  17  20
ATOM     20  O   UNL     1      -4.510  24.836  51.989  1.00  0.00    -0.504 OA
ATOM     21  H   UNL     1      -3.731  25.442  52.217  1.00  0.00     0.293 HD
ENDBRANCH  17  20
ENDBRANCH   1  12
BRANCH   2  22
ATOM     22  O   UNL     1      -4.801  20.341  47.701  1.00  0.00    -0.502 OA
ATOM     23  H   UNL     1      -5.309  19.871  48.441  1.00  0.00     0.293 HD
ENDBRANCH   2  22
BRANCH   6  24
ATOM     24  O   UNL     1      -0.228  17.870  46.540  1.00  0.00    -0.507 OA
ATOM     25  H   UNL     1      -0.724  17.595  45.707  1.00  0.00     0.293 HD
ENDBRANCH   6  24
BRANCH   8  26
ATOM     26  O   UNL     1       2.895  21.396  47.478  1.00  0.00    -0.508 OA
ATOM     27  H   UNL     1       3.382  21.567  48.349  1.00  0.00     0.293 HD
ENDBRANCH   8  26
TORSDOF 6
ENDMDL
MODEL 7
REMARK VINA RESULT:    -6.853      2.250      7.188
REMARK INTER + INTRA:          -8.259
REMARK INTER:                  -7.956
REMARK INTRA:                  -0.303
REMARK UNBOUND:                -0.004
REMARK SMILES O=c1c(O)c(-c2ccc(O)c(O)c2)oc2cc(O)cc(O)c12
REMARK SMILES IDX 5 1 3 2 2 3 1 4 22 5 20 6 19 7 17 8 16 9 15 10 14 11 6 12
REMARK SMILES IDX 7 13 8 14 9 15 13 16 11 17 10 18 12 20 4 22 21 24 18 26
REMARK H PARENT 10 19 12 21 4 23 21 25 18 27
REMARK Flexibility Score: inf
ROOT
ATOM      1  C   UNL     1      -3.759  23.464  49.399  1.00  0.00     0.180 A 
ATOM      2  C   UNL     1      -4.786  24.423  49.384  1.00  0.00     0.208 A 
ATOM      3  C   UNL     1      -4.761  25.463  50.327  1.00  0.00     0.238 A 
ATOM      4  O   UNL     1      -5.712  26.288  50.343  1.00  0.00    -0.285 OA
ATOM      5  C   UNL     1      -3.701  25.541  51.262  1.00  0.00     0.111 A 
ATOM      6  C   UNL     1      -3.553  26.574  52.236  1.00  0.00     0.134 A 
ATOM      7  C   UNL     1      -2.537  26.478  53.195  1.00  0.00     0.093 A 
ATOM      8  C   UNL     1      -1.624  25.421  53.175  1.00  0.00     0.123 A 
ATOM      9  C   UNL     1      -1.724  24.439  52.192  1.00  0.00     0.094 A 
ATOM     10  C   UNL     1      -2.750  24.488  51.244  1.00  0.00     0.146 A 
ATOM     11  O   UNL     1      -2.815  23.526  50.331  1.00  0.00    -0.452 OA
ENDROOT
BRANCH   1  12
ATOM     12  C   UNL     1      -3.704  22.353  48.421  1.00  0.00     0.025 A 
ATOM     13  C   UNL     1      -4.069  21.058  48.825  1.00  0.00     0.016 A 
ATOM     14  C   UNL     1      -4.004  19.991  47.925  1.00  0.00     0.051 A 
ATOM     15  C   UNL     1      -3.560  20.201  46.613  1.00  0.00     0.157 A 
ATOM     16  C   UNL     1      -3.239  22.554  47.110  1.00  0.00     0.062 A 
ATOM     17  C   UNL     1      -3.173  21.483  46.206  1.00  0.00     0.158 A 
BRANCH  15  18
ATOM     18  O   UNL     1      -3.496  19.140  45.713  1.00  0.00    -0.504 OA
ATOM     19  H   UNL     1      -3.491  18.176  46.028  1.00  0.00     0.293 HD
ENDBRANCH  15  18
BRANCH  17  20
ATOM     20  O   UNL     1      -2.717  21.685  44.905  1.00  0.00    -0.504 OA
ATOM     21  H   UNL     1      -2.907  22.546  44.404  1.00  0.00     0.293 HD
ENDBRANCH  17  20
ENDBRANCH   1  12
BRANCH   2  22
ATOM     22  O   UNL     1      -5.835  24.315  48.466  1.00  0.00    -0.502 OA
ATOM     23  H   UNL     1      -6.754  23.980  48.727  1.00  0.00     0.293 HD
ENDBRANCH   2  22
BRANCH   6  24
ATOM     24  O   UNL     1      -4.354  27.718  52.286  1.00  0.00    -0.507 OA
ATOM     25  H   UNL     1      -5.351  27.716  52.435  1.00  0.00     0.293 HD
ENDBRANCH   6  24
BRANCH   8  26
ATOM     26  O   UNL     1      -0.607  25.342  54.123  1.00  0.00    -0.508 OA
ATOM     27  H   UNL     1      -0.736  25.684  55.068  1.00  0.00     0.293 HD
ENDBRANCH   8  26
TORSDOF 6
ENDMDL
MODEL 8
REMARK VINA RESULT:    -6.759      1.731      6.695
REMARK INTER + INTRA:          -8.146
REMARK INTER:                  -8.103
REMARK INTRA:                  -0.043
REMARK UNBOUND:                -0.004
REMARK SMILES O=c1c(O)c(-c2ccc(O)c(O)c2)oc2cc(O)cc(O)c12
REMARK SMILES IDX 5 1 3 2 2 3 1 4 22 5 20 6 19 7 17 8 16 9 15 10 14 11 6 12
REMARK SMILES IDX 7 13 8 14 9 15 13 16 11 17 10 18 12 20 4 22 21 24 18 26
REMARK H PARENT 10 19 12 21 4 23 21 25 18 27
REMARK Flexibility Score: inf
ROOT
ATOM      1  C   UNL     1      -3.723  21.865  47.636  1.00  0.00     0.180 A 
ATOM      2  C   UNL     1      -3.249  22.616  46.545  1.00  0.00     0.208 A 
ATOM      3  C   UNL     1      -3.523  23.992  46.495  1.00  0.00     0.238 A 
ATOM      4  O   UNL     1      -3.142  24.648  45.490  1.00  0.00    -0.285 OA
ATOM      5  C   UNL     1      -4.252  24.604  47.543  1.00  0.00     0.111 A 
ATOM      6  C   UNL     1      -4.552  25.997  47.616  1.00  0.00     0.134 A 
ATOM      7  C   UNL     1      -5.392  26.470  48.632  1.00  0.00     0.093 A 
ATOM      8  C   UNL     1      -5.889  25.611  49.615  1.00  0.00     0.123 A 
ATOM      9  C   UNL     1      -5.553  24.260  49.586  1.00  0.00     0.094 A 
ATOM     10  C   UNL     1      -4.747  23.752  48.564  1.00  0.00     0.146 A 
ATOM     11  O   UNL     1      -4.460  22.455  48.569  1.00  0.00    -0.452 OA
ENDROOT
BRANCH   1  12
ATOM     12  C   UNL     1      -3.453  20.415  47.770  1.00  0.00     0.025 A 
ATOM     13  C   UNL     1      -4.513  19.539  48.054  1.00  0.00     0.016 A 
ATOM     14  C   UNL     1      -4.277  18.170  48.207  1.00  0.00     0.051 A 
ATOM     15  C   UNL     1      -2.978  17.660  48.093  1.00  0.00     0.157 A 
ATOM     16  C   UNL     1      -2.147  19.902  47.678  1.00  0.00     0.062 A 
ATOM     17  C   UNL     1      -1.911  18.528  47.832  1.00  0.00     0.158 A 
BRANCH  15  18
ATOM     18  O   UNL     1      -2.739  16.296  48.243  1.00  0.00    -0.504 OA
ATOM     19  H   UNL     1      -2.961  15.810  49.105  1.00  0.00     0.293 HD
ENDBRANCH  15  18
BRANCH  17  20
ATOM     20  O   UNL     1      -0.617  18.019  47.734  1.00  0.00    -0.504 OA
ATOM     21  H   UNL     1      -0.285  17.289  48.354  1.00  0.00     0.293 HD
ENDBRANCH  17  20
ENDBRANCH   1  12
BRANCH   2  22
ATOM     22  O   UNL     1      -2.549  21.988  45.511  1.00  0.00    -0.502 OA
ATOM     23  H   UNL     1      -1.548  22.087  45.394  1.00  0.00     0.293 HD
ENDBRANCH   2  22
BRANCH   6  24
ATOM     24  O   UNL     1      -4.032  26.954  46.739  1.00  0.00    -0.507 OA
ATOM     25  H   UNL     1      -4.321  27.919  46.705  1.00  0.00     0.293 HD
ENDBRANCH   6  24
BRANCH   8  26
ATOM     26  O   UNL     1      -6.712  26.093  50.630  1.00  0.00    -0.508 OA
ATOM     27  H   UNL     1      -6.358  26.712  51.351  1.00  0.00     0.293 HD
ENDBRANCH   8  26
TORSDOF 6
ENDMDL
MODEL 9
REMARK VINA RESULT:    -6.668      1.983      7.548
REMARK INTER + INTRA:          -8.037
REMARK INTER:                  -7.710
REMARK INTRA:                  -0.326
REMARK UNBOUND:                -0.004
REMARK SMILES O=c1c(O)c(-c2ccc(O)c(O)c2)oc2cc(O)cc(O)c12
REMARK SMILES IDX 5 1 3 2 2 3 1 4 22 5 20 6 19 7 17 8 16 9 15 10 14 11 6 12
REMARK SMILES IDX 7 13 8 14 9 15 13 16 11 17 10 18 12 20 4 22 21 24 18 26
REMARK H PARENT 10 19 12 21 4 23 21 25 18 27
REMARK Flexibility Score: inf
ROOT
ATOM      1  C   UNL     1      -3.917  23.132  48.232  1.00  0.00     0.180 A 
ATOM      2  C   UNL     1      -3.952  23.439  49.603  1.00  0.00     0.208 A 
ATOM      3  C   UNL     1      -4.618  24.601  50.025  1.00  0.00     0.238 A 
ATOM      4  O   UNL     1      -4.601  24.898  51.248  1.00  0.00    -0.285 OA
ATOM      5  C   UNL     1      -5.255  25.432  49.072  1.00  0.00     0.111 A 
ATOM      6  C   UNL     1      -5.994  26.611  49.390  1.00  0.00     0.134 A 
ATOM      7  C   UNL     1      -6.470  27.427  48.357  1.00  0.00     0.093 A 
ATOM      8  C   UNL     1      -6.292  27.072  47.017  1.00  0.00     0.123 A 
ATOM      9  C   UNL     1      -5.624  25.893  46.698  1.00  0.00     0.094 A 
ATOM     10  C   UNL     1      -5.105  25.077  47.706  1.00  0.00     0.146 A 
ATOM     11  O   UNL     1      -4.466  23.966  47.357  1.00  0.00    -0.452 OA
ENDROOT
BRANCH   1  12
ATOM     12  C   UNL     1      -3.255  21.912  47.715  1.00  0.00     0.025 A 
ATOM     13  C   UNL     1      -1.896  21.961  47.362  1.00  0.00     0.016 A 
ATOM     14  C   UNL     1      -1.257  20.828  46.851  1.00  0.00     0.051 A 
ATOM     15  C   UNL     1      -1.970  19.635  46.673  1.00  0.00     0.157 A 
ATOM     16  C   UNL     1      -3.971  20.719  47.515  1.00  0.00     0.062 A 
ATOM     17  C   UNL     1      -3.330  19.582  47.001  1.00  0.00     0.158 A 
BRANCH  15  18
ATOM     18  O   UNL     1      -1.336  18.503  46.166  1.00  0.00    -0.504 OA
ATOM     19  H   UNL     1      -0.696  18.561  45.381  1.00  0.00     0.293 HD
ENDBRANCH  15  18
BRANCH  17  20
ATOM     20  O   UNL     1      -4.040  18.398  46.809  1.00  0.00    -0.504 OA
ATOM     21  H   UNL     1      -3.702  17.512  47.168  1.00  0.00     0.293 HD
ENDBRANCH  17  20
ENDBRANCH   1  12
BRANCH   2  22
ATOM     22  O   UNL     1      -3.298  22.615  50.525  1.00  0.00    -0.502 OA
ATOM     23  H   UNL     1      -2.352  22.794  50.838  1.00  0.00     0.293 HD
ENDBRANCH   2  22
BRANCH   6  24
ATOM     24  O   UNL     1      -6.308  27.007  50.694  1.00  0.00    -0.507 OA
ATOM     25  H   UNL     1      -6.945  26.519  51.304  1.00  0.00     0.293 HD
ENDBRANCH   6  24
BRANCH   8  26
ATOM     26  O   UNL     1      -6.782  27.883  45.996  1.00  0.00    -0.508 OA
ATOM     27  H   UNL     1      -6.425  28.819  45.843  1.00  0.00     0.293 HD
ENDBRANCH   8  26
TORSDOF 6
ENDMDL
