MODEL 1
REMARK VINA RESULT:    -5.834      0.000      0.000
REMARK INTER + INTRA:          -9.388
REMARK INTER:                  -8.050
REMARK INTRA:                  -1.337
REMARK UNBOUND:                -1.337
REMARK SMILES CC[C@@H](CC[C@H](C)[C@H]1CC[C@@H]2[C@H]3CC=C4C[C@@H](O)CC[C@]4(C)[C@H]3CC[C@]21C)C(C)C
REMARK SMILES IDX 5 1 4 2 3 3 2 4 1 5 28 6 29 7 30 8 6 9 7 10 8 11 9 12 26 13
REMARK SMILES IDX 10 14 11 15 25 16 27 17 12 18 24 19 23 20 13 21 21 22 14 23
REMARK SMILES IDX 15 24 20 25 22 26 16 27 19 28 17 29 18 30
REMARK H PARENT 18 31
REMARK Flexibility Score: inf
ROOT
ATOM      1  C   UNL     1     -12.269  -3.504 -38.920  1.00  0.00     0.004 C 
ENDROOT
BRANCH   1   2
ATOM      2  C   UNL     1     -10.993  -3.481 -38.045  1.00  0.00     0.004 C 
BRANCH   2   3
ATOM      3  C   UNL     1     -10.506  -4.876 -37.517  1.00  0.00    -0.009 C 
BRANCH   3   4
ATOM      4  C   UNL     1     -10.623  -4.944 -35.958  1.00  0.00     0.000 C 
ATOM      5  C   UNL     1     -10.670  -3.582 -35.261  1.00  0.00     0.004 C 
ENDBRANCH   3   4
BRANCH   3   6
ATOM      6  C   UNL     1      -9.028  -5.233 -37.937  1.00  0.00    -0.014 C 
ATOM      7  C   UNL     1      -8.309  -6.232 -37.008  1.00  0.00     0.007 C 
ATOM      8  C   UNL     1      -8.154  -3.960 -38.010  1.00  0.00     0.007 C 
ENDBRANCH   3   6
ENDBRANCH   2   3
ENDBRANCH   1   2
BRANCH   1   9
ATOM      9  C   UNL     1     -12.691  -2.133 -39.533  1.00  0.00    -0.011 C 
ATOM     10  C   UNL     1     -13.424  -2.338 -40.877  1.00  0.00     0.008 C 
BRANCH   9  11
ATOM     11  C   UNL     1     -11.453  -1.170 -39.617  1.00  0.00    -0.002 C 
ATOM     12  C   UNL     1     -11.065  -0.783 -41.071  1.00  0.00     0.005 C 
ATOM     13  C   UNL     1     -11.479   0.186 -38.815  1.00  0.00    -0.026 C 
ATOM     14  C   UNL     1     -10.938   0.741 -41.125  1.00  0.00     0.005 C 
ATOM     15  C   UNL     1     -11.736   1.225 -39.926  1.00  0.00    -0.001 C 
ATOM     16  C   UNL     1     -12.539   0.378 -37.674  1.00  0.00     0.007 C 
ATOM     17  C   UNL     1     -10.061   0.361 -38.170  1.00  0.00     0.012 C 
ATOM     18  C   UNL     1     -11.499   2.676 -39.448  1.00  0.00     0.000 C 
ATOM     19  C   UNL     1     -13.196   1.785 -37.661  1.00  0.00     0.005 C 
ATOM     20  C   UNL     1     -12.242   2.951 -38.079  1.00  0.00     0.003 C 
ATOM     21  C   UNL     1     -11.867   3.683 -40.542  1.00  0.00     0.031 C 
ATOM     22  C   UNL     1     -12.919   4.387 -37.945  1.00  0.00    -0.008 C 
ATOM     23  C   UNL     1     -11.715   5.078 -40.024  1.00  0.00    -0.027 C 
ATOM     24  C   UNL     1     -12.161   5.421 -38.800  1.00  0.00    -0.065 C 
ATOM     25  C   UNL     1     -12.889   4.803 -36.437  1.00  0.00     0.014 C 
ATOM     26  C   UNL     1     -14.396   4.382 -38.425  1.00  0.00     0.016 C 
ATOM     27  C   UNL     1     -12.155   6.894 -38.437  1.00  0.00     0.063 C 
ATOM     28  C   UNL     1     -13.155   6.292 -36.201  1.00  0.00     0.033 C 
ATOM     29  C   UNL     1     -12.095   7.128 -36.922  1.00  0.00     0.118 C 
BRANCH  29  30
ATOM     30  O   UNL     1     -12.250   8.493 -36.625  1.00  0.00    -0.393 OA
ATOM     31  H   UNL     1     -12.666   8.929 -37.415  1.00  0.00     0.210 HD
ENDBRANCH  29  30
ENDBRANCH   9  11
ENDBRANCH   1   9
TORSDOF 7
ENDMDL
MODEL 2
REMARK VINA RESULT:    -5.680      2.497      3.440
REMARK INTER + INTRA:          -9.175
REMARK INTER:                  -7.238
REMARK INTRA:                  -1.937
REMARK UNBOUND:                -1.337
REMARK SMILES CC[C@@H](CC[C@H](C)[C@H]1CC[C@@H]2[C@H]3CC=C4C[C@@H](O)CC[C@]4(C)[C@H]3CC[C@]21C)C(C)C
REMARK SMILES IDX 5 1 4 2 3 3 2 4 1 5 28 6 29 7 30 8 6 9 7 10 8 11 9 12 26 13
REMARK SMILES IDX 10 14 11 15 25 16 27 17 12 18 24 19 23 20 13 21 21 22 14 23
REMARK SMILES IDX 15 24 20 25 22 26 16 27 19 28 17 29 18 30
REMARK H PARENT 18 31
REMARK Flexibility Score: inf
ROOT
ATOM      1  C   UNL     1     -12.883  -3.034 -38.767  1.00  0.00     0.004 C 
ENDROOT
BRANCH   1   2
ATOM      2  C   UNL     1     -11.817  -3.146 -37.652  1.00  0.00     0.004 C 
BRANCH   2   3
ATOM      3  C   UNL     1     -10.378  -3.555 -38.126  1.00  0.00    -0.009 C 
BRANCH   3   4
ATOM      4  C   UNL     1     -10.059  -5.028 -37.706  1.00  0.00     0.000 C 
ATOM      5  C   UNL     1      -8.573  -5.394 -37.738  1.00  0.00     0.004 C 
ENDBRANCH   3   4
BRANCH   3   6
ATOM      6  C   UNL     1      -9.238  -2.609 -37.584  1.00  0.00    -0.014 C 
ATOM      7  C   UNL     1      -9.664  -1.661 -36.444  1.00  0.00     0.007 C 
ATOM      8  C   UNL     1      -8.663  -1.734 -38.721  1.00  0.00     0.007 C 
ENDBRANCH   3   6
ENDBRANCH   2   3
ENDBRANCH   1   2
BRANCH   1   9
ATOM      9  C   UNL     1     -13.098  -1.605 -39.353  1.00  0.00    -0.011 C 
ATOM     10  C   UNL     1     -12.569  -1.522 -40.802  1.00  0.00     0.008 C 
BRANCH   9  11
ATOM     11  C   UNL     1     -12.495  -0.523 -38.387  1.00  0.00    -0.002 C 
ATOM     12  C   UNL     1     -11.505   0.450 -39.084  1.00  0.00     0.005 C 
ATOM     13  C   UNL     1     -13.470   0.395 -37.557  1.00  0.00    -0.026 C 
ATOM     14  C   UNL     1     -11.930   1.876 -38.728  1.00  0.00     0.005 C 
ATOM     15  C   UNL     1     -13.385   1.738 -38.310  1.00  0.00    -0.001 C 
ATOM     16  C   UNL     1     -14.977  -0.023 -37.415  1.00  0.00     0.007 C 
ATOM     17  C   UNL     1     -12.877   0.499 -36.110  1.00  0.00     0.012 C 
ATOM     18  C   UNL     1     -14.014   2.905 -37.516  1.00  0.00     0.000 C 
ATOM     19  C   UNL     1     -15.969   1.162 -37.561  1.00  0.00     0.005 C 
ATOM     20  C   UNL     1     -15.452   2.519 -36.982  1.00  0.00     0.003 C 
ATOM     21  C   UNL     1     -14.007   4.198 -38.339  1.00  0.00     0.031 C 
ATOM     22  C   UNL     1     -16.540   3.680 -37.049  1.00  0.00    -0.008 C 
ATOM     23  C   UNL     1     -14.701   5.287 -37.584  1.00  0.00    -0.027 C 
ATOM     24  C   UNL     1     -15.863   5.060 -36.941  1.00  0.00    -0.065 C 
ATOM     25  C   UNL     1     -17.547   3.475 -35.870  1.00  0.00     0.014 C 
ATOM     26  C   UNL     1     -17.335   3.658 -38.384  1.00  0.00     0.016 C 
ATOM     27  C   UNL     1     -16.601   6.260 -36.378  1.00  0.00     0.063 C 
ATOM     28  C   UNL     1     -18.415   4.702 -35.577  1.00  0.00     0.033 C 
ATOM     29  C   UNL     1     -17.524   5.891 -35.210  1.00  0.00     0.118 C 
BRANCH  29  30
ATOM     30  O   UNL     1     -18.302   6.997 -34.825  1.00  0.00    -0.393 OA
ATOM     31  H   UNL     1     -18.410   6.963 -33.838  1.00  0.00     0.210 HD
ENDBRANCH  29  30
ENDBRANCH   9  11
ENDBRANCH   1   9
TORSDOF 7
ENDMDL
MODEL 3
REMARK VINA RESULT:    -5.569      4.585      6.582
REMARK INTER + INTRA:          -9.022
REMARK INTER:                  -6.996
REMARK INTRA:                  -2.026
REMARK UNBOUND:                -1.337
REMARK SMILES CC[C@@H](CC[C@H](C)[C@H]1CC[C@@H]2[C@H]3CC=C4C[C@@H](O)CC[C@]4(C)[C@H]3CC[C@]21C)C(C)C
REMARK SMILES IDX 5 1 4 2 3 3 2 4 1 5 28 6 29 7 30 8 6 9 7 10 8 11 9 12 26 13
REMARK SMILES IDX 10 14 11 15 25 16 27 17 12 18 24 19 23 20 13 21 21 22 14 23
REMARK SMILES IDX 15 24 20 25 22 26 16 27 19 28 17 29 18 30
REMARK H PARENT 18 31
REMARK Flexibility Score: inf
ROOT
ATOM      1  C   UNL     1      -7.934  -4.125 -37.782  1.00  0.00     0.004 C 
ENDROOT
BRANCH   1   2
ATOM      2  C   UNL     1      -7.595  -4.253 -36.278  1.00  0.00     0.004 C 
BRANCH   2   3
ATOM      3  C   UNL     1      -8.248  -5.472 -35.536  1.00  0.00    -0.009 C 
BRANCH   3   4
ATOM      4  C   UNL     1      -9.036  -6.371 -36.544  1.00  0.00     0.000 C 
ATOM      5  C   UNL     1      -8.420  -7.752 -36.785  1.00  0.00     0.004 C 
ENDBRANCH   3   4
BRANCH   3   6
ATOM      6  C   UNL     1      -9.211  -5.055 -34.358  1.00  0.00    -0.014 C 
ATOM      7  C   UNL     1      -8.856  -3.723 -33.666  1.00  0.00     0.007 C 
ATOM      8  C   UNL     1      -9.249  -6.148 -33.266  1.00  0.00     0.007 C 
ENDBRANCH   3   6
ENDBRANCH   2   3
ENDBRANCH   1   2
BRANCH   1   9
ATOM      9  C   UNL     1      -8.696  -2.828 -38.194  1.00  0.00    -0.011 C 
ATOM     10  C   UNL     1      -7.704  -1.683 -38.495  1.00  0.00     0.008 C 
BRANCH   9  11
ATOM     11  C   UNL     1      -9.783  -2.470 -37.117  1.00  0.00    -0.002 C 
ATOM     12  C   UNL     1      -9.814  -0.963 -36.743  1.00  0.00     0.005 C 
ATOM     13  C   UNL     1     -11.285  -2.868 -37.380  1.00  0.00    -0.026 C 
ATOM     14  C   UNL     1     -11.265  -0.490 -36.851  1.00  0.00     0.005 C 
ATOM     15  C   UNL     1     -11.925  -1.516 -37.756  1.00  0.00    -0.001 C 
ATOM     16  C   UNL     1     -11.611  -3.922 -38.497  1.00  0.00     0.007 C 
ATOM     17  C   UNL     1     -11.851  -3.427 -36.031  1.00  0.00     0.012 C 
ATOM     18  C   UNL     1     -13.470  -1.573 -37.763  1.00  0.00     0.000 C 
ATOM     19  C   UNL     1     -12.846  -3.551 -39.364  1.00  0.00     0.005 C 
ATOM     20  C   UNL     1     -13.989  -2.820 -38.587  1.00  0.00     0.003 C 
ATOM     21  C   UNL     1     -14.068  -0.247 -38.243  1.00  0.00     0.031 C 
ATOM     22  C   UNL     1     -15.281  -2.559 -39.482  1.00  0.00    -0.008 C 
ATOM     23  C   UNL     1     -15.557  -0.359 -38.327  1.00  0.00    -0.027 C 
ATOM     24  C   UNL     1     -16.147  -1.444 -38.864  1.00  0.00    -0.065 C 
ATOM     25  C   UNL     1     -16.092  -3.893 -39.570  1.00  0.00     0.014 C 
ATOM     26  C   UNL     1     -14.911  -2.112 -40.923  1.00  0.00     0.016 C 
ATOM     27  C   UNL     1     -17.645  -1.388 -39.098  1.00  0.00     0.063 C 
ATOM     28  C   UNL     1     -17.528  -3.711 -40.071  1.00  0.00     0.033 C 
ATOM     29  C   UNL     1     -18.291  -2.778 -39.127  1.00  0.00     0.118 C 
BRANCH  29  30
ATOM     30  O   UNL     1     -19.643  -2.689 -39.502  1.00  0.00    -0.393 OA
ATOM     31  H   UNL     1     -19.951  -1.765 -39.305  1.00  0.00     0.210 HD
ENDBRANCH  29  30
ENDBRANCH   9  11
ENDBRANCH   1   9
TORSDOF 7
ENDMDL
MODEL 4
REMARK VINA RESULT:    -5.480     13.414     15.153
REMARK INTER + INTRA:          -8.899
REMARK INTER:                  -6.909
REMARK INTRA:                  -1.990
REMARK UNBOUND:                -1.337
REMARK SMILES CC[C@@H](CC[C@H](C)[C@H]1CC[C@@H]2[C@H]3CC=C4C[C@@H](O)CC[C@]4(C)[C@H]3CC[C@]21C)C(C)C
REMARK SMILES IDX 5 1 4 2 3 3 2 4 1 5 28 6 29 7 30 8 6 9 7 10 8 11 9 12 26 13
REMARK SMILES IDX 10 14 11 15 25 16 27 17 12 18 24 19 23 20 13 21 21 22 14 23
REMARK SMILES IDX 15 24 20 25 22 26 16 27 19 28 17 29 18 30
REMARK H PARENT 18 31
REMARK Flexibility Score: inf
ROOT
ATOM      1  C   UNL     1     -11.782  -3.334 -22.949  1.00  0.00     0.004 C 
ENDROOT
BRANCH   1   2
ATOM      2  C   UNL     1     -12.877  -3.560 -24.018  1.00  0.00     0.004 C 
BRANCH   2   3
ATOM      3  C   UNL     1     -14.250  -4.099 -23.482  1.00  0.00    -0.009 C 
BRANCH   3   4
ATOM      4  C   UNL     1     -14.473  -5.579 -23.937  1.00  0.00     0.000 C 
ATOM      5  C   UNL     1     -15.911  -5.911 -24.347  1.00  0.00     0.004 C 
ENDBRANCH   3   4
BRANCH   3   6
ATOM      6  C   UNL     1     -15.490  -3.232 -23.926  1.00  0.00    -0.014 C 
ATOM      7  C   UNL     1     -15.244  -2.319 -25.144  1.00  0.00     0.007 C 
ATOM      8  C   UNL     1     -15.977  -2.334 -22.767  1.00  0.00     0.007 C 
ENDBRANCH   3   6
ENDBRANCH   2   3
ENDBRANCH   1   2
BRANCH   1   9
ATOM      9  C   UNL     1     -11.805  -1.943 -22.243  1.00  0.00    -0.011 C 
ATOM     10  C   UNL     1     -12.517  -2.036 -20.875  1.00  0.00     0.008 C 
BRANCH   9  11
ATOM     11  C   UNL     1     -12.402  -0.854 -23.205  1.00  0.00    -0.002 C 
ATOM     12  C   UNL     1     -13.390   0.119 -22.505  1.00  0.00     0.005 C 
ATOM     13  C   UNL     1     -11.421   0.064 -24.028  1.00  0.00    -0.026 C 
ATOM     14  C   UNL     1     -12.957   1.545 -22.852  1.00  0.00     0.005 C 
ATOM     15  C   UNL     1     -11.502   1.403 -23.267  1.00  0.00    -0.001 C 
ATOM     16  C   UNL     1      -9.916  -0.359 -24.168  1.00  0.00     0.007 C 
ATOM     17  C   UNL     1     -12.011   0.178 -25.475  1.00  0.00     0.012 C 
ATOM     18  C   UNL     1     -10.867   2.572 -24.054  1.00  0.00     0.000 C 
ATOM     19  C   UNL     1      -8.918   0.821 -24.013  1.00  0.00     0.005 C 
ATOM     20  C   UNL     1      -9.429   2.183 -24.587  1.00  0.00     0.003 C 
ATOM     21  C   UNL     1     -10.870   3.860 -23.224  1.00  0.00     0.031 C 
ATOM     22  C   UNL     1      -8.336   3.339 -24.511  1.00  0.00    -0.008 C 
ATOM     23  C   UNL     1     -10.169   4.950 -23.972  1.00  0.00    -0.027 C 
ATOM     24  C   UNL     1      -9.007   4.722 -24.613  1.00  0.00    -0.065 C 
ATOM     25  C   UNL     1      -7.327   3.136 -25.689  1.00  0.00     0.014 C 
ATOM     26  C   UNL     1      -7.544   3.306 -23.175  1.00  0.00     0.016 C 
ATOM     27  C   UNL     1      -8.262   5.922 -25.168  1.00  0.00     0.063 C 
ATOM     28  C   UNL     1      -6.453   4.361 -25.973  1.00  0.00     0.033 C 
ATOM     29  C   UNL     1      -7.338   5.555 -26.336  1.00  0.00     0.118 C 
BRANCH  29  30
ATOM     30  O   UNL     1      -6.554   6.660 -26.713  1.00  0.00    -0.393 OA
ATOM     31  H   UNL     1      -6.088   6.426 -27.559  1.00  0.00     0.210 HD
ENDBRANCH  29  30
ENDBRANCH   9  11
ENDBRANCH   1   9
TORSDOF 7
ENDMDL
MODEL 5
REMARK VINA RESULT:    -5.463      5.091      7.253
REMARK INTER + INTRA:          -8.876
REMARK INTER:                  -6.629
REMARK INTRA:                  -2.246
REMARK UNBOUND:                -1.337
REMARK SMILES CC[C@@H](CC[C@H](C)[C@H]1CC[C@@H]2[C@H]3CC=C4C[C@@H](O)CC[C@]4(C)[C@H]3CC[C@]21C)C(C)C
REMARK SMILES IDX 5 1 4 2 3 3 2 4 1 5 28 6 29 7 30 8 6 9 7 10 8 11 9 12 26 13
REMARK SMILES IDX 10 14 11 15 25 16 27 17 12 18 24 19 23 20 13 21 21 22 14 23
REMARK SMILES IDX 15 24 20 25 22 26 16 27 19 28 17 29 18 30
REMARK H PARENT 18 31
REMARK Flexibility Score: inf
ROOT
ATOM      1  C   UNL     1      -9.301   5.895 -38.215  1.00  0.00     0.004 C 
ENDROOT
BRANCH   1   2
ATOM      2  C   UNL     1      -9.604   6.374 -36.775  1.00  0.00     0.004 C 
BRANCH   2   3
ATOM      3  C   UNL     1     -10.502   5.416 -35.915  1.00  0.00    -0.009 C 
BRANCH   3   4
ATOM      4  C   UNL     1     -10.278   5.677 -34.389  1.00  0.00     0.000 C 
ATOM      5  C   UNL     1     -11.495   6.242 -33.652  1.00  0.00     0.004 C 
ENDBRANCH   3   4
BRANCH   3   6
ATOM      6  C   UNL     1     -10.265   3.886 -36.214  1.00  0.00    -0.014 C 
ATOM      7  C   UNL     1     -11.451   2.963 -35.865  1.00  0.00     0.007 C 
ATOM      8  C   UNL     1      -9.030   3.360 -35.449  1.00  0.00     0.007 C 
ENDBRANCH   3   6
ENDBRANCH   2   3
ENDBRANCH   1   2
BRANCH   1   9
ATOM      9  C   UNL     1      -9.739   6.867 -39.354  1.00  0.00    -0.011 C 
ATOM     10  C   UNL     1      -9.964   8.292 -38.802  1.00  0.00     0.008 C 
BRANCH   9  11
ATOM     11  C   UNL     1     -10.972   6.276 -40.129  1.00  0.00    -0.002 C 
ATOM     12  C   UNL     1     -10.768   4.807 -40.592  1.00  0.00     0.005 C 
ATOM     13  C   UNL     1     -12.393   6.308 -39.449  1.00  0.00    -0.026 C 
ATOM     14  C   UNL     1     -11.991   4.007 -40.140  1.00  0.00     0.005 C 
ATOM     15  C   UNL     1     -12.589   4.840 -39.019  1.00  0.00    -0.001 C 
ATOM     16  C   UNL     1     -12.627   7.244 -38.211  1.00  0.00     0.007 C 
ATOM     17  C   UNL     1     -13.417   6.734 -40.556  1.00  0.00     0.012 C 
ATOM     18  C   UNL     1     -14.046   4.534 -38.600  1.00  0.00     0.000 C 
ATOM     19  C   UNL     1     -13.462   6.587 -37.079  1.00  0.00     0.005 C 
ATOM     20  C   UNL     1     -14.582   5.616 -37.579  1.00  0.00     0.003 C 
ATOM     21  C   UNL     1     -14.178   3.100 -38.078  1.00  0.00     0.031 C 
ATOM     22  C   UNL     1     -15.488   5.050 -36.396  1.00  0.00    -0.008 C 
ATOM     23  C   UNL     1     -15.574   2.859 -37.596  1.00  0.00    -0.027 C 
ATOM     24  C   UNL     1     -16.220   3.771 -36.844  1.00  0.00    -0.065 C 
ATOM     25  C   UNL     1     -16.519   6.157 -35.998  1.00  0.00     0.014 C 
ATOM     26  C   UNL     1     -14.647   4.688 -35.140  1.00  0.00     0.016 C 
ATOM     27  C   UNL     1     -17.545   3.363 -36.227  1.00  0.00     0.063 C 
ATOM     28  C   UNL     1     -17.685   5.639 -35.151  1.00  0.00     0.033 C 
ATOM     29  C   UNL     1     -18.450   4.564 -35.926  1.00  0.00     0.118 C 
BRANCH  29  30
ATOM     30  O   UNL     1     -19.593   4.156 -35.215  1.00  0.00    -0.393 OA
ATOM     31  H   UNL     1     -20.313   4.817 -35.393  1.00  0.00     0.210 HD
ENDBRANCH  29  30
ENDBRANCH   9  11
ENDBRANCH   1   9
TORSDOF 7
ENDMDL
MODEL 6
REMARK VINA RESULT:    -5.430      5.778      8.389
REMARK INTER + INTRA:          -8.831
REMARK INTER:                  -6.919
REMARK INTRA:                  -1.912
REMARK UNBOUND:                -1.337
REMARK SMILES CC[C@@H](CC[C@H](C)[C@H]1CC[C@@H]2[C@H]3CC=C4C[C@@H](O)CC[C@]4(C)[C@H]3CC[C@]21C)C(C)C
REMARK SMILES IDX 5 1 4 2 3 3 2 4 1 5 28 6 29 7 30 8 6 9 7 10 8 11 9 12 26 13
REMARK SMILES IDX 10 14 11 15 25 16 27 17 12 18 24 19 23 20 13 21 21 22 14 23
REMARK SMILES IDX 15 24 20 25 22 26 16 27 19 28 17 29 18 30
REMARK H PARENT 18 31
REMARK Flexibility Score: inf
ROOT
ATOM      1  C   UNL     1     -18.146   2.480 -36.999  1.00  0.00     0.004 C 
ENDROOT
BRANCH   1   2
ATOM      2  C   UNL     1     -18.971   3.720 -36.580  1.00  0.00     0.004 C 
BRANCH   2   3
ATOM      3  C   UNL     1     -20.122   3.453 -35.548  1.00  0.00    -0.009 C 
BRANCH   3   4
ATOM      4  C   UNL     1     -21.416   4.233 -35.955  1.00  0.00     0.000 C 
ATOM      5  C   UNL     1     -22.156   3.655 -37.164  1.00  0.00     0.004 C 
ENDBRANCH   3   4
BRANCH   3   6
ATOM      6  C   UNL     1     -19.742   3.828 -34.063  1.00  0.00    -0.014 C 
ATOM      7  C   UNL     1     -19.010   5.175 -33.897  1.00  0.00     0.007 C 
ATOM      8  C   UNL     1     -18.849   2.736 -33.432  1.00  0.00     0.007 C 
ENDBRANCH   3   6
ENDBRANCH   2   3
ENDBRANCH   1   2
BRANCH   1   9
ATOM      9  C   UNL     1     -16.625   2.535 -36.660  1.00  0.00    -0.011 C 
ATOM     10  C   UNL     1     -16.185   1.259 -35.909  1.00  0.00     0.008 C 
BRANCH   9  11
ATOM     11  C   UNL     1     -16.283   3.873 -35.910  1.00  0.00    -0.002 C 
ATOM     12  C   UNL     1     -15.325   3.680 -34.702  1.00  0.00     0.005 C 
ATOM     13  C   UNL     1     -15.687   5.081 -36.728  1.00  0.00    -0.026 C 
ATOM     14  C   UNL     1     -14.185   4.690 -34.849  1.00  0.00     0.005 C 
ATOM     15  C   UNL     1     -14.199   5.054 -36.325  1.00  0.00    -0.001 C 
ATOM     16  C   UNL     1     -15.798   5.072 -38.294  1.00  0.00     0.007 C 
ATOM     17  C   UNL     1     -16.407   6.376 -36.216  1.00  0.00     0.012 C 
ATOM     18  C   UNL     1     -13.445   6.335 -36.751  1.00  0.00     0.000 C 
ATOM     19  C   UNL     1     -14.508   5.550 -39.014  1.00  0.00     0.005 C 
ATOM     20  C   UNL     1     -13.729   6.682 -38.267  1.00  0.00     0.003 C 
ATOM     21  C   UNL     1     -11.950   6.226 -36.430  1.00  0.00     0.031 C 
ATOM     22  C   UNL     1     -12.477   7.223 -39.091  1.00  0.00    -0.008 C 
ATOM     23  C   UNL     1     -11.231   7.437 -36.934  1.00  0.00    -0.027 C 
ATOM     24  C   UNL     1     -11.488   7.945 -38.155  1.00  0.00    -0.065 C 
ATOM     25  C   UNL     1     -13.001   8.205 -40.190  1.00  0.00     0.014 C 
ATOM     26  C   UNL     1     -11.698   6.074 -39.790  1.00  0.00     0.016 C 
ATOM     27  C   UNL     1     -10.574   9.042 -38.667  1.00  0.00     0.063 C 
ATOM     28  C   UNL     1     -11.909   9.083 -40.806  1.00  0.00     0.033 C 
ATOM     29  C   UNL     1     -11.251   9.933 -39.716  1.00  0.00     0.118 C 
BRANCH  29  30
ATOM     30  O   UNL     1     -10.325  10.831 -40.276  1.00  0.00    -0.393 OA
ATOM     31  H   UNL     1      -9.789  10.333 -40.948  1.00  0.00     0.210 HD
ENDBRANCH  29  30
ENDBRANCH   9  11
ENDBRANCH   1   9
TORSDOF 7
ENDMDL
MODEL 7
REMARK VINA RESULT:    -5.333      5.447      8.712
REMARK INTER + INTRA:          -8.697
REMARK INTER:                  -6.586
REMARK INTRA:                  -2.111
REMARK UNBOUND:                -1.337
REMARK SMILES CC[C@@H](CC[C@H](C)[C@H]1CC[C@@H]2[C@H]3CC=C4C[C@@H](O)CC[C@]4(C)[C@H]3CC[C@]21C)C(C)C
REMARK SMILES IDX 5 1 4 2 3 3 2 4 1 5 28 6 29 7 30 8 6 9 7 10 8 11 9 12 26 13
REMARK SMILES IDX 10 14 11 15 25 16 27 17 12 18 24 19 23 20 13 21 21 22 14 23
REMARK SMILES IDX 15 24 20 25 22 26 16 27 19 28 17 29 18 30
REMARK H PARENT 18 31
REMARK Flexibility Score: inf
ROOT
ATOM      1  C   UNL     1     -13.830   1.903 -36.837  1.00  0.00     0.004 C 
ENDROOT
BRANCH   1   2
ATOM      2  C   UNL     1     -12.839   2.888 -36.175  1.00  0.00     0.004 C 
BRANCH   2   3
ATOM      3  C   UNL     1     -12.552   4.207 -36.976  1.00  0.00    -0.009 C 
BRANCH   3   4
ATOM      4  C   UNL     1     -12.879   5.462 -36.102  1.00  0.00     0.000 C 
ATOM      5  C   UNL     1     -13.058   5.172 -34.609  1.00  0.00     0.004 C 
ENDBRANCH   3   4
BRANCH   3   6
ATOM      6  C   UNL     1     -13.345   4.308 -38.336  1.00  0.00    -0.014 C 
ATOM      7  C   UNL     1     -12.490   4.117 -39.605  1.00  0.00     0.007 C 
ATOM      8  C   UNL     1     -14.055   5.675 -38.458  1.00  0.00     0.007 C 
ENDBRANCH   3   6
ENDBRANCH   2   3
ENDBRANCH   1   2
BRANCH   1   9
ATOM      9  C   UNL     1     -15.159   1.658 -36.058  1.00  0.00    -0.011 C 
ATOM     10  C   UNL     1     -15.201   0.223 -35.487  1.00  0.00     0.008 C 
BRANCH   9  11
ATOM     11  C   UNL     1     -16.393   2.027 -36.957  1.00  0.00    -0.002 C 
ATOM     12  C   UNL     1     -17.519   0.957 -36.938  1.00  0.00     0.005 C 
ATOM     13  C   UNL     1     -17.122   3.406 -36.731  1.00  0.00    -0.026 C 
ATOM     14  C   UNL     1     -18.837   1.677 -36.645  1.00  0.00     0.005 C 
ATOM     15  C   UNL     1     -18.411   2.984 -35.997  1.00  0.00    -0.001 C 
ATOM     16  C   UNL     1     -16.399   4.525 -35.901  1.00  0.00     0.007 C 
ATOM     17  C   UNL     1     -17.425   3.999 -38.150  1.00  0.00     0.012 C 
ATOM     18  C   UNL     1     -19.456   4.122 -35.932  1.00  0.00     0.000 C 
ATOM     19  C   UNL     1     -17.335   5.272 -34.912  1.00  0.00     0.005 C 
ATOM     20  C   UNL     1     -18.799   5.468 -35.424  1.00  0.00     0.003 C 
ATOM     21  C   UNL     1     -20.676   3.701 -35.105  1.00  0.00     0.031 C 
ATOM     22  C   UNL     1     -19.695   6.334 -34.432  1.00  0.00    -0.008 C 
ATOM     23  C   UNL     1     -21.628   4.848 -34.981  1.00  0.00    -0.027 C 
ATOM     24  C   UNL     1     -21.191   6.092 -34.707  1.00  0.00    -0.065 C 
ATOM     25  C   UNL     1     -19.339   7.843 -34.643  1.00  0.00     0.014 C 
ATOM     26  C   UNL     1     -19.434   5.972 -32.943  1.00  0.00     0.016 C 
ATOM     27  C   UNL     1     -22.232   7.151 -34.395  1.00  0.00     0.063 C 
ATOM     28  C   UNL     1     -20.365   8.810 -34.045  1.00  0.00     0.033 C 
ATOM     29  C   UNL     1     -21.735   8.572 -34.686  1.00  0.00     0.118 C 
BRANCH  29  30
ATOM     30  O   UNL     1     -22.666   9.525 -34.237  1.00  0.00    -0.393 OA
ATOM     31  H   UNL     1     -23.023   9.211 -33.363  1.00  0.00     0.210 HD
ENDBRANCH  29  30
ENDBRANCH   9  11
ENDBRANCH   1   9
TORSDOF 7
ENDMDL
MODEL 8
REMARK VINA RESULT:    -5.333     12.606     16.264
REMARK INTER + INTRA:          -8.696
REMARK INTER:                  -6.423
REMARK INTRA:                  -2.273
REMARK UNBOUND:                -1.337
REMARK SMILES CC[C@@H](CC[C@H](C)[C@H]1CC[C@@H]2[C@H]3CC=C4C[C@@H](O)CC[C@]4(C)[C@H]3CC[C@]21C)C(C)C
REMARK SMILES IDX 5 1 4 2 3 3 2 4 1 5 28 6 29 7 30 8 6 9 7 10 8 11 9 12 26 13
REMARK SMILES IDX 10 14 11 15 25 16 27 17 12 18 24 19 23 20 13 21 21 22 14 23
REMARK SMILES IDX 15 24 20 25 22 26 16 27 19 28 17 29 18 30
REMARK H PARENT 18 31
REMARK Flexibility Score: inf
ROOT
ATOM      1  C   UNL     1     -12.085   1.063 -22.827  1.00  0.00     0.004 C 
ENDROOT
BRANCH   1   2
ATOM      2  C   UNL     1     -11.896   1.477 -24.305  1.00  0.00     0.004 C 
BRANCH   2   3
ATOM      3  C   UNL     1     -10.443   1.313 -24.877  1.00  0.00    -0.009 C 
BRANCH   3   4
ATOM      4  C   UNL     1     -10.469   0.511 -26.220  1.00  0.00     0.000 C 
ATOM      5  C   UNL     1     -11.827   0.496 -26.929  1.00  0.00     0.004 C 
ENDBRANCH   3   4
BRANCH   3   6
ATOM      6  C   UNL     1      -9.444   0.612 -23.879  1.00  0.00    -0.014 C 
ATOM      7  C   UNL     1      -8.194   1.441 -23.518  1.00  0.00     0.007 C 
ATOM      8  C   UNL     1      -8.954  -0.738 -24.449  1.00  0.00     0.007 C 
ENDBRANCH   3   6
ENDBRANCH   2   3
ENDBRANCH   1   2
BRANCH   1   9
ATOM      9  C   UNL     1     -13.036  -0.148 -22.582  1.00  0.00    -0.011 C 
ATOM     10  C   UNL     1     -13.508  -0.185 -21.112  1.00  0.00     0.008 C 
BRANCH   9  11
ATOM     11  C   UNL     1     -12.361  -1.479 -23.074  1.00  0.00    -0.002 C 
ATOM     12  C   UNL     1     -12.071  -2.488 -21.930  1.00  0.00     0.005 C 
ATOM     13  C   UNL     1     -13.059  -2.320 -24.209  1.00  0.00    -0.026 C 
ATOM     14  C   UNL     1     -12.639  -3.844 -22.355  1.00  0.00     0.005 C 
ATOM     15  C   UNL     1     -13.664  -3.501 -23.423  1.00  0.00    -0.001 C 
ATOM     16  C   UNL     1     -14.182  -1.649 -25.077  1.00  0.00     0.007 C 
ATOM     17  C   UNL     1     -11.929  -2.790 -25.188  1.00  0.00     0.012 C 
ATOM     18  C   UNL     1     -14.145  -4.645 -24.345  1.00  0.00     0.000 C 
ATOM     19  C   UNL     1     -15.399  -2.574 -25.347  1.00  0.00     0.005 C 
ATOM     20  C   UNL     1     -15.041  -4.086 -25.523  1.00  0.00     0.003 C 
ATOM     21  C   UNL     1     -14.835  -5.749 -23.539  1.00  0.00     0.031 C 
ATOM     22  C   UNL     1     -16.299  -4.983 -25.909  1.00  0.00    -0.008 C 
ATOM     23  C   UNL     1     -15.370  -6.797 -24.463  1.00  0.00    -0.027 C 
ATOM     24  C   UNL     1     -16.020  -6.465 -25.594  1.00  0.00    -0.065 C 
ATOM     25  C   UNL     1     -16.583  -4.795 -27.436  1.00  0.00     0.014 C 
ATOM     26  C   UNL     1     -17.573  -4.573 -25.119  1.00  0.00     0.016 C 
ATOM     27  C   UNL     1     -16.707  -7.578 -26.364  1.00  0.00     0.063 C 
ATOM     28  C   UNL     1     -17.508  -5.862 -28.029  1.00  0.00     0.033 C 
ATOM     29  C   UNL     1     -16.881  -7.247 -27.851  1.00  0.00     0.118 C 
BRANCH  29  30
ATOM     30  O   UNL     1     -17.658  -8.230 -28.489  1.00  0.00    -0.393 OA
ATOM     31  H   UNL     1     -17.357  -9.117 -28.157  1.00  0.00     0.210 HD
ENDBRANCH  29  30
ENDBRANCH   9  11
ENDBRANCH   1   9
TORSDOF 7
ENDMDL
MODEL 9
REMARK VINA RESULT:    -5.281     12.455     14.995
REMARK INTER + INTRA:          -8.625
REMARK INTER:                  -6.335
REMARK INTRA:                  -2.290
REMARK UNBOUND:                -1.337
REMARK SMILES CC[C@@H](CC[C@H](C)[C@H]1CC[C@@H]2[C@H]3CC=C4C[C@@H](O)CC[C@]4(C)[C@H]3CC[C@]21C)C(C)C
REMARK SMILES IDX 5 1 4 2 3 3 2 4 1 5 28 6 29 7 30 8 6 9 7 10 8 11 9 12 26 13
REMARK SMILES IDX 10 14 11 15 25 16 27 17 12 18 24 19 23 20 13 21 21 22 14 23
REMARK SMILES IDX 15 24 20 25 22 26 16 27 19 28 17 29 18 30
REMARK H PARENT 18 31
REMARK Flexibility Score: inf
ROOT
ATOM      1  C   UNL     1      -8.447   1.718 -23.795  1.00  0.00     0.004 C 
ENDROOT
BRANCH   1   2
ATOM      2  C   UNL     1      -8.893   0.249 -23.983  1.00  0.00     0.004 C 
BRANCH   2   3
ATOM      3  C   UNL     1     -10.360   0.045 -24.501  1.00  0.00    -0.009 C 
BRANCH   3   4
ATOM      4  C   UNL     1     -10.354  -0.538 -25.953  1.00  0.00     0.000 C 
ATOM      5  C   UNL     1      -8.966  -0.658 -26.587  1.00  0.00     0.004 C 
ENDBRANCH   3   4
BRANCH   3   6
ATOM      6  C   UNL     1     -11.230   1.361 -24.479  1.00  0.00    -0.014 C 
ATOM      7  C   UNL     1     -11.940   1.650 -23.141  1.00  0.00     0.007 C 
ATOM      8  C   UNL     1     -12.314   1.321 -25.579  1.00  0.00     0.007 C 
ENDBRANCH   3   6
ENDBRANCH   2   3
ENDBRANCH   1   2
BRANCH   1   9
ATOM      9  C   UNL     1      -7.296   2.199 -24.732  1.00  0.00    -0.011 C 
ATOM     10  C   UNL     1      -6.004   2.454 -23.924  1.00  0.00     0.008 C 
BRANCH   9  11
ATOM     11  C   UNL     1      -7.769   3.426 -25.590  1.00  0.00    -0.002 C 
ATOM     12  C   UNL     1      -8.614   3.027 -26.832  1.00  0.00     0.005 C 
ATOM     13  C   UNL     1      -8.574   4.587 -24.892  1.00  0.00    -0.026 C 
ATOM     14  C   UNL     1      -9.888   3.874 -26.816  1.00  0.00     0.005 C 
ATOM     15  C   UNL     1     -10.017   4.327 -25.371  1.00  0.00    -0.001 C 
ATOM     16  C   UNL     1      -8.562   4.690 -23.326  1.00  0.00     0.007 C 
ATOM     17  C   UNL     1      -8.008   5.936 -25.453  1.00  0.00     0.012 C 
ATOM     18  C   UNL     1     -10.964   5.513 -25.076  1.00  0.00     0.000 C 
ATOM     19  C   UNL     1      -9.947   5.027 -22.711  1.00  0.00     0.005 C 
ATOM     20  C   UNL     1     -10.825   5.990 -23.575  1.00  0.00     0.003 C 
ATOM     21  C   UNL     1     -12.406   5.176 -25.468  1.00  0.00     0.031 C 
ATOM     22  C   UNL     1     -12.188   6.400 -22.859  1.00  0.00    -0.008 C 
ATOM     23  C   UNL     1     -13.314   6.303 -25.089  1.00  0.00    -0.027 C 
ATOM     24  C   UNL     1     -13.206   6.916 -23.895  1.00  0.00    -0.065 C 
ATOM     25  C   UNL     1     -11.873   7.511 -21.805  1.00  0.00     0.014 C 
ATOM     26  C   UNL     1     -12.845   5.198 -22.124  1.00  0.00     0.016 C 
ATOM     27  C   UNL     1     -14.291   7.904 -23.509  1.00  0.00     0.063 C 
ATOM     28  C   UNL     1     -13.111   8.264 -21.310  1.00  0.00     0.033 C 
ATOM     29  C   UNL     1     -13.809   8.944 -22.491  1.00  0.00     0.118 C 
BRANCH  29  30
ATOM     30  O   UNL     1     -14.882   9.736 -22.045  1.00  0.00    -0.393 OA
ATOM     31  H   UNL     1     -14.561  10.674 -21.983  1.00  0.00     0.210 HD
ENDBRANCH  29  30
ENDBRANCH   9  11
ENDBRANCH   1   9
TORSDOF 7
ENDMDL
