MODEL 1
REMARK VINA RESULT:    91.012      0.000      0.000
REMARK INTER + INTRA:         152.647
REMARK INTER:                 149.538
REMARK INTRA:                   3.109
REMARK UNBOUND:                 3.109
REMARK SMILES C[C@H]1O[C@@H](OC[C@H]2O[C@@H](Oc3c(-c4ccc(O)c(O)c4)oc4cc(O)cc(O)c4c3=O)[C@@H](O)[C@@H](O)[C@@H]2O)[C@@H](O)[C@H](O)[C@H]1O
REMARK SMILES IDX 7 1 36 2 34 3 32 4 9 5 8 6 6 7 5 8 4 9 1 10 2 11 42 12 3 13
REMARK SMILES IDX 40 14 38 15 43 16 41 18 39 20 37 22 35 24 10 26 11 27 12 28
REMARK SMILES IDX 30 29 21 30 29 31 31 32 22 33 27 34 23 35 26 36 24 37 13 38
REMARK SMILES IDX 20 39 14 40 18 41 15 42 16 43 19 44 17 46 28 48 25 50 33 52
REMARK H PARENT 43 17 41 19 39 21 37 23 35 25 19 45 17 47 28 49 25 51 33 53
REMARK Flexibility Score: inf
ROOT
ATOM      1  C   UNL     1      -0.523  -1.390  -2.561  1.00  0.00     0.180 C 
ATOM      2  C   UNL     1      -1.800  -2.068  -2.183  1.00  0.00     0.177 C 
ATOM      3  C   UNL     1      -2.000  -2.424  -0.594  1.00  0.00     0.180 C 
ATOM      4  C   UNL     1      -0.628  -2.308   0.252  1.00  0.00     0.214 C 
ATOM      5  C   UNL     1       0.641  -2.345  -0.580  1.00  0.00     0.339 C 
ATOM      6  O   UNL     1       0.460  -2.379  -2.023  1.00  0.00    -0.332 OA
ENDROOT
BRANCH   1   7
ATOM      7  C   UNL     1      -0.456   0.126  -2.252  1.00  0.00     0.198 C 
BRANCH   7   8
ATOM      8  O   UNL     1      -0.559   0.773  -0.939  1.00  0.00    -0.347 OA
BRANCH   8   9
ATOM      9  C   UNL     1      -1.635   1.761  -0.607  1.00  0.00     0.281 C 
ATOM     10  C   UNL     1      -1.353   4.562  -2.634  1.00  0.00     0.041 C 
ATOM     11  C   UNL     1      -1.979   3.893  -1.465  1.00  0.00     0.150 C 
ATOM     12  C   UNL     1      -2.608   4.747  -0.234  1.00  0.00     0.174 C 
ATOM     13  O   UNL     1      -0.974   2.933  -1.061  1.00  0.00    -0.344 OA
ATOM     14  C   UNL     1      -2.499   3.896   1.049  1.00  0.00     0.179 C 
ATOM     15  C   UNL     1      -2.413   2.234   0.774  1.00  0.00     0.202 C 
BRANCH  12  16
ATOM     16  O   UNL     1      -1.908   5.944  -0.129  1.00  0.00    -0.388 OA
ATOM     17  H   UNL     1      -0.950   5.663  -0.069  1.00  0.00     0.211 HD
ENDBRANCH  12  16
BRANCH  14  18
ATOM     18  O   UNL     1      -3.002   4.705   2.174  1.00  0.00    -0.387 OA
ATOM     19  H   UNL     1      -3.911   4.349   2.420  1.00  0.00     0.211 HD
ENDBRANCH  14  18
BRANCH  15  20
ATOM     20  O   UNL     1      -1.831   1.632   1.954  1.00  0.00    -0.385 OA
ATOM     21  H   UNL     1      -1.009   2.245   2.158  1.00  0.00     0.211 HD
ENDBRANCH  15  20
ENDBRANCH   8   9
ENDBRANCH   7   8
ENDBRANCH   1   7
BRANCH   2  22
ATOM     22  O   UNL     1      -1.590  -3.125  -3.124  1.00  0.00    -0.387 OA
ATOM     23  H   UNL     1      -0.682  -3.048  -3.487  1.00  0.00     0.211 HD
ENDBRANCH   2  22
BRANCH   3  24
ATOM     24  O   UNL     1      -3.200  -1.864   0.003  1.00  0.00    -0.387 OA
ATOM     25  H   UNL     1      -3.267  -0.798   0.100  1.00  0.00     0.211 HD
ENDBRANCH   3  24
BRANCH   5  26
ATOM     26  O   UNL     1       1.643  -1.328  -0.319  1.00  0.00    -0.454 OA
BRANCH  26  27
ATOM     27  C   UNL     1       2.160  -1.255   1.002  1.00  0.00     0.214 A 
ATOM     28  C   UNL     1       3.562  -1.050   1.303  1.00  0.00     0.180 A 
ATOM     29  C   UNL     1       1.368  -1.078   2.180  1.00  0.00     0.239 A 
ATOM     30  O   UNL     1       3.957  -0.350   2.339  1.00  0.00    -0.452 OA
ATOM     31  C   UNL     1       1.800  -0.089   3.098  1.00  0.00     0.111 A 
ATOM     32  O   UNL     1       0.781  -2.136   2.599  1.00  0.00    -0.285 OA
ATOM     33  C   UNL     1       3.187   0.260   3.127  1.00  0.00     0.146 A 
ATOM     34  C   UNL     1       0.927   0.643   3.865  1.00  0.00     0.134 A 
ATOM     35  C   UNL     1       3.712   1.109   4.028  1.00  0.00     0.094 A 
ATOM     36  C   UNL     1       1.450   1.540   4.873  1.00  0.00     0.093 A 
ATOM     37  C   UNL     1       2.837   1.659   5.039  1.00  0.00     0.123 A 
BRANCH  28  38
ATOM     38  C   UNL     1       4.635  -1.641   0.673  1.00  0.00     0.025 A 
ATOM     39  C   UNL     1       5.007  -1.099  -0.575  1.00  0.00     0.062 A 
ATOM     40  C   UNL     1       5.617  -2.294   1.470  1.00  0.00     0.016 A 
ATOM     41  C   UNL     1       6.284  -1.259  -1.066  1.00  0.00     0.158 A 
ATOM     42  C   UNL     1       6.931  -2.340   1.060  1.00  0.00     0.051 A 
ATOM     43  C   UNL     1       7.224  -1.990  -0.302  1.00  0.00     0.157 A 
BRANCH  41  44
ATOM     44  O   UNL     1       6.599  -0.869  -2.349  1.00  0.00    -0.504 OA
ATOM     45  H   UNL     1       6.381   0.109  -2.607  1.00  0.00     0.293 HD
ENDBRANCH  41  44
BRANCH  43  46
ATOM     46  O   UNL     1       8.508  -2.205  -0.765  1.00  0.00    -0.504 OA
ATOM     47  H   UNL     1       9.255  -2.342  -0.072  1.00  0.00     0.293 HD
ENDBRANCH  43  46
ENDBRANCH  28  38
BRANCH  34  48
ATOM     48  O   UNL     1      -0.420   0.831   3.559  1.00  0.00    -0.507 OA
ATOM     49  H   UNL     1      -1.140   0.967   4.302  1.00  0.00     0.293 HD
ENDBRANCH  34  48
BRANCH  37  50
ATOM     50  O   UNL     1       3.345   2.310   6.111  1.00  0.00    -0.508 OA
ATOM     51  H   UNL     1       3.331   1.865   7.107  1.00  0.00     0.293 HD
ENDBRANCH  37  50
ENDBRANCH  26  27
ENDBRANCH   5  26
BRANCH   4  52
ATOM     52  O   UNL     1      -0.403  -1.234   1.183  1.00  0.00    -0.384 OA
ATOM     53  H   UNL     1      -0.168  -0.469   0.656  1.00  0.00     0.211 HD
ENDBRANCH   4  52
TORSDOF 16
ENDMDL
MODEL 2
REMARK VINA RESULT:    91.460      1.548      4.821
REMARK INTER + INTRA:         153.383
REMARK INTER:                 141.926
REMARK INTRA:                  11.457
REMARK UNBOUND:                 3.109
REMARK SMILES C[C@H]1O[C@@H](OC[C@H]2O[C@@H](Oc3c(-c4ccc(O)c(O)c4)oc4cc(O)cc(O)c4c3=O)[C@@H](O)[C@@H](O)[C@@H]2O)[C@@H](O)[C@H](O)[C@H]1O
REMARK SMILES IDX 7 1 36 2 34 3 32 4 9 5 8 6 6 7 5 8 4 9 1 10 2 11 42 12 3 13
REMARK SMILES IDX 40 14 38 15 43 16 41 18 39 20 37 22 35 24 10 26 11 27 12 28
REMARK SMILES IDX 30 29 21 30 29 31 31 32 22 33 27 34 23 35 26 36 24 37 13 38
REMARK SMILES IDX 20 39 14 40 18 41 15 42 16 43 19 44 17 46 28 48 25 50 33 52
REMARK H PARENT 43 17 41 19 39 21 37 23 35 25 19 45 17 47 28 49 25 51 33 53
REMARK Flexibility Score: inf
ROOT
ATOM      1  C   UNL     1      -0.709  -1.206  -2.011  1.00  0.00     0.180 C 
ATOM      2  C   UNL     1      -1.363  -2.365  -1.331  1.00  0.00     0.177 C 
ATOM      3  C   UNL     1      -0.583  -2.989  -0.028  1.00  0.00     0.180 C 
ATOM      4  C   UNL     1       0.944  -2.477   0.092  1.00  0.00     0.214 C 
ATOM      5  C   UNL     1       1.532  -1.911  -1.188  1.00  0.00     0.339 C 
ATOM      6  O   UNL     1       0.623  -1.810  -2.320  1.00  0.00    -0.332 OA
ENDROOT
BRANCH   1   7
ATOM      7  C   UNL     1      -0.876   0.161  -1.304  1.00  0.00     0.198 C 
BRANCH   7   8
ATOM      8  O   UNL     1      -0.974   1.484  -1.933  1.00  0.00    -0.347 OA
BRANCH   8   9
ATOM      9  C   UNL     1      -1.114   2.747  -1.140  1.00  0.00     0.281 C 
ATOM     10  C   UNL     1      -3.376   2.288   1.450  1.00  0.00     0.041 C 
ATOM     11  C   UNL     1      -2.534   3.206   0.641  1.00  0.00     0.150 C 
ATOM     12  C   UNL     1      -2.896   4.783   0.497  1.00  0.00     0.174 C 
ATOM     13  O   UNL     1      -2.416   2.513  -0.623  1.00  0.00    -0.344 OA
ATOM     14  C   UNL     1      -2.367   5.278  -0.866  1.00  0.00     0.179 C 
ATOM     15  C   UNL     1      -1.092   4.364  -1.488  1.00  0.00     0.202 C 
BRANCH  12  16
ATOM     16  O   UNL     1      -4.274   4.929   0.607  1.00  0.00    -0.388 OA
ATOM     17  H   UNL     1      -4.602   4.007   0.809  1.00  0.00     0.211 HD
ENDBRANCH  12  16
BRANCH  14  18
ATOM     18  O   UNL     1      -2.763   6.689  -1.023  1.00  0.00    -0.387 OA
ATOM     19  H   UNL     1      -2.445   7.185  -0.206  1.00  0.00     0.211 HD
ENDBRANCH  14  18
BRANCH  15  20
ATOM     20  O   UNL     1      -1.044   4.607  -2.913  1.00  0.00    -0.385 OA
ATOM     21  H   UNL     1      -1.511   3.766  -3.319  1.00  0.00     0.211 HD
ENDBRANCH  15  20
ENDBRANCH   8   9
ENDBRANCH   7   8
ENDBRANCH   1   7
BRANCH   2  22
ATOM     22  O   UNL     1      -1.427  -3.121  -2.544  1.00  0.00    -0.387 OA
ATOM     23  H   UNL     1      -0.513  -3.334  -2.832  1.00  0.00     0.211 HD
ENDBRANCH   2  22
BRANCH   3  24
ATOM     24  O   UNL     1      -1.374  -3.017   1.190  1.00  0.00    -0.387 OA
ATOM     25  H   UNL     1      -2.024  -2.188   1.392  1.00  0.00     0.211 HD
ENDBRANCH   3  24
BRANCH   5  26
ATOM     26  O   UNL     1       2.219  -0.635  -1.103  1.00  0.00    -0.454 OA
BRANCH  26  27
ATOM     27  C   UNL     1       3.129  -0.463  -0.026  1.00  0.00     0.214 A 
ATOM     28  C   UNL     1       2.731  -0.464   1.367  1.00  0.00     0.180 A 
ATOM     29  C   UNL     1       4.552  -0.560  -0.137  1.00  0.00     0.239 A 
ATOM     30  O   UNL     1       3.495  -0.962   2.310  1.00  0.00    -0.452 OA
ATOM     31  C   UNL     1       5.215  -1.355   0.831  1.00  0.00     0.111 A 
ATOM     32  O   UNL     1       5.127   0.473  -0.627  1.00  0.00    -0.285 OA
ATOM     33  C   UNL     1       4.597  -1.538   2.108  1.00  0.00     0.146 A 
ATOM     34  C   UNL     1       6.357  -2.066   0.551  1.00  0.00     0.134 A 
ATOM     35  C   UNL     1       5.190  -2.187   3.126  1.00  0.00     0.094 A 
ATOM     36  C   UNL     1       7.048  -2.748   1.624  1.00  0.00     0.093 A 
ATOM     37  C   UNL     1       6.533  -2.685   2.926  1.00  0.00     0.123 A 
BRANCH  28  38
ATOM     38  C   UNL     1       1.623   0.149   1.908  1.00  0.00     0.025 A 
ATOM     39  C   UNL     1       0.368  -0.305   1.452  1.00  0.00     0.062 A 
ATOM     40  C   UNL     1       1.728   0.721   3.208  1.00  0.00     0.016 A 
ATOM     41  C   UNL     1      -0.768  -0.136   2.213  1.00  0.00     0.158 A 
ATOM     42  C   UNL     1       0.630   0.769   4.039  1.00  0.00     0.051 A 
ATOM     43  C   UNL     1      -0.661   0.515   3.465  1.00  0.00     0.157 A 
BRANCH  41  44
ATOM     44  O   UNL     1      -2.011  -0.436   1.700  1.00  0.00    -0.504 OA
ATOM     45  H   UNL     1      -2.419   0.247   1.037  1.00  0.00     0.293 HD
ENDBRANCH  41  44
BRANCH  43  46
ATOM     46  O   UNL     1      -1.776   0.737   4.251  1.00  0.00    -0.504 OA
ATOM     47  H   UNL     1      -2.566   0.086   4.164  1.00  0.00     0.293 HD
ENDBRANCH  43  46
ENDBRANCH  28  38
BRANCH  34  48
ATOM     48  O   UNL     1       6.750  -2.446  -0.731  1.00  0.00    -0.507 OA
ATOM     49  H   UNL     1       7.496  -3.158  -0.889  1.00  0.00     0.293 HD
ENDBRANCH  34  48
BRANCH  37  50
ATOM     50  O   UNL     1       7.271  -3.117   3.976  1.00  0.00    -0.508 OA
ATOM     51  H   UNL     1       7.945  -3.970   3.887  1.00  0.00     0.293 HD
ENDBRANCH  37  50
ENDBRANCH  26  27
ENDBRANCH   5  26
BRANCH   4  52
ATOM     52  O   UNL     1       1.350  -1.539   1.105  1.00  0.00    -0.384 OA
ATOM     53  H   UNL     1       0.542  -1.181   1.477  1.00  0.00     0.211 HD
ENDBRANCH   4  52
TORSDOF 16
ENDMDL
MODEL 3
REMARK VINA RESULT:    92.654     11.484     14.713
REMARK INTER + INTRA:         155.345
REMARK INTER:                 157.038
REMARK INTRA:                  -1.694
REMARK UNBOUND:                 3.109
REMARK SMILES C[C@H]1O[C@@H](OC[C@H]2O[C@@H](Oc3c(-c4ccc(O)c(O)c4)oc4cc(O)cc(O)c4c3=O)[C@@H](O)[C@@H](O)[C@@H]2O)[C@@H](O)[C@H](O)[C@H]1O
REMARK SMILES IDX 7 1 36 2 34 3 32 4 9 5 8 6 6 7 5 8 4 9 1 10 2 11 42 12 3 13
REMARK SMILES IDX 40 14 38 15 43 16 41 18 39 20 37 22 35 24 10 26 11 27 12 28
REMARK SMILES IDX 30 29 21 30 29 31 31 32 22 33 27 34 23 35 26 36 24 37 13 38
REMARK SMILES IDX 20 39 14 40 18 41 15 42 16 43 19 44 17 46 28 48 25 50 33 52
REMARK H PARENT 43 17 41 19 39 21 37 23 35 25 19 45 17 47 28 49 25 51 33 53
REMARK Flexibility Score: inf
ROOT
ATOM      1  C   UNL     1      -2.231  13.406   5.342  1.00  0.00     0.180 C 
ATOM      2  C   UNL     1      -2.031  14.883   5.233  1.00  0.00     0.177 C 
ATOM      3  C   UNL     1      -0.627  15.481   5.837  1.00  0.00     0.180 C 
ATOM      4  C   UNL     1       0.154  14.421   6.773  1.00  0.00     0.214 C 
ATOM      5  C   UNL     1      -0.700  13.282   7.300  1.00  0.00     0.339 C 
ATOM      6  O   UNL     1      -2.072  13.235   6.818  1.00  0.00    -0.332 OA
ENDROOT
BRANCH   1   7
ATOM      7  C   UNL     1      -1.465  12.552   4.302  1.00  0.00     0.198 C 
BRANCH   7   8
ATOM      8  O   UNL     1      -2.012  11.901   3.106  1.00  0.00    -0.347 OA
BRANCH   8   9
ATOM      9  C   UNL     1      -3.291  12.339   2.461  1.00  0.00     0.281 C 
ATOM     10  C   UNL     1      -4.250  10.051   0.034  1.00  0.00     0.041 C 
ATOM     11  C   UNL     1      -4.440  11.372   0.687  1.00  0.00     0.150 C 
ATOM     12  C   UNL     1      -5.125  12.617  -0.101  1.00  0.00     0.174 C 
ATOM     13  O   UNL     1      -3.128  11.666   1.221  1.00  0.00    -0.344 OA
ATOM     14  C   UNL     1      -4.554  13.929   0.479  1.00  0.00     0.179 C 
ATOM     15  C   UNL     1      -3.968  13.793   2.056  1.00  0.00     0.202 C 
BRANCH  12  16
ATOM     16  O   UNL     1      -4.850  12.482  -1.457  1.00  0.00    -0.388 OA
ATOM     17  H   UNL     1      -3.852  12.436  -1.501  1.00  0.00     0.211 HD
ENDBRANCH  12  16
BRANCH  14  18
ATOM     18  O   UNL     1      -5.121  15.051  -0.289  1.00  0.00    -0.387 OA
ATOM     19  H   UNL     1      -4.498  15.237  -1.058  1.00  0.00     0.211 HD
ENDBRANCH  14  18
BRANCH  15  20
ATOM     20  O   UNL     1      -3.052  14.892   2.271  1.00  0.00    -0.385 OA
ATOM     21  H   UNL     1      -2.662  15.072   1.318  1.00  0.00     0.211 HD
ENDBRANCH  15  20
ENDBRANCH   8   9
ENDBRANCH   7   8
ENDBRANCH   1   7
BRANCH   2  22
ATOM     22  O   UNL     1      -3.264  15.162   5.903  1.00  0.00    -0.387 OA
ATOM     23  H   UNL     1      -3.683  14.313   6.160  1.00  0.00     0.211 HD
ENDBRANCH   2  22
BRANCH   3  24
ATOM     24  O   UNL     1       0.166  16.237   4.883  1.00  0.00    -0.387 OA
ATOM     25  H   UNL     1       0.211  15.885   3.870  1.00  0.00     0.211 HD
ENDBRANCH   3  24
BRANCH   5  26
ATOM     26  O   UNL     1      -0.175  11.935   7.168  1.00  0.00    -0.454 OA
BRANCH  26  27
ATOM     27  C   UNL     1       0.386  11.344   8.330  1.00  0.00     0.214 A 
ATOM     28  C   UNL     1      -0.342  10.445   9.203  1.00  0.00     0.180 A 
ATOM     29  C   UNL     1       1.783  11.310   8.635  1.00  0.00     0.239 A 
ATOM     30  O   UNL     1       0.240   9.436   9.805  1.00  0.00    -0.452 OA
ATOM     31  C   UNL     1       2.319  10.061   9.038  1.00  0.00     0.111 A 
ATOM     32  O   UNL     1       2.259  12.399   9.109  1.00  0.00    -0.285 OA
ATOM     33  C   UNL     1       1.445   9.105   9.645  1.00  0.00     0.146 A 
ATOM     34  C   UNL     1       3.606   9.679   8.751  1.00  0.00     0.134 A 
ATOM     35  C   UNL     1       1.874   7.936  10.153  1.00  0.00     0.094 A 
ATOM     36  C   UNL     1       4.121   8.446   9.309  1.00  0.00     0.093 A 
ATOM     37  C   UNL     1       3.293   7.657  10.119  1.00  0.00     0.123 A 
BRANCH  28  38
ATOM     38  C   UNL     1      -1.644  10.583   9.626  1.00  0.00     0.025 A 
ATOM     39  C   UNL     1      -2.297   9.405  10.046  1.00  0.00     0.062 A 
ATOM     40  C   UNL     1      -2.057  11.837  10.161  1.00  0.00     0.016 A 
ATOM     41  C   UNL     1      -3.374   9.457  10.903  1.00  0.00     0.158 A 
ATOM     42  C   UNL     1      -3.038  11.895  11.126  1.00  0.00     0.051 A 
ATOM     43  C   UNL     1      -3.829  10.718  11.354  1.00  0.00     0.157 A 
BRANCH  41  44
ATOM     44  O   UNL     1      -4.106   8.324  11.184  1.00  0.00    -0.504 OA
ATOM     45  H   UNL     1      -5.093   8.317  10.872  1.00  0.00     0.293 HD
ENDBRANCH  41  44
BRANCH  43  46
ATOM     46  O   UNL     1      -4.924  10.825  12.190  1.00  0.00    -0.504 OA
ATOM     47  H   UNL     1      -5.856  10.884  11.760  1.00  0.00     0.293 HD
ENDBRANCH  43  46
ENDBRANCH  28  38
BRANCH  34  48
ATOM     48  O   UNL     1       4.373  10.216   7.719  1.00  0.00    -0.507 OA
ATOM     49  H   UNL     1       5.391  10.006   7.623  1.00  0.00     0.293 HD
ENDBRANCH  34  48
BRANCH  37  50
ATOM     50  O   UNL     1       3.811   6.629  10.832  1.00  0.00    -0.508 OA
ATOM     51  H   UNL     1       4.380   5.832  10.351  1.00  0.00     0.293 HD
ENDBRANCH  37  50
ENDBRANCH  26  27
ENDBRANCH   5  26
BRANCH   4  52
ATOM     52  O   UNL     1       1.365  13.776   6.339  1.00  0.00    -0.384 OA
ATOM     53  H   UNL     1       2.021  14.470   6.256  1.00  0.00     0.211 HD
ENDBRANCH   4  52
TORSDOF 16
ENDMDL
MODEL 4
REMARK VINA RESULT:    93.282      1.417      2.144
REMARK INTER + INTRA:         156.377
REMARK INTER:                 143.044
REMARK INTRA:                  13.332
REMARK UNBOUND:                 3.109
REMARK SMILES C[C@H]1O[C@@H](OC[C@H]2O[C@@H](Oc3c(-c4ccc(O)c(O)c4)oc4cc(O)cc(O)c4c3=O)[C@@H](O)[C@@H](O)[C@@H]2O)[C@@H](O)[C@H](O)[C@H]1O
REMARK SMILES IDX 7 1 36 2 34 3 32 4 9 5 8 6 6 7 5 8 4 9 1 10 2 11 42 12 3 13
REMARK SMILES IDX 40 14 38 15 43 16 41 18 39 20 37 22 35 24 10 26 11 27 12 28
REMARK SMILES IDX 30 29 21 30 29 31 31 32 22 33 27 34 23 35 26 36 24 37 13 38
REMARK SMILES IDX 20 39 14 40 18 41 15 42 16 43 19 44 17 46 28 48 25 50 33 52
REMARK H PARENT 43 17 41 19 39 21 37 23 35 25 19 45 17 47 28 49 25 51 33 53
REMARK Flexibility Score: inf
ROOT
ATOM      1  C   UNL     1      -0.869  -0.703  -1.971  1.00  0.00     0.180 C 
ATOM      2  C   UNL     1      -2.244  -1.238  -1.733  1.00  0.00     0.177 C 
ATOM      3  C   UNL     1      -2.381  -2.454  -0.639  1.00  0.00     0.180 C 
ATOM      4  C   UNL     1      -0.958  -3.119  -0.261  1.00  0.00     0.214 C 
ATOM      5  C   UNL     1       0.157  -2.855  -1.258  1.00  0.00     0.339 C 
ATOM      6  O   UNL     1      -0.169  -1.964  -2.361  1.00  0.00    -0.332 OA
ENDROOT
BRANCH   1   7
ATOM      7  C   UNL     1      -0.334   0.264  -0.886  1.00  0.00     0.198 C 
BRANCH   7   8
ATOM      8  O   UNL     1      -1.118   1.040   0.082  1.00  0.00    -0.347 OA
BRANCH   8   9
ATOM      9  C   UNL     1      -1.232   2.532   0.018  1.00  0.00     0.281 C 
ATOM     10  C   UNL     1      -2.894   3.725   2.821  1.00  0.00     0.041 C 
ATOM     11  C   UNL     1      -2.322   3.980   1.473  1.00  0.00     0.150 C 
ATOM     12  C   UNL     1      -2.865   5.191   0.536  1.00  0.00     0.174 C 
ATOM     13  O   UNL     1      -2.379   2.679   0.843  1.00  0.00    -0.344 OA
ATOM     14  C   UNL     1      -2.662   4.787  -0.940  1.00  0.00     0.179 C 
ATOM     15  C   UNL     1      -1.444   3.646  -1.186  1.00  0.00     0.202 C 
BRANCH  12  16
ATOM     16  O   UNL     1      -4.204   5.412   0.838  1.00  0.00    -0.388 OA
ATOM     17  H   UNL     1      -4.410   6.290   0.406  1.00  0.00     0.211 HD
ENDBRANCH  12  16
BRANCH  14  18
ATOM     18  O   UNL     1      -3.224   5.856  -1.785  1.00  0.00    -0.387 OA
ATOM     19  H   UNL     1      -4.183   5.615  -1.980  1.00  0.00     0.211 HD
ENDBRANCH  14  18
BRANCH  15  20
ATOM     20  O   UNL     1      -1.696   3.017  -2.464  1.00  0.00    -0.385 OA
ATOM     21  H   UNL     1      -0.981   2.256  -2.505  1.00  0.00     0.211 HD
ENDBRANCH  15  20
ENDBRANCH   8   9
ENDBRANCH   7   8
ENDBRANCH   1   7
BRANCH   2  22
ATOM     22  O   UNL     1      -2.446  -1.510  -3.122  1.00  0.00    -0.387 OA
ATOM     23  H   UNL     1      -1.838  -2.231  -3.394  1.00  0.00     0.211 HD
ENDBRANCH   2  22
BRANCH   3  24
ATOM     24  O   UNL     1      -3.300  -2.183   0.452  1.00  0.00    -0.387 OA
ATOM     25  H   UNL     1      -4.336  -2.426   0.314  1.00  0.00     0.211 HD
ENDBRANCH   3  24
BRANCH   5  26
ATOM     26  O   UNL     1       1.432  -2.403  -0.732  1.00  0.00    -0.454 OA
BRANCH  26  27
ATOM     27  C   UNL     1       1.469  -2.032   0.638  1.00  0.00     0.214 A 
ATOM     28  C   UNL     1       2.619  -1.416   1.270  1.00  0.00     0.180 A 
ATOM     29  C   UNL     1       0.324  -1.937   1.490  1.00  0.00     0.239 A 
ATOM     30  O   UNL     1       2.495  -0.514   2.214  1.00  0.00    -0.452 OA
ATOM     31  C   UNL     1       0.207  -0.763   2.275  1.00  0.00     0.111 A 
ATOM     32  O   UNL     1      -0.114  -3.055   1.932  1.00  0.00    -0.285 OA
ATOM     33  C   UNL     1       1.397  -0.047   2.618  1.00  0.00     0.146 A 
ATOM     34  C   UNL     1      -1.006  -0.210   2.607  1.00  0.00     0.134 A 
ATOM     35  C   UNL     1       1.404   1.017   3.441  1.00  0.00     0.094 A 
ATOM     36  C   UNL     1      -1.047   0.912   3.520  1.00  0.00     0.093 A 
ATOM     37  C   UNL     1       0.151   1.426   4.037  1.00  0.00     0.123 A 
BRANCH  28  38
ATOM     38  C   UNL     1       3.940  -1.762   1.094  1.00  0.00     0.025 A 
ATOM     39  C   UNL     1       4.547  -1.337  -0.106  1.00  0.00     0.062 A 
ATOM     40  C   UNL     1       4.748  -1.973   2.247  1.00  0.00     0.016 A 
ATOM     41  C   UNL     1       5.914  -1.196  -0.200  1.00  0.00     0.158 A 
ATOM     42  C   UNL     1       6.097  -1.701   2.213  1.00  0.00     0.051 A 
ATOM     43  C   UNL     1       6.711  -1.497   0.930  1.00  0.00     0.157 A 
BRANCH  41  44
ATOM     44  O   UNL     1       6.514  -0.936  -1.412  1.00  0.00    -0.504 OA
ATOM     45  H   UNL     1       5.978  -0.359  -2.084  1.00  0.00     0.293 HD
ENDBRANCH  41  44
BRANCH  43  46
ATOM     46  O   UNL     1       8.088  -1.402   0.878  1.00  0.00    -0.504 OA
ATOM     47  H   UNL     1       8.503  -0.767   0.185  1.00  0.00     0.293 HD
ENDBRANCH  43  46
ENDBRANCH  28  38
BRANCH  34  48
ATOM     48  O   UNL     1      -2.189  -0.436   1.907  1.00  0.00    -0.507 OA
ATOM     49  H   UNL     1      -2.501  -1.399   1.650  1.00  0.00     0.293 HD
ENDBRANCH  34  48
BRANCH  37  50
ATOM     50  O   UNL     1       0.131   2.316   5.056  1.00  0.00    -0.508 OA
ATOM     51  H   UNL     1      -0.595   2.239   5.867  1.00  0.00     0.293 HD
ENDBRANCH  37  50
ENDBRANCH  26  27
ENDBRANCH   5  26
BRANCH   4  52
ATOM     52  O   UNL     1      -0.338  -2.903   1.019  1.00  0.00    -0.384 OA
ATOM     53  H   UNL     1       0.374  -3.542   1.082  1.00  0.00     0.211 HD
ENDBRANCH   4  52
TORSDOF 16
ENDMDL
