MODEL 1
REMARK VINA RESULT:    -8.845      0.000      0.000
REMARK INTER + INTRA:         -15.826
REMARK INTER:                 -14.533
REMARK INTRA:                  -1.293
REMARK UNBOUND:                -1.293
REMARK SMILES C[C@@H]1O[C@@H](OC[C@H]2O[C@H](Oc3c(-c4ccc(O)c(O)c4)oc4cc(O)cc(O)c4c3=O)[C@H](O)[C@@H](O)[C@@H]2O)[C@@H](O)[C@H](O)[C@H]1O
REMARK SMILES IDX 7 1 36 2 34 3 32 4 9 5 8 6 6 7 5 8 4 9 1 10 2 11 42 12 3 13
REMARK SMILES IDX 40 14 38 15 43 16 41 18 39 20 37 22 35 24 10 26 11 27 12 28
REMARK SMILES IDX 30 29 21 30 29 31 31 32 22 33 27 34 23 35 26 36 24 37 13 38
REMARK SMILES IDX 20 39 14 40 18 41 15 42 16 43 19 44 17 46 28 48 25 50 33 52
REMARK H PARENT 43 17 41 19 39 21 37 23 35 25 19 45 17 47 28 49 25 51 33 53
REMARK Flexibility Score: inf
ROOT
ATOM      1  C   UNL     1      42.619  -7.265  10.726  1.00  0.00     0.180 C 
ATOM      2  C   UNL     1      43.969  -6.559  10.453  1.00  0.00     0.177 C 
ATOM      3  C   UNL     1      44.369  -6.744   8.980  1.00  0.00     0.180 C 
ATOM      4  C   UNL     1      43.201  -6.350   8.063  1.00  0.00     0.214 C 
ATOM      5  C   UNL     1      41.919  -7.081   8.491  1.00  0.00     0.339 C 
ATOM      6  O   UNL     1      41.609  -6.799   9.844  1.00  0.00    -0.332 OA
ENDROOT
BRANCH   1   7
ATOM      7  C   UNL     1      42.139  -7.018  12.163  1.00  0.00     0.198 C 
BRANCH   7   8
ATOM      8  O   UNL     1      42.530  -8.098  12.988  1.00  0.00    -0.347 OA
BRANCH   8   9
ATOM      9  C   UNL     1      41.567  -8.333  14.001  1.00  0.00     0.281 C 
ATOM     10  C   UNL     1      43.000  -6.218  16.652  1.00  0.00     0.041 C 
ATOM     11  C   UNL     1      42.937  -7.370  15.652  1.00  0.00     0.150 C 
ATOM     12  C   UNL     1      43.193  -8.727  16.351  1.00  0.00     0.174 C 
ATOM     13  O   UNL     1      41.657  -7.360  15.036  1.00  0.00    -0.344 OA
ATOM     14  C   UNL     1      43.080  -9.869  15.328  1.00  0.00     0.179 C 
ATOM     15  C   UNL     1      41.741  -9.754  14.568  1.00  0.00     0.202 C 
BRANCH  12  16
ATOM     16  O   UNL     1      44.449  -8.753  16.983  1.00  0.00    -0.388 OA
ATOM     17  H   UNL     1      44.354  -9.280  17.822  1.00  0.00     0.211 HD
ENDBRANCH  12  16
BRANCH  14  18
ATOM     18  O   UNL     1      43.147 -11.101  16.001  1.00  0.00    -0.387 OA
ATOM     19  H   UNL     1      44.097 -11.240  16.259  1.00  0.00     0.211 HD
ENDBRANCH  14  18
BRANCH  15  20
ATOM     20  O   UNL     1      41.688 -10.682  13.513  1.00  0.00    -0.385 OA
ATOM     21  H   UNL     1      40.999 -11.351  13.755  1.00  0.00     0.211 HD
ENDBRANCH  15  20
ENDBRANCH   8   9
ENDBRANCH   7   8
ENDBRANCH   1   7
BRANCH   2  22
ATOM     22  O   UNL     1      44.962  -7.106  11.281  1.00  0.00    -0.387 OA
ATOM     23  H   UNL     1      44.570  -7.174  12.190  1.00  0.00     0.211 HD
ENDBRANCH   2  22
BRANCH   3  24
ATOM     24  O   UNL     1      45.480  -5.929   8.696  1.00  0.00    -0.387 OA
ATOM     25  H   UNL     1      46.030  -6.402   8.018  1.00  0.00     0.211 HD
ENDBRANCH   3  24
BRANCH   5  26
ATOM     26  O   UNL     1      42.047  -8.489   8.265  1.00  0.00    -0.454 OA
BRANCH  26  27
ATOM     27  C   UNL     1      42.365  -9.136   7.055  1.00  0.00     0.214 A 
ATOM     28  C   UNL     1      43.353 -10.140   7.083  1.00  0.00     0.180 A 
ATOM     29  C   UNL     1      41.777  -8.814   5.811  1.00  0.00     0.239 A 
ATOM     30  O   UNL     1      43.772 -10.705   5.955  1.00  0.00    -0.452 OA
ATOM     31  C   UNL     1      42.232  -9.455   4.638  1.00  0.00     0.111 A 
ATOM     32  O   UNL     1      40.849  -7.962   5.744  1.00  0.00    -0.285 OA
ATOM     33  C   UNL     1      43.271 -10.406   4.764  1.00  0.00     0.146 A 
ATOM     34  C   UNL     1      41.701  -9.184   3.352  1.00  0.00     0.134 A 
ATOM     35  C   UNL     1      43.784 -11.048   3.632  1.00  0.00     0.094 A 
ATOM     36  C   UNL     1      42.223  -9.844   2.230  1.00  0.00     0.093 A 
ATOM     37  C   UNL     1      43.263 -10.768   2.366  1.00  0.00     0.123 A 
BRANCH  28  38
ATOM     38  C   UNL     1      43.964 -10.584   8.354  1.00  0.00     0.025 A 
ATOM     39  C   UNL     1      43.206 -11.332   9.269  1.00  0.00     0.062 A 
ATOM     40  C   UNL     1      45.283 -10.233   8.683  1.00  0.00     0.016 A 
ATOM     41  C   UNL     1      43.766 -11.751  10.482  1.00  0.00     0.158 A 
ATOM     42  C   UNL     1      45.846 -10.654   9.888  1.00  0.00     0.051 A 
ATOM     43  C   UNL     1      45.094 -11.415  10.792  1.00  0.00     0.157 A 
BRANCH  41  44
ATOM     44  O   UNL     1      42.989 -12.503  11.363  1.00  0.00    -0.504 OA
ATOM     45  H   UNL     1      42.216 -13.074  11.042  1.00  0.00     0.293 HD
ENDBRANCH  41  44
BRANCH  43  46
ATOM     46  O   UNL     1      45.659 -11.833  11.997  1.00  0.00    -0.504 OA
ATOM     47  H   UNL     1      46.188 -12.695  12.063  1.00  0.00     0.293 HD
ENDBRANCH  43  46
ENDBRANCH  28  38
BRANCH  34  48
ATOM     48  O   UNL     1      40.664  -8.265   3.181  1.00  0.00    -0.507 OA
ATOM     49  H   UNL     1      39.711  -8.477   3.457  1.00  0.00     0.293 HD
ENDBRANCH  34  48
BRANCH  37  50
ATOM     50  O   UNL     1      43.773 -11.399   1.233  1.00  0.00    -0.508 OA
ATOM     51  H   UNL     1      43.442 -11.167   0.301  1.00  0.00     0.293 HD
ENDBRANCH  37  50
ENDBRANCH  26  27
ENDBRANCH   5  26
BRANCH   4  52
ATOM     52  O   UNL     1      43.502  -6.677   6.731  1.00  0.00    -0.384 OA
ATOM     53  H   UNL     1      44.236  -7.346   6.755  1.00  0.00     0.211 HD
ENDBRANCH   4  52
TORSDOF 16
ENDMDL
MODEL 2
REMARK VINA RESULT:    -8.394      1.464      2.041
REMARK INTER + INTRA:         -15.085
REMARK INTER:                 -12.879
REMARK INTRA:                  -2.207
REMARK UNBOUND:                -1.293
REMARK SMILES C[C@@H]1O[C@@H](OC[C@H]2O[C@H](Oc3c(-c4ccc(O)c(O)c4)oc4cc(O)cc(O)c4c3=O)[C@H](O)[C@@H](O)[C@@H]2O)[C@@H](O)[C@H](O)[C@H]1O
REMARK SMILES IDX 7 1 36 2 34 3 32 4 9 5 8 6 6 7 5 8 4 9 1 10 2 11 42 12 3 13
REMARK SMILES IDX 40 14 38 15 43 16 41 18 39 20 37 22 35 24 10 26 11 27 12 28
REMARK SMILES IDX 30 29 21 30 29 31 31 32 22 33 27 34 23 35 26 36 24 37 13 38
REMARK SMILES IDX 20 39 14 40 18 41 15 42 16 43 19 44 17 46 28 48 25 50 33 52
REMARK H PARENT 43 17 41 19 39 21 37 23 35 25 19 45 17 47 28 49 25 51 33 53
REMARK Flexibility Score: inf
ROOT
ATOM      1  C   UNL     1      43.078  -9.503  11.119  1.00  0.00     0.180 C 
ATOM      2  C   UNL     1      42.814  -8.067  11.631  1.00  0.00     0.177 C 
ATOM      3  C   UNL     1      42.579  -7.121  10.442  1.00  0.00     0.180 C 
ATOM      4  C   UNL     1      41.517  -7.710   9.502  1.00  0.00     0.214 C 
ATOM      5  C   UNL     1      41.881  -9.155   9.128  1.00  0.00     0.339 C 
ATOM      6  O   UNL     1      42.018  -9.955  10.289  1.00  0.00    -0.332 OA
ENDROOT
BRANCH   1   7
ATOM      7  C   UNL     1      43.219 -10.495  12.283  1.00  0.00     0.198 C 
BRANCH   7   8
ATOM      8  O   UNL     1      43.625  -9.805  13.448  1.00  0.00    -0.347 OA
BRANCH   8   9
ATOM      9  C   UNL     1      42.877 -10.234  14.574  1.00  0.00     0.281 C 
ATOM     10  C   UNL     1      40.495  -7.435  14.779  1.00  0.00     0.041 C 
ATOM     11  C   UNL     1      41.855  -8.131  14.810  1.00  0.00     0.150 C 
ATOM     12  C   UNL     1      42.608  -7.818  16.124  1.00  0.00     0.174 C 
ATOM     13  O   UNL     1      41.645  -9.530  14.676  1.00  0.00    -0.344 OA
ATOM     14  C   UNL     1      43.951  -8.566  16.145  1.00  0.00     0.179 C 
ATOM     15  C   UNL     1      43.715 -10.063  15.854  1.00  0.00     0.202 C 
BRANCH  12  16
ATOM     16  O   UNL     1      42.811  -6.435  16.286  1.00  0.00    -0.388 OA
ATOM     17  H   UNL     1      43.612  -6.312  16.864  1.00  0.00     0.211 HD
ENDBRANCH  12  16
BRANCH  14  18
ATOM     18  O   UNL     1      44.548  -8.409  17.408  1.00  0.00    -0.387 OA
ATOM     19  H   UNL     1      44.036  -8.976  18.043  1.00  0.00     0.211 HD
ENDBRANCH  14  18
BRANCH  15  20
ATOM     20  O   UNL     1      44.939 -10.738  15.699  1.00  0.00    -0.385 OA
ATOM     21  H   UNL     1      45.192 -10.654  14.745  1.00  0.00     0.211 HD
ENDBRANCH  15  20
ENDBRANCH   8   9
ENDBRANCH   7   8
ENDBRANCH   1   7
BRANCH   2  22
ATOM     22  O   UNL     1      43.919  -7.621  12.374  1.00  0.00    -0.387 OA
ATOM     23  H   UNL     1      44.727  -7.832  11.837  1.00  0.00     0.211 HD
ENDBRANCH   2  22
BRANCH   3  24
ATOM     24  O   UNL     1      42.136  -5.875  10.923  1.00  0.00    -0.387 OA
ATOM     25  H   UNL     1      41.882  -5.997  11.875  1.00  0.00     0.211 HD
ENDBRANCH   3  24
BRANCH   5  26
ATOM     26  O   UNL     1      43.070  -9.181   8.330  1.00  0.00    -0.454 OA
BRANCH  26  27
ATOM     27  C   UNL     1      43.245  -9.799   7.076  1.00  0.00     0.214 A 
ATOM     28  C   UNL     1      44.054 -10.951   7.016  1.00  0.00     0.180 A 
ATOM     29  C   UNL     1      42.686  -9.313   5.873  1.00  0.00     0.239 A 
ATOM     30  O   UNL     1      44.345 -11.510   5.846  1.00  0.00    -0.452 OA
ATOM     31  C   UNL     1      42.999  -9.951   4.653  1.00  0.00     0.111 A 
ATOM     32  O   UNL     1      41.910  -8.319   5.884  1.00  0.00    -0.285 OA
ATOM     33  C   UNL     1      43.870 -11.064   4.691  1.00  0.00     0.146 A 
ATOM     34  C   UNL     1      42.487  -9.521   3.402  1.00  0.00     0.134 A 
ATOM     35  C   UNL     1      44.240 -11.714   3.509  1.00  0.00     0.094 A 
ATOM     36  C   UNL     1      42.864 -10.191   2.228  1.00  0.00     0.093 A 
ATOM     37  C   UNL     1      43.740 -11.279   2.278  1.00  0.00     0.123 A 
BRANCH  28  38
ATOM     38  C   UNL     1      44.616 -11.563   8.239  1.00  0.00     0.025 A 
ATOM     39  C   UNL     1      43.881 -12.539   8.933  1.00  0.00     0.062 A 
ATOM     40  C   UNL     1      45.859 -11.153   8.747  1.00  0.00     0.016 A 
ATOM     41  C   UNL     1      44.394 -13.120  10.099  1.00  0.00     0.158 A 
ATOM     42  C   UNL     1      46.376 -11.734   9.906  1.00  0.00     0.051 A 
ATOM     43  C   UNL     1      45.649 -12.720  10.585  1.00  0.00     0.157 A 
BRANCH  41  44
ATOM     44  O   UNL     1      43.644 -14.095  10.756  1.00  0.00    -0.504 OA
ATOM     45  H   UNL     1      43.132 -13.895  11.606  1.00  0.00     0.293 HD
ENDBRANCH  41  44
BRANCH  43  46
ATOM     46  O   UNL     1      46.167 -13.298  11.745  1.00  0.00    -0.504 OA
ATOM     47  H   UNL     1      45.565 -13.740  12.430  1.00  0.00     0.293 HD
ENDBRANCH  43  46
ENDBRANCH  28  38
BRANCH  34  48
ATOM     48  O   UNL     1      41.612  -8.437   3.316  1.00  0.00    -0.507 OA
ATOM     49  H   UNL     1      40.722  -8.429   3.802  1.00  0.00     0.293 HD
ENDBRANCH  34  48
BRANCH  37  50
ATOM     50  O   UNL     1      44.110 -11.917   1.097  1.00  0.00    -0.508 OA
ATOM     51  H   UNL     1      44.476 -12.865   1.096  1.00  0.00     0.293 HD
ENDBRANCH  37  50
ENDBRANCH  26  27
ENDBRANCH   5  26
BRANCH   4  52
ATOM     52  O   UNL     1      41.422  -6.936   8.334  1.00  0.00    -0.384 OA
ATOM     53  H   UNL     1      41.844  -7.461   7.603  1.00  0.00     0.211 HD
ENDBRANCH   4  52
TORSDOF 16
ENDMDL
MODEL 3
REMARK VINA RESULT:    -8.283      1.997      2.976
REMARK INTER + INTRA:         -14.903
REMARK INTER:                 -12.636
REMARK INTRA:                  -2.267
REMARK UNBOUND:                -1.293
REMARK SMILES C[C@@H]1O[C@@H](OC[C@H]2O[C@H](Oc3c(-c4ccc(O)c(O)c4)oc4cc(O)cc(O)c4c3=O)[C@H](O)[C@@H](O)[C@@H]2O)[C@@H](O)[C@H](O)[C@H]1O
REMARK SMILES IDX 7 1 36 2 34 3 32 4 9 5 8 6 6 7 5 8 4 9 1 10 2 11 42 12 3 13
REMARK SMILES IDX 40 14 38 15 43 16 41 18 39 20 37 22 35 24 10 26 11 27 12 28
REMARK SMILES IDX 30 29 21 30 29 31 31 32 22 33 27 34 23 35 26 36 24 37 13 38
REMARK SMILES IDX 20 39 14 40 18 41 15 42 16 43 19 44 17 46 28 48 25 50 33 52
REMARK H PARENT 43 17 41 19 39 21 37 23 35 25 19 45 17 47 28 49 25 51 33 53
REMARK Flexibility Score: inf
ROOT
ATOM      1  C   UNL     1      44.678  -9.413  10.997  1.00  0.00     0.180 C 
ATOM      2  C   UNL     1      45.741  -9.739  12.074  1.00  0.00     0.177 C 
ATOM      3  C   UNL     1      47.091 -10.041  11.404  1.00  0.00     0.180 C 
ATOM      4  C   UNL     1      47.451  -8.920  10.417  1.00  0.00     0.214 C 
ATOM      5  C   UNL     1      46.283  -8.666   9.451  1.00  0.00     0.339 C 
ATOM      6  O   UNL     1      45.103  -8.342  10.165  1.00  0.00    -0.332 OA
ENDROOT
BRANCH   1   7
ATOM      7  C   UNL     1      43.341  -9.010  11.634  1.00  0.00     0.198 C 
BRANCH   7   8
ATOM      8  O   UNL     1      43.548  -8.650  12.986  1.00  0.00    -0.347 OA
BRANCH   8   9
ATOM      9  C   UNL     1      42.339  -8.736  13.721  1.00  0.00     0.281 C 
ATOM     10  C   UNL     1      43.065  -6.225  16.312  1.00  0.00     0.041 C 
ATOM     11  C   UNL     1      43.239  -7.517  15.518  1.00  0.00     0.150 C 
ATOM     12  C   UNL     1      43.251  -8.747  16.457  1.00  0.00     0.174 C 
ATOM     13  O   UNL     1      42.175  -7.615  14.582  1.00  0.00    -0.344 OA
ATOM     14  C   UNL     1      43.384 -10.035  15.626  1.00  0.00     0.179 C 
ATOM     15  C   UNL     1      42.306 -10.051  14.522  1.00  0.00     0.202 C 
BRANCH  12  16
ATOM     16  O   UNL     1      44.287  -8.663  17.405  1.00  0.00    -0.388 OA
ATOM     17  H   UNL     1      44.061  -7.926  18.035  1.00  0.00     0.211 HD
ENDBRANCH  12  16
BRANCH  14  18
ATOM     18  O   UNL     1      43.225 -11.148  16.470  1.00  0.00    -0.387 OA
ATOM     19  H   UNL     1      44.110 -11.325  16.886  1.00  0.00     0.211 HD
ENDBRANCH  14  18
BRANCH  15  20
ATOM     20  O   UNL     1      42.511 -11.131  13.644  1.00  0.00    -0.385 OA
ATOM     21  H   UNL     1      41.626 -11.362  13.264  1.00  0.00     0.211 HD
ENDBRANCH  15  20
ENDBRANCH   8   9
ENDBRANCH   7   8
ENDBRANCH   1   7
BRANCH   2  22
ATOM     22  O   UNL     1      45.327 -10.856  12.818  1.00  0.00    -0.387 OA
ATOM     23  H   UNL     1      44.964 -10.509  13.674  1.00  0.00     0.211 HD
ENDBRANCH   2  22
BRANCH   3  24
ATOM     24  O   UNL     1      48.088 -10.129  12.392  1.00  0.00    -0.387 OA
ATOM     25  H   UNL     1      48.266 -11.093  12.550  1.00  0.00     0.211 HD
ENDBRANCH   3  24
BRANCH   5  26
ATOM     26  O   UNL     1      46.085  -9.798   8.598  1.00  0.00    -0.454 OA
BRANCH  26  27
ATOM     27  C   UNL     1      45.210  -9.897   7.498  1.00  0.00     0.214 A 
ATOM     28  C   UNL     1      44.436 -11.068   7.373  1.00  0.00     0.180 A 
ATOM     29  C   UNL     1      45.088  -8.907   6.496  1.00  0.00     0.239 A 
ATOM     30  O   UNL     1      43.678 -11.264   6.299  1.00  0.00    -0.452 OA
ATOM     31  C   UNL     1      44.252  -9.143   5.383  1.00  0.00     0.111 A 
ATOM     32  O   UNL     1      45.717  -7.819   6.593  1.00  0.00    -0.285 OA
ATOM     33  C   UNL     1      43.564 -10.376   5.321  1.00  0.00     0.146 A 
ATOM     34  C   UNL     1      44.081  -8.206   4.333  1.00  0.00     0.134 A 
ATOM     35  C   UNL     1      42.747 -10.677   4.225  1.00  0.00     0.094 A 
ATOM     36  C   UNL     1      43.252  -8.523   3.246  1.00  0.00     0.093 A 
ATOM     37  C   UNL     1      42.592  -9.753   3.187  1.00  0.00     0.123 A 
BRANCH  28  38
ATOM     38  C   UNL     1      44.453 -12.117   8.415  1.00  0.00     0.025 A 
ATOM     39  C   UNL     1      43.477 -12.114   9.425  1.00  0.00     0.062 A 
ATOM     40  C   UNL     1      45.458 -13.097   8.437  1.00  0.00     0.016 A 
ATOM     41  C   UNL     1      43.486 -13.094  10.425  1.00  0.00     0.158 A 
ATOM     42  C   UNL     1      45.466 -14.078   9.430  1.00  0.00     0.051 A 
ATOM     43  C   UNL     1      44.481 -14.084  10.425  1.00  0.00     0.157 A 
BRANCH  41  44
ATOM     44  O   UNL     1      42.494 -13.068  11.406  1.00  0.00    -0.504 OA
ATOM     45  H   UNL     1      41.904 -12.258  11.551  1.00  0.00     0.293 HD
ENDBRANCH  41  44
BRANCH  43  46
ATOM     46  O   UNL     1      44.493 -15.065  11.417  1.00  0.00    -0.504 OA
ATOM     47  H   UNL     1      43.920 -14.983  12.249  1.00  0.00     0.293 HD
ENDBRANCH  43  46
ENDBRANCH  28  38
BRANCH  34  48
ATOM     48  O   UNL     1      44.728  -6.970   4.358  1.00  0.00    -0.507 OA
ATOM     49  H   UNL     1      44.745  -6.359   3.549  1.00  0.00     0.293 HD
ENDBRANCH  34  48
BRANCH  37  50
ATOM     50  O   UNL     1      41.786 -10.048   2.090  1.00  0.00    -0.508 OA
ATOM     51  H   UNL     1      41.386  -9.315   1.511  1.00  0.00     0.293 HD
ENDBRANCH  37  50
ENDBRANCH  26  27
ENDBRANCH   5  26
BRANCH   4  52
ATOM     52  O   UNL     1      48.596  -9.272   9.682  1.00  0.00    -0.384 OA
ATOM     53  H   UNL     1      49.270  -8.559   9.837  1.00  0.00     0.211 HD
ENDBRANCH   4  52
TORSDOF 16
ENDMDL
MODEL 4
REMARK VINA RESULT:    -8.232      1.268      2.131
REMARK INTER + INTRA:         -14.818
REMARK INTER:                 -13.100
REMARK INTRA:                  -1.718
REMARK UNBOUND:                -1.293
REMARK SMILES C[C@@H]1O[C@@H](OC[C@H]2O[C@H](Oc3c(-c4ccc(O)c(O)c4)oc4cc(O)cc(O)c4c3=O)[C@H](O)[C@@H](O)[C@@H]2O)[C@@H](O)[C@H](O)[C@H]1O
REMARK SMILES IDX 7 1 36 2 34 3 32 4 9 5 8 6 6 7 5 8 4 9 1 10 2 11 42 12 3 13
REMARK SMILES IDX 40 14 38 15 43 16 41 18 39 20 37 22 35 24 10 26 11 27 12 28
REMARK SMILES IDX 30 29 21 30 29 31 31 32 22 33 27 34 23 35 26 36 24 37 13 38
REMARK SMILES IDX 20 39 14 40 18 41 15 42 16 43 19 44 17 46 28 48 25 50 33 52
REMARK H PARENT 43 17 41 19 39 21 37 23 35 25 19 45 17 47 28 49 25 51 33 53
REMARK Flexibility Score: inf
ROOT
ATOM      1  C   UNL     1      42.384  -7.737  11.070  1.00  0.00     0.180 C 
ATOM      2  C   UNL     1      43.660  -6.863  11.017  1.00  0.00     0.177 C 
ATOM      3  C   UNL     1      44.263  -6.899   9.604  1.00  0.00     0.180 C 
ATOM      4  C   UNL     1      43.181  -6.581   8.561  1.00  0.00     0.214 C 
ATOM      5  C   UNL     1      41.955  -7.482   8.774  1.00  0.00     0.339 C 
ATOM      6  O   UNL     1      41.443  -7.331  10.086  1.00  0.00    -0.332 OA
ENDROOT
BRANCH   1   7
ATOM      7  C   UNL     1      41.698  -7.645  12.441  1.00  0.00     0.198 C 
BRANCH   7   8
ATOM      8  O   UNL     1      41.336  -8.940  12.878  1.00  0.00    -0.347 OA
BRANCH   8   9
ATOM      9  C   UNL     1      42.416  -9.845  12.723  1.00  0.00     0.281 C 
ATOM     10  C   UNL     1      40.507 -12.986  12.513  1.00  0.00     0.041 C 
ATOM     11  C   UNL     1      41.039 -11.703  13.148  1.00  0.00     0.150 C 
ATOM     12  C   UNL     1      41.711 -11.996  14.510  1.00  0.00     0.174 C 
ATOM     13  O   UNL     1      41.968 -11.111  12.251  1.00  0.00    -0.344 OA
ATOM     14  C   UNL     1      42.276 -10.695  15.104  1.00  0.00     0.179 C 
ATOM     15  C   UNL     1      43.169  -9.994  14.058  1.00  0.00     0.202 C 
BRANCH  12  16
ATOM     16  O   UNL     1      40.814 -12.600  15.410  1.00  0.00    -0.388 OA
ATOM     17  H   UNL     1      40.256 -13.244  14.894  1.00  0.00     0.211 HD
ENDBRANCH  12  16
BRANCH  14  18
ATOM     18  O   UNL     1      43.027 -10.998  16.253  1.00  0.00    -0.387 OA
ATOM     19  H   UNL     1      42.409 -10.930  17.028  1.00  0.00     0.211 HD
ENDBRANCH  14  18
BRANCH  15  20
ATOM     20  O   UNL     1      43.559  -8.721  14.512  1.00  0.00    -0.385 OA
ATOM     21  H   UNL     1      43.706  -8.799  15.489  1.00  0.00     0.211 HD
ENDBRANCH  15  20
ENDBRANCH   8   9
ENDBRANCH   7   8
ENDBRANCH   1   7
BRANCH   2  22
ATOM     22  O   UNL     1      44.600  -7.347  11.941  1.00  0.00    -0.387 OA
ATOM     23  H   UNL     1      44.251  -7.130  12.844  1.00  0.00     0.211 HD
ENDBRANCH   2  22
BRANCH   3  24
ATOM     24  O   UNL     1      45.292  -5.944   9.515  1.00  0.00    -0.387 OA
ATOM     25  H   UNL     1      45.215  -5.351  10.308  1.00  0.00     0.211 HD
ENDBRANCH   3  24
BRANCH   5  26
ATOM     26  O   UNL     1      42.283  -8.847   8.494  1.00  0.00    -0.454 OA
BRANCH  26  27
ATOM     27  C   UNL     1      42.539  -9.424   7.234  1.00  0.00     0.214 A 
ATOM     28  C   UNL     1      43.504 -10.448   7.161  1.00  0.00     0.180 A 
ATOM     29  C   UNL     1      41.911  -9.013   6.036  1.00  0.00     0.239 A 
ATOM     30  O   UNL     1      43.866 -10.950   5.985  1.00  0.00    -0.452 OA
ATOM     31  C   UNL     1      42.306  -9.590   4.810  1.00  0.00     0.111 A 
ATOM     32  O   UNL     1      41.001  -8.140   6.059  1.00  0.00    -0.285 OA
ATOM     33  C   UNL     1      43.327 -10.567   4.836  1.00  0.00     0.146 A 
ATOM     34  C   UNL     1      41.731  -9.228   3.565  1.00  0.00     0.134 A 
ATOM     35  C   UNL     1      43.780 -11.149   3.646  1.00  0.00     0.094 A 
ATOM     36  C   UNL     1      42.195  -9.828   2.384  1.00  0.00     0.093 A 
ATOM     37  C   UNL     1      43.218 -10.779   2.422  1.00  0.00     0.123 A 
BRANCH  28  38
ATOM     38  C   UNL     1      44.153 -10.983   8.377  1.00  0.00     0.025 A 
ATOM     39  C   UNL     1      43.529 -12.006   9.110  1.00  0.00     0.062 A 
ATOM     40  C   UNL     1      45.370 -10.454   8.838  1.00  0.00     0.016 A 
ATOM     41  C   UNL     1      44.125 -12.515  10.269  1.00  0.00     0.158 A 
ATOM     42  C   UNL     1      45.969 -10.964   9.991  1.00  0.00     0.051 A 
ATOM     43  C   UNL     1      45.353 -11.996  10.710  1.00  0.00     0.157 A 
BRANCH  41  44
ATOM     44  O   UNL     1      43.484 -13.539  10.966  1.00  0.00    -0.504 OA
ATOM     45  H   UNL     1      42.744 -14.090  10.549  1.00  0.00     0.293 HD
ENDBRANCH  41  44
BRANCH  43  46
ATOM     46  O   UNL     1      45.954 -12.502  11.863  1.00  0.00    -0.504 OA
ATOM     47  H   UNL     1      46.892 -12.885  11.847  1.00  0.00     0.293 HD
ENDBRANCH  43  46
ENDBRANCH  28  38
BRANCH  34  48
ATOM     48  O   UNL     1      40.711  -8.280   3.492  1.00  0.00    -0.507 OA
ATOM     49  H   UNL     1      39.789  -8.456   3.876  1.00  0.00     0.293 HD
ENDBRANCH  34  48
BRANCH  37  50
ATOM     50  O   UNL     1      43.669 -11.349   1.233  1.00  0.00    -0.508 OA
ATOM     51  H   UNL     1      44.380 -12.076   1.228  1.00  0.00     0.293 HD
ENDBRANCH  37  50
ENDBRANCH  26  27
ENDBRANCH   5  26
BRANCH   4  52
ATOM     52  O   UNL     1      43.686  -6.778   7.265  1.00  0.00    -0.384 OA
ATOM     53  H   UNL     1      43.268  -7.609   6.915  1.00  0.00     0.211 HD
ENDBRANCH   4  52
TORSDOF 16
ENDMDL
MODEL 5
REMARK VINA RESULT:    -8.186      1.819      3.504
REMARK INTER + INTRA:         -14.744
REMARK INTER:                 -11.745
REMARK INTRA:                  -2.998
REMARK UNBOUND:                -1.293
REMARK SMILES C[C@@H]1O[C@@H](OC[C@H]2O[C@H](Oc3c(-c4ccc(O)c(O)c4)oc4cc(O)cc(O)c4c3=O)[C@H](O)[C@@H](O)[C@@H]2O)[C@@H](O)[C@H](O)[C@H]1O
REMARK SMILES IDX 7 1 36 2 34 3 32 4 9 5 8 6 6 7 5 8 4 9 1 10 2 11 42 12 3 13
REMARK SMILES IDX 40 14 38 15 43 16 41 18 39 20 37 22 35 24 10 26 11 27 12 28
REMARK SMILES IDX 30 29 21 30 29 31 31 32 22 33 27 34 23 35 26 36 24 37 13 38
REMARK SMILES IDX 20 39 14 40 18 41 15 42 16 43 19 44 17 46 28 48 25 50 33 52
REMARK H PARENT 43 17 41 19 39 21 37 23 35 25 19 45 17 47 28 49 25 51 33 53
REMARK Flexibility Score: inf
ROOT
ATOM      1  C   UNL     1      45.275  -8.590  10.664  1.00  0.00     0.180 C 
ATOM      2  C   UNL     1      46.494  -9.330  11.264  1.00  0.00     0.177 C 
ATOM      3  C   UNL     1      47.170 -10.191  10.185  1.00  0.00     0.180 C 
ATOM      4  C   UNL     1      47.443  -9.345   8.932  1.00  0.00     0.214 C 
ATOM      5  C   UNL     1      46.160  -8.624   8.487  1.00  0.00     0.339 C 
ATOM      6  O   UNL     1      45.651  -7.816   9.534  1.00  0.00    -0.332 OA
ENDROOT
BRANCH   1   7
ATOM      7  C   UNL     1      44.633  -7.644  11.688  1.00  0.00     0.198 C 
BRANCH   7   8
ATOM      8  O   UNL     1      44.542  -8.293  12.942  1.00  0.00    -0.347 OA
BRANCH   8   9
ATOM      9  C   UNL     1      43.194  -8.371  13.372  1.00  0.00     0.281 C 
ATOM     10  C   UNL     1      43.416  -6.213  16.346  1.00  0.00     0.041 C 
ATOM     11  C   UNL     1      43.710  -7.421  15.460  1.00  0.00     0.150 C 
ATOM     12  C   UNL     1      43.450  -8.743  16.220  1.00  0.00     0.174 C 
ATOM     13  O   UNL     1      42.887  -7.341  14.304  1.00  0.00    -0.344 OA
ATOM     14  C   UNL     1      43.712  -9.939  15.290  1.00  0.00     0.179 C 
ATOM     15  C   UNL     1      42.918  -9.759  13.979  1.00  0.00     0.202 C 
BRANCH  12  16
ATOM     16  O   UNL     1      44.242  -8.836  17.379  1.00  0.00    -0.388 OA
ATOM     17  H   UNL     1      43.629  -8.930  18.158  1.00  0.00     0.211 HD
ENDBRANCH  12  16
BRANCH  14  18
ATOM     18  O   UNL     1      43.313 -11.123  15.935  1.00  0.00    -0.387 OA
ATOM     19  H   UNL     1      42.751 -11.629  15.291  1.00  0.00     0.211 HD
ENDBRANCH  14  18
BRANCH  15  20
ATOM     20  O   UNL     1      43.271 -10.749  13.045  1.00  0.00    -0.385 OA
ATOM     21  H   UNL     1      44.190 -10.539  12.739  1.00  0.00     0.211 HD
ENDBRANCH  15  20
ENDBRANCH   8   9
ENDBRANCH   7   8
ENDBRANCH   1   7
BRANCH   2  22
ATOM     22  O   UNL     1      46.071 -10.152  12.322  1.00  0.00    -0.387 OA
ATOM     23  H   UNL     1      46.886 -10.575  12.698  1.00  0.00     0.211 HD
ENDBRANCH   2  22
BRANCH   3  24
ATOM     24  O   UNL     1      48.387 -10.688  10.685  1.00  0.00    -0.387 OA
ATOM     25  H   UNL     1      49.107 -10.076  10.378  1.00  0.00     0.211 HD
ENDBRANCH   3  24
BRANCH   5  26
ATOM     26  O   UNL     1      45.186  -9.570   8.034  1.00  0.00    -0.454 OA
BRANCH  26  27
ATOM     27  C   UNL     1      44.520  -9.584   6.793  1.00  0.00     0.214 A 
ATOM     28  C   UNL     1      43.211  -9.066   6.741  1.00  0.00     0.180 A 
ATOM     29  C   UNL     1      45.073 -10.117   5.607  1.00  0.00     0.239 A 
ATOM     30  O   UNL     1      42.494  -9.154   5.625  1.00  0.00    -0.452 OA
ATOM     31  C   UNL     1      44.288 -10.170   4.435  1.00  0.00     0.111 A 
ATOM     32  O   UNL     1      46.261 -10.540   5.590  1.00  0.00    -0.285 OA
ATOM     33  C   UNL     1      42.964  -9.679   4.502  1.00  0.00     0.146 A 
ATOM     34  C   UNL     1      44.766 -10.695   3.207  1.00  0.00     0.134 A 
ATOM     35  C   UNL     1      42.131  -9.736   3.379  1.00  0.00     0.094 A 
ATOM     36  C   UNL     1      43.917 -10.737   2.091  1.00  0.00     0.093 A 
ATOM     37  C   UNL     1      42.604 -10.266   2.176  1.00  0.00     0.123 A 
BRANCH  28  38
ATOM     38  C   UNL     1      42.588  -8.426   7.920  1.00  0.00     0.025 A 
ATOM     39  C   UNL     1      42.083  -9.222   8.962  1.00  0.00     0.062 A 
ATOM     40  C   UNL     1      42.453  -7.031   7.998  1.00  0.00     0.016 A 
ATOM     41  C   UNL     1      41.481  -8.632  10.079  1.00  0.00     0.158 A 
ATOM     42  C   UNL     1      41.858  -6.440   9.113  1.00  0.00     0.051 A 
ATOM     43  C   UNL     1      41.372  -7.235  10.159  1.00  0.00     0.157 A 
BRANCH  41  44
ATOM     44  O   UNL     1      41.002  -9.452  11.101  1.00  0.00    -0.504 OA
ATOM     45  H   UNL     1      41.110  -9.209  12.078  1.00  0.00     0.293 HD
ENDBRANCH  41  44
BRANCH  43  46
ATOM     46  O   UNL     1      40.775  -6.641  11.271  1.00  0.00    -0.504 OA
ATOM     47  H   UNL     1      40.046  -7.112  11.795  1.00  0.00     0.293 HD
ENDBRANCH  43  46
ENDBRANCH  28  38
BRANCH  34  48
ATOM     48  O   UNL     1      46.070 -11.177   3.089  1.00  0.00    -0.507 OA
ATOM     49  H   UNL     1      46.874 -10.562   3.148  1.00  0.00     0.293 HD
ENDBRANCH  34  48
BRANCH  37  50
ATOM     50  O   UNL     1      41.777 -10.332   1.056  1.00  0.00    -0.508 OA
ATOM     51  H   UNL     1      42.107 -10.713   0.173  1.00  0.00     0.293 HD
ENDBRANCH  37  50
ENDBRANCH  26  27
ENDBRANCH   5  26
BRANCH   4  52
ATOM     52  O   UNL     1      47.903 -10.163   7.887  1.00  0.00    -0.384 OA
ATOM     53  H   UNL     1      48.335  -9.567   7.220  1.00  0.00     0.211 HD
ENDBRANCH   4  52
TORSDOF 16
ENDMDL
MODEL 6
REMARK VINA RESULT:    -8.063     16.176     19.848
REMARK INTER + INTRA:         -14.541
REMARK INTER:                 -11.879
REMARK INTRA:                  -2.662
REMARK UNBOUND:                -1.293
REMARK SMILES C[C@@H]1O[C@@H](OC[C@H]2O[C@H](Oc3c(-c4ccc(O)c(O)c4)oc4cc(O)cc(O)c4c3=O)[C@H](O)[C@@H](O)[C@@H]2O)[C@@H](O)[C@H](O)[C@H]1O
REMARK SMILES IDX 7 1 36 2 34 3 32 4 9 5 8 6 6 7 5 8 4 9 1 10 2 11 42 12 3 13
REMARK SMILES IDX 40 14 38 15 43 16 41 18 39 20 37 22 35 24 10 26 11 27 12 28
REMARK SMILES IDX 30 29 21 30 29 31 31 32 22 33 27 34 23 35 26 36 24 37 13 38
REMARK SMILES IDX 20 39 14 40 18 41 15 42 16 43 19 44 17 46 28 48 25 50 33 52
REMARK H PARENT 43 17 41 19 39 21 37 23 35 25 19 45 17 47 28 49 25 51 33 53
REMARK Flexibility Score: inf
ROOT
ATOM      1  C   UNL     1      58.676 -23.148   8.234  1.00  0.00     0.180 C 
ATOM      2  C   UNL     1      58.602 -24.491   7.470  1.00  0.00     0.177 C 
ATOM      3  C   UNL     1      57.960 -24.276   6.090  1.00  0.00     0.180 C 
ATOM      4  C   UNL     1      58.659 -23.120   5.359  1.00  0.00     0.214 C 
ATOM      5  C   UNL     1      58.711 -21.875   6.259  1.00  0.00     0.339 C 
ATOM      6  O   UNL     1      59.370 -22.166   7.479  1.00  0.00    -0.332 OA
ENDROOT
BRANCH   1   7
ATOM      7  C   UNL     1      59.401 -23.306   9.578  1.00  0.00     0.198 C 
BRANCH   7   8
ATOM      8  O   UNL     1      58.454 -23.355  10.626  1.00  0.00    -0.347 OA
BRANCH   8   9
ATOM      9  C   UNL     1      58.952 -22.708  11.785  1.00  0.00     0.281 C 
ATOM     10  C   UNL     1      59.565 -25.674  13.878  1.00  0.00     0.041 C 
ATOM     11  C   UNL     1      58.749 -24.664  13.074  1.00  0.00     0.150 C 
ATOM     12  C   UNL     1      57.591 -24.086  13.923  1.00  0.00     0.174 C 
ATOM     13  O   UNL     1      59.619 -23.626  12.645  1.00  0.00    -0.344 OA
ATOM     14  C   UNL     1      56.816 -23.041  13.103  1.00  0.00     0.179 C 
ATOM     15  C   UNL     1      57.800 -22.002  12.525  1.00  0.00     0.202 C 
BRANCH  12  16
ATOM     16  O   UNL     1      56.726 -25.099  14.375  1.00  0.00    -0.388 OA
ATOM     17  H   UNL     1      57.265 -25.736  14.918  1.00  0.00     0.211 HD
ENDBRANCH  12  16
BRANCH  14  18
ATOM     18  O   UNL     1      55.878 -22.404  13.934  1.00  0.00    -0.387 OA
ATOM     19  H   UNL     1      56.202 -22.505  14.868  1.00  0.00     0.211 HD
ENDBRANCH  14  18
BRANCH  15  20
ATOM     20  O   UNL     1      57.142 -21.136  11.634  1.00  0.00    -0.385 OA
ATOM     21  H   UNL     1      57.637 -21.177  10.777  1.00  0.00     0.211 HD
ENDBRANCH  15  20
ENDBRANCH   8   9
ENDBRANCH   7   8
ENDBRANCH   1   7
BRANCH   2  22
ATOM     22  O   UNL     1      57.834 -25.409   8.206  1.00  0.00    -0.387 OA
ATOM     23  H   UNL     1      57.582 -26.137   7.580  1.00  0.00     0.211 HD
ENDBRANCH   2  22
BRANCH   3  24
ATOM     24  O   UNL     1      58.089 -25.453   5.331  1.00  0.00    -0.387 OA
ATOM     25  H   UNL     1      59.044 -25.722   5.360  1.00  0.00     0.211 HD
ENDBRANCH   3  24
BRANCH   5  26
ATOM     26  O   UNL     1      57.392 -21.366   6.485  1.00  0.00    -0.454 OA
BRANCH  26  27
ATOM     27  C   UNL     1      57.028 -20.038   6.784  1.00  0.00     0.214 A 
ATOM     28  C   UNL     1      56.587 -19.220   5.725  1.00  0.00     0.180 A 
ATOM     29  C   UNL     1      57.113 -19.469   8.076  1.00  0.00     0.239 A 
ATOM     30  O   UNL     1      56.337 -17.931   5.928  1.00  0.00    -0.452 OA
ATOM     31  C   UNL     1      56.814 -18.101   8.254  1.00  0.00     0.111 A 
ATOM     32  O   UNL     1      57.448 -20.176   9.064  1.00  0.00    -0.285 OA
ATOM     33  C   UNL     1      56.438 -17.351   7.117  1.00  0.00     0.146 A 
ATOM     34  C   UNL     1      56.881 -17.453   9.514  1.00  0.00     0.134 A 
ATOM     35  C   UNL     1      56.162 -15.984   7.230  1.00  0.00     0.094 A 
ATOM     36  C   UNL     1      56.594 -16.083   9.608  1.00  0.00     0.093 A 
ATOM     37  C   UNL     1      56.242 -15.349   8.472  1.00  0.00     0.123 A 
BRANCH  28  38
ATOM     38  C   UNL     1      56.403 -19.759   4.361  1.00  0.00     0.025 A 
ATOM     39  C   UNL     1      57.364 -19.496   3.370  1.00  0.00     0.062 A 
ATOM     40  C   UNL     1      55.257 -20.498   4.024  1.00  0.00     0.016 A 
ATOM     41  C   UNL     1      57.199 -19.990   2.071  1.00  0.00     0.158 A 
ATOM     42  C   UNL     1      55.092 -20.996   2.731  1.00  0.00     0.051 A 
ATOM     43  C   UNL     1      56.061 -20.748   1.750  1.00  0.00     0.157 A 
BRANCH  41  44
ATOM     44  O   UNL     1      58.178 -19.720   1.115  1.00  0.00    -0.504 OA
ATOM     45  H   UNL     1      58.394 -18.775   0.821  1.00  0.00     0.293 HD
ENDBRANCH  41  44
BRANCH  43  46
ATOM     46  O   UNL     1      55.893 -21.245   0.458  1.00  0.00    -0.504 OA
ATOM     47  H   UNL     1      56.276 -22.142   0.181  1.00  0.00     0.293 HD
ENDBRANCH  43  46
ENDBRANCH  28  38
BRANCH  34  48
ATOM     48  O   UNL     1      57.233 -18.156  10.667  1.00  0.00    -0.507 OA
ATOM     49  H   UNL     1      57.048 -19.149  10.765  1.00  0.00     0.293 HD
ENDBRANCH  34  48
BRANCH  37  50
ATOM     50  O   UNL     1      55.976 -13.987   8.591  1.00  0.00    -0.508 OA
ATOM     51  H   UNL     1      56.088 -13.498   9.475  1.00  0.00     0.293 HD
ENDBRANCH  37  50
ENDBRANCH  26  27
ENDBRANCH   5  26
BRANCH   4  52
ATOM     52  O   UNL     1      57.970 -22.810   4.175  1.00  0.00    -0.384 OA
ATOM     53  H   UNL     1      57.635 -21.879   4.269  1.00  0.00     0.211 HD
ENDBRANCH   4  52
TORSDOF 16
ENDMDL
MODEL 7
REMARK VINA RESULT:    -7.992     15.888     20.585
REMARK INTER + INTRA:         -14.424
REMARK INTER:                 -11.614
REMARK INTRA:                  -2.810
REMARK UNBOUND:                -1.293
REMARK SMILES C[C@@H]1O[C@@H](OC[C@H]2O[C@H](Oc3c(-c4ccc(O)c(O)c4)oc4cc(O)cc(O)c4c3=O)[C@H](O)[C@@H](O)[C@@H]2O)[C@@H](O)[C@H](O)[C@H]1O
REMARK SMILES IDX 7 1 36 2 34 3 32 4 9 5 8 6 6 7 5 8 4 9 1 10 2 11 42 12 3 13
REMARK SMILES IDX 40 14 38 15 43 16 41 18 39 20 37 22 35 24 10 26 11 27 12 28
REMARK SMILES IDX 30 29 21 30 29 31 31 32 22 33 27 34 23 35 26 36 24 37 13 38
REMARK SMILES IDX 20 39 14 40 18 41 15 42 16 43 19 44 17 46 28 48 25 50 33 52
REMARK H PARENT 43 17 41 19 39 21 37 23 35 25 19 45 17 47 28 49 25 51 33 53
REMARK Flexibility Score: inf
ROOT
ATOM      1  C   UNL     1      57.709 -20.290   6.197  1.00  0.00     0.180 C 
ATOM      2  C   UNL     1      58.630 -20.972   5.157  1.00  0.00     0.177 C 
ATOM      3  C   UNL     1      59.161 -22.302   5.718  1.00  0.00     0.180 C 
ATOM      4  C   UNL     1      57.997 -23.151   6.251  1.00  0.00     0.214 C 
ATOM      5  C   UNL     1      57.137 -22.326   7.221  1.00  0.00     0.339 C 
ATOM      6  O   UNL     1      56.653 -21.154   6.591  1.00  0.00    -0.332 OA
ENDROOT
BRANCH   1   7
ATOM      7  C   UNL     1      57.082 -19.007   5.633  1.00  0.00     0.198 C 
BRANCH   7   8
ATOM      8  O   UNL     1      56.921 -19.133   4.234  1.00  0.00    -0.347 OA
BRANCH   8   9
ATOM      9  C   UNL     1      55.578 -19.445   3.907  1.00  0.00     0.281 C 
ATOM     10  C   UNL     1      56.159 -22.532   1.987  1.00  0.00     0.041 C 
ATOM     11  C   UNL     1      56.242 -21.043   2.315  1.00  0.00     0.150 C 
ATOM     12  C   UNL     1      55.751 -20.185   1.125  1.00  0.00     0.174 C 
ATOM     13  O   UNL     1      55.452 -20.794   3.469  1.00  0.00    -0.344 OA
ATOM     14  C   UNL     1      55.804 -18.695   1.500  1.00  0.00     0.179 C 
ATOM     15  C   UNL     1      55.060 -18.470   2.834  1.00  0.00     0.202 C 
BRANCH  12  16
ATOM     16  O   UNL     1      56.508 -20.429  -0.035  1.00  0.00    -0.388 OA
ATOM     17  H   UNL     1      57.458 -20.214   0.172  1.00  0.00     0.211 HD
ENDBRANCH  12  16
BRANCH  14  18
ATOM     18  O   UNL     1      55.201 -17.939   0.479  1.00  0.00    -0.387 OA
ATOM     19  H   UNL     1      55.711 -17.089   0.408  1.00  0.00     0.211 HD
ENDBRANCH  14  18
BRANCH  15  20
ATOM     20  O   UNL     1      55.239 -17.150   3.285  1.00  0.00    -0.385 OA
ATOM     21  H   UNL     1      54.653 -17.036   4.075  1.00  0.00     0.211 HD
ENDBRANCH  15  20
ENDBRANCH   8   9
ENDBRANCH   7   8
ENDBRANCH   1   7
BRANCH   2  22
ATOM     22  O   UNL     1      59.710 -20.125   4.859  1.00  0.00    -0.387 OA
ATOM     23  H   UNL     1      60.362 -20.221   5.601  1.00  0.00     0.211 HD
ENDBRANCH   2  22
BRANCH   3  24
ATOM     24  O   UNL     1      59.821 -23.005   4.695  1.00  0.00    -0.387 OA
ATOM     25  H   UNL     1      59.368 -23.884   4.599  1.00  0.00     0.211 HD
ENDBRANCH   3  24
BRANCH   5  26
ATOM     26  O   UNL     1      57.879 -22.015   8.406  1.00  0.00    -0.454 OA
BRANCH  26  27
ATOM     27  C   UNL     1      57.538 -22.329   9.736  1.00  0.00     0.214 A 
ATOM     28  C   UNL     1      56.835 -21.362  10.483  1.00  0.00     0.180 A 
ATOM     29  C   UNL     1      57.888 -23.540  10.375  1.00  0.00     0.239 A 
ATOM     30  O   UNL     1      56.585 -21.559  11.773  1.00  0.00    -0.452 OA
ATOM     31  C   UNL     1      57.581 -23.721  11.741  1.00  0.00     0.111 A 
ATOM     32  O   UNL     1      58.467 -24.458   9.732  1.00  0.00    -0.285 OA
ATOM     33  C   UNL     1      56.928 -22.665  12.418  1.00  0.00     0.146 A 
ATOM     34  C   UNL     1      57.904 -24.901  12.457  1.00  0.00     0.134 A 
ATOM     35  C   UNL     1      56.628 -22.777  13.781  1.00  0.00     0.094 A 
ATOM     36  C   UNL     1      57.590 -24.996  13.821  1.00  0.00     0.093 A 
ATOM     37  C   UNL     1      56.960 -23.939  14.483  1.00  0.00     0.123 A 
BRANCH  28  38
ATOM     38  C   UNL     1      56.371 -20.101   9.867  1.00  0.00     0.025 A 
ATOM     39  C   UNL     1      57.238 -18.998   9.794  1.00  0.00     0.062 A 
ATOM     40  C   UNL     1      55.057 -19.972   9.388  1.00  0.00     0.016 A 
ATOM     41  C   UNL     1      56.809 -17.794   9.224  1.00  0.00     0.158 A 
ATOM     42  C   UNL     1      54.629 -18.774   8.814  1.00  0.00     0.051 A 
ATOM     43  C   UNL     1      55.501 -17.681   8.727  1.00  0.00     0.157 A 
BRANCH  41  44
ATOM     44  O   UNL     1      57.700 -16.722   9.158  1.00  0.00    -0.504 OA
ATOM     45  H   UNL     1      57.778 -16.043   9.905  1.00  0.00     0.293 HD
ENDBRANCH  41  44
BRANCH  43  46
ATOM     46  O   UNL     1      55.070 -16.485   8.155  1.00  0.00    -0.504 OA
ATOM     47  H   UNL     1      55.431 -16.163   7.264  1.00  0.00     0.293 HD
ENDBRANCH  43  46
ENDBRANCH  28  38
BRANCH  34  48
ATOM     48  O   UNL     1      58.535 -25.975  11.827  1.00  0.00    -0.507 OA
ATOM     49  H   UNL     1      58.642 -26.015  10.819  1.00  0.00     0.293 HD
ENDBRANCH  34  48
BRANCH  37  50
ATOM     50  O   UNL     1      56.671 -24.053  15.841  1.00  0.00    -0.508 OA
ATOM     51  H   UNL     1      55.864 -24.576  16.171  1.00  0.00     0.293 HD
ENDBRANCH  37  50
ENDBRANCH  26  27
ENDBRANCH   5  26
BRANCH   4  52
ATOM     52  O   UNL     1      58.491 -24.286   6.914  1.00  0.00    -0.384 OA
ATOM     53  H   UNL     1      57.897 -24.447   7.694  1.00  0.00     0.211 HD
ENDBRANCH   4  52
TORSDOF 16
ENDMDL
MODEL 8
REMARK VINA RESULT:    -7.960      4.237      8.887
REMARK INTER + INTRA:         -14.372
REMARK INTER:                 -12.536
REMARK INTRA:                  -1.836
REMARK UNBOUND:                -1.293
REMARK SMILES C[C@@H]1O[C@@H](OC[C@H]2O[C@H](Oc3c(-c4ccc(O)c(O)c4)oc4cc(O)cc(O)c4c3=O)[C@H](O)[C@@H](O)[C@@H]2O)[C@@H](O)[C@H](O)[C@H]1O
REMARK SMILES IDX 7 1 36 2 34 3 32 4 9 5 8 6 6 7 5 8 4 9 1 10 2 11 42 12 3 13
REMARK SMILES IDX 40 14 38 15 43 16 41 18 39 20 37 22 35 24 10 26 11 27 12 28
REMARK SMILES IDX 30 29 21 30 29 31 31 32 22 33 27 34 23 35 26 36 24 37 13 38
REMARK SMILES IDX 20 39 14 40 18 41 15 42 16 43 19 44 17 46 28 48 25 50 33 52
REMARK H PARENT 43 17 41 19 39 21 37 23 35 25 19 45 17 47 28 49 25 51 33 53
REMARK Flexibility Score: inf
ROOT
ATOM      1  C   UNL     1      47.796 -13.405  11.827  1.00  0.00     0.180 C 
ATOM      2  C   UNL     1      48.385 -12.776  10.541  1.00  0.00     0.177 C 
ATOM      3  C   UNL     1      47.720 -11.417  10.269  1.00  0.00     0.180 C 
ATOM      4  C   UNL     1      47.769 -10.544  11.533  1.00  0.00     0.214 C 
ATOM      5  C   UNL     1      47.209 -11.319  12.736  1.00  0.00     0.339 C 
ATOM      6  O   UNL     1      47.926 -12.525  12.934  1.00  0.00    -0.332 OA
ENDROOT
BRANCH   1   7
ATOM      7  C   UNL     1      48.506 -14.718  12.184  1.00  0.00     0.198 C 
BRANCH   7   8
ATOM      8  O   UNL     1      48.797 -14.738  13.568  1.00  0.00    -0.347 OA
BRANCH   8   9
ATOM      9  C   UNL     1      50.166 -15.033  13.791  1.00  0.00     0.281 C 
ATOM     10  C   UNL     1      49.791 -17.452  16.540  1.00  0.00     0.041 C 
ATOM     11  C   UNL     1      49.697 -16.103  15.831  1.00  0.00     0.150 C 
ATOM     12  C   UNL     1      50.371 -14.989  16.667  1.00  0.00     0.174 C 
ATOM     13  O   UNL     1      50.322 -16.220  14.560  1.00  0.00    -0.344 OA
ATOM     14  C   UNL     1      50.300 -13.653  15.909  1.00  0.00     0.179 C 
ATOM     15  C   UNL     1      50.852 -13.839  14.480  1.00  0.00     0.202 C 
BRANCH  12  16
ATOM     16  O   UNL     1      49.780 -14.868  17.938  1.00  0.00    -0.388 OA
ATOM     17  H   UNL     1      49.687 -15.784  18.317  1.00  0.00     0.211 HD
ENDBRANCH  12  16
BRANCH  14  18
ATOM     18  O   UNL     1      51.059 -12.690  16.597  1.00  0.00    -0.387 OA
ATOM     19  H   UNL     1      51.157 -11.911  15.989  1.00  0.00     0.211 HD
ENDBRANCH  14  18
BRANCH  15  20
ATOM     20  O   UNL     1      50.642 -12.680  13.712  1.00  0.00    -0.385 OA
ATOM     21  H   UNL     1      51.535 -12.292  13.530  1.00  0.00     0.211 HD
ENDBRANCH  15  20
ENDBRANCH   8   9
ENDBRANCH   7   8
ENDBRANCH   1   7
BRANCH   2  22
ATOM     22  O   UNL     1      48.160 -13.634   9.452  1.00  0.00    -0.387 OA
ATOM     23  H   UNL     1      47.559 -13.151   8.828  1.00  0.00     0.211 HD
ENDBRANCH   2  22
BRANCH   3  24
ATOM     24  O   UNL     1      48.406 -10.767   9.227  1.00  0.00    -0.387 OA
ATOM     25  H   UNL     1      48.286 -11.313   8.407  1.00  0.00     0.211 HD
ENDBRANCH   3  24
BRANCH   5  26
ATOM     26  O   UNL     1      45.809 -11.564  12.565  1.00  0.00    -0.454 OA
BRANCH  26  27
ATOM     27  C   UNL     1      44.740 -10.757  13.003  1.00  0.00     0.214 A 
ATOM     28  C   UNL     1      43.695 -10.497  12.095  1.00  0.00     0.180 A 
ATOM     29  C   UNL     1      44.672 -10.166  14.286  1.00  0.00     0.239 A 
ATOM     30  O   UNL     1      42.718  -9.654  12.415  1.00  0.00    -0.452 OA
ATOM     31  C   UNL     1      43.604  -9.297  14.596  1.00  0.00     0.111 A 
ATOM     32  O   UNL     1      45.555 -10.415  15.152  1.00  0.00    -0.285 OA
ATOM     33  C   UNL     1      42.637  -9.052  13.594  1.00  0.00     0.146 A 
ATOM     34  C   UNL     1      43.467  -8.659  15.854  1.00  0.00     0.134 A 
ATOM     35  C   UNL     1      41.575  -8.174  13.835  1.00  0.00     0.094 A 
ATOM     36  C   UNL     1      42.391  -7.787  16.079  1.00  0.00     0.093 A 
ATOM     37  C   UNL     1      41.452  -7.539  15.074  1.00  0.00     0.123 A 
BRANCH  28  38
ATOM     38  C   UNL     1      43.656 -11.134  10.762  1.00  0.00     0.025 A 
ATOM     39  C   UNL     1      43.281 -12.483  10.642  1.00  0.00     0.062 A 
ATOM     40  C   UNL     1      44.031 -10.423   9.610  1.00  0.00     0.016 A 
ATOM     41  C   UNL     1      43.251 -13.104   9.388  1.00  0.00     0.158 A 
ATOM     42  C   UNL     1      43.997 -11.038   8.358  1.00  0.00     0.051 A 
ATOM     43  C   UNL     1      43.605 -12.378   8.239  1.00  0.00     0.157 A 
BRANCH  41  44
ATOM     44  O   UNL     1      42.862 -14.440   9.304  1.00  0.00    -0.504 OA
ATOM     45  H   UNL     1      43.531 -15.198   9.365  1.00  0.00     0.293 HD
ENDBRANCH  41  44
BRANCH  43  46
ATOM     46  O   UNL     1      43.573 -12.990   6.987  1.00  0.00    -0.504 OA
ATOM     47  H   UNL     1      42.737 -12.979   6.413  1.00  0.00     0.293 HD
ENDBRANCH  43  46
ENDBRANCH  28  38
BRANCH  34  48
ATOM     48  O   UNL     1      44.388  -8.881  16.878  1.00  0.00    -0.507 OA
ATOM     49  H   UNL     1      44.501  -9.793  17.308  1.00  0.00     0.293 HD
ENDBRANCH  34  48
BRANCH  37  50
ATOM     50  O   UNL     1      40.401  -6.658  15.319  1.00  0.00    -0.508 OA
ATOM     51  H   UNL     1      40.148  -6.380  16.263  1.00  0.00     0.293 HD
ENDBRANCH  37  50
ENDBRANCH  26  27
ENDBRANCH   5  26
BRANCH   4  52
ATOM     52  O   UNL     1      47.017  -9.374  11.341  1.00  0.00    -0.384 OA
ATOM     53  H   UNL     1      46.515  -9.488  10.491  1.00  0.00     0.211 HD
ENDBRANCH   4  52
TORSDOF 16
ENDMDL
MODEL 9
REMARK VINA RESULT:    -7.933      1.961      9.142
REMARK INTER + INTRA:         -14.328
REMARK INTER:                 -11.438
REMARK INTRA:                  -2.890
REMARK UNBOUND:                -1.293
REMARK SMILES C[C@@H]1O[C@@H](OC[C@H]2O[C@H](Oc3c(-c4ccc(O)c(O)c4)oc4cc(O)cc(O)c4c3=O)[C@H](O)[C@@H](O)[C@@H]2O)[C@@H](O)[C@H](O)[C@H]1O
REMARK SMILES IDX 7 1 36 2 34 3 32 4 9 5 8 6 6 7 5 8 4 9 1 10 2 11 42 12 3 13
REMARK SMILES IDX 40 14 38 15 43 16 41 18 39 20 37 22 35 24 10 26 11 27 12 28
REMARK SMILES IDX 30 29 21 30 29 31 31 32 22 33 27 34 23 35 26 36 24 37 13 38
REMARK SMILES IDX 20 39 14 40 18 41 15 42 16 43 19 44 17 46 28 48 25 50 33 52
REMARK H PARENT 43 17 41 19 39 21 37 23 35 25 19 45 17 47 28 49 25 51 33 53
REMARK Flexibility Score: inf
ROOT
ATOM      1  C   UNL     1      43.251 -10.010   6.987  1.00  0.00     0.180 C 
ATOM      2  C   UNL     1      42.322  -9.032   6.229  1.00  0.00     0.177 C 
ATOM      3  C   UNL     1      41.778  -7.967   7.195  1.00  0.00     0.180 C 
ATOM      4  C   UNL     1      42.935  -7.330   7.981  1.00  0.00     0.214 C 
ATOM      5  C   UNL     1      43.803  -8.421   8.628  1.00  0.00     0.339 C 
ATOM      6  O   UNL     1      44.299  -9.314   7.647  1.00  0.00    -0.332 OA
ENDROOT
BRANCH   1   7
ATOM      7  C   UNL     1      43.891 -11.029   6.033  1.00  0.00     0.198 C 
BRANCH   7   8
ATOM      8  O   UNL     1      44.072 -10.438   4.761  1.00  0.00    -0.347 OA
BRANCH   8   9
ATOM      9  C   UNL     1      43.861 -11.388   3.730  1.00  0.00     0.281 C 
ATOM     10  C   UNL     1      47.371 -12.079   2.861  1.00  0.00     0.041 C 
ATOM     11  C   UNL     1      46.098 -11.250   3.021  1.00  0.00     0.150 C 
ATOM     12  C   UNL     1      45.723 -10.549   1.694  1.00  0.00     0.174 C 
ATOM     13  O   UNL     1      45.051 -12.113   3.442  1.00  0.00    -0.344 OA
ATOM     14  C   UNL     1      44.416  -9.759   1.873  1.00  0.00     0.179 C 
ATOM     15  C   UNL     1      43.331 -10.682   2.468  1.00  0.00     0.202 C 
BRANCH  12  16
ATOM     16  O   UNL     1      46.754  -9.702   1.247  1.00  0.00    -0.388 OA
ATOM     17  H   UNL     1      47.038 -10.020   0.348  1.00  0.00     0.211 HD
ENDBRANCH  12  16
BRANCH  14  18
ATOM     18  O   UNL     1      43.997  -9.267   0.625  1.00  0.00    -0.387 OA
ATOM     19  H   UNL     1      44.351  -9.888  -0.065  1.00  0.00     0.211 HD
ENDBRANCH  14  18
BRANCH  15  20
ATOM     20  O   UNL     1      42.180  -9.945   2.801  1.00  0.00    -0.385 OA
ATOM     21  H   UNL     1      41.546 -10.050   2.048  1.00  0.00     0.211 HD
ENDBRANCH  15  20
ENDBRANCH   8   9
ENDBRANCH   7   8
ENDBRANCH   1   7
BRANCH   2  22
ATOM     22  O   UNL     1      41.251  -9.743   5.664  1.00  0.00    -0.387 OA
ATOM     23  H   UNL     1      40.763  -9.107   5.078  1.00  0.00     0.211 HD
ENDBRANCH   2  22
BRANCH   3  24
ATOM     24  O   UNL     1      41.111  -6.972   6.460  1.00  0.00    -0.387 OA
ATOM     25  H   UNL     1      40.639  -7.422   5.711  1.00  0.00     0.211 HD
ENDBRANCH   3  24
BRANCH   5  26
ATOM     26  O   UNL     1      43.065  -9.113   9.641  1.00  0.00    -0.454 OA
BRANCH  26  27
ATOM     27  C   UNL     1      43.384  -9.219  11.009  1.00  0.00     0.214 A 
ATOM     28  C   UNL     1      43.972 -10.418  11.458  1.00  0.00     0.180 A 
ATOM     29  C   UNL     1      43.118  -8.209  11.961  1.00  0.00     0.239 A 
ATOM     30  O   UNL     1      44.192 -10.617  12.753  1.00  0.00    -0.452 OA
ATOM     31  C   UNL     1      43.390  -8.450  13.326  1.00  0.00     0.111 A 
ATOM     32  O   UNL     1      42.645  -7.098  11.599  1.00  0.00    -0.285 OA
ATOM     33  C   UNL     1      43.924  -9.709  13.682  1.00  0.00     0.146 A 
ATOM     34  C   UNL     1      43.145  -7.494  14.343  1.00  0.00     0.134 A 
ATOM     35  C   UNL     1      44.182 -10.015  15.024  1.00  0.00     0.094 A 
ATOM     36  C   UNL     1      43.417  -7.816  15.681  1.00  0.00     0.093 A 
ATOM     37  C   UNL     1      43.927  -9.071  16.023  1.00  0.00     0.123 A 
BRANCH  28  38
ATOM     38  C   UNL     1      44.347 -11.493  10.515  1.00  0.00     0.025 A 
ATOM     39  C   UNL     1      43.449 -12.541  10.257  1.00  0.00     0.062 A 
ATOM     40  C   UNL     1      45.610 -11.507   9.900  1.00  0.00     0.016 A 
ATOM     41  C   UNL     1      43.793 -13.572   9.375  1.00  0.00     0.158 A 
ATOM     42  C   UNL     1      45.954 -12.530   9.017  1.00  0.00     0.051 A 
ATOM     43  C   UNL     1      45.049 -13.565   8.747  1.00  0.00     0.157 A 
BRANCH  41  44
ATOM     44  O   UNL     1      42.872 -14.591   9.132  1.00  0.00    -0.504 OA
ATOM     45  H   UNL     1      43.003 -15.529   9.493  1.00  0.00     0.293 HD
ENDBRANCH  41  44
BRANCH  43  46
ATOM     46  O   UNL     1      45.397 -14.588   7.865  1.00  0.00    -0.504 OA
ATOM     47  H   UNL     1      46.198 -15.185   8.036  1.00  0.00     0.293 HD
ENDBRANCH  43  46
ENDBRANCH  28  38
BRANCH  34  48
ATOM     48  O   UNL     1      42.632  -6.232  14.037  1.00  0.00    -0.507 OA
ATOM     49  H   UNL     1      42.730  -5.825  13.113  1.00  0.00     0.293 HD
ENDBRANCH  34  48
BRANCH  37  50
ATOM     50  O   UNL     1      44.175  -9.371  17.361  1.00  0.00    -0.508 OA
ATOM     51  H   UNL     1      44.552  -8.676  18.000  1.00  0.00     0.293 HD
ENDBRANCH  37  50
ENDBRANCH  26  27
ENDBRANCH   5  26
BRANCH   4  52
ATOM     52  O   UNL     1      42.430  -6.483   8.981  1.00  0.00    -0.384 OA
ATOM     53  H   UNL     1      43.210  -6.145   9.496  1.00  0.00     0.211 HD
ENDBRANCH   4  52
TORSDOF 16
ENDMDL
