MODEL 1
REMARK VINA RESULT:    -1.674      0.000      0.000
REMARK INTER + INTRA:          -4.187
REMARK INTER:                  -2.652
REMARK INTRA:                  -1.535
REMARK UNBOUND:                -1.535
REMARK SMILES CCCCCCCCCCCC(=O)[O-]
REMARK SMILES IDX 7 1 8 2 9 3 10 4 11 5 12 6 13 7 14 8 6 9 5 10 4 11 3 12 2 13
REMARK SMILES IDX 1 14
REMARK H PARENT
REMARK Flexibility Score: inf
ROOT
ATOM      1  C   UNL     1      22.385  28.256  12.187  1.00  0.00     0.000 C 
ENDROOT
BRANCH   1   2
ATOM      2  C   UNL     1      21.957  26.828  12.558  1.00  0.00     0.000 C 
BRANCH   2   3
ATOM      3  C   UNL     1      23.145  25.858  12.651  1.00  0.00     0.000 C 
BRANCH   3   4
ATOM      4  C   UNL     1      23.065  25.014  13.932  1.00  0.00     0.006 C 
BRANCH   4   5
ATOM      5  C   UNL     1      24.320  25.162  14.803  1.00  0.00     0.053 C 
BRANCH   5   6
ATOM      6  C   UNL     1      25.126  23.898  14.834  1.00  0.00     0.041 C 
ATOM      7  O   UNL     1      25.000  23.043  13.919  1.00  0.00    -0.550 OA
ATOM      8  O   UNL     1      26.040  23.682  15.857  1.00  0.00    -0.550 OA
ENDBRANCH   5   6
ENDBRANCH   4   5
ENDBRANCH   3   4
ENDBRANCH   2   3
ENDBRANCH   1   2
BRANCH   1   9
ATOM      9  C   UNL     1      23.886  28.362  11.877  1.00  0.00     0.000 C 
BRANCH   9  10
ATOM     10  C   UNL     1      24.524  29.526  12.644  1.00  0.00    -0.000 C 
BRANCH  10  11
ATOM     11  C   UNL     1      23.863  29.707  14.019  1.00  0.00    -0.000 C 
BRANCH  11  12
ATOM     12  C   UNL     1      24.553  28.892  15.128  1.00  0.00    -0.000 C 
BRANCH  12  13
ATOM     13  C   UNL     1      23.634  28.473  16.290  1.00  0.00    -0.003 C 
ATOM     14  C   UNL     1      22.154  28.473  15.910  1.00  0.00     0.004 C 
ENDBRANCH  12  13
ENDBRANCH  11  12
ENDBRANCH  10  11
ENDBRANCH   9  10
ENDBRANCH   1   9
TORSDOF 10
ENDMDL
MODEL 2
REMARK VINA RESULT:    -1.573      3.528      5.438
REMARK INTER + INTRA:          -4.028
REMARK INTER:                  -2.620
REMARK INTRA:                  -1.408
REMARK UNBOUND:                -1.535
REMARK SMILES CCCCCCCCCCCC(=O)[O-]
REMARK SMILES IDX 7 1 8 2 9 3 10 4 11 5 12 6 13 7 14 8 6 9 5 10 4 11 3 12 2 13
REMARK SMILES IDX 1 14
REMARK H PARENT
REMARK Flexibility Score: inf
ROOT
ATOM      1  C   UNL     1      24.858  25.780  17.034  1.00  0.00     0.000 C 
ENDROOT
BRANCH   1   2
ATOM      2  C   UNL     1      25.975  26.093  16.027  1.00  0.00     0.000 C 
BRANCH   2   3
ATOM      3  C   UNL     1      25.769  27.437  15.311  1.00  0.00     0.000 C 
BRANCH   3   4
ATOM      4  C   UNL     1      24.315  27.914  15.450  1.00  0.00     0.006 C 
BRANCH   4   5
ATOM      5  C   UNL     1      24.098  29.300  14.827  1.00  0.00     0.053 C 
BRANCH   5   6
ATOM      6  C   UNL     1      23.942  29.222  13.339  1.00  0.00     0.041 C 
ATOM      7  O   UNL     1      24.741  29.834  12.584  1.00  0.00    -0.550 OA
ATOM      8  O   UNL     1      22.931  28.445  12.786  1.00  0.00    -0.550 OA
ENDBRANCH   5   6
ENDBRANCH   4   5
ENDBRANCH   3   4
ENDBRANCH   2   3
ENDBRANCH   1   2
BRANCH   1   9
ATOM      9  C   UNL     1      25.390  25.167  18.339  1.00  0.00     0.000 C 
BRANCH   9  10
ATOM     10  C   UNL     1      26.111  26.222  19.187  1.00  0.00    -0.000 C 
BRANCH  10  11
ATOM     11  C   UNL     1      25.306  27.528  19.240  1.00  0.00    -0.000 C 
BRANCH  11  12
ATOM     12  C   UNL     1      26.125  28.756  18.802  1.00  0.00    -0.000 C 
BRANCH  12  13
ATOM     13  C   UNL     1      25.287  29.946  18.300  1.00  0.00    -0.003 C 
ATOM     14  C   UNL     1      23.813  29.847  18.691  1.00  0.00     0.004 C 
ENDBRANCH  12  13
ENDBRANCH  11  12
ENDBRANCH  10  11
ENDBRANCH   9  10
ENDBRANCH   1   9
TORSDOF 10
ENDMDL
MODEL 3
REMARK VINA RESULT:    -1.548      2.782      4.720
REMARK INTER + INTRA:          -3.988
REMARK INTER:                  -2.330
REMARK INTRA:                  -1.659
REMARK UNBOUND:                -1.535
REMARK SMILES CCCCCCCCCCCC(=O)[O-]
REMARK SMILES IDX 7 1 8 2 9 3 10 4 11 5 12 6 13 7 14 8 6 9 5 10 4 11 3 12 2 13
REMARK SMILES IDX 1 14
REMARK H PARENT
REMARK Flexibility Score: inf
ROOT
ATOM      1  C   UNL     1      24.996  25.218  15.258  1.00  0.00     0.000 C 
ENDROOT
BRANCH   1   2
ATOM      2  C   UNL     1      24.491  25.807  16.584  1.00  0.00     0.000 C 
BRANCH   2   3
ATOM      3  C   UNL     1      24.233  27.319  16.501  1.00  0.00     0.000 C 
BRANCH   3   4
ATOM      4  C   UNL     1      25.104  27.966  15.414  1.00  0.00     0.006 C 
BRANCH   4   5
ATOM      5  C   UNL     1      24.366  29.086  14.668  1.00  0.00     0.053 C 
BRANCH   5   6
ATOM      6  C   UNL     1      24.575  28.998  13.187  1.00  0.00     0.041 C 
ATOM      7  O   UNL     1      25.737  28.872  12.717  1.00  0.00    -0.550 OA
ATOM      8  O   UNL     1      23.484  29.023  12.328  1.00  0.00    -0.550 OA
ENDBRANCH   5   6
ENDBRANCH   4   5
ENDBRANCH   3   4
ENDBRANCH   2   3
ENDBRANCH   1   2
BRANCH   1   9
ATOM      9  C   UNL     1      23.884  24.518  14.460  1.00  0.00     0.000 C 
BRANCH   9  10
ATOM     10  C   UNL     1      23.367  25.420  13.333  1.00  0.00    -0.000 C 
BRANCH  10  11
ATOM     11  C   UNL     1      21.844  25.592  13.421  1.00  0.00    -0.000 C 
BRANCH  11  12
ATOM     12  C   UNL     1      21.426  26.861  14.187  1.00  0.00    -0.000 C 
BRANCH  12  13
ATOM     13  C   UNL     1      20.389  26.633  15.301  1.00  0.00    -0.003 C 
ATOM     14  C   UNL     1      20.811  25.555  16.298  1.00  0.00     0.004 C 
ENDBRANCH  12  13
ENDBRANCH  11  12
ENDBRANCH  10  11
ENDBRANCH   9  10
ENDBRANCH   1   9
TORSDOF 10
ENDMDL
MODEL 4
REMARK VINA RESULT:    -1.547      2.953      4.741
REMARK INTER + INTRA:          -3.987
REMARK INTER:                  -2.365
REMARK INTRA:                  -1.622
REMARK UNBOUND:                -1.535
REMARK SMILES CCCCCCCCCCCC(=O)[O-]
REMARK SMILES IDX 7 1 8 2 9 3 10 4 11 5 12 6 13 7 14 8 6 9 5 10 4 11 3 12 2 13
REMARK SMILES IDX 1 14
REMARK H PARENT
REMARK Flexibility Score: inf
ROOT
ATOM      1  C   UNL     1      24.294  24.557  14.634  1.00  0.00     0.000 C 
ENDROOT
BRANCH   1   2
ATOM      2  C   UNL     1      24.786  25.272  15.901  1.00  0.00     0.000 C 
BRANCH   2   3
ATOM      3  C   UNL     1      25.566  26.559  15.590  1.00  0.00     0.000 C 
BRANCH   3   4
ATOM      4  C   UNL     1      25.466  27.556  16.755  1.00  0.00     0.006 C 
BRANCH   4   5
ATOM      5  C   UNL     1      24.012  27.834  17.158  1.00  0.00     0.053 C 
BRANCH   5   6
ATOM      6  C   UNL     1      23.635  29.265  16.923  1.00  0.00     0.041 C 
ATOM      7  O   UNL     1      24.524  30.125  16.686  1.00  0.00    -0.550 OA
ATOM      8  O   UNL     1      22.299  29.643  16.935  1.00  0.00    -0.550 OA
ENDBRANCH   5   6
ENDBRANCH   4   5
ENDBRANCH   3   4
ENDBRANCH   2   3
ENDBRANCH   1   2
BRANCH   1   9
ATOM      9  C   UNL     1      23.552  25.498  13.672  1.00  0.00     0.000 C 
BRANCH   9  10
ATOM     10  C   UNL     1      22.199  25.924  14.255  1.00  0.00    -0.000 C 
BRANCH  10  11
ATOM     11  C   UNL     1      21.997  27.440  14.127  1.00  0.00    -0.000 C 
BRANCH  11  12
ATOM     12  C   UNL     1      22.727  28.044  12.913  1.00  0.00    -0.000 C 
BRANCH  12  13
ATOM     13  C   UNL     1      23.620  29.256  13.232  1.00  0.00    -0.003 C 
ATOM     14  C   UNL     1      25.103  28.990  12.976  1.00  0.00     0.004 C 
ENDBRANCH  12  13
ENDBRANCH  11  12
ENDBRANCH  10  11
ENDBRANCH   9  10
ENDBRANCH   1   9
TORSDOF 10
ENDMDL
MODEL 5
REMARK VINA RESULT:    -1.519      1.139      3.273
REMARK INTER + INTRA:          -3.941
REMARK INTER:                  -2.696
REMARK INTRA:                  -1.245
REMARK UNBOUND:                -1.535
REMARK SMILES CCCCCCCCCCCC(=O)[O-]
REMARK SMILES IDX 7 1 8 2 9 3 10 4 11 5 12 6 13 7 14 8 6 9 5 10 4 11 3 12 2 13
REMARK SMILES IDX 1 14
REMARK H PARENT
REMARK Flexibility Score: inf
ROOT
ATOM      1  C   UNL     1      23.713  29.781  14.306  1.00  0.00     0.000 C 
ENDROOT
BRANCH   1   2
ATOM      2  C   UNL     1      24.210  29.336  15.690  1.00  0.00     0.000 C 
BRANCH   2   3
ATOM      3  C   UNL     1      23.815  27.889  16.024  1.00  0.00     0.000 C 
BRANCH   3   4
ATOM      4  C   UNL     1      24.970  27.150  16.716  1.00  0.00     0.006 C 
BRANCH   4   5
ATOM      5  C   UNL     1      25.869  26.412  15.715  1.00  0.00     0.053 C 
BRANCH   5   6
ATOM      6  C   UNL     1      26.045  24.970  16.086  1.00  0.00     0.041 C 
ATOM      7  O   UNL     1      26.125  24.632  17.296  1.00  0.00    -0.550 OA
ATOM      8  O   UNL     1      26.088  23.998  15.095  1.00  0.00    -0.550 OA
ENDBRANCH   5   6
ENDBRANCH   4   5
ENDBRANCH   3   4
ENDBRANCH   2   3
ENDBRANCH   1   2
BRANCH   1   9
ATOM      9  C   UNL     1      24.588  29.246  13.161  1.00  0.00     0.000 C 
BRANCH   9  10
ATOM     10  C   UNL     1      23.737  28.906  11.932  1.00  0.00    -0.000 C 
BRANCH  10  11
ATOM     11  C   UNL     1      22.380  28.320  12.348  1.00  0.00    -0.000 C 
BRANCH  11  12
ATOM     12  C   UNL     1      22.317  26.789  12.203  1.00  0.00    -0.000 C 
BRANCH  12  13
ATOM     13  C   UNL     1      23.406  26.020  12.973  1.00  0.00    -0.003 C 
ATOM     14  C   UNL     1      22.845  24.885  13.827  1.00  0.00     0.004 C 
ENDBRANCH  12  13
ENDBRANCH  11  12
ENDBRANCH  10  11
ENDBRANCH   9  10
ENDBRANCH   1   9
TORSDOF 10
ENDMDL
MODEL 6
REMARK VINA RESULT:    -1.515      1.454      3.318
REMARK INTER + INTRA:          -3.936
REMARK INTER:                  -2.934
REMARK INTRA:                  -1.002
REMARK UNBOUND:                -1.535
REMARK SMILES CCCCCCCCCCCC(=O)[O-]
REMARK SMILES IDX 7 1 8 2 9 3 10 4 11 5 12 6 13 7 14 8 6 9 5 10 4 11 3 12 2 13
REMARK SMILES IDX 1 14
REMARK H PARENT
REMARK Flexibility Score: inf
ROOT
ATOM      1  C   UNL     1      25.782  27.314  15.284  1.00  0.00     0.000 C 
ENDROOT
BRANCH   1   2
ATOM      2  C   UNL     1      25.483  25.857  15.668  1.00  0.00     0.000 C 
BRANCH   2   3
ATOM      3  C   UNL     1      24.087  25.400  15.217  1.00  0.00     0.000 C 
BRANCH   3   4
ATOM      4  C   UNL     1      24.134  23.974  14.648  1.00  0.00     0.006 C 
BRANCH   4   5
ATOM      5  C   UNL     1      25.569  23.442  14.533  1.00  0.00     0.053 C 
BRANCH   5   6
ATOM      6  C   UNL     1      25.594  21.970  14.251  1.00  0.00     0.041 C 
ATOM      7  O   UNL     1      25.181  21.152  15.113  1.00  0.00    -0.550 OA
ATOM      8  O   UNL     1      26.045  21.506  13.022  1.00  0.00    -0.550 OA
ENDBRANCH   5   6
ENDBRANCH   4   5
ENDBRANCH   3   4
ENDBRANCH   2   3
ENDBRANCH   1   2
BRANCH   1   9
ATOM      9  C   UNL     1      24.714  28.294  15.795  1.00  0.00     0.000 C 
BRANCH   9  10
ATOM     10  C   UNL     1      24.152  29.141  14.647  1.00  0.00    -0.000 C 
BRANCH  10  11
ATOM     11  C   UNL     1      24.970  28.940  13.364  1.00  0.00    -0.000 C 
BRANCH  11  12
ATOM     12  C   UNL     1      24.157  29.208  12.084  1.00  0.00    -0.000 C 
BRANCH  12  13
ATOM     13  C   UNL     1      22.947  28.279  11.881  1.00  0.00    -0.003 C 
ATOM     14  C   UNL     1      23.314  26.797  11.946  1.00  0.00     0.004 C 
ENDBRANCH  12  13
ENDBRANCH  11  12
ENDBRANCH  10  11
ENDBRANCH   9  10
ENDBRANCH   1   9
TORSDOF 10
ENDMDL
MODEL 7
REMARK VINA RESULT:    -1.475     23.456     25.018
REMARK INTER + INTRA:          -3.873
REMARK INTER:                  -2.343
REMARK INTRA:                  -1.530
REMARK UNBOUND:                -1.535
REMARK SMILES CCCCCCCCCCCC(=O)[O-]
REMARK SMILES IDX 7 1 8 2 9 3 10 4 11 5 12 6 13 7 14 8 6 9 5 10 4 11 3 12 2 13
REMARK SMILES IDX 1 14
REMARK H PARENT
REMARK Flexibility Score: inf
ROOT
ATOM      1  C   UNL     1       7.903  11.769  23.961  1.00  0.00     0.000 C 
ENDROOT
BRANCH   1   2
ATOM      2  C   UNL     1       9.415  11.507  23.889  1.00  0.00     0.000 C 
BRANCH   2   3
ATOM      3  C   UNL     1      10.187  12.169  25.041  1.00  0.00     0.000 C 
BRANCH   3   4
ATOM      4  C   UNL     1      10.695  11.116  26.038  1.00  0.00     0.006 C 
BRANCH   4   5
ATOM      5  C   UNL     1      10.602  11.600  27.491  1.00  0.00     0.053 C 
BRANCH   5   6
ATOM      6  C   UNL     1      11.433  10.757  28.410  1.00  0.00     0.041 C 
ATOM      7  O   UNL     1      11.247  10.803  29.655  1.00  0.00    -0.550 OA
ATOM      8  O   UNL     1      12.392   9.898  27.889  1.00  0.00    -0.550 OA
ENDBRANCH   5   6
ENDBRANCH   4   5
ENDBRANCH   3   4
ENDBRANCH   2   3
ENDBRANCH   1   2
BRANCH   1   9
ATOM      9  C   UNL     1       7.084  10.477  24.109  1.00  0.00     0.000 C 
BRANCH   9  10
ATOM     10  C   UNL     1       6.265  10.492  25.406  1.00  0.00    -0.000 C 
BRANCH  10  11
ATOM     11  C   UNL     1       7.161  10.231  26.625  1.00  0.00    -0.000 C 
BRANCH  11  12
ATOM     12  C   UNL     1       6.973  11.273  27.743  1.00  0.00    -0.000 C 
BRANCH  12  13
ATOM     13  C   UNL     1       6.396  12.623  27.279  1.00  0.00    -0.003 C 
ATOM     14  C   UNL     1       7.457  13.716  27.158  1.00  0.00     0.004 C 
ENDBRANCH  12  13
ENDBRANCH  11  12
ENDBRANCH  10  11
ENDBRANCH   9  10
ENDBRANCH   1   9
TORSDOF 10
ENDMDL
MODEL 8
REMARK VINA RESULT:    -1.444     23.334     24.736
REMARK INTER + INTRA:          -3.824
REMARK INTER:                  -2.351
REMARK INTRA:                  -1.472
REMARK UNBOUND:                -1.535
REMARK SMILES CCCCCCCCCCCC(=O)[O-]
REMARK SMILES IDX 7 1 8 2 9 3 10 4 11 5 12 6 13 7 14 8 6 9 5 10 4 11 3 12 2 13
REMARK SMILES IDX 1 14
REMARK H PARENT
REMARK Flexibility Score: inf
ROOT
ATOM      1  C   UNL     1       6.612  13.728  26.637  1.00  0.00     0.000 C 
ENDROOT
BRANCH   1   2
ATOM      2  C   UNL     1       5.945  12.475  27.225  1.00  0.00     0.000 C 
BRANCH   2   3
ATOM      3  C   UNL     1       6.964  11.409  27.657  1.00  0.00     0.000 C 
BRANCH   3   4
ATOM      4  C   UNL     1       7.010  10.253  26.647  1.00  0.00     0.006 C 
BRANCH   4   5
ATOM      5  C   UNL     1       8.314  10.242  25.837  1.00  0.00     0.053 C 
BRANCH   5   6
ATOM      6  C   UNL     1       8.173  10.991  24.547  1.00  0.00     0.041 C 
ATOM      7  O   UNL     1       7.032  11.216  24.066  1.00  0.00    -0.550 OA
ATOM      8  O   UNL     1       9.302  11.469  23.894  1.00  0.00    -0.550 OA
ENDBRANCH   5   6
ENDBRANCH   4   5
ENDBRANCH   3   4
ENDBRANCH   2   3
ENDBRANCH   1   2
BRANCH   1   9
ATOM      9  C   UNL     1       7.906  14.112  27.373  1.00  0.00     0.000 C 
BRANCH   9  10
ATOM     10  C   UNL     1       9.090  14.176  26.401  1.00  0.00    -0.000 C 
BRANCH  10  11
ATOM     11  C   UNL     1      10.251  13.299  26.890  1.00  0.00    -0.000 C 
BRANCH  11  12
ATOM     12  C   UNL     1      10.186  13.003  28.400  1.00  0.00    -0.000 C 
BRANCH  12  13
ATOM     13  C   UNL     1      11.122  13.861  29.269  1.00  0.00    -0.003 C 
ATOM     14  C   UNL     1      10.380  14.924  30.078  1.00  0.00     0.004 C 
ENDBRANCH  12  13
ENDBRANCH  11  12
ENDBRANCH  10  11
ENDBRANCH   9  10
ENDBRANCH   1   9
TORSDOF 10
ENDMDL
