MODEL 1
REMARK VINA RESULT:    -3.382      0.000      0.000
REMARK INTER + INTRA:          -8.848
REMARK INTER:                  -6.347
REMARK INTRA:                  -2.501
REMARK UNBOUND:                -2.501
REMARK SMILES CCCCCCCCC=CCCCCCCCC(=O)[O-]
REMARK SMILES IDX 10 1 9 2 11 3 12 4 13 5 14 6 15 7 16 8 17 9 18 10 19 11
REMARK SMILES IDX 20 12 8 13 7 14 6 15 5 16 4 17 3 18 2 19 1 20
REMARK H PARENT
REMARK Flexibility Score: inf
ROOT
ATOM      1  C   UNL     1      56.633  26.096  51.479  1.00  0.00    -0.031 C 
ATOM      2  C   UNL     1      57.942  25.807  51.612  1.00  0.00    -0.031 C 
ENDROOT
BRANCH   1   3
ATOM      3  C   UNL     1      55.963  26.581  50.217  1.00  0.00     0.027 C 
BRANCH   3   4
ATOM      4  C   UNL     1      54.438  26.414  50.283  1.00  0.00     0.004 C 
BRANCH   4   5
ATOM      5  C   UNL     1      53.700  27.762  50.247  1.00  0.00     0.000 C 
BRANCH   5   6
ATOM      6  C   UNL     1      54.623  28.949  50.561  1.00  0.00     0.000 C 
BRANCH   6   7
ATOM      7  C   UNL     1      53.846  30.211  50.976  1.00  0.00     0.000 C 
BRANCH   7   8
ATOM      8  C   UNL     1      54.054  30.572  52.455  1.00  0.00     0.006 C 
BRANCH   8   9
ATOM      9  C   UNL     1      53.546  31.980  52.794  1.00  0.00     0.053 C 
BRANCH   9  10
ATOM     10  C   UNL     1      54.563  32.720  53.604  1.00  0.00     0.041 C 
ATOM     11  O   UNL     1      55.396  32.088  54.307  1.00  0.00    -0.550 OA
ATOM     12  O   UNL     1      54.561  34.109  53.621  1.00  0.00    -0.550 OA
ENDBRANCH   9  10
ENDBRANCH   8   9
ENDBRANCH   7   8
ENDBRANCH   6   7
ENDBRANCH   5   6
ENDBRANCH   4   5
ENDBRANCH   3   4
ENDBRANCH   1   3
BRANCH   2  13
ATOM     13  C   UNL     1      58.991  25.963  50.537  1.00  0.00     0.027 C 
BRANCH  13  14
ATOM     14  C   UNL     1      60.244  26.670  51.070  1.00  0.00     0.004 C 
BRANCH  14  15
ATOM     15  C   UNL     1      60.465  28.040  50.411  1.00  0.00     0.000 C 
BRANCH  15  16
ATOM     16  C   UNL     1      59.324  28.435  49.458  1.00  0.00     0.000 C 
BRANCH  16  17
ATOM     17  C   UNL     1      58.346  29.466  50.060  1.00  0.00    -0.000 C 
BRANCH  17  18
ATOM     18  C   UNL     1      58.866  30.053  51.385  1.00  0.00    -0.000 C 
BRANCH  18  19
ATOM     19  C   UNL     1      57.739  30.337  52.389  1.00  0.00    -0.003 C 
ATOM     20  C   UNL     1      57.389  29.121  53.245  1.00  0.00     0.004 C 
ENDBRANCH  18  19
ENDBRANCH  17  18
ENDBRANCH  16  17
ENDBRANCH  15  16
ENDBRANCH  14  15
ENDBRANCH  13  14
ENDBRANCH   2  13
TORSDOF 15
ENDMDL
MODEL 2
REMARK VINA RESULT:    -3.291      3.325      6.166
REMARK INTER + INTRA:          -8.678
REMARK INTER:                  -5.762
REMARK INTRA:                  -2.916
REMARK UNBOUND:                -2.501
REMARK SMILES CCCCCCCCC=CCCCCCCCC(=O)[O-]
REMARK SMILES IDX 10 1 9 2 11 3 12 4 13 5 14 6 15 7 16 8 17 9 18 10 19 11
REMARK SMILES IDX 20 12 8 13 7 14 6 15 5 16 4 17 3 18 2 19 1 20
REMARK H PARENT
REMARK Flexibility Score: inf
ROOT
ATOM      1  C   UNL     1      55.645  27.394  53.169  1.00  0.00    -0.031 C 
ATOM      2  C   UNL     1      54.523  27.481  52.429  1.00  0.00    -0.031 C 
ENDROOT
BRANCH   1   3
ATOM      3  C   UNL     1      57.042  27.207  52.630  1.00  0.00     0.027 C 
BRANCH   3   4
ATOM      4  C   UNL     1      57.916  28.446  52.871  1.00  0.00     0.004 C 
BRANCH   4   5
ATOM      5  C   UNL     1      57.594  29.588  51.893  1.00  0.00     0.000 C 
BRANCH   5   6
ATOM      6  C   UNL     1      57.584  29.124  50.428  1.00  0.00     0.000 C 
BRANCH   6   7
ATOM      7  C   UNL     1      58.878  29.492  49.681  1.00  0.00     0.000 C 
BRANCH   7   8
ATOM      8  C   UNL     1      59.871  28.321  49.609  1.00  0.00     0.006 C 
BRANCH   8   9
ATOM      9  C   UNL     1      59.180  26.955  49.705  1.00  0.00     0.053 C 
BRANCH   9  10
ATOM     10  C   UNL     1      60.044  25.984  50.446  1.00  0.00     0.041 C 
ATOM     11  O   UNL     1      61.290  26.156  50.497  1.00  0.00    -0.550 OA
ATOM     12  O   UNL     1      59.478  24.863  51.040  1.00  0.00    -0.550 OA
ENDBRANCH   9  10
ENDBRANCH   8   9
ENDBRANCH   7   8
ENDBRANCH   6   7
ENDBRANCH   5   6
ENDBRANCH   4   5
ENDBRANCH   3   4
ENDBRANCH   1   3
BRANCH   2  13
ATOM     13  C   UNL     1      54.448  27.356  50.926  1.00  0.00     0.027 C 
BRANCH  13  14
ATOM     14  C   UNL     1      53.567  28.452  50.312  1.00  0.00     0.004 C 
BRANCH  14  15
ATOM     15  C   UNL     1      54.014  29.861  50.729  1.00  0.00     0.000 C 
BRANCH  15  16
ATOM     16  C   UNL     1      52.891  30.670  51.400  1.00  0.00     0.000 C 
BRANCH  16  17
ATOM     17  C   UNL     1      53.186  31.030  52.872  1.00  0.00    -0.000 C 
BRANCH  17  18
ATOM     18  C   UNL     1      54.677  31.334  53.107  1.00  0.00    -0.000 C 
BRANCH  18  19
ATOM     19  C   UNL     1      55.169  30.850  54.479  1.00  0.00    -0.003 C 
ATOM     20  C   UNL     1      54.121  30.026  55.226  1.00  0.00     0.004 C 
ENDBRANCH  18  19
ENDBRANCH  17  18
ENDBRANCH  16  17
ENDBRANCH  15  16
ENDBRANCH  14  15
ENDBRANCH  13  14
ENDBRANCH   2  13
TORSDOF 15
ENDMDL
MODEL 3
REMARK VINA RESULT:    -3.290      3.843      6.920
REMARK INTER + INTRA:          -8.675
REMARK INTER:                  -6.183
REMARK INTRA:                  -2.492
REMARK UNBOUND:                -2.501
REMARK SMILES CCCCCCCCC=CCCCCCCCC(=O)[O-]
REMARK SMILES IDX 10 1 9 2 11 3 12 4 13 5 14 6 15 7 16 8 17 9 18 10 19 11
REMARK SMILES IDX 20 12 8 13 7 14 6 15 5 16 4 17 3 18 2 19 1 20
REMARK H PARENT
REMARK Flexibility Score: inf
ROOT
ATOM      1  C   UNL     1      58.275  28.987  52.815  1.00  0.00    -0.031 C 
ATOM      2  C   UNL     1      57.288  29.427  53.620  1.00  0.00    -0.031 C 
ENDROOT
BRANCH   1   3
ATOM      3  C   UNL     1      58.944  29.789  51.725  1.00  0.00     0.027 C 
BRANCH   3   4
ATOM      4  C   UNL     1      58.230  29.621  50.377  1.00  0.00     0.004 C 
BRANCH   4   5
ATOM      5  C   UNL     1      59.140  29.000  49.305  1.00  0.00     0.000 C 
BRANCH   5   6
ATOM      6  C   UNL     1      59.721  27.645  49.738  1.00  0.00     0.000 C 
BRANCH   6   7
ATOM      7  C   UNL     1      58.639  26.565  49.912  1.00  0.00     0.000 C 
BRANCH   7   8
ATOM      8  C   UNL     1      58.930  25.621  51.089  1.00  0.00     0.006 C 
BRANCH   8   9
ATOM      9  C   UNL     1      60.377  25.730  51.588  1.00  0.00     0.053 C 
BRANCH   9  10
ATOM     10  C   UNL     1      61.251  24.749  50.872  1.00  0.00     0.041 C 
ATOM     11  O   UNL     1      62.499  24.912  50.850  1.00  0.00    -0.550 OA
ATOM     12  O   UNL     1      60.682  23.682  50.187  1.00  0.00    -0.550 OA
ENDBRANCH   9  10
ENDBRANCH   8   9
ENDBRANCH   7   8
ENDBRANCH   6   7
ENDBRANCH   5   6
ENDBRANCH   4   5
ENDBRANCH   3   4
ENDBRANCH   1   3
BRANCH   2  13
ATOM     13  C   UNL     1      56.633  30.785  53.548  1.00  0.00     0.027 C 
BRANCH  13  14
ATOM     14  C   UNL     1      55.103  30.677  53.599  1.00  0.00     0.004 C 
BRANCH  14  15
ATOM     15  C   UNL     1      54.576  29.472  52.806  1.00  0.00     0.000 C 
BRANCH  15  16
ATOM     16  C   UNL     1      54.325  29.796  51.324  1.00  0.00     0.000 C 
BRANCH  16  17
ATOM     17  C   UNL     1      54.509  28.583  50.387  1.00  0.00    -0.000 C 
BRANCH  17  18
ATOM     18  C   UNL     1      55.380  27.485  51.024  1.00  0.00    -0.000 C 
BRANCH  18  19
ATOM     19  C   UNL     1      54.749  26.090  50.909  1.00  0.00    -0.003 C 
ATOM     20  C   UNL     1      53.935  25.913  49.628  1.00  0.00     0.004 C 
ENDBRANCH  18  19
ENDBRANCH  17  18
ENDBRANCH  16  17
ENDBRANCH  15  16
ENDBRANCH  14  15
ENDBRANCH  13  14
ENDBRANCH   2  13
TORSDOF 15
ENDMDL
MODEL 4
REMARK VINA RESULT:    -3.231      3.558      6.978
REMARK INTER + INTRA:          -8.565
REMARK INTER:                  -6.489
REMARK INTRA:                  -2.076
REMARK UNBOUND:                -2.501
REMARK SMILES CCCCCCCCC=CCCCCCCCC(=O)[O-]
REMARK SMILES IDX 10 1 9 2 11 3 12 4 13 5 14 6 15 7 16 8 17 9 18 10 19 11
REMARK SMILES IDX 20 12 8 13 7 14 6 15 5 16 4 17 3 18 2 19 1 20
REMARK H PARENT
REMARK Flexibility Score: inf
ROOT
ATOM      1  C   UNL     1      57.626  27.836  51.179  1.00  0.00    -0.031 C 
ATOM      2  C   UNL     1      56.703  26.854  51.196  1.00  0.00    -0.031 C 
ENDROOT
BRANCH   1   3
ATOM      3  C   UNL     1      57.545  29.105  50.365  1.00  0.00     0.027 C 
BRANCH   3   4
ATOM      4  C   UNL     1      58.830  29.347  49.561  1.00  0.00     0.004 C 
BRANCH   4   5
ATOM      5  C   UNL     1      59.767  28.128  49.575  1.00  0.00     0.000 C 
BRANCH   5   6
ATOM      6  C   UNL     1      61.180  28.476  50.068  1.00  0.00     0.000 C 
BRANCH   6   7
ATOM      7  C   UNL     1      61.697  27.488  51.128  1.00  0.00     0.000 C 
BRANCH   7   8
ATOM      8  C   UNL     1      62.398  26.269  50.508  1.00  0.00     0.006 C 
BRANCH   8   9
ATOM      9  C   UNL     1      62.053  24.960  51.230  1.00  0.00     0.053 C 
BRANCH   9  10
ATOM     10  C   UNL     1      60.921  24.267  50.539  1.00  0.00     0.041 C 
ATOM     11  O   UNL     1      61.142  23.265  49.809  1.00  0.00    -0.550 OA
ATOM     12  O   UNL     1      59.627  24.757  50.663  1.00  0.00    -0.550 OA
ENDBRANCH   9  10
ENDBRANCH   8   9
ENDBRANCH   7   8
ENDBRANCH   6   7
ENDBRANCH   5   6
ENDBRANCH   4   5
ENDBRANCH   3   4
ENDBRANCH   1   3
BRANCH   2  13
ATOM     13  C   UNL     1      55.443  26.815  50.365  1.00  0.00     0.027 C 
BRANCH  13  14
ATOM     14  C   UNL     1      54.287  27.549  51.059  1.00  0.00     0.004 C 
BRANCH  14  15
ATOM     15  C   UNL     1      53.817  28.777  50.266  1.00  0.00     0.000 C 
BRANCH  15  16
ATOM     16  C   UNL     1      53.940  30.086  51.063  1.00  0.00     0.000 C 
BRANCH  16  17
ATOM     17  C   UNL     1      53.530  29.947  52.545  1.00  0.00    -0.000 C 
BRANCH  17  18
ATOM     18  C   UNL     1      54.367  30.854  53.465  1.00  0.00    -0.000 C 
BRANCH  18  19
ATOM     19  C   UNL     1      55.874  30.748  53.189  1.00  0.00    -0.003 C 
ATOM     20  C   UNL     1      56.567  29.718  54.081  1.00  0.00     0.004 C 
ENDBRANCH  18  19
ENDBRANCH  17  18
ENDBRANCH  16  17
ENDBRANCH  15  16
ENDBRANCH  14  15
ENDBRANCH  13  14
ENDBRANCH   2  13
TORSDOF 15
ENDMDL
MODEL 5
REMARK VINA RESULT:    -3.227      3.868      6.824
REMARK INTER + INTRA:          -8.557
REMARK INTER:                  -5.880
REMARK INTRA:                  -2.677
REMARK UNBOUND:                -2.501
REMARK SMILES CCCCCCCCC=CCCCCCCCC(=O)[O-]
REMARK SMILES IDX 10 1 9 2 11 3 12 4 13 5 14 6 15 7 16 8 17 9 18 10 19 11
REMARK SMILES IDX 20 12 8 13 7 14 6 15 5 16 4 17 3 18 2 19 1 20
REMARK H PARENT
REMARK Flexibility Score: inf
ROOT
ATOM      1  C   UNL     1      58.229  29.605  53.302  1.00  0.00    -0.031 C 
ATOM      2  C   UNL     1      58.001  28.686  54.261  1.00  0.00    -0.031 C 
ENDROOT
BRANCH   1   3
ATOM      3  C   UNL     1      57.677  29.568  51.898  1.00  0.00     0.027 C 
BRANCH   3   4
ATOM      4  C   UNL     1      58.745  29.934  50.858  1.00  0.00     0.004 C 
BRANCH   4   5
ATOM      5  C   UNL     1      58.726  28.991  49.644  1.00  0.00     0.000 C 
BRANCH   5   6
ATOM      6  C   UNL     1      59.978  28.103  49.567  1.00  0.00     0.000 C 
BRANCH   6   7
ATOM      7  C   UNL     1      59.716  26.666  50.052  1.00  0.00     0.000 C 
BRANCH   7   8
ATOM      8  C   UNL     1      60.705  26.221  51.140  1.00  0.00     0.006 C 
BRANCH   8   9
ATOM      9  C   UNL     1      61.650  25.112  50.660  1.00  0.00     0.053 C 
BRANCH   9  10
ATOM     10  C   UNL     1      60.931  23.801  50.608  1.00  0.00     0.041 C 
ATOM     11  O   UNL     1      60.997  23.083  49.575  1.00  0.00    -0.550 OA
ATOM     12  O   UNL     1      60.149  23.394  51.682  1.00  0.00    -0.550 OA
ENDBRANCH   9  10
ENDBRANCH   8   9
ENDBRANCH   7   8
ENDBRANCH   6   7
ENDBRANCH   5   6
ENDBRANCH   4   5
ENDBRANCH   3   4
ENDBRANCH   1   3
BRANCH   2  13
ATOM     13  C   UNL     1      57.194  27.420  54.092  1.00  0.00     0.027 C 
BRANCH  13  14
ATOM     14  C   UNL     1      58.055  26.269  53.556  1.00  0.00     0.004 C 
BRANCH  14  15
ATOM     15  C   UNL     1      57.273  25.348  52.608  1.00  0.00     0.000 C 
BRANCH  15  16
ATOM     16  C   UNL     1      55.973  25.988  52.092  1.00  0.00     0.000 C 
BRANCH  16  17
ATOM     17  C   UNL     1      56.081  26.532  50.652  1.00  0.00    -0.000 C 
BRANCH  17  18
ATOM     18  C   UNL     1      54.792  27.243  50.203  1.00  0.00    -0.000 C 
BRANCH  18  19
ATOM     19  C   UNL     1      54.286  28.259  51.238  1.00  0.00    -0.003 C 
ATOM     20  C   UNL     1      54.155  29.670  50.665  1.00  0.00     0.004 C 
ENDBRANCH  18  19
ENDBRANCH  17  18
ENDBRANCH  16  17
ENDBRANCH  15  16
ENDBRANCH  14  15
ENDBRANCH  13  14
ENDBRANCH   2  13
TORSDOF 15
ENDMDL
MODEL 6
REMARK VINA RESULT:    -3.199      1.255      2.864
REMARK INTER + INTRA:          -8.504
REMARK INTER:                  -5.705
REMARK INTRA:                  -2.799
REMARK UNBOUND:                -2.501
REMARK SMILES CCCCCCCCC=CCCCCCCCC(=O)[O-]
REMARK SMILES IDX 10 1 9 2 11 3 12 4 13 5 14 6 15 7 16 8 17 9 18 10 19 11
REMARK SMILES IDX 20 12 8 13 7 14 6 15 5 16 4 17 3 18 2 19 1 20
REMARK H PARENT
REMARK Flexibility Score: inf
ROOT
ATOM      1  C   UNL     1      56.873  27.448  52.348  1.00  0.00    -0.031 C 
ATOM      2  C   UNL     1      57.174  28.673  51.874  1.00  0.00    -0.031 C 
ENDROOT
BRANCH   1   3
ATOM      3  C   UNL     1      56.546  26.236  51.510  1.00  0.00     0.027 C 
BRANCH   3   4
ATOM      4  C   UNL     1      55.030  26.022  51.388  1.00  0.00     0.004 C 
BRANCH   4   5
ATOM      5  C   UNL     1      54.473  26.528  50.048  1.00  0.00     0.000 C 
BRANCH   5   6
ATOM      6  C   UNL     1      53.214  27.391  50.221  1.00  0.00     0.000 C 
BRANCH   6   7
ATOM      7  C   UNL     1      53.538  28.890  50.356  1.00  0.00     0.000 C 
BRANCH   7   8
ATOM      8  C   UNL     1      53.455  29.383  51.809  1.00  0.00     0.006 C 
BRANCH   8   9
ATOM      9  C   UNL     1      54.067  30.777  51.994  1.00  0.00     0.053 C 
BRANCH   9  10
ATOM     10  C   UNL     1      54.643  30.916  53.369  1.00  0.00     0.041 C 
ATOM     11  O   UNL     1      55.090  32.027  53.758  1.00  0.00    -0.550 OA
ATOM     12  O   UNL     1      54.730  29.807  54.201  1.00  0.00    -0.550 OA
ENDBRANCH   9  10
ENDBRANCH   8   9
ENDBRANCH   7   8
ENDBRANCH   6   7
ENDBRANCH   5   6
ENDBRANCH   4   5
ENDBRANCH   3   4
ENDBRANCH   1   3
BRANCH   2  13
ATOM     13  C   UNL     1      57.190  29.074  50.419  1.00  0.00     0.027 C 
BRANCH  13  14
ATOM     14  C   UNL     1      58.503  29.771  50.040  1.00  0.00     0.004 C 
BRANCH  14  15
ATOM     15  C   UNL     1      59.730  29.068  50.639  1.00  0.00     0.000 C 
BRANCH  15  16
ATOM     16  C   UNL     1      60.350  28.032  49.687  1.00  0.00     0.000 C 
BRANCH  16  17
ATOM     17  C   UNL     1      59.875  26.587  49.954  1.00  0.00    -0.000 C 
BRANCH  17  18
ATOM     18  C   UNL     1      60.922  25.767  50.728  1.00  0.00    -0.000 C 
BRANCH  18  19
ATOM     19  C   UNL     1      60.391  25.248  52.073  1.00  0.00    -0.003 C 
ATOM     20  C   UNL     1      60.325  26.337  53.142  1.00  0.00     0.004 C 
ENDBRANCH  18  19
ENDBRANCH  17  18
ENDBRANCH  16  17
ENDBRANCH  15  16
ENDBRANCH  14  15
ENDBRANCH  13  14
ENDBRANCH   2  13
TORSDOF 15
ENDMDL
MODEL 7
REMARK VINA RESULT:    -3.163      3.256      5.777
REMARK INTER + INTRA:          -8.437
REMARK INTER:                  -5.731
REMARK INTRA:                  -2.706
REMARK UNBOUND:                -2.501
REMARK SMILES CCCCCCCCC=CCCCCCCCC(=O)[O-]
REMARK SMILES IDX 10 1 9 2 11 3 12 4 13 5 14 6 15 7 16 8 17 9 18 10 19 11
REMARK SMILES IDX 20 12 8 13 7 14 6 15 5 16 4 17 3 18 2 19 1 20
REMARK H PARENT
REMARK Flexibility Score: inf
ROOT
ATOM      1  C   UNL     1      59.403  26.439  52.306  1.00  0.00    -0.031 C 
ATOM      2  C   UNL     1      59.366  27.295  53.346  1.00  0.00    -0.031 C 
ENDROOT
BRANCH   1   3
ATOM      3  C   UNL     1      58.225  26.045  51.449  1.00  0.00     0.027 C 
BRANCH   3   4
ATOM      4  C   UNL     1      58.413  26.478  49.989  1.00  0.00     0.004 C 
BRANCH   4   5
ATOM      5  C   UNL     1      59.551  27.499  49.824  1.00  0.00     0.000 C 
BRANCH   5   6
ATOM      6  C   UNL     1      59.034  28.915  49.526  1.00  0.00     0.000 C 
BRANCH   6   7
ATOM      7  C   UNL     1      59.892  30.010  50.186  1.00  0.00     0.000 C 
BRANCH   7   8
ATOM      8  C   UNL     1      61.142  29.444  50.876  1.00  0.00     0.006 C 
BRANCH   8   9
ATOM      9  C   UNL     1      61.410  30.098  52.238  1.00  0.00     0.053 C 
BRANCH   9  10
ATOM     10  C   UNL     1      62.867  30.404  52.392  1.00  0.00     0.041 C 
ATOM     11  O   UNL     1      63.463  30.122  53.465  1.00  0.00    -0.550 OA
ATOM     12  O   UNL     1      63.554  31.045  51.369  1.00  0.00    -0.550 OA
ENDBRANCH   9  10
ENDBRANCH   8   9
ENDBRANCH   7   8
ENDBRANCH   6   7
ENDBRANCH   5   6
ENDBRANCH   4   5
ENDBRANCH   3   4
ENDBRANCH   1   3
BRANCH   2  13
ATOM     13  C   UNL     1      58.130  27.978  53.880  1.00  0.00     0.027 C 
BRANCH  13  14
ATOM     14  C   UNL     1      57.793  29.243  53.079  1.00  0.00     0.004 C 
BRANCH  14  15
ATOM     15  C   UNL     1      56.299  29.335  52.737  1.00  0.00     0.000 C 
BRANCH  15  16
ATOM     16  C   UNL     1      56.020  29.186  51.233  1.00  0.00     0.000 C 
BRANCH  16  17
ATOM     17  C   UNL     1      54.563  29.511  50.840  1.00  0.00    -0.000 C 
BRANCH  17  18
ATOM     18  C   UNL     1      53.825  28.281  50.281  1.00  0.00    -0.000 C 
BRANCH  18  19
ATOM     19  C   UNL     1      54.704  27.021  50.265  1.00  0.00    -0.003 C 
ATOM     20  C   UNL     1      53.963  25.791  49.743  1.00  0.00     0.004 C 
ENDBRANCH  18  19
ENDBRANCH  17  18
ENDBRANCH  16  17
ENDBRANCH  15  16
ENDBRANCH  14  15
ENDBRANCH  13  14
ENDBRANCH   2  13
TORSDOF 15
ENDMDL
MODEL 8
REMARK VINA RESULT:    -3.149      2.049      2.478
REMARK INTER + INTRA:          -8.411
REMARK INTER:                  -6.204
REMARK INTRA:                  -2.207
REMARK UNBOUND:                -2.501
REMARK SMILES CCCCCCCCC=CCCCCCCCC(=O)[O-]
REMARK SMILES IDX 10 1 9 2 11 3 12 4 13 5 14 6 15 7 16 8 17 9 18 10 19 11
REMARK SMILES IDX 20 12 8 13 7 14 6 15 5 16 4 17 3 18 2 19 1 20
REMARK H PARENT
REMARK Flexibility Score: inf
ROOT
ATOM      1  C   UNL     1      56.450  26.178  51.638  1.00  0.00    -0.031 C 
ATOM      2  C   UNL     1      57.758  25.874  51.754  1.00  0.00    -0.031 C 
ENDROOT
BRANCH   1   3
ATOM      3  C   UNL     1      55.738  26.523  50.354  1.00  0.00     0.027 C 
BRANCH   3   4
ATOM      4  C   UNL     1      54.256  26.125  50.402  1.00  0.00     0.004 C 
BRANCH   4   5
ATOM      5  C   UNL     1      53.320  27.328  50.197  1.00  0.00     0.000 C 
BRANCH   5   6
ATOM      6  C   UNL     1      54.060  28.672  50.281  1.00  0.00     0.000 C 
BRANCH   6   7
ATOM      7  C   UNL     1      53.174  29.802  50.834  1.00  0.00     0.000 C 
BRANCH   7   8
ATOM      8  C   UNL     1      53.542  30.191  52.274  1.00  0.00     0.006 C 
BRANCH   8   9
ATOM      9  C   UNL     1      54.801  29.471  52.775  1.00  0.00     0.053 C 
BRANCH   9  10
ATOM     10  C   UNL     1      54.446  28.473  53.831  1.00  0.00     0.041 C 
ATOM     11  O   UNL     1      55.243  28.242  54.778  1.00  0.00    -0.550 OA
ATOM     12  O   UNL     1      53.255  27.762  53.744  1.00  0.00    -0.550 OA
ENDBRANCH   9  10
ENDBRANCH   8   9
ENDBRANCH   7   8
ENDBRANCH   6   7
ENDBRANCH   5   6
ENDBRANCH   4   5
ENDBRANCH   3   4
ENDBRANCH   1   3
BRANCH   2  13
ATOM     13  C   UNL     1      58.764  25.871  50.627  1.00  0.00     0.027 C 
BRANCH  13  14
ATOM     14  C   UNL     1      60.118  25.309  51.081  1.00  0.00     0.004 C 
BRANCH  14  15
ATOM     15  C   UNL     1      61.296  26.175  50.609  1.00  0.00     0.000 C 
BRANCH  15  16
ATOM     16  C   UNL     1      60.845  27.494  49.961  1.00  0.00     0.000 C 
BRANCH  16  17
ATOM     17  C   UNL     1      60.991  28.719  50.889  1.00  0.00    -0.000 C 
BRANCH  17  18
ATOM     18  C   UNL     1      60.167  29.922  50.396  1.00  0.00    -0.000 C 
BRANCH  18  19
ATOM     19  C   UNL     1      58.896  29.499  49.645  1.00  0.00    -0.003 C 
ATOM     20  C   UNL     1      57.662  29.464  50.545  1.00  0.00     0.004 C 
ENDBRANCH  18  19
ENDBRANCH  17  18
ENDBRANCH  16  17
ENDBRANCH  15  16
ENDBRANCH  14  15
ENDBRANCH  13  14
ENDBRANCH   2  13
TORSDOF 15
ENDMDL
MODEL 9
REMARK VINA RESULT:    -3.133      2.423      5.736
REMARK INTER + INTRA:          -8.382
REMARK INTER:                  -5.481
REMARK INTRA:                  -2.901
REMARK UNBOUND:                -2.501
REMARK SMILES CCCCCCCCC=CCCCCCCCC(=O)[O-]
REMARK SMILES IDX 10 1 9 2 11 3 12 4 13 5 14 6 15 7 16 8 17 9 18 10 19 11
REMARK SMILES IDX 20 12 8 13 7 14 6 15 5 16 4 17 3 18 2 19 1 20
REMARK H PARENT
REMARK Flexibility Score: inf
ROOT
ATOM      1  C   UNL     1      59.823  28.090  49.633  1.00  0.00    -0.031 C 
ATOM      2  C   UNL     1      59.223  29.288  49.772  1.00  0.00    -0.031 C 
ENDROOT
BRANCH   1   3
ATOM      3  C   UNL     1      59.137  26.748  49.717  1.00  0.00     0.027 C 
BRANCH   3   4
ATOM      4  C   UNL     1      59.961  25.738  50.529  1.00  0.00     0.004 C 
BRANCH   4   5
ATOM      5  C   UNL     1      61.421  26.184  50.709  1.00  0.00     0.000 C 
BRANCH   5   6
ATOM      6  C   UNL     1      61.779  26.454  52.178  1.00  0.00     0.000 C 
BRANCH   6   7
ATOM      7  C   UNL     1      60.536  26.631  53.068  1.00  0.00     0.000 C 
BRANCH   7   8
ATOM      8  C   UNL     1      60.298  28.097  53.464  1.00  0.00     0.006 C 
BRANCH   8   9
ATOM      9  C   UNL     1      61.387  29.036  52.929  1.00  0.00     0.053 C 
BRANCH   9  10
ATOM     10  C   UNL     1      60.900  30.451  52.926  1.00  0.00     0.041 C 
ATOM     11  O   UNL     1      60.166  30.870  53.860  1.00  0.00    -0.550 OA
ATOM     12  O   UNL     1      61.217  31.292  51.867  1.00  0.00    -0.550 OA
ENDBRANCH   9  10
ENDBRANCH   8   9
ENDBRANCH   7   8
ENDBRANCH   6   7
ENDBRANCH   5   6
ENDBRANCH   4   5
ENDBRANCH   3   4
ENDBRANCH   1   3
BRANCH   2  13
ATOM     13  C   UNL     1      57.764  29.511  50.089  1.00  0.00     0.027 C 
BRANCH  13  14
ATOM     14  C   UNL     1      57.514  29.548  51.602  1.00  0.00     0.004 C 
BRANCH  14  15
ATOM     15  C   UNL     1      56.017  29.533  51.947  1.00  0.00     0.000 C 
BRANCH  15  16
ATOM     16  C   UNL     1      55.119  29.410  50.704  1.00  0.00     0.000 C 
BRANCH  16  17
ATOM     17  C   UNL     1      54.313  28.096  50.653  1.00  0.00    -0.000 C 
BRANCH  17  18
ATOM     18  C   UNL     1      55.210  26.875  50.383  1.00  0.00    -0.000 C 
BRANCH  18  19
ATOM     19  C   UNL     1      55.281  25.916  51.581  1.00  0.00    -0.003 C 
ATOM     20  C   UNL     1      56.649  25.922  52.263  1.00  0.00     0.004 C 
ENDBRANCH  18  19
ENDBRANCH  17  18
ENDBRANCH  16  17
ENDBRANCH  15  16
ENDBRANCH  14  15
ENDBRANCH  13  14
ENDBRANCH   2  13
TORSDOF 15
ENDMDL
