MODEL 1
REMARK VINA RESULT:    -4.653      0.000      0.000
REMARK INTER + INTRA:          -5.281
REMARK INTER:                  -5.741
REMARK INTRA:                   0.460
REMARK UNBOUND:                 0.460
REMARK SMILES Oc1cc(O)c2cc(O)c(-c3cc(O)c(O)c(O)c3)[o+]c2c1.[Cl-]
REMARK SMILES IDX 10 1 20 2 21 3 22 4 2 5 3 6 4 7 6 8 7 9 8 10 11 11 12 12
REMARK SMILES IDX 13 13 19 14 15 15 17 16 14 17 16 19 18 21 9 23 1 25 5 27
REMARK H PARENT 14 18 16 20 18 22 9 24 1 26 5 28
REMARK Flexibility Score: inf
ROOT
ATOM      1  C   UNL     1      22.826  21.768 -11.103  1.00  0.00     0.402 A 
ATOM      2  O   UNL     1      24.111  21.414 -11.097  1.00  0.00    -0.202 OA
ATOM      3  C   UNL     1      25.108  22.294 -11.100  1.00  0.00     0.368 A 
ATOM      4  C   UNL     1      26.431  21.841 -11.098  1.00  0.00     0.162 A 
ATOM      5  C   UNL     1      27.490  22.757 -11.104  1.00  0.00     0.128 A 
ATOM      6  C   UNL     1      27.223  24.131 -11.112  1.00  0.00     0.093 A 
ATOM      7  C   UNL     1      25.902  24.600 -11.114  1.00  0.00     0.136 A 
ATOM      8  C   UNL     1      24.837  23.679 -11.107  1.00  0.00     0.125 A 
ATOM      9  C   UNL     1      23.500  24.090 -11.100  1.00  0.00     0.078 A 
ATOM     10  C   UNL     1      22.479  23.134 -11.087  1.00  0.00     0.223 A 
ENDROOT
BRANCH   1  11
ATOM     11  C   UNL     1      21.805  20.696 -11.108  1.00  0.00     0.091 A 
ATOM     12  C   UNL     1      20.444  21.039 -11.117  1.00  0.00     0.068 A 
ATOM     13  C   UNL     1      19.453  20.052 -11.102  1.00  0.00     0.162 A 
ATOM     14  C   UNL     1      22.166  19.342 -11.045  1.00  0.00     0.068 A 
ATOM     15  C   UNL     1      19.826  18.688 -11.062  1.00  0.00     0.200 A 
ATOM     16  C   UNL     1      21.184  18.344 -11.029  1.00  0.00     0.162 A 
BRANCH  13  17
ATOM     17  O   UNL     1      18.120  20.470 -11.125  1.00  0.00    -0.504 OA
ATOM     18  H   UNL     1      17.824  21.425 -10.989  1.00  0.00     0.293 HD
ENDBRANCH  13  17
BRANCH  15  19
ATOM     19  O   UNL     1      18.886  17.653 -11.051  1.00  0.00    -0.502 OA
ATOM     20  H   UNL     1      19.042  16.752 -10.623  1.00  0.00     0.293 HD
ENDBRANCH  15  19
BRANCH  16  21
ATOM     21  O   UNL     1      21.551  17.001 -10.974  1.00  0.00    -0.504 OA
ATOM     22  H   UNL     1      22.458  16.683 -11.300  1.00  0.00     0.293 HD
ENDBRANCH  16  21
ENDBRANCH   1  11
BRANCH  10  23
ATOM     23  O   UNL     1      21.145  23.537 -11.029  1.00  0.00    -0.500 OA
ATOM     24  H   UNL     1      20.882  24.513 -11.077  1.00  0.00     0.294 HD
ENDBRANCH  10  23
BRANCH   5  25
ATOM     25  O   UNL     1      28.811  22.314 -11.102  1.00  0.00    -0.507 OA
ATOM     26  H   UNL     1      29.360  22.281 -11.953  1.00  0.00     0.293 HD
ENDBRANCH   5  25
BRANCH   7  27
ATOM     27  O   UNL     1      25.650  25.973 -11.121  1.00  0.00    -0.507 OA
ATOM     28  H   UNL     1      24.807  26.356 -11.531  1.00  0.00     0.293 HD
ENDBRANCH   7  27
TORSDOF 7
ENDMDL
MODEL 2
REMARK VINA RESULT:    -4.285      1.368      7.282
REMARK INTER + INTRA:          -4.828
REMARK INTER:                  -5.212
REMARK INTRA:                   0.384
REMARK UNBOUND:                 0.460
REMARK SMILES Oc1cc(O)c2cc(O)c(-c3cc(O)c(O)c(O)c3)[o+]c2c1.[Cl-]
REMARK SMILES IDX 10 1 20 2 21 3 22 4 2 5 3 6 4 7 6 8 7 9 8 10 11 11 12 12
REMARK SMILES IDX 13 13 19 14 15 15 17 16 14 17 16 19 18 21 9 23 1 25 5 27
REMARK H PARENT 14 18 16 20 18 22 9 24 1 26 5 28
REMARK Flexibility Score: inf
ROOT
ATOM      1  C   UNL     1      23.818  22.344 -11.072  1.00  0.00     0.402 A 
ATOM      2  O   UNL     1      22.487  22.402 -11.075  1.00  0.00    -0.202 OA
ATOM      3  C   UNL     1      21.712  21.322 -11.089  1.00  0.00     0.368 A 
ATOM      4  C   UNL     1      20.321  21.469 -11.096  1.00  0.00     0.162 A 
ATOM      5  C   UNL     1      19.494  20.339 -11.115  1.00  0.00     0.128 A 
ATOM      6  C   UNL     1      20.060  19.060 -11.124  1.00  0.00     0.093 A 
ATOM      7  C   UNL     1      21.453  18.897 -11.116  1.00  0.00     0.136 A 
ATOM      8  C   UNL     1      22.285  20.032 -11.098  1.00  0.00     0.125 A 
ATOM      9  C   UNL     1      23.681  19.930 -11.081  1.00  0.00     0.078 A 
ATOM     10  C   UNL     1      24.461  21.090 -11.057  1.00  0.00     0.223 A 
ENDROOT
BRANCH   1  11
ATOM     11  C   UNL     1      24.574  23.617 -11.065  1.00  0.00     0.091 A 
ATOM     12  C   UNL     1      23.878  24.834 -11.093  1.00  0.00     0.068 A 
ATOM     13  C   UNL     1      24.561  26.055 -11.108  1.00  0.00     0.162 A 
ATOM     14  C   UNL     1      25.977  23.633 -11.091  1.00  0.00     0.068 A 
ATOM     15  C   UNL     1      25.976  26.064 -11.109  1.00  0.00     0.200 A 
ATOM     16  C   UNL     1      26.674  24.849 -11.106  1.00  0.00     0.162 A 
BRANCH  13  17
ATOM     17  O   UNL     1      23.799  27.226 -11.122  1.00  0.00    -0.504 OA
ATOM     18  H   UNL     1      22.869  27.301 -10.736  1.00  0.00     0.293 HD
ENDBRANCH  13  17
BRANCH  15  19
ATOM     19  O   UNL     1      26.719  27.248 -11.119  1.00  0.00    -0.502 OA
ATOM     20  H   UNL     1      26.413  28.105 -11.556  1.00  0.00     0.293 HD
ENDBRANCH  15  19
BRANCH  16  21
ATOM     21  O   UNL     1      28.067  24.857 -11.123  1.00  0.00    -0.504 OA
ATOM     22  H   UNL     1      28.605  25.384 -10.445  1.00  0.00     0.293 HD
ENDBRANCH  16  21
ENDBRANCH   1  11
BRANCH  10  23
ATOM     23  O   UNL     1      25.852  20.995 -10.989  1.00  0.00    -0.500 OA
ATOM     24  H   UNL     1      26.352  20.220 -11.407  1.00  0.00     0.294 HD
ENDBRANCH  10  23
BRANCH   5  25
ATOM     25  O   UNL     1      18.107  20.475 -11.122  1.00  0.00    -0.507 OA
ATOM     26  H   UNL     1      17.664  21.384 -11.053  1.00  0.00     0.293 HD
ENDBRANCH   5  25
BRANCH   7  27
ATOM     27  O   UNL     1      22.005  17.615 -11.125  1.00  0.00    -0.507 OA
ATOM     28  H   UNL     1      22.920  17.429 -10.732  1.00  0.00     0.293 HD
ENDBRANCH   7  27
TORSDOF 7
ENDMDL
MODEL 3
REMARK VINA RESULT:    -3.128     13.858     16.552
REMARK INTER + INTRA:          -3.399
REMARK INTER:                  -3.859
REMARK INTRA:                   0.460
REMARK UNBOUND:                 0.460
REMARK SMILES Oc1cc(O)c2cc(O)c(-c3cc(O)c(O)c(O)c3)[o+]c2c1.[Cl-]
REMARK SMILES IDX 10 1 20 2 21 3 22 4 2 5 3 6 4 7 6 8 7 9 8 10 11 11 12 12
REMARK SMILES IDX 13 13 19 14 15 15 17 16 14 17 16 19 18 21 9 23 1 25 5 27
REMARK H PARENT 14 18 16 20 18 22 9 24 1 26 5 28
REMARK Flexibility Score: inf
ROOT
ATOM      1  C   UNL     1      29.109  27.552   1.947  1.00  0.00     0.402 A 
ATOM      2  O   UNL     1      29.109  28.008   0.695  1.00  0.00    -0.202 OA
ATOM      3  C   UNL     1      29.110  27.212  -0.370  1.00  0.00     0.368 A 
ATOM      4  C   UNL     1      29.115  27.770  -1.652  1.00  0.00     0.162 A 
ATOM      5  C   UNL     1      29.120  26.941  -2.781  1.00  0.00     0.128 A 
ATOM      6  C   UNL     1      29.119  25.551  -2.626  1.00  0.00     0.093 A 
ATOM      7  C   UNL     1      29.114  24.977  -1.347  1.00  0.00     0.136 A 
ATOM      8  C   UNL     1      29.109  25.809  -0.212  1.00  0.00     0.125 A 
ATOM      9  C   UNL     1      29.095  25.292   1.089  1.00  0.00     0.078 A 
ATOM     10  C   UNL     1      29.084  26.163   2.183  1.00  0.00     0.223 A 
ENDROOT
BRANCH   1  11
ATOM     11  C   UNL     1      29.117  28.538   3.051  1.00  0.00     0.091 A 
ATOM     12  C   UNL     1      29.108  28.087   4.379  1.00  0.00     0.068 A 
ATOM     13  C   UNL     1      29.094  28.991   5.447  1.00  0.00     0.162 A 
ATOM     14  C   UNL     1      29.074  29.918   2.799  1.00  0.00     0.068 A 
ATOM     15  C   UNL     1      29.075  30.382   5.185  1.00  0.00     0.200 A 
ATOM     16  C   UNL     1      29.060  30.834   3.859  1.00  0.00     0.162 A 
BRANCH  13  17
ATOM     17  O   UNL     1      29.099  28.467   6.742  1.00  0.00    -0.504 OA
ATOM     18  H   UNL     1      28.289  28.072   7.196  1.00  0.00     0.293 HD
ENDBRANCH  13  17
BRANCH  15  19
ATOM     19  O   UNL     1      29.067  31.337   6.205  1.00  0.00    -0.502 OA
ATOM     20  H   UNL     1      29.789  31.425   6.905  1.00  0.00     0.293 HD
ENDBRANCH  15  19
BRANCH  16  21
ATOM     21  O   UNL     1      29.025  32.203   3.600  1.00  0.00    -0.504 OA
ATOM     22  H   UNL     1      28.158  32.682   3.384  1.00  0.00     0.293 HD
ENDBRANCH  16  21
ENDBRANCH   1  11
BRANCH  10  23
ATOM     23  O   UNL     1      29.019  25.655   3.480  1.00  0.00    -0.500 OA
ATOM     24  H   UNL     1      29.698  25.912   4.186  1.00  0.00     0.294 HD
ENDBRANCH  10  23
BRANCH   5  25
ATOM     25  O   UNL     1      29.125  27.489  -4.063  1.00  0.00    -0.507 OA
ATOM     26  H   UNL     1      28.653  27.033  -4.835  1.00  0.00     0.293 HD
ENDBRANCH   5  25
BRANCH   7  27
ATOM     27  O   UNL     1      29.112  23.588  -1.206  1.00  0.00    -0.507 OA
ATOM     28  H   UNL     1      29.950  23.039  -1.351  1.00  0.00     0.293 HD
ENDBRANCH   7  27
TORSDOF 7
ENDMDL
MODEL 4
REMARK VINA RESULT:    -2.854      9.554     12.511
REMARK INTER + INTRA:          -3.061
REMARK INTER:                  -3.445
REMARK INTRA:                   0.384
REMARK UNBOUND:                 0.460
REMARK SMILES Oc1cc(O)c2cc(O)c(-c3cc(O)c(O)c(O)c3)[o+]c2c1.[Cl-]
REMARK SMILES IDX 10 1 20 2 21 3 22 4 2 5 3 6 4 7 6 8 7 9 8 10 11 11 12 12
REMARK SMILES IDX 13 13 19 14 15 15 17 16 14 17 16 19 18 21 9 23 1 25 5 27
REMARK H PARENT 14 18 16 20 18 22 9 24 1 26 5 28
REMARK Flexibility Score: inf
ROOT
ATOM      1  C   UNL     1      29.103  22.989  -2.562  1.00  0.00     0.402 A 
ATOM      2  O   UNL     1      29.125  21.972  -1.702  1.00  0.00    -0.202 OA
ATOM      3  C   UNL     1      29.105  20.698  -2.080  1.00  0.00     0.368 A 
ATOM      4  C   UNL     1      29.125  19.688  -1.114  1.00  0.00     0.162 A 
ATOM      5  C   UNL     1      29.100  18.342  -1.500  1.00  0.00     0.128 A 
ATOM      6  C   UNL     1      29.057  18.006  -2.858  1.00  0.00     0.093 A 
ATOM      7  C   UNL     1      29.038  19.008  -3.839  1.00  0.00     0.136 A 
ATOM      8  C   UNL     1      29.062  20.361  -3.451  1.00  0.00     0.125 A 
ATOM      9  C   UNL     1      29.052  21.403  -4.386  1.00  0.00     0.078 A 
ATOM     10  C   UNL     1      29.083  22.730  -3.947  1.00  0.00     0.223 A 
ENDROOT
BRANCH   1  11
ATOM     11  C   UNL     1      29.119  24.366  -2.019  1.00  0.00     0.091 A 
ATOM     12  C   UNL     1      29.085  24.561  -0.630  1.00  0.00     0.068 A 
ATOM     13  C   UNL     1      29.079  25.848  -0.082  1.00  0.00     0.162 A 
ATOM     14  C   UNL     1      29.109  25.486  -2.864  1.00  0.00     0.068 A 
ATOM     15  C   UNL     1      29.093  26.973  -0.942  1.00  0.00     0.200 A 
ATOM     16  C   UNL     1      29.103  26.780  -2.330  1.00  0.00     0.162 A 
BRANCH  13  17
ATOM     17  O   UNL     1      29.057  25.963   1.310  1.00  0.00    -0.504 OA
ATOM     18  H   UNL     1      29.884  26.003   1.888  1.00  0.00     0.293 HD
ENDBRANCH  13  17
BRANCH  15  19
ATOM     19  O   UNL     1      29.094  28.285  -0.461  1.00  0.00    -0.502 OA
ATOM     20  H   UNL     1      29.703  28.619   0.272  1.00  0.00     0.293 HD
ENDBRANCH  15  19
BRANCH  16  21
ATOM     21  O   UNL     1      29.101  27.887  -3.177  1.00  0.00    -0.504 OA
ATOM     22  H   UNL     1      29.964  28.320  -3.489  1.00  0.00     0.293 HD
ENDBRANCH  16  21
ENDBRANCH   1  11
BRANCH  10  23
ATOM     23  O   UNL     1      29.125  23.771  -4.874  1.00  0.00    -0.500 OA
ATOM     24  H   UNL     1      28.958  24.732  -4.603  1.00  0.00     0.294 HD
ENDBRANCH  10  23
BRANCH   5  25
ATOM     25  O   UNL     1      29.120  17.328  -0.543  1.00  0.00    -0.507 OA
ATOM     26  H   UNL     1      28.264  16.941  -0.165  1.00  0.00     0.293 HD
ENDBRANCH   5  25
BRANCH   7  27
ATOM     27  O   UNL     1      28.996  18.660  -5.189  1.00  0.00    -0.507 OA
ATOM     28  H   UNL     1      29.839  18.446  -5.709  1.00  0.00     0.293 HD
ENDBRANCH   7  27
TORSDOF 7
ENDMDL
MODEL 5
REMARK VINA RESULT:    -2.828      9.609     12.482
REMARK INTER + INTRA:          -3.030
REMARK INTER:                  -3.489
REMARK INTRA:                   0.460
REMARK UNBOUND:                 0.460
REMARK SMILES Oc1cc(O)c2cc(O)c(-c3cc(O)c(O)c(O)c3)[o+]c2c1.[Cl-]
REMARK SMILES IDX 10 1 20 2 21 3 22 4 2 5 3 6 4 7 6 8 7 9 8 10 11 11 12 12
REMARK SMILES IDX 13 13 19 14 15 15 17 16 14 17 16 19 18 21 9 23 1 25 5 27
REMARK H PARENT 14 18 16 20 18 22 9 24 1 26 5 28
REMARK Flexibility Score: inf
ROOT
ATOM      1  C   UNL     1      29.055  23.163  -2.452  1.00  0.00     0.402 A 
ATOM      2  O   UNL     1      29.062  22.028  -1.755  1.00  0.00    -0.202 OA
ATOM      3  C   UNL     1      29.055  20.825  -2.321  1.00  0.00     0.368 A 
ATOM      4  C   UNL     1      29.058  19.681  -1.517  1.00  0.00     0.162 A 
ATOM      5  C   UNL     1      29.048  18.409  -2.102  1.00  0.00     0.128 A 
ATOM      6  C   UNL     1      29.036  18.281  -3.495  1.00  0.00     0.093 A 
ATOM      7  C   UNL     1      29.033  19.419  -4.314  1.00  0.00     0.136 A 
ATOM      8  C   UNL     1      29.043  20.698  -3.727  1.00  0.00     0.125 A 
ATOM      9  C   UNL     1      29.049  21.869  -4.494  1.00  0.00     0.078 A 
ATOM     10  C   UNL     1      29.066  23.115  -3.861  1.00  0.00     0.223 A 
ENDROOT
BRANCH   1  11
ATOM     11  C   UNL     1      29.054  24.443  -1.708  1.00  0.00     0.091 A 
ATOM     12  C   UNL     1      29.084  25.653  -2.416  1.00  0.00     0.068 A 
ATOM     13  C   UNL     1      29.104  26.881  -1.745  1.00  0.00     0.162 A 
ATOM     14  C   UNL     1      29.083  24.472  -0.305  1.00  0.00     0.068 A 
ATOM     15  C   UNL     1      29.109  26.903  -0.330  1.00  0.00     0.200 A 
ATOM     16  C   UNL     1      29.103  25.694   0.379  1.00  0.00     0.162 A 
BRANCH  13  17
ATOM     17  O   UNL     1      29.121  28.044  -2.518  1.00  0.00    -0.504 OA
ATOM     18  H   UNL     1      29.778  28.800  -2.389  1.00  0.00     0.293 HD
ENDBRANCH  13  17
BRANCH  15  19
ATOM     19  O   UNL     1      29.123  28.093   0.402  1.00  0.00    -0.502 OA
ATOM     20  H   UNL     1      29.703  28.889   0.177  1.00  0.00     0.293 HD
ENDBRANCH  15  19
BRANCH  16  21
ATOM     21  O   UNL     1      29.124  25.715   1.773  1.00  0.00    -0.504 OA
ATOM     22  H   UNL     1      29.944  26.014   2.289  1.00  0.00     0.293 HD
ENDBRANCH  16  21
ENDBRANCH   1  11
BRANCH  10  23
ATOM     23  O   UNL     1      29.123  24.284  -4.620  1.00  0.00    -0.500 OA
ATOM     24  H   UNL     1      28.414  25.003  -4.544  1.00  0.00     0.294 HD
ENDBRANCH  10  23
BRANCH   5  25
ATOM     25  O   UNL     1      29.052  17.263  -1.308  1.00  0.00    -0.507 OA
ATOM     26  H   UNL     1      29.744  17.125  -0.581  1.00  0.00     0.293 HD
ENDBRANCH   5  25
BRANCH   7  27
ATOM     27  O   UNL     1      29.022  19.278  -5.702  1.00  0.00    -0.507 OA
ATOM     28  H   UNL     1      28.204  18.938  -6.195  1.00  0.00     0.293 HD
ENDBRANCH   7  27
TORSDOF 7
ENDMDL
MODEL 6
REMARK VINA RESULT:    -2.760     13.313     15.432
REMARK INTER + INTRA:          -2.946
REMARK INTER:                  -3.330
REMARK INTRA:                   0.384
REMARK UNBOUND:                 0.460
REMARK SMILES Oc1cc(O)c2cc(O)c(-c3cc(O)c(O)c(O)c3)[o+]c2c1.[Cl-]
REMARK SMILES IDX 10 1 20 2 21 3 22 4 2 5 3 6 4 7 6 8 7 9 8 10 11 11 12 12
REMARK SMILES IDX 13 13 19 14 15 15 17 16 14 17 16 19 18 21 9 23 1 25 5 27
REMARK H PARENT 14 18 16 20 18 22 9 24 1 26 5 28
REMARK Flexibility Score: inf
ROOT
ATOM      1  C   UNL     1      29.099  26.672   1.338  1.00  0.00     0.402 A 
ATOM      2  O   UNL     1      29.125  28.004   1.375  1.00  0.00    -0.202 OA
ATOM      3  C   UNL     1      29.099  28.702   2.506  1.00  0.00     0.368 A 
ATOM      4  C   UNL     1      29.125  30.099   2.458  1.00  0.00     0.162 A 
ATOM      5  C   UNL     1      29.095  30.845   3.643  1.00  0.00     0.128 A 
ATOM      6  C   UNL     1      29.041  30.191   4.878  1.00  0.00     0.093 A 
ATOM      7  C   UNL     1      29.016  28.790   4.942  1.00  0.00     0.136 A 
ATOM      8  C   UNL     1      29.045  28.040   3.752  1.00  0.00     0.125 A 
ATOM      9  C   UNL     1      29.031  26.640   3.755  1.00  0.00     0.078 A 
ATOM     10  C   UNL     1      29.068  25.943   2.543  1.00  0.00     0.223 A 
ENDROOT
BRANCH   1  11
ATOM     11  C   UNL     1      29.122  26.008   0.016  1.00  0.00     0.091 A 
ATOM     12  C   UNL     1      29.094  26.788  -1.150  1.00  0.00     0.068 A 
ATOM     13  C   UNL     1      29.095  26.192  -2.416  1.00  0.00     0.162 A 
ATOM     14  C   UNL     1      29.112  24.609  -0.100  1.00  0.00     0.068 A 
ATOM     15  C   UNL     1      29.109  24.781  -2.524  1.00  0.00     0.200 A 
ATOM     16  C   UNL     1      29.113  24.000  -1.361  1.00  0.00     0.162 A 
BRANCH  13  17
ATOM     17  O   UNL     1      29.079  27.034  -3.530  1.00  0.00    -0.504 OA
ATOM     18  H   UNL     1      28.381  27.745  -3.693  1.00  0.00     0.293 HD
ENDBRANCH  13  17
BRANCH  15  19
ATOM     19  O   UNL     1      29.116  24.123  -3.757  1.00  0.00    -0.502 OA
ATOM     20  H   UNL     1      28.324  23.625  -4.137  1.00  0.00     0.293 HD
ENDBRANCH  15  19
BRANCH  16  21
ATOM     21  O   UNL     1      29.111  22.610  -1.467  1.00  0.00    -0.504 OA
ATOM     22  H   UNL     1      29.968  22.071  -1.408  1.00  0.00     0.293 HD
ENDBRANCH  16  21
ENDBRANCH   1  11
BRANCH  10  23
ATOM     23  O   UNL     1      29.105  24.548   2.541  1.00  0.00    -0.500 OA
ATOM     24  H   UNL     1      29.586  24.030   1.817  1.00  0.00     0.294 HD
ENDBRANCH  10  23
BRANCH   5  25
ATOM     25  O   UNL     1      29.120  32.238   3.605  1.00  0.00    -0.507 OA
ATOM     26  H   UNL     1      28.707  32.795   4.343  1.00  0.00     0.293 HD
ENDBRANCH   5  25
BRANCH   7  27
ATOM     27  O   UNL     1      28.963  28.150   6.181  1.00  0.00    -0.507 OA
ATOM     28  H   UNL     1      28.274  28.401   6.880  1.00  0.00     0.293 HD
ENDBRANCH   7  27
TORSDOF 7
ENDMDL
MODEL 7
REMARK VINA RESULT:    -2.286     11.207     13.835
REMARK INTER + INTRA:          -2.361
REMARK INTER:                  -2.745
REMARK INTRA:                   0.384
REMARK UNBOUND:                 0.460
REMARK SMILES Oc1cc(O)c2cc(O)c(-c3cc(O)c(O)c(O)c3)[o+]c2c1.[Cl-]
REMARK SMILES IDX 10 1 20 2 21 3 22 4 2 5 3 6 4 7 6 8 7 9 8 10 11 11 12 12
REMARK SMILES IDX 13 13 19 14 15 15 17 16 14 17 16 19 18 21 9 23 1 25 5 27
REMARK H PARENT 14 18 16 20 18 22 9 24 1 26 5 28
REMARK Flexibility Score: inf
ROOT
ATOM      1  C   UNL     1      29.089  25.289  -0.752  1.00  0.00     0.402 A 
ATOM      2  O   UNL     1      29.098  23.956  -0.730  1.00  0.00    -0.202 OA
ATOM      3  C   UNL     1      29.066  23.210  -1.830  1.00  0.00     0.368 A 
ATOM      4  C   UNL     1      29.073  21.816  -1.722  1.00  0.00     0.162 A 
ATOM      5  C   UNL     1      29.037  21.020  -2.873  1.00  0.00     0.128 A 
ATOM      6  C   UNL     1      28.995  21.620  -4.136  1.00  0.00     0.093 A 
ATOM      7  C   UNL     1      28.988  23.017  -4.260  1.00  0.00     0.136 A 
ATOM      8  C   UNL     1      29.024  23.818  -3.104  1.00  0.00     0.125 A 
ATOM      9  C   UNL     1      29.027  25.216  -3.167  1.00  0.00     0.078 A 
ATOM     10  C   UNL     1      29.070  25.965  -1.987  1.00  0.00     0.223 A 
ENDROOT
BRANCH   1  11
ATOM     11  C   UNL     1      29.117  26.010   0.541  1.00  0.00     0.091 A 
ATOM     12  C   UNL     1      29.093  25.281   1.739  1.00  0.00     0.068 A 
ATOM     13  C   UNL     1      29.098  25.931   2.978  1.00  0.00     0.162 A 
ATOM     14  C   UNL     1      29.108  27.412   0.596  1.00  0.00     0.068 A 
ATOM     15  C   UNL     1      29.114  27.345   3.025  1.00  0.00     0.200 A 
ATOM     16  C   UNL     1      29.113  28.075   1.829  1.00  0.00     0.162 A 
BRANCH  13  17
ATOM     17  O   UNL     1      29.086  25.138   4.128  1.00  0.00    -0.504 OA
ATOM     18  H   UNL     1      28.759  25.452   5.030  1.00  0.00     0.293 HD
ENDBRANCH  13  17
BRANCH  15  19
ATOM     19  O   UNL     1      29.125  28.056   4.229  1.00  0.00    -0.502 OA
ATOM     20  H   UNL     1      29.853  27.979   4.925  1.00  0.00     0.293 HD
ENDBRANCH  15  19
BRANCH  16  21
ATOM     21  O   UNL     1      29.112  29.468   1.875  1.00  0.00    -0.504 OA
ATOM     22  H   UNL     1      29.720  30.021   1.279  1.00  0.00     0.293 HD
ENDBRANCH  16  21
ENDBRANCH   1  11
BRANCH  10  23
ATOM     23  O   UNL     1      29.125  27.358  -2.046  1.00  0.00    -0.500 OA
ATOM     24  H   UNL     1      29.543  27.906  -1.304  1.00  0.00     0.294 HD
ENDBRANCH  10  23
BRANCH   5  25
ATOM     25  O   UNL     1      29.044  19.630  -2.774  1.00  0.00    -0.507 OA
ATOM     26  H   UNL     1      29.330  19.161  -1.923  1.00  0.00     0.293 HD
ENDBRANCH   5  25
BRANCH   7  27
ATOM     27  O   UNL     1      28.947  23.604  -5.526  1.00  0.00    -0.507 OA
ATOM     28  H   UNL     1      28.592  24.542  -5.665  1.00  0.00     0.293 HD
ENDBRANCH   7  27
TORSDOF 7
ENDMDL
