MODEL 1
REMARK VINA RESULT:    -3.856      0.000      0.000
REMARK INTER + INTRA:          -4.453
REMARK INTER:                  -4.194
REMARK INTRA:                  -0.259
REMARK UNBOUND:                -0.259
REMARK SMILES CC1(C)CC[C@]2(C(=O)[O-])CC[C@]3(C)C(=CC[C@@H]4[C@@]5(C)CC[C@H](O)C(C)(C)[C@H]5CC[C@@]43C)[C@@H]2C1
REMARK SMILES IDX 6 1 5 2 10 3 32 4 4 5 11 6 14 7 33 8 2 9 12 10 15 11 1 12
REMARK SMILES IDX 3 13 13 14 30 15 16 16 17 17 29 18 31 19 18 20 28 21 27 22
REMARK SMILES IDX 20 23 19 24 24 25 21 26 22 27 25 28 26 29 7 30 8 31 9 32
REMARK SMILES IDX 23 33
REMARK H PARENT 23 34
REMARK Flexibility Score: inf
ROOT
ATOM      1  C   UNL     1    -125.817  36.169  17.124  1.00  0.00     0.017 C 
ATOM      2  C   UNL     1    -124.354  35.608  17.163  1.00  0.00     0.014 C 
ATOM      3  C   UNL     1    -126.581  35.424  16.003  1.00  0.00     0.014 C 
ATOM      4  C   UNL     1    -125.823  37.717  16.829  1.00  0.00     0.028 C 
ATOM      5  C   UNL     1    -123.350  36.652  17.666  1.00  0.00     0.007 C 
ATOM      6  C   UNL     1    -128.025  35.916  15.894  1.00  0.00     0.013 C 
ATOM      7  C   UNL     1    -127.126  38.272  16.229  1.00  0.00    -0.064 C 
ATOM      8  C   UNL     1    -124.604  38.112  15.955  1.00  0.00     0.015 C 
ATOM      9  C   UNL     1    -123.249  37.868  16.695  1.00  0.00    -0.035 C 
ATOM     10  C   UNL     1    -128.152  37.422  15.460  1.00  0.00    -0.006 C 
ATOM     11  C   UNL     1    -127.263  39.607  16.218  1.00  0.00    -0.027 C 
ATOM     12  C   UNL     1    -122.858  39.125  17.503  1.00  0.00     0.011 C 
ATOM     13  C   UNL     1    -122.145  37.609  15.645  1.00  0.00     0.011 C 
ATOM     14  C   UNL     1    -127.731  37.469  13.950  1.00  0.00     0.017 C 
ATOM     15  C   UNL     1    -129.670  38.004  15.683  1.00  0.00    -0.020 C 
ATOM     16  C   UNL     1    -128.360  40.274  15.461  1.00  0.00     0.032 C 
ATOM     17  C   UNL     1    -129.744  39.622  15.743  1.00  0.00     0.006 C 
ATOM     18  C   UNL     1    -130.306  37.393  16.979  1.00  0.00     0.008 C 
ATOM     19  C   UNL     1    -130.547  37.491  14.496  1.00  0.00     0.012 C 
ATOM     20  C   UNL     1    -130.467  40.276  17.014  1.00  0.00    -0.025 C 
ATOM     21  C   UNL     1    -131.657  37.968  17.427  1.00  0.00     0.005 C 
ATOM     22  C   UNL     1    -131.809  39.513  17.392  1.00  0.00     0.003 C 
ATOM     23  C   UNL     1    -130.783  41.808  16.813  1.00  0.00     0.010 C 
ATOM     24  C   UNL     1    -129.497  40.260  18.245  1.00  0.00     0.012 C 
ATOM     25  C   UNL     1    -133.174  39.984  16.703  1.00  0.00    -0.006 C 
ATOM     26  C   UNL     1    -132.021  42.125  15.988  1.00  0.00     0.033 C 
ATOM     27  C   UNL     1    -133.262  41.536  16.656  1.00  0.00     0.120 C 
ATOM     28  C   UNL     1    -133.385  39.448  15.260  1.00  0.00     0.014 C 
ATOM     29  C   UNL     1    -134.381  39.470  17.540  1.00  0.00     0.014 C 
ENDROOT
BRANCH   1  30
ATOM     30  C   UNL     1    -126.472  35.859  18.470  1.00  0.00     0.048 C 
ATOM     31  O   UNL     1    -126.471  34.694  18.953  1.00  0.00    -0.550 OA
ATOM     32  O   UNL     1    -127.065  36.882  19.202  1.00  0.00    -0.550 OA
ENDBRANCH   1  30
BRANCH  27  33
ATOM     33  O   UNL     1    -133.409  42.067  17.954  1.00  0.00    -0.393 OA
ATOM     34  H   UNL     1    -132.647  42.687  18.100  1.00  0.00     0.210 HD
ENDBRANCH  27  33
TORSDOF 2
ENDMDL
MODEL 2
REMARK VINA RESULT:    -3.770      6.905      9.961
REMARK INTER + INTRA:          -4.360
REMARK INTER:                  -4.098
REMARK INTRA:                  -0.263
REMARK UNBOUND:                -0.259
REMARK SMILES CC1(C)CC[C@]2(C(=O)[O-])CC[C@]3(C)C(=CC[C@@H]4[C@@]5(C)CC[C@H](O)C(C)(C)[C@H]5CC[C@@]43C)[C@@H]2C1
REMARK SMILES IDX 6 1 5 2 10 3 32 4 4 5 11 6 14 7 33 8 2 9 12 10 15 11 1 12
REMARK SMILES IDX 3 13 13 14 30 15 16 16 17 17 29 18 31 19 18 20 28 21 27 22
REMARK SMILES IDX 20 23 19 24 24 25 21 26 22 27 25 28 26 29 7 30 8 31 9 32
REMARK SMILES IDX 23 33
REMARK H PARENT 23 34
REMARK Flexibility Score: inf
ROOT
ATOM      1  C   UNL     1    -125.146  39.928   6.467  1.00  0.00     0.017 C 
ATOM      2  C   UNL     1    -125.653  39.905   4.984  1.00  0.00     0.014 C 
ATOM      3  C   UNL     1    -124.548  38.537   6.786  1.00  0.00     0.014 C 
ATOM      4  C   UNL     1    -126.324  40.239   7.465  1.00  0.00     0.028 C 
ATOM      5  C   UNL     1    -126.828  40.865   4.763  1.00  0.00     0.007 C 
ATOM      6  C   UNL     1    -124.029  38.472   8.222  1.00  0.00     0.013 C 
ATOM      7  C   UNL     1    -126.111  39.760   8.911  1.00  0.00    -0.064 C 
ATOM      8  C   UNL     1    -127.670  39.709   6.905  1.00  0.00     0.015 C 
ATOM      9  C   UNL     1    -128.082  40.439   5.585  1.00  0.00    -0.035 C 
ATOM     10  C   UNL     1    -125.152  38.626   9.312  1.00  0.00    -0.006 C 
ATOM     11  C   UNL     1    -126.959  40.239   9.835  1.00  0.00    -0.027 C 
ATOM     12  C   UNL     1    -128.914  41.697   5.919  1.00  0.00     0.011 C 
ATOM     13  C   UNL     1    -128.963  39.490   4.743  1.00  0.00     0.011 C 
ATOM     14  C   UNL     1    -125.984  37.298   9.260  1.00  0.00     0.017 C 
ATOM     15  C   UNL     1    -124.532  38.893  10.807  1.00  0.00    -0.020 C 
ATOM     16  C   UNL     1    -127.008  39.679  11.216  1.00  0.00     0.032 C 
ATOM     17  C   UNL     1    -125.591  39.549  11.844  1.00  0.00     0.006 C 
ATOM     18  C   UNL     1    -123.249  39.790  10.716  1.00  0.00     0.008 C 
ATOM     19  C   UNL     1    -124.049  37.516  11.367  1.00  0.00     0.012 C 
ATOM     20  C   UNL     1    -125.144  40.891  12.597  1.00  0.00    -0.025 C 
ATOM     21  C   UNL     1    -122.648  40.278  12.041  1.00  0.00     0.005 C 
ATOM     22  C   UNL     1    -123.642  40.813  13.109  1.00  0.00     0.003 C 
ATOM     23  C   UNL     1    -126.086  41.250  13.810  1.00  0.00     0.010 C 
ATOM     24  C   UNL     1    -125.301  42.119  11.635  1.00  0.00     0.012 C 
ATOM     25  C   UNL     1    -123.363  40.214  14.567  1.00  0.00    -0.006 C 
ATOM     26  C   UNL     1    -125.827  40.481  15.097  1.00  0.00     0.033 C 
ATOM     27  C   UNL     1    -124.405  40.746  15.591  1.00  0.00     0.120 C 
ATOM     28  C   UNL     1    -123.370  38.662  14.637  1.00  0.00     0.014 C 
ATOM     29  C   UNL     1    -121.955  40.665  15.051  1.00  0.00     0.014 C 
ENDROOT
BRANCH   1  30
ATOM     30  C   UNL     1    -124.043  40.983   6.566  1.00  0.00     0.048 C 
ATOM     31  O   UNL     1    -122.959  40.867   5.932  1.00  0.00    -0.550 OA
ATOM     32  O   UNL     1    -124.238  42.115   7.351  1.00  0.00    -0.550 OA
ENDBRANCH   1  30
BRANCH  27  33
ATOM     33  O   UNL     1    -124.223  42.125  15.817  1.00  0.00    -0.393 OA
ATOM     34  H   UNL     1    -125.108  42.496  16.072  1.00  0.00     0.210 HD
ENDBRANCH  27  33
TORSDOF 2
ENDMDL
MODEL 3
REMARK VINA RESULT:    -3.754      2.527      7.563
REMARK INTER + INTRA:          -4.342
REMARK INTER:                  -4.077
REMARK INTRA:                  -0.266
REMARK UNBOUND:                -0.259
REMARK SMILES CC1(C)CC[C@]2(C(=O)[O-])CC[C@]3(C)C(=CC[C@@H]4[C@@]5(C)CC[C@H](O)C(C)(C)[C@H]5CC[C@@]43C)[C@@H]2C1
REMARK SMILES IDX 6 1 5 2 10 3 32 4 4 5 11 6 14 7 33 8 2 9 12 10 15 11 1 12
REMARK SMILES IDX 3 13 13 14 30 15 16 16 17 17 29 18 31 19 18 20 28 21 27 22
REMARK SMILES IDX 20 23 19 24 24 25 21 26 22 27 25 28 26 29 7 30 8 31 9 32
REMARK SMILES IDX 23 33
REMARK H PARENT 23 34
REMARK Flexibility Score: inf
ROOT
ATOM      1  C   UNL     1    -133.082  38.182  17.668  1.00  0.00     0.017 C 
ATOM      2  C   UNL     1    -134.550  38.467  18.140  1.00  0.00     0.014 C 
ATOM      3  C   UNL     1    -132.356  37.427  18.807  1.00  0.00     0.014 C 
ATOM      4  C   UNL     1    -132.317  39.523  17.351  1.00  0.00     0.028 C 
ATOM      5  C   UNL     1    -135.125  39.733  17.495  1.00  0.00     0.007 C 
ATOM      6  C   UNL     1    -130.909  37.110  18.429  1.00  0.00     0.013 C 
ATOM      7  C   UNL     1    -130.783  39.442  17.422  1.00  0.00    -0.064 C 
ATOM      8  C   UNL     1    -132.848  40.678  18.239  1.00  0.00     0.015 C 
ATOM      9  C   UNL     1    -134.345  41.010  17.936  1.00  0.00    -0.035 C 
ATOM     10  C   UNL     1    -130.011  38.385  18.230  1.00  0.00    -0.006 C 
ATOM     11  C   UNL     1    -130.101  40.475  16.902  1.00  0.00    -0.027 C 
ATOM     12  C   UNL     1    -134.431  42.065  16.812  1.00  0.00     0.011 C 
ATOM     13  C   UNL     1    -134.992  41.606  19.205  1.00  0.00     0.011 C 
ATOM     14  C   UNL     1    -129.795  38.986  19.662  1.00  0.00     0.017 C 
ATOM     15  C   UNL     1    -128.583  38.029  17.502  1.00  0.00    -0.020 C 
ATOM     16  C   UNL     1    -128.634  40.629  17.114  1.00  0.00     0.032 C 
ATOM     17  C   UNL     1    -127.860  39.312  16.824  1.00  0.00     0.006 C 
ATOM     18  C   UNL     1    -128.780  36.901  16.432  1.00  0.00     0.008 C 
ATOM     19  C   UNL     1    -127.641  37.422  18.591  1.00  0.00     0.012 C 
ATOM     20  C   UNL     1    -127.442  39.188  15.283  1.00  0.00    -0.025 C 
ATOM     21  C   UNL     1    -127.577  36.574  15.537  1.00  0.00     0.005 C 
ATOM     22  C   UNL     1    -126.785  37.778  14.957  1.00  0.00     0.003 C 
ATOM     23  C   UNL     1    -126.461  40.334  14.825  1.00  0.00     0.010 C 
ATOM     24  C   UNL     1    -128.701  39.397  14.371  1.00  0.00     0.012 C 
ATOM     25  C   UNL     1    -125.202  37.617  15.127  1.00  0.00    -0.006 C 
ATOM     26  C   UNL     1    -124.999  40.142  15.201  1.00  0.00     0.033 C 
ATOM     27  C   UNL     1    -124.457  38.862  14.568  1.00  0.00     0.120 C 
ATOM     28  C   UNL     1    -124.732  37.394  16.590  1.00  0.00     0.014 C 
ATOM     29  C   UNL     1    -124.718  36.377  14.320  1.00  0.00     0.014 C 
ENDROOT
BRANCH   1  30
ATOM     30  C   UNL     1    -133.155  37.281  16.435  1.00  0.00     0.048 C 
ATOM     31  O   UNL     1    -132.670  37.637  15.326  1.00  0.00    -0.550 OA
ATOM     32  O   UNL     1    -133.746  36.025  16.530  1.00  0.00    -0.550 OA
ENDBRANCH   1  30
BRANCH  27  33
ATOM     33  O   UNL     1    -124.581  38.929  13.165  1.00  0.00    -0.393 OA
ATOM     34  H   UNL     1    -123.972  39.650  12.855  1.00  0.00     0.210 HD
ENDBRANCH  27  33
TORSDOF 2
ENDMDL
MODEL 4
REMARK VINA RESULT:    -3.741      2.751      4.088
REMARK INTER + INTRA:          -4.329
REMARK INTER:                  -4.061
REMARK INTRA:                  -0.267
REMARK UNBOUND:                -0.259
REMARK SMILES CC1(C)CC[C@]2(C(=O)[O-])CC[C@]3(C)C(=CC[C@@H]4[C@@]5(C)CC[C@H](O)C(C)(C)[C@H]5CC[C@@]43C)[C@@H]2C1
REMARK SMILES IDX 6 1 5 2 10 3 32 4 4 5 11 6 14 7 33 8 2 9 12 10 15 11 1 12
REMARK SMILES IDX 3 13 13 14 30 15 16 16 17 17 29 18 31 19 18 20 28 21 27 22
REMARK SMILES IDX 20 23 19 24 24 25 21 26 22 27 25 28 26 29 7 30 8 31 9 32
REMARK SMILES IDX 23 33
REMARK H PARENT 23 34
REMARK Flexibility Score: inf
ROOT
ATOM      1  C   UNL     1    -124.903  39.583  14.384  1.00  0.00     0.017 C 
ATOM      2  C   UNL     1    -123.510  39.288  13.728  1.00  0.00     0.014 C 
ATOM      3  C   UNL     1    -124.987  38.778  15.703  1.00  0.00     0.014 C 
ATOM      4  C   UNL     1    -126.081  39.157  13.429  1.00  0.00     0.028 C 
ATOM      5  C   UNL     1    -123.556  39.409  12.201  1.00  0.00     0.007 C 
ATOM      6  C   UNL     1    -126.323  39.008  16.410  1.00  0.00     0.013 C 
ATOM      7  C   UNL     1    -127.425  38.872  14.121  1.00  0.00    -0.064 C 
ATOM      8  C   UNL     1    -125.658  37.959  12.538  1.00  0.00     0.015 C 
ATOM      9  C   UNL     1    -124.493  38.335  11.566  1.00  0.00    -0.035 C 
ATOM     10  C   UNL     1    -127.566  38.483  15.603  1.00  0.00    -0.006 C 
ATOM     11  C   UNL     1    -128.502  38.772  13.327  1.00  0.00    -0.027 C 
ATOM     12  C   UNL     1    -125.071  38.890  10.246  1.00  0.00     0.011 C 
ATOM     13  C   UNL     1    -123.683  37.061  11.238  1.00  0.00     0.011 C 
ATOM     14  C   UNL     1    -127.488  36.918  15.665  1.00  0.00     0.017 C 
ATOM     15  C   UNL     1    -128.982  39.043  16.216  1.00  0.00    -0.020 C 
ATOM     16  C   UNL     1    -129.809  38.272  13.841  1.00  0.00     0.032 C 
ATOM     17  C   UNL     1    -130.219  38.968  15.170  1.00  0.00     0.006 C 
ATOM     18  C   UNL     1    -128.812  40.512  16.735  1.00  0.00     0.008 C 
ATOM     19  C   UNL     1    -129.320  38.182  17.475  1.00  0.00     0.012 C 
ATOM     20  C   UNL     1    -131.042  40.318  14.911  1.00  0.00    -0.025 C 
ATOM     21  C   UNL     1    -130.086  41.244  17.178  1.00  0.00     0.005 C 
ATOM     22  C   UNL     1    -131.331  41.106  16.260  1.00  0.00     0.003 C 
ATOM     23  C   UNL     1    -132.404  40.064  14.158  1.00  0.00     0.010 C 
ATOM     24  C   UNL     1    -130.247  41.246  13.928  1.00  0.00     0.012 C 
ATOM     25  C   UNL     1    -132.664  40.759  17.075  1.00  0.00    -0.006 C 
ATOM     26  C   UNL     1    -133.554  39.568  15.022  1.00  0.00     0.033 C 
ATOM     27  C   UNL     1    -133.873  40.592  16.111  1.00  0.00     0.120 C 
ATOM     28  C   UNL     1    -132.569  39.480  17.951  1.00  0.00     0.014 C 
ATOM     29  C   UNL     1    -132.996  41.929  18.046  1.00  0.00     0.014 C 
ENDROOT
BRANCH   1  30
ATOM     30  C   UNL     1    -124.961  41.077  14.702  1.00  0.00     0.048 C 
ATOM     31  O   UNL     1    -125.798  41.840  14.146  1.00  0.00    -0.550 OA
ATOM     32  O   UNL     1    -124.092  41.617  15.645  1.00  0.00    -0.550 OA
ENDBRANCH   1  30
BRANCH  27  33
ATOM     33  O   UNL     1    -134.218  41.827  15.525  1.00  0.00    -0.393 OA
ATOM     34  H   UNL     1    -134.694  41.622  14.677  1.00  0.00     0.210 HD
ENDBRANCH  27  33
TORSDOF 2
ENDMDL
MODEL 5
REMARK VINA RESULT:    -3.715      1.908      2.613
REMARK INTER + INTRA:          -4.300
REMARK INTER:                  -4.031
REMARK INTRA:                  -0.268
REMARK UNBOUND:                -0.259
REMARK SMILES CC1(C)CC[C@]2(C(=O)[O-])CC[C@]3(C)C(=CC[C@@H]4[C@@]5(C)CC[C@H](O)C(C)(C)[C@H]5CC[C@@]43C)[C@@H]2C1
REMARK SMILES IDX 6 1 5 2 10 3 32 4 4 5 11 6 14 7 33 8 2 9 12 10 15 11 1 12
REMARK SMILES IDX 3 13 13 14 30 15 16 16 17 17 29 18 31 19 18 20 28 21 27 22
REMARK SMILES IDX 20 23 19 24 24 25 21 26 22 27 25 28 26 29 7 30 8 31 9 32
REMARK SMILES IDX 23 33
REMARK H PARENT 23 34
REMARK Flexibility Score: inf
ROOT
ATOM      1  C   UNL     1    -125.772  37.718  14.461  1.00  0.00     0.017 C 
ATOM      2  C   UNL     1    -124.229  37.569  14.232  1.00  0.00     0.014 C 
ATOM      3  C   UNL     1    -126.371  38.424  13.221  1.00  0.00     0.014 C 
ATOM      4  C   UNL     1    -126.074  38.569  15.752  1.00  0.00     0.028 C 
ATOM      5  C   UNL     1    -123.449  37.561  15.552  1.00  0.00     0.007 C 
ATOM      6  C   UNL     1    -127.881  38.612  13.364  1.00  0.00     0.013 C 
ATOM      7  C   UNL     1    -127.456  39.245  15.791  1.00  0.00    -0.064 C 
ATOM      8  C   UNL     1    -124.949  39.607  15.998  1.00  0.00     0.015 C 
ATOM      9  C   UNL     1    -123.577  38.922  16.304  1.00  0.00    -0.035 C 
ATOM     10  C   UNL     1    -128.293  39.570  14.542  1.00  0.00    -0.006 C 
ATOM     11  C   UNL     1    -127.848  39.746  16.973  1.00  0.00    -0.027 C 
ATOM     12  C   UNL     1    -123.442  38.672  17.822  1.00  0.00     0.011 C 
ATOM     13  C   UNL     1    -122.437  39.869  15.870  1.00  0.00     0.011 C 
ATOM     14  C   UNL     1    -127.878  41.012  14.087  1.00  0.00     0.017 C 
ATOM     15  C   UNL     1    -129.897  39.480  14.880  1.00  0.00    -0.020 C 
ATOM     16  C   UNL     1    -129.048  40.623  17.091  1.00  0.00     0.032 C 
ATOM     17  C   UNL     1    -130.282  40.026  16.357  1.00  0.00     0.006 C 
ATOM     18  C   UNL     1    -130.412  38.010  14.704  1.00  0.00     0.008 C 
ATOM     19  C   UNL     1    -130.650  40.327  13.804  1.00  0.00     0.012 C 
ATOM     20  C   UNL     1    -131.127  39.047  17.302  1.00  0.00    -0.025 C 
ATOM     21  C   UNL     1    -131.852  37.721  15.151  1.00  0.00     0.005 C 
ATOM     22  C   UNL     1    -132.299  38.322  16.512  1.00  0.00     0.003 C 
ATOM     23  C   UNL     1    -131.730  39.786  18.558  1.00  0.00     0.010 C 
ATOM     24  C   UNL     1    -130.180  37.968  17.932  1.00  0.00     0.012 C 
ATOM     25  C   UNL     1    -133.724  39.045  16.430  1.00  0.00    -0.006 C 
ATOM     26  C   UNL     1    -133.000  40.585  18.308  1.00  0.00     0.033 C 
ATOM     27  C   UNL     1    -134.110  39.664  17.803  1.00  0.00     0.120 C 
ATOM     28  C   UNL     1    -133.818  40.164  15.356  1.00  0.00     0.014 C 
ATOM     29  C   UNL     1    -134.815  37.998  16.063  1.00  0.00     0.014 C 
ENDROOT
BRANCH   1  30
ATOM     30  C   UNL     1    -126.365  36.313  14.574  1.00  0.00     0.048 C 
ATOM     31  O   UNL     1    -126.240  35.466  13.647  1.00  0.00    -0.550 OA
ATOM     32  O   UNL     1    -127.040  35.938  15.731  1.00  0.00    -0.550 OA
ENDBRANCH   1  30
BRANCH  27  33
ATOM     33  O   UNL     1    -134.365  38.653  18.752  1.00  0.00    -0.393 OA
ATOM     34  H   UNL     1    -134.545  37.818  18.244  1.00  0.00     0.210 HD
ENDBRANCH  27  33
TORSDOF 2
ENDMDL
MODEL 6
REMARK VINA RESULT:    -3.711     10.949     14.668
REMARK INTER + INTRA:          -4.296
REMARK INTER:                  -4.028
REMARK INTRA:                  -0.267
REMARK UNBOUND:                -0.259
REMARK SMILES CC1(C)CC[C@]2(C(=O)[O-])CC[C@]3(C)C(=CC[C@@H]4[C@@]5(C)CC[C@H](O)C(C)(C)[C@H]5CC[C@@]43C)[C@@H]2C1
REMARK SMILES IDX 6 1 5 2 10 3 32 4 4 5 11 6 14 7 33 8 2 9 12 10 15 11 1 12
REMARK SMILES IDX 3 13 13 14 30 15 16 16 17 17 29 18 31 19 18 20 28 21 27 22
REMARK SMILES IDX 20 23 19 24 24 25 21 26 22 27 25 28 26 29 7 30 8 31 9 32
REMARK SMILES IDX 23 33
REMARK H PARENT 23 34
REMARK Flexibility Score: inf
ROOT
ATOM      1  C   UNL     1    -125.852  39.706   6.065  1.00  0.00     0.017 C 
ATOM      2  C   UNL     1    -127.232  39.398   6.742  1.00  0.00     0.014 C 
ATOM      3  C   UNL     1    -125.788  38.916   4.736  1.00  0.00     0.014 C 
ATOM      4  C   UNL     1    -124.655  39.274   6.994  1.00  0.00     0.028 C 
ATOM      5  C   UNL     1    -127.158  39.502   8.270  1.00  0.00     0.007 C 
ATOM      6  C   UNL     1    -124.466  39.158   4.008  1.00  0.00     0.013 C 
ATOM      7  C   UNL     1    -123.323  39.002   6.275  1.00  0.00    -0.064 C 
ATOM      8  C   UNL     1    -125.057  38.065   7.879  1.00  0.00     0.015 C 
ATOM      9  C   UNL     1    -126.206  38.426   8.876  1.00  0.00    -0.035 C 
ATOM     10  C   UNL     1    -123.206  38.630   4.787  1.00  0.00    -0.006 C 
ATOM     11  C   UNL     1    -122.231  38.898   7.048  1.00  0.00    -0.027 C 
ATOM     12  C   UNL     1    -125.607  38.969  10.192  1.00  0.00     0.011 C 
ATOM     13  C   UNL     1    -127.005  37.145   9.204  1.00  0.00     0.011 C 
ATOM     14  C   UNL     1    -123.279  37.066   4.709  1.00  0.00     0.017 C 
ATOM     15  C   UNL     1    -121.804  39.202   4.155  1.00  0.00    -0.020 C 
ATOM     16  C   UNL     1    -120.931  38.409   6.506  1.00  0.00     0.032 C 
ATOM     17  C   UNL     1    -120.548  39.121   5.177  1.00  0.00     0.006 C 
ATOM     18  C   UNL     1    -121.989  40.676   3.654  1.00  0.00     0.008 C 
ATOM     19  C   UNL     1    -121.486  38.357   2.880  1.00  0.00     0.012 C 
ATOM     20  C   UNL     1    -119.726  40.471   5.436  1.00  0.00    -0.025 C 
ATOM     21  C   UNL     1    -120.726  41.418   3.196  1.00  0.00     0.005 C 
ATOM     22  C   UNL     1    -119.464  41.275   4.091  1.00  0.00     0.003 C 
ATOM     23  C   UNL     1    -118.349  40.215   6.162  1.00  0.00     0.010 C 
ATOM     24  C   UNL     1    -120.506  41.385   6.443  1.00  0.00     0.012 C 
ATOM     25  C   UNL     1    -118.145  40.943   3.248  1.00  0.00    -0.006 C 
ATOM     26  C   UNL     1    -117.213  39.733   5.272  1.00  0.00     0.033 C 
ATOM     27  C   UNL     1    -116.918  40.770   4.189  1.00  0.00     0.120 C 
ATOM     28  C   UNL     1    -118.250  39.673   2.360  1.00  0.00     0.014 C 
ATOM     29  C   UNL     1    -117.835  42.125   2.284  1.00  0.00     0.014 C 
ENDROOT
BRANCH   1  30
ATOM     30  C   UNL     1    -125.805  41.204   5.762  1.00  0.00     0.048 C 
ATOM     31  O   UNL     1    -124.938  41.957   6.284  1.00  0.00    -0.550 OA
ATOM     32  O   UNL     1    -126.719  41.758   4.872  1.00  0.00    -0.550 OA
ENDBRANCH   1  30
BRANCH  27  33
ATOM     33  O   UNL     1    -116.567  42.000   4.782  1.00  0.00    -0.393 OA
ATOM     34  H   UNL     1    -117.401  42.390   5.155  1.00  0.00     0.210 HD
ENDBRANCH  27  33
TORSDOF 2
ENDMDL
MODEL 7
REMARK VINA RESULT:    -3.710      2.359      7.825
REMARK INTER + INTRA:          -4.295
REMARK INTER:                  -4.030
REMARK INTRA:                  -0.265
REMARK UNBOUND:                -0.259
REMARK SMILES CC1(C)CC[C@]2(C(=O)[O-])CC[C@]3(C)C(=CC[C@@H]4[C@@]5(C)CC[C@H](O)C(C)(C)[C@H]5CC[C@@]43C)[C@@H]2C1
REMARK SMILES IDX 6 1 5 2 10 3 32 4 4 5 11 6 14 7 33 8 2 9 12 10 15 11 1 12
REMARK SMILES IDX 3 13 13 14 30 15 16 16 17 17 29 18 31 19 18 20 28 21 27 22
REMARK SMILES IDX 20 23 19 24 24 25 21 26 22 27 25 28 26 29 7 30 8 31 9 32
REMARK SMILES IDX 23 33
REMARK H PARENT 23 34
REMARK Flexibility Score: inf
ROOT
ATOM      1  C   UNL     1    -130.724  40.092  15.754  1.00  0.00     0.017 C 
ATOM      2  C   UNL     1    -132.272  39.964  15.969  1.00  0.00     0.014 C 
ATOM      3  C   UNL     1    -130.490  40.789  14.392  1.00  0.00     0.014 C 
ATOM      4  C   UNL     1    -130.033  38.676  15.749  1.00  0.00     0.028 C 
ATOM      5  C   UNL     1    -132.634  38.752  16.835  1.00  0.00     0.007 C 
ATOM      6  C   UNL     1    -128.998  40.952  14.101  1.00  0.00     0.013 C 
ATOM      7  C   UNL     1    -128.680  38.603  15.022  1.00  0.00    -0.064 C 
ATOM      8  C   UNL     1    -131.006  37.595  15.209  1.00  0.00     0.015 C 
ATOM      9  C   UNL     1    -132.250  37.411  16.136  1.00  0.00    -0.035 C 
ATOM     10  C   UNL     1    -128.232  39.590  13.930  1.00  0.00    -0.006 C 
ATOM     11  C   UNL     1    -127.946  37.498  15.226  1.00  0.00    -0.027 C 
ATOM     12  C   UNL     1    -131.946  36.351  17.218  1.00  0.00     0.011 C 
ATOM     13  C   UNL     1    -133.437  36.904  15.288  1.00  0.00     0.011 C 
ATOM     14  C   UNL     1    -128.715  38.995  12.562  1.00  0.00     0.017 C 
ATOM     15  C   UNL     1    -126.603  39.788  13.961  1.00  0.00    -0.020 C 
ATOM     16  C   UNL     1    -126.736  37.200  14.407  1.00  0.00     0.032 C 
ATOM     17  C   UNL     1    -125.788  38.428  14.298  1.00  0.00     0.006 C 
ATOM     18  C   UNL     1    -126.207  40.912  14.980  1.00  0.00     0.008 C 
ATOM     19  C   UNL     1    -126.168  40.316  12.556  1.00  0.00     0.012 C 
ATOM     20  C   UNL     1    -124.736  38.483  15.505  1.00  0.00    -0.025 C 
ATOM     21  C   UNL     1    -124.710  41.101  15.259  1.00  0.00     0.005 C 
ATOM     22  C   UNL     1    -123.868  39.814  15.476  1.00  0.00     0.003 C 
ATOM     23  C   UNL     1    -123.771  37.236  15.528  1.00  0.00     0.010 C 
ATOM     24  C   UNL     1    -125.492  38.386  16.875  1.00  0.00     0.012 C 
ATOM     25  C   UNL     1    -122.506  39.818  14.636  1.00  0.00    -0.006 C 
ATOM     26  C   UNL     1    -122.604  37.286  14.553  1.00  0.00     0.033 C 
ATOM     27  C   UNL     1    -121.718  38.494  14.855  1.00  0.00     0.120 C 
ATOM     28  C   UNL     1    -122.693  40.017  13.107  1.00  0.00     0.014 C 
ATOM     29  C   UNL     1    -121.602  40.988  15.121  1.00  0.00     0.014 C 
ENDROOT
BRANCH   1  30
ATOM     30  C   UNL     1    -130.169  40.975  16.872  1.00  0.00     0.048 C 
ATOM     31  O   UNL     1    -130.635  42.125  17.100  1.00  0.00    -0.550 OA
ATOM     32  O   UNL     1    -129.142  40.501  17.682  1.00  0.00    -0.550 OA
ENDBRANCH   1  30
BRANCH  27  33
ATOM     33  O   UNL     1    -121.231  38.417  16.175  1.00  0.00    -0.393 OA
ATOM     34  H   UNL     1    -121.991  38.134  16.748  1.00  0.00     0.210 HD
ENDBRANCH  27  33
TORSDOF 2
ENDMDL
MODEL 8
REMARK VINA RESULT:    -3.699     11.769     14.317
REMARK INTER + INTRA:          -4.282
REMARK INTER:                  -4.042
REMARK INTRA:                  -0.241
REMARK UNBOUND:                -0.259
REMARK SMILES CC1(C)CC[C@]2(C(=O)[O-])CC[C@]3(C)C(=CC[C@@H]4[C@@]5(C)CC[C@H](O)C(C)(C)[C@H]5CC[C@@]43C)[C@@H]2C1
REMARK SMILES IDX 6 1 5 2 10 3 32 4 4 5 11 6 14 7 33 8 2 9 12 10 15 11 1 12
REMARK SMILES IDX 3 13 13 14 30 15 16 16 17 17 29 18 31 19 18 20 28 21 27 22
REMARK SMILES IDX 20 23 19 24 24 25 21 26 22 27 25 28 26 29 7 30 8 31 9 32
REMARK SMILES IDX 23 33
REMARK H PARENT 23 34
REMARK Flexibility Score: inf
ROOT
ATOM      1  C   UNL     1    -119.774  39.689   2.140  1.00  0.00     0.017 C 
ATOM      2  C   UNL     1    -118.415  39.780   1.364  1.00  0.00     0.014 C 
ATOM      3  C   UNL     1    -120.099  41.097   2.694  1.00  0.00     0.014 C 
ATOM      4  C   UNL     1    -119.679  38.662   3.331  1.00  0.00     0.028 C 
ATOM      5  C   UNL     1    -117.651  38.450   1.384  1.00  0.00     0.007 C 
ATOM      6  C   UNL     1    -121.415  41.097   3.472  1.00  0.00     0.013 C 
ATOM      7  C   UNL     1    -120.693  38.871   4.469  1.00  0.00    -0.064 C 
ATOM      8  C   UNL     1    -118.233  38.602   3.888  1.00  0.00     0.015 C 
ATOM      9  C   UNL     1    -117.220  38.056   2.831  1.00  0.00    -0.035 C 
ATOM     10  C   UNL     1    -121.385  40.211   4.771  1.00  0.00    -0.006 C 
ATOM     11  C   UNL     1    -120.820  37.871   5.355  1.00  0.00    -0.027 C 
ATOM     12  C   UNL     1    -117.137  36.517   2.928  1.00  0.00     0.011 C 
ATOM     13  C   UNL     1    -115.820  38.633   3.135  1.00  0.00     0.011 C 
ATOM     14  C   UNL     1    -120.465  40.972   5.787  1.00  0.00     0.017 C 
ATOM     15  C   UNL     1    -122.887  39.962   5.384  1.00  0.00    -0.020 C 
ATOM     16  C   UNL     1    -121.586  38.041   6.622  1.00  0.00     0.032 C 
ATOM     17  C   UNL     1    -122.980  38.686   6.380  1.00  0.00     0.006 C 
ATOM     18  C   UNL     1    -123.934  39.813   4.227  1.00  0.00     0.008 C 
ATOM     19  C   UNL     1    -123.295  41.254   6.163  1.00  0.00     0.012 C 
ATOM     20  C   UNL     1    -124.101  37.588   6.060  1.00  0.00    -0.025 C 
ATOM     21  C   UNL     1    -125.357  39.399   4.627  1.00  0.00     0.005 C 
ATOM     22  C   UNL     1    -125.490  38.253   5.667  1.00  0.00     0.003 C 
ATOM     23  C   UNL     1    -124.329  36.585   7.257  1.00  0.00     0.010 C 
ATOM     24  C   UNL     1    -123.620  36.660   4.892  1.00  0.00     0.012 C 
ATOM     25  C   UNL     1    -126.530  38.594   6.833  1.00  0.00    -0.006 C 
ATOM     26  C   UNL     1    -125.203  37.099   8.391  1.00  0.00     0.033 C 
ATOM     27  C   UNL     1    -126.599  37.436   7.868  1.00  0.00     0.120 C 
ATOM     28  C   UNL     1    -126.225  39.908   7.604  1.00  0.00     0.014 C 
ATOM     29  C   UNL     1    -127.952  38.766   6.225  1.00  0.00     0.014 C 
ENDROOT
BRANCH   1  30
ATOM     30  C   UNL     1    -120.856  39.280   1.141  1.00  0.00     0.048 C 
ATOM     31  O   UNL     1    -120.966  39.843   0.018  1.00  0.00    -0.550 OA
ATOM     32  O   UNL     1    -121.732  38.246   1.455  1.00  0.00    -0.550 OA
ENDBRANCH   1  30
BRANCH  27  33
ATOM     33  O   UNL     1    -127.188  36.290   7.296  1.00  0.00    -0.393 OA
ATOM     34  H   UNL     1    -128.162  36.473   7.220  1.00  0.00     0.210 HD
ENDBRANCH  27  33
TORSDOF 2
ENDMDL
MODEL 9
REMARK VINA RESULT:    -3.693     11.756     14.111
REMARK INTER + INTRA:          -4.276
REMARK INTER:                  -4.063
REMARK INTRA:                  -0.213
REMARK UNBOUND:                -0.259
REMARK SMILES CC1(C)CC[C@]2(C(=O)[O-])CC[C@]3(C)C(=CC[C@@H]4[C@@]5(C)CC[C@H](O)C(C)(C)[C@H]5CC[C@@]43C)[C@@H]2C1
REMARK SMILES IDX 6 1 5 2 10 3 32 4 4 5 11 6 14 7 33 8 2 9 12 10 15 11 1 12
REMARK SMILES IDX 3 13 13 14 30 15 16 16 17 17 29 18 31 19 18 20 28 21 27 22
REMARK SMILES IDX 20 23 19 24 24 25 21 26 22 27 25 28 26 29 7 30 8 31 9 32
REMARK SMILES IDX 23 33
REMARK H PARENT 23 34
REMARK Flexibility Score: inf
ROOT
ATOM      1  C   UNL     1    -121.149  39.333   4.044  1.00  0.00     0.017 C 
ATOM      2  C   UNL     1    -119.783  39.950   3.585  1.00  0.00     0.014 C 
ATOM      3  C   UNL     1    -120.857  38.329   5.184  1.00  0.00     0.014 C 
ATOM      4  C   UNL     1    -121.863  38.589   2.853  1.00  0.00     0.028 C 
ATOM      5  C   UNL     1    -119.807  40.368   2.110  1.00  0.00     0.007 C 
ATOM      6  C   UNL     1    -122.143  37.675   5.691  1.00  0.00     0.013 C 
ATOM      7  C   UNL     1    -122.879  37.509   3.262  1.00  0.00    -0.064 C 
ATOM      8  C   UNL     1    -120.819  38.013   1.862  1.00  0.00     0.015 C 
ATOM      9  C   UNL     1    -119.988  39.139   1.167  1.00  0.00    -0.035 C 
ATOM     10  C   UNL     1    -122.868  36.783   4.618  1.00  0.00    -0.006 C 
ATOM     11  C   UNL     1    -123.692  37.051   2.297  1.00  0.00    -0.027 C 
ATOM     12  C   UNL     1    -120.703  39.598  -0.123  1.00  0.00     0.011 C 
ATOM     13  C   UNL     1    -118.606  38.572   0.774  1.00  0.00     0.011 C 
ATOM     14  C   UNL     1    -121.967  35.512   4.439  1.00  0.00     0.017 C 
ATOM     15  C   UNL     1    -124.393  36.383   5.074  1.00  0.00    -0.020 C 
ATOM     16  C   UNL     1    -124.552  35.851   2.504  1.00  0.00     0.032 C 
ATOM     17  C   UNL     1    -125.340  35.920   3.843  1.00  0.00     0.006 C 
ATOM     18  C   UNL     1    -125.064  37.572   5.845  1.00  0.00     0.008 C 
ATOM     19  C   UNL     1    -124.282  35.215   6.106  1.00  0.00     0.012 C 
ATOM     20  C   UNL     1    -126.743  36.674   3.675  1.00  0.00    -0.025 C 
ATOM     21  C   UNL     1    -126.553  37.425   6.187  1.00  0.00     0.005 C 
ATOM     22  C   UNL     1    -127.480  36.877   5.068  1.00  0.00     0.003 C 
ATOM     23  C   UNL     1    -127.716  35.933   2.679  1.00  0.00     0.010 C 
ATOM     24  C   UNL     1    -126.520  38.070   2.997  1.00  0.00     0.012 C 
ATOM     25  C   UNL     1    -128.460  35.724   5.588  1.00  0.00    -0.006 C 
ATOM     26  C   UNL     1    -128.465  34.739   3.252  1.00  0.00     0.033 C 
ATOM     27  C   UNL     1    -129.339  35.180   4.425  1.00  0.00     0.120 C 
ATOM     28  C   UNL     1    -127.741  34.517   6.249  1.00  0.00     0.014 C 
ATOM     29  C   UNL     1    -129.417  36.306   6.668  1.00  0.00     0.014 C 
ENDROOT
BRANCH   1  30
ATOM     30  C   UNL     1    -122.016  40.470   4.586  1.00  0.00     0.048 C 
ATOM     31  O   UNL     1    -123.232  40.583   4.270  1.00  0.00    -0.550 OA
ATOM     32  O   UNL     1    -121.469  41.396   5.468  1.00  0.00    -0.550 OA
ENDBRANCH   1  30
BRANCH  27  33
ATOM     33  O   UNL     1    -130.261  36.157   3.998  1.00  0.00    -0.393 OA
ATOM     34  H   UNL     1    -131.163  35.744   4.043  1.00  0.00     0.210 HD
ENDBRANCH  27  33
TORSDOF 2
ENDMDL
