MODEL 1
REMARK VINA RESULT:    -6.611      0.000      0.000
REMARK INTER + INTRA:          -6.804
REMARK INTER:                  -6.804
REMARK INTRA:                   0.000
REMARK UNBOUND:                 0.000
REMARK SMILES CC1(C)CC[C@@]2(C)CC[C@@]3(C)C(=CC[C@@H]4[C@]5(C)CC[C@H](O)C(C)(C)[C@H]5CC[C@@]43C)[C@@H]2C1
REMARK SMILES IDX 1 1 2 2 4 3 5 4 6 5 8 6 9 7 10 8 12 9 13 10 14 11 15 12
REMARK SMILES IDX 28 13 27 14 26 15 25 16 16 17 18 18 19 19 20 20 22 21 23 22
REMARK SMILES IDX 24 23 17 24 29 25 30 26 31 27 11 28 7 29 3 30 21 31
REMARK H PARENT 21 32
REMARK Flexibility Score: inf
ROOT
ATOM      1  C   UNL     1     137.846 132.890 132.478  1.00  0.00     0.011 C 
ATOM      2  C   UNL     1     138.221 131.440 132.869  1.00  0.00    -0.035 C 
ATOM      3  C   UNL     1     139.752 131.333 133.125  1.00  0.00     0.007 C 
ATOM      4  C   UNL     1     140.204 131.941 134.469  1.00  0.00     0.008 C 
ATOM      5  C   UNL     1     139.406 131.414 135.696  1.00  0.00    -0.026 C 
ATOM      6  C   UNL     1     139.857 132.194 136.987  1.00  0.00     0.008 C 
ATOM      7  C   UNL     1     138.737 132.982 137.721  1.00  0.00     0.012 C 
ATOM      8  C   UNL     1     137.354 132.235 137.913  1.00  0.00    -0.006 C 
ATOM      9  C   UNL     1     137.091 131.357 136.689  1.00  0.00    -0.064 C 
ATOM     10  C   UNL     1     136.103 130.448 136.725  1.00  0.00    -0.027 C 
ATOM     11  C   UNL     1     135.299 130.228 137.970  1.00  0.00     0.032 C 
ATOM     12  C   UNL     1     136.209 130.148 139.220  1.00  0.00     0.006 C 
ATOM     13  C   UNL     1     137.259 131.374 139.301  1.00  0.00    -0.020 C 
ATOM     14  C   UNL     1     136.931 132.340 140.483  1.00  0.00     0.008 C 
ATOM     15  C   UNL     1     136.606 131.639 141.790  1.00  0.00     0.005 C 
ATOM     16  C   UNL     1     135.314 130.815 141.633  1.00  0.00     0.003 C 
ATOM     17  C   UNL     1     135.484 129.648 140.594  1.00  0.00    -0.025 C 
ATOM     18  C   UNL     1     134.041 129.045 140.340  1.00  0.00     0.010 C 
ATOM     19  C   UNL     1     133.014 129.189 141.487  1.00  0.00     0.033 C 
ATOM     20  C   UNL     1     133.630 129.234 142.881  1.00  0.00     0.120 C 
ATOM     21  C   UNL     1     134.638 130.435 143.030  1.00  0.00    -0.006 C 
ATOM     22  C   UNL     1     135.685 130.057 144.112  1.00  0.00     0.014 C 
ATOM     23  C   UNL     1     133.874 131.687 143.555  1.00  0.00     0.014 C 
ATOM     24  C   UNL     1     136.360 128.490 141.184  1.00  0.00     0.012 C 
ATOM     25  C   UNL     1     138.651 130.744 139.624  1.00  0.00     0.012 C 
ATOM     26  C   UNL     1     137.896 131.651 135.424  1.00  0.00     0.022 C 
ATOM     27  C   UNL     1     137.413 130.974 134.117  1.00  0.00     0.015 C 
ATOM     28  C   UNL     1     136.277 133.366 137.836  1.00  0.00     0.017 C 
ATOM     29  C   UNL     1     139.711 129.901 135.896  1.00  0.00     0.012 C 
ATOM     30  C   UNL     1     137.854 130.524 131.682  1.00  0.00     0.011 C 
ENDROOT
BRANCH  20  31
ATOM     31  O   UNL     1     132.581 129.312 143.818  1.00  0.00    -0.393 OA
ATOM     32  H   UNL     1     131.782 128.896 143.401  1.00  0.00     0.210 HD
ENDBRANCH  20  31
TORSDOF 1
ENDMDL
MODEL 2
REMARK VINA RESULT:    -6.567      7.021     10.436
REMARK INTER + INTRA:          -6.759
REMARK INTER:                  -6.759
REMARK INTRA:                   0.000
REMARK UNBOUND:                 0.000
REMARK SMILES CC1(C)CC[C@@]2(C)CC[C@@]3(C)C(=CC[C@@H]4[C@]5(C)CC[C@H](O)C(C)(C)[C@H]5CC[C@@]43C)[C@@H]2C1
REMARK SMILES IDX 1 1 2 2 4 3 5 4 6 5 8 6 9 7 10 8 12 9 13 10 14 11 15 12
REMARK SMILES IDX 28 13 27 14 26 15 25 16 16 17 18 18 19 19 20 20 22 21 23 22
REMARK SMILES IDX 24 23 17 24 29 25 30 26 31 27 11 28 7 29 3 30 21 31
REMARK H PARENT 21 32
REMARK Flexibility Score: inf
ROOT
ATOM      1  C   UNL     1     133.731 126.703 136.235  1.00  0.00     0.011 C 
ATOM      2  C   UNL     1     132.701 127.671 136.864  1.00  0.00    -0.035 C 
ATOM      3  C   UNL     1     131.514 127.901 135.886  1.00  0.00     0.007 C 
ATOM      4  C   UNL     1     130.531 126.714 135.808  1.00  0.00     0.008 C 
ATOM      5  C   UNL     1     130.012 126.237 137.194  1.00  0.00    -0.026 C 
ATOM      6  C   UNL     1     129.128 124.947 137.007  1.00  0.00     0.008 C 
ATOM      7  C   UNL     1     129.627 123.677 137.751  1.00  0.00     0.012 C 
ATOM      8  C   UNL     1     130.106 123.874 139.247  1.00  0.00    -0.006 C 
ATOM      9  C   UNL     1     130.789 125.236 139.373  1.00  0.00    -0.064 C 
ATOM     10  C   UNL     1     131.063 125.730 140.591  1.00  0.00    -0.027 C 
ATOM     11  C   UNL     1     130.648 125.002 141.833  1.00  0.00     0.032 C 
ATOM     12  C   UNL     1     129.189 124.496 141.726  1.00  0.00     0.006 C 
ATOM     13  C   UNL     1     128.909 123.698 140.348  1.00  0.00    -0.020 C 
ATOM     14  C   UNL     1     128.664 122.177 140.600  1.00  0.00     0.008 C 
ATOM     15  C   UNL     1     127.726 121.879 141.757  1.00  0.00     0.005 C 
ATOM     16  C   UNL     1     128.357 122.362 143.077  1.00  0.00     0.003 C 
ATOM     17  C   UNL     1     128.533 123.924 143.107  1.00  0.00    -0.025 C 
ATOM     18  C   UNL     1     129.406 124.263 144.385  1.00  0.00     0.010 C 
ATOM     19  C   UNL     1     129.331 123.267 145.565  1.00  0.00     0.033 C 
ATOM     20  C   UNL     1     128.007 122.520 145.674  1.00  0.00     0.120 C 
ATOM     21  C   UNL     1     127.699 121.693 144.369  1.00  0.00    -0.006 C 
ATOM     22  C   UNL     1     126.158 121.547 144.242  1.00  0.00     0.014 C 
ATOM     23  C   UNL     1     128.280 120.256 144.521  1.00  0.00     0.014 C 
ATOM     24  C   UNL     1     127.155 124.645 143.297  1.00  0.00     0.012 C 
ATOM     25  C   UNL     1     127.576 124.268 139.770  1.00  0.00     0.012 C 
ATOM     26  C   UNL     1     131.245 125.920 138.084  1.00  0.00     0.022 C 
ATOM     27  C   UNL     1     132.197 127.132 138.236  1.00  0.00     0.015 C 
ATOM     28  C   UNL     1     131.254 122.830 139.438  1.00  0.00     0.017 C 
ATOM     29  C   UNL     1     129.133 127.355 137.827  1.00  0.00     0.012 C 
ATOM     30  C   UNL     1     133.411 129.021 137.103  1.00  0.00     0.011 C 
ENDROOT
BRANCH  20  31
ATOM     31  O   UNL     1     128.064 121.696 146.814  1.00  0.00    -0.393 OA
ATOM     32  H   UNL     1     129.022 121.604 147.063  1.00  0.00     0.210 HD
ENDBRANCH  20  31
TORSDOF 1
ENDMDL
MODEL 3
REMARK VINA RESULT:    -6.480      6.138     11.626
REMARK INTER + INTRA:          -6.669
REMARK INTER:                  -6.669
REMARK INTRA:                   0.000
REMARK UNBOUND:                 0.000
REMARK SMILES CC1(C)CC[C@@]2(C)CC[C@@]3(C)C(=CC[C@@H]4[C@]5(C)CC[C@H](O)C(C)(C)[C@H]5CC[C@@]43C)[C@@H]2C1
REMARK SMILES IDX 1 1 2 2 4 3 5 4 6 5 8 6 9 7 10 8 12 9 13 10 14 11 15 12
REMARK SMILES IDX 28 13 27 14 26 15 25 16 16 17 18 18 19 19 20 20 22 21 23 22
REMARK SMILES IDX 24 23 17 24 29 25 30 26 31 27 11 28 7 29 3 30 21 31
REMARK H PARENT 21 32
REMARK Flexibility Score: inf
ROOT
ATOM      1  C   UNL     1     128.087 125.390 144.989  1.00  0.00     0.011 C 
ATOM      2  C   UNL     1     129.253 124.482 144.529  1.00  0.00    -0.035 C 
ATOM      3  C   UNL     1     128.723 123.062 144.180  1.00  0.00     0.007 C 
ATOM      4  C   UNL     1     127.975 122.989 142.832  1.00  0.00     0.008 C 
ATOM      5  C   UNL     1     128.775 123.583 141.638  1.00  0.00    -0.026 C 
ATOM      6  C   UNL     1     127.871 123.578 140.349  1.00  0.00     0.008 C 
ATOM      7  C   UNL     1     127.606 124.969 139.708  1.00  0.00     0.012 C 
ATOM      8  C   UNL     1     128.853 125.936 139.574  1.00  0.00    -0.006 C 
ATOM      9  C   UNL     1     129.768 125.735 140.781  1.00  0.00    -0.064 C 
ATOM     10  C   UNL     1     131.002 126.265 140.773  1.00  0.00    -0.027 C 
ATOM     11  C   UNL     1     131.524 126.991 139.572  1.00  0.00     0.032 C 
ATOM     12  C   UNL     1     131.218 126.214 138.268  1.00  0.00     0.006 C 
ATOM     13  C   UNL     1     129.669 125.765 138.166  1.00  0.00    -0.020 C 
ATOM     14  C   UNL     1     128.914 126.537 137.039  1.00  0.00     0.008 C 
ATOM     15  C   UNL     1     129.679 126.635 135.730  1.00  0.00     0.005 C 
ATOM     16  C   UNL     1     130.960 127.464 135.936  1.00  0.00     0.003 C 
ATOM     17  C   UNL     1     131.962 126.763 136.923  1.00  0.00    -0.025 C 
ATOM     18  C   UNL     1     133.104 127.814 137.242  1.00  0.00     0.010 C 
ATOM     19  C   UNL     1     133.387 128.885 136.163  1.00  0.00     0.033 C 
ATOM     20  C   UNL     1     133.085 128.436 134.738  1.00  0.00     0.120 C 
ATOM     21  C   UNL     1     131.575 128.019 134.570  1.00  0.00    -0.006 C 
ATOM     22  C   UNL     1     131.485 126.984 133.415  1.00  0.00     0.014 C 
ATOM     23  C   UNL     1     130.743 129.260 134.132  1.00  0.00     0.014 C 
ATOM     24  C   UNL     1     132.656 125.533 136.245  1.00  0.00     0.012 C 
ATOM     25  C   UNL     1     129.671 124.262 137.741  1.00  0.00     0.012 C 
ATOM     26  C   UNL     1     129.179 125.036 142.006  1.00  0.00     0.022 C 
ATOM     27  C   UNL     1     130.002 125.112 143.316  1.00  0.00     0.015 C 
ATOM     28  C   UNL     1     128.263 127.373 139.752  1.00  0.00     0.017 C 
ATOM     29  C   UNL     1     130.029 122.701 141.370  1.00  0.00     0.012 C 
ATOM     30  C   UNL     1     130.247 124.362 145.705  1.00  0.00     0.011 C 
ENDROOT
BRANCH  20  31
ATOM     31  O   UNL     1     133.437 129.486 133.868  1.00  0.00    -0.393 OA
ATOM     32  H   UNL     1     133.583 130.295 134.425  1.00  0.00     0.210 HD
ENDBRANCH  20  31
TORSDOF 1
ENDMDL
MODEL 4
REMARK VINA RESULT:    -6.466      4.433      5.690
REMARK INTER + INTRA:          -6.655
REMARK INTER:                  -6.655
REMARK INTRA:                   0.000
REMARK UNBOUND:                 0.000
REMARK SMILES CC1(C)CC[C@@]2(C)CC[C@@]3(C)C(=CC[C@@H]4[C@]5(C)CC[C@H](O)C(C)(C)[C@H]5CC[C@@]43C)[C@@H]2C1
REMARK SMILES IDX 1 1 2 2 4 3 5 4 6 5 8 6 9 7 10 8 12 9 13 10 14 11 15 12
REMARK SMILES IDX 28 13 27 14 26 15 25 16 16 17 18 18 19 19 20 20 22 21 23 22
REMARK SMILES IDX 24 23 17 24 29 25 30 26 31 27 11 28 7 29 3 30 21 31
REMARK H PARENT 21 32
REMARK Flexibility Score: inf
ROOT
ATOM      1  C   UNL     1     137.879 132.905 132.567  1.00  0.00     0.011 C 
ATOM      2  C   UNL     1     137.669 131.821 133.652  1.00  0.00    -0.035 C 
ATOM      3  C   UNL     1     138.771 130.729 133.539  1.00  0.00     0.007 C 
ATOM      4  C   UNL     1     140.148 131.172 134.076  1.00  0.00     0.008 C 
ATOM      5  C   UNL     1     140.101 131.755 135.517  1.00  0.00    -0.026 C 
ATOM      6  C   UNL     1     141.527 132.294 135.911  1.00  0.00     0.008 C 
ATOM      7  C   UNL     1     141.601 133.807 136.258  1.00  0.00     0.012 C 
ATOM      8  C   UNL     1     140.456 134.376 137.193  1.00  0.00    -0.006 C 
ATOM      9  C   UNL     1     139.147 133.658 136.865  1.00  0.00    -0.064 C 
ATOM     10  C   UNL     1     138.092 133.795 137.686  1.00  0.00    -0.027 C 
ATOM     11  C   UNL     1     138.197 134.583 138.955  1.00  0.00     0.032 C 
ATOM     12  C   UNL     1     139.492 134.234 139.728  1.00  0.00     0.006 C 
ATOM     13  C   UNL     1     140.806 134.287 138.789  1.00  0.00    -0.020 C 
ATOM     14  C   UNL     1     141.746 135.472 139.174  1.00  0.00     0.008 C 
ATOM     15  C   UNL     1     141.974 135.628 140.668  1.00  0.00     0.005 C 
ATOM     16  C   UNL     1     140.647 135.983 141.364  1.00  0.00     0.003 C 
ATOM     17  C   UNL     1     139.593 134.823 141.247  1.00  0.00    -0.025 C 
ATOM     18  C   UNL     1     138.214 135.400 141.772  1.00  0.00     0.010 C 
ATOM     19  C   UNL     1     138.287 136.552 142.801  1.00  0.00     0.033 C 
ATOM     20  C   UNL     1     139.534 136.534 143.677  1.00  0.00     0.120 C 
ATOM     21  C   UNL     1     140.850 136.620 142.815  1.00  0.00    -0.006 C 
ATOM     22  C   UNL     1     141.994 135.934 143.609  1.00  0.00     0.014 C 
ATOM     23  C   UNL     1     141.252 138.114 142.637  1.00  0.00     0.014 C 
ATOM     24  C   UNL     1     139.966 133.623 142.184  1.00  0.00     0.012 C 
ATOM     25  C   UNL     1     141.610 132.979 139.077  1.00  0.00     0.012 C 
ATOM     26  C   UNL     1     139.064 132.911 135.535  1.00  0.00     0.022 C 
ATOM     27  C   UNL     1     137.657 132.455 135.075  1.00  0.00     0.015 C 
ATOM     28  C   UNL     1     140.241 135.847 136.709  1.00  0.00     0.017 C 
ATOM     29  C   UNL     1     139.703 130.627 136.515  1.00  0.00     0.012 C 
ATOM     30  C   UNL     1     136.295 131.164 133.401  1.00  0.00     0.011 C 
ENDROOT
BRANCH  20  31
ATOM     31  O   UNL     1     139.439 137.600 144.593  1.00  0.00    -0.393 OA
ATOM     32  H   UNL     1     139.258 137.205 145.486  1.00  0.00     0.210 HD
ENDBRANCH  20  31
TORSDOF 1
ENDMDL
MODEL 5
REMARK VINA RESULT:    -6.454      3.814      7.787
REMARK INTER + INTRA:          -6.643
REMARK INTER:                  -6.643
REMARK INTRA:                   0.000
REMARK UNBOUND:                 0.000
REMARK SMILES CC1(C)CC[C@@]2(C)CC[C@@]3(C)C(=CC[C@@H]4[C@]5(C)CC[C@H](O)C(C)(C)[C@H]5CC[C@@]43C)[C@@H]2C1
REMARK SMILES IDX 1 1 2 2 4 3 5 4 6 5 8 6 9 7 10 8 12 9 13 10 14 11 15 12
REMARK SMILES IDX 28 13 27 14 26 15 25 16 16 17 18 18 19 19 20 20 22 21 23 22
REMARK SMILES IDX 24 23 17 24 29 25 30 26 31 27 11 28 7 29 3 30 21 31
REMARK H PARENT 21 32
REMARK Flexibility Score: inf
ROOT
ATOM      1  C   UNL     1     138.873 137.483 143.284  1.00  0.00     0.011 C 
ATOM      2  C   UNL     1     140.151 136.808 142.730  1.00  0.00    -0.035 C 
ATOM      3  C   UNL     1     140.632 135.693 143.701  1.00  0.00     0.007 C 
ATOM      4  C   UNL     1     139.782 134.406 143.645  1.00  0.00     0.008 C 
ATOM      5  C   UNL     1     139.598 133.838 142.209  1.00  0.00    -0.026 C 
ATOM      6  C   UNL     1     138.612 132.612 142.253  1.00  0.00     0.008 C 
ATOM      7  C   UNL     1     137.320 132.757 141.401  1.00  0.00     0.012 C 
ATOM      8  C   UNL     1     137.497 133.343 139.941  1.00  0.00    -0.006 C 
ATOM      9  C   UNL     1     138.606 134.395 139.960  1.00  0.00    -0.064 C 
ATOM     10  C   UNL     1     139.101 134.858 138.801  1.00  0.00    -0.027 C 
ATOM     11  C   UNL     1     138.635 134.310 137.487  1.00  0.00     0.032 C 
ATOM     12  C   UNL     1     138.571 132.763 137.515  1.00  0.00     0.006 C 
ATOM     13  C   UNL     1     137.774 132.200 138.803  1.00  0.00    -0.020 C 
ATOM     14  C   UNL     1     136.418 131.537 138.402  1.00  0.00     0.008 C 
ATOM     15  C   UNL     1     136.508 130.610 137.203  1.00  0.00     0.005 C 
ATOM     16  C   UNL     1     136.897 131.415 135.949  1.00  0.00     0.003 C 
ATOM     17  C   UNL     1     138.336 132.037 136.072  1.00  0.00    -0.025 C 
ATOM     18  C   UNL     1     138.514 133.030 134.851  1.00  0.00     0.010 C 
ATOM     19  C   UNL     1     137.688 132.727 133.579  1.00  0.00     0.033 C 
ATOM     20  C   UNL     1     137.373 131.249 133.372  1.00  0.00     0.120 C 
ATOM     21  C   UNL     1     136.563 130.654 134.585  1.00  0.00    -0.006 C 
ATOM     22  C   UNL     1     136.863 129.133 134.666  1.00  0.00     0.014 C 
ATOM     23  C   UNL     1     135.038 130.802 134.307  1.00  0.00     0.014 C 
ATOM     24  C   UNL     1     139.442 130.936 135.924  1.00  0.00     0.012 C 
ATOM     25  C   UNL     1     138.656 131.062 139.407  1.00  0.00     0.012 C 
ATOM     26  C   UNL     1     139.013 134.967 141.318  1.00  0.00     0.022 C 
ATOM     27  C   UNL     1     139.902 136.235 141.303  1.00  0.00     0.015 C 
ATOM     28  C   UNL     1     136.183 134.147 139.673  1.00  0.00     0.017 C 
ATOM     29  C   UNL     1     140.975 133.351 141.668  1.00  0.00     0.012 C 
ATOM     30  C   UNL     1     141.250 137.888 142.636  1.00  0.00     0.011 C 
ENDROOT
BRANCH  20  31
ATOM     31  O   UNL     1     136.670 131.120 132.159  1.00  0.00    -0.393 OA
ATOM     32  H   UNL     1     135.707 131.259 132.361  1.00  0.00     0.210 HD
ENDBRANCH  20  31
TORSDOF 1
ENDMDL
MODEL 6
REMARK VINA RESULT:    -6.355      9.119     11.941
REMARK INTER + INTRA:          -6.540
REMARK INTER:                  -6.540
REMARK INTRA:                   0.000
REMARK UNBOUND:                 0.000
REMARK SMILES CC1(C)CC[C@@]2(C)CC[C@@]3(C)C(=CC[C@@H]4[C@]5(C)CC[C@H](O)C(C)(C)[C@H]5CC[C@@]43C)[C@@H]2C1
REMARK SMILES IDX 1 1 2 2 4 3 5 4 6 5 8 6 9 7 10 8 12 9 13 10 14 11 15 12
REMARK SMILES IDX 28 13 27 14 26 15 25 16 16 17 18 18 19 19 20 20 22 21 23 22
REMARK SMILES IDX 24 23 17 24 29 25 30 26 31 27 11 28 7 29 3 30 21 31
REMARK H PARENT 21 32
REMARK Flexibility Score: inf
ROOT
ATOM      1  C   UNL     1     132.719 122.125 135.167  1.00  0.00     0.011 C 
ATOM      2  C   UNL     1     131.596 123.180 135.312  1.00  0.00    -0.035 C 
ATOM      3  C   UNL     1     130.314 122.704 134.571  1.00  0.00     0.007 C 
ATOM      4  C   UNL     1     129.537 121.597 135.315  1.00  0.00     0.008 C 
ATOM      5  C   UNL     1     129.216 121.945 136.797  1.00  0.00    -0.026 C 
ATOM      6  C   UNL     1     128.545 120.702 137.493  1.00  0.00     0.008 C 
ATOM      7  C   UNL     1     129.303 120.130 138.723  1.00  0.00     0.012 C 
ATOM      8  C   UNL     1     129.859 121.184 139.765  1.00  0.00    -0.006 C 
ATOM      9  C   UNL     1     130.315 122.433 139.011  1.00  0.00    -0.064 C 
ATOM     10  C   UNL     1     130.599 123.554 139.695  1.00  0.00    -0.027 C 
ATOM     11  C   UNL     1     130.409 123.623 141.179  1.00  0.00     0.032 C 
ATOM     12  C   UNL     1     129.049 123.014 141.601  1.00  0.00     0.006 C 
ATOM     13  C   UNL     1     128.798 121.554 140.954  1.00  0.00    -0.020 C 
ATOM     14  C   UNL     1     128.828 120.429 142.036  1.00  0.00     0.008 C 
ATOM     15  C   UNL     1     128.046 120.755 143.297  1.00  0.00     0.005 C 
ATOM     16  C   UNL     1     128.690 121.957 144.014  1.00  0.00     0.003 C 
ATOM     17  C   UNL     1     128.608 123.268 143.151  1.00  0.00    -0.025 C 
ATOM     18  C   UNL     1     129.510 124.351 143.874  1.00  0.00     0.010 C 
ATOM     19  C   UNL     1     129.694 124.198 145.402  1.00  0.00     0.033 C 
ATOM     20  C   UNL     1     128.524 123.526 146.111  1.00  0.00     0.120 C 
ATOM     21  C   UNL     1     128.255 122.081 145.545  1.00  0.00    -0.006 C 
ATOM     22  C   UNL     1     126.755 121.747 145.765  1.00  0.00     0.014 C 
ATOM     23  C   UNL     1     129.076 121.044 146.369  1.00  0.00     0.014 C 
ATOM     24  C   UNL     1     127.149 123.839 143.128  1.00  0.00     0.012 C 
ATOM     25  C   UNL     1     127.347 121.569 140.377  1.00  0.00     0.012 C 
ATOM     26  C   UNL     1     130.549 122.304 137.506  1.00  0.00     0.022 C 
ATOM     27  C   UNL     1     131.297 123.470 136.813  1.00  0.00     0.015 C 
ATOM     28  C   UNL     1     131.175 120.543 140.315  1.00  0.00     0.017 C 
ATOM     29  C   UNL     1     128.216 123.138 136.840  1.00  0.00     0.012 C 
ATOM     30  C   UNL     1     132.089 124.486 134.653  1.00  0.00     0.011 C 
ENDROOT
BRANCH  20  31
ATOM     31  O   UNL     1     128.806 123.504 147.491  1.00  0.00    -0.393 OA
ATOM     32  H   UNL     1     127.938 123.427 147.968  1.00  0.00     0.210 HD
ENDBRANCH  20  31
TORSDOF 1
ENDMDL
MODEL 7
REMARK VINA RESULT:    -6.316      3.431      5.257
REMARK INTER + INTRA:          -6.501
REMARK INTER:                  -6.501
REMARK INTRA:                   0.000
REMARK UNBOUND:                 0.000
REMARK SMILES CC1(C)CC[C@@]2(C)CC[C@@]3(C)C(=CC[C@@H]4[C@]5(C)CC[C@H](O)C(C)(C)[C@H]5CC[C@@]43C)[C@@H]2C1
REMARK SMILES IDX 1 1 2 2 4 3 5 4 6 5 8 6 9 7 10 8 12 9 13 10 14 11 15 12
REMARK SMILES IDX 28 13 27 14 26 15 25 16 16 17 18 18 19 19 20 20 22 21 23 22
REMARK SMILES IDX 24 23 17 24 29 25 30 26 31 27 11 28 7 29 3 30 21 31
REMARK H PARENT 21 32
REMARK Flexibility Score: inf
ROOT
ATOM      1  C   UNL     1     140.050 130.936 134.022  1.00  0.00     0.011 C 
ATOM      2  C   UNL     1     139.071 132.130 133.918  1.00  0.00    -0.035 C 
ATOM      3  C   UNL     1     137.626 131.618 133.655  1.00  0.00     0.007 C 
ATOM      4  C   UNL     1     136.943 131.009 134.898  1.00  0.00     0.008 C 
ATOM      5  C   UNL     1     136.976 131.935 136.148  1.00  0.00    -0.026 C 
ATOM      6  C   UNL     1     136.375 131.167 137.384  1.00  0.00     0.008 C 
ATOM      7  C   UNL     1     137.333 130.989 138.595  1.00  0.00     0.012 C 
ATOM      8  C   UNL     1     138.181 132.256 139.019  1.00  0.00    -0.006 C 
ATOM      9  C   UNL     1     138.561 133.042 137.764  1.00  0.00    -0.064 C 
ATOM     10  C   UNL     1     139.073 134.278 137.884  1.00  0.00    -0.027 C 
ATOM     11  C   UNL     1     139.212 134.930 139.226  1.00  0.00     0.032 C 
ATOM     12  C   UNL     1     137.931 134.746 140.076  1.00  0.00     0.006 C 
ATOM     13  C   UNL     1     137.433 133.209 140.120  1.00  0.00    -0.020 C 
ATOM     14  C   UNL     1     137.606 132.584 141.540  1.00  0.00     0.008 C 
ATOM     15  C   UNL     1     137.143 133.479 142.676  1.00  0.00     0.005 C 
ATOM     16  C   UNL     1     138.018 134.745 142.733  1.00  0.00     0.003 C 
ATOM     17  C   UNL     1     137.855 135.631 141.445  1.00  0.00    -0.025 C 
ATOM     18  C   UNL     1     138.975 136.750 141.513  1.00  0.00     0.010 C 
ATOM     19  C   UNL     1     139.470 137.157 142.920  1.00  0.00     0.033 C 
ATOM     20  C   UNL     1     138.430 136.994 144.023  1.00  0.00     0.120 C 
ATOM     21  C   UNL     1     137.934 135.504 144.137  1.00  0.00    -0.006 C 
ATOM     22  C   UNL     1     136.494 135.517 144.719  1.00  0.00     0.014 C 
ATOM     23  C   UNL     1     138.829 134.738 145.156  1.00  0.00     0.014 C 
ATOM     24  C   UNL     1     136.475 136.373 141.439  1.00  0.00     0.012 C 
ATOM     25  C   UNL     1     135.898 133.233 139.836  1.00  0.00     0.012 C 
ATOM     26  C   UNL     1     138.455 132.321 136.421  1.00  0.00     0.022 C 
ATOM     27  C   UNL     1     139.126 133.007 135.205  1.00  0.00     0.015 C 
ATOM     28  C   UNL     1     139.530 131.672 139.552  1.00  0.00     0.017 C 
ATOM     29  C   UNL     1     136.106 133.197 135.875  1.00  0.00     0.012 C 
ATOM     30  C   UNL     1     139.512 132.997 132.720  1.00  0.00     0.011 C 
ENDROOT
BRANCH  20  31
ATOM     31  O   UNL     1     139.000 137.449 145.228  1.00  0.00    -0.393 OA
ATOM     32  H   UNL     1     139.937 137.118 145.255  1.00  0.00     0.210 HD
ENDBRANCH  20  31
TORSDOF 1
ENDMDL
MODEL 8
REMARK VINA RESULT:    -6.281      7.403      9.803
REMARK INTER + INTRA:          -6.464
REMARK INTER:                  -6.464
REMARK INTRA:                   0.000
REMARK UNBOUND:                 0.000
REMARK SMILES CC1(C)CC[C@@]2(C)CC[C@@]3(C)C(=CC[C@@H]4[C@]5(C)CC[C@H](O)C(C)(C)[C@H]5CC[C@@]43C)[C@@H]2C1
REMARK SMILES IDX 1 1 2 2 4 3 5 4 6 5 8 6 9 7 10 8 12 9 13 10 14 11 15 12
REMARK SMILES IDX 28 13 27 14 26 15 25 16 16 17 18 18 19 19 20 20 22 21 23 22
REMARK SMILES IDX 24 23 17 24 29 25 30 26 31 27 11 28 7 29 3 30 21 31
REMARK H PARENT 21 32
REMARK Flexibility Score: inf
ROOT
ATOM      1  C   UNL     1     130.476 123.346 135.637  1.00  0.00     0.011 C 
ATOM      2  C   UNL     1     131.667 124.034 136.346  1.00  0.00    -0.035 C 
ATOM      3  C   UNL     1     131.829 125.492 135.831  1.00  0.00     0.007 C 
ATOM      4  C   UNL     1     130.776 126.472 136.388  1.00  0.00     0.008 C 
ATOM      5  C   UNL     1     130.657 126.450 137.939  1.00  0.00    -0.026 C 
ATOM      6  C   UNL     1     129.469 127.382 138.387  1.00  0.00     0.008 C 
ATOM      7  C   UNL     1     128.329 126.683 139.179  1.00  0.00     0.012 C 
ATOM      8  C   UNL     1     128.771 125.674 140.315  1.00  0.00    -0.006 C 
ATOM      9  C   UNL     1     130.041 124.949 139.867  1.00  0.00    -0.064 C 
ATOM     10  C   UNL     1     130.738 124.223 140.756  1.00  0.00    -0.027 C 
ATOM     11  C   UNL     1     130.334 124.167 142.197  1.00  0.00     0.032 C 
ATOM     12  C   UNL     1     129.992 125.577 142.739  1.00  0.00     0.006 C 
ATOM     13  C   UNL     1     128.967 126.377 141.779  1.00  0.00    -0.020 C 
ATOM     14  C   UNL     1     127.569 126.561 142.450  1.00  0.00     0.008 C 
ATOM     15  C   UNL     1     127.628 127.007 143.901  1.00  0.00     0.005 C 
ATOM     16  C   UNL     1     128.294 125.913 144.757  1.00  0.00     0.003 C 
ATOM     17  C   UNL     1     129.797 125.687 144.356  1.00  0.00    -0.025 C 
ATOM     18  C   UNL     1     130.286 124.389 145.121  1.00  0.00     0.010 C 
ATOM     19  C   UNL     1     129.569 124.050 146.448  1.00  0.00     0.033 C 
ATOM     20  C   UNL     1     129.021 125.262 147.194  1.00  0.00     0.120 C 
ATOM     21  C   UNL     1     127.986 126.062 146.317  1.00  0.00    -0.006 C 
ATOM     22  C   UNL     1     127.998 127.543 146.785  1.00  0.00     0.014 C 
ATOM     23  C   UNL     1     126.552 125.514 146.583  1.00  0.00     0.014 C 
ATOM     24  C   UNL     1     130.698 126.870 144.850  1.00  0.00     0.012 C 
ATOM     25  C   UNL     1     129.558 127.811 141.598  1.00  0.00     0.012 C 
ATOM     26  C   UNL     1     130.387 124.985 138.379  1.00  0.00     0.022 C 
ATOM     27  C   UNL     1     131.484 124.006 137.893  1.00  0.00     0.015 C 
ATOM     28  C   UNL     1     127.661 124.573 140.324  1.00  0.00     0.017 C 
ATOM     29  C   UNL     1     131.977 126.991 138.563  1.00  0.00     0.012 C 
ATOM     30  C   UNL     1     132.945 123.242 135.994  1.00  0.00     0.011 C 
ENDROOT
BRANCH  20  31
ATOM     31  O   UNL     1     128.447 124.810 148.398  1.00  0.00    -0.393 OA
ATOM     32  H   UNL     1     127.642 124.278 148.160  1.00  0.00     0.210 HD
ENDBRANCH  20  31
TORSDOF 1
ENDMDL
MODEL 9
REMARK VINA RESULT:    -6.213      7.547      9.930
REMARK INTER + INTRA:          -6.395
REMARK INTER:                  -6.395
REMARK INTRA:                   0.000
REMARK UNBOUND:                 0.000
REMARK SMILES CC1(C)CC[C@@]2(C)CC[C@@]3(C)C(=CC[C@@H]4[C@]5(C)CC[C@H](O)C(C)(C)[C@H]5CC[C@@]43C)[C@@H]2C1
REMARK SMILES IDX 1 1 2 2 4 3 5 4 6 5 8 6 9 7 10 8 12 9 13 10 14 11 15 12
REMARK SMILES IDX 28 13 27 14 26 15 25 16 16 17 18 18 19 19 20 20 22 21 23 22
REMARK SMILES IDX 24 23 17 24 29 25 30 26 31 27 11 28 7 29 3 30 21 31
REMARK H PARENT 21 32
REMARK Flexibility Score: inf
ROOT
ATOM      1  C   UNL     1     130.776 126.055 135.537  1.00  0.00     0.011 C 
ATOM      2  C   UNL     1     129.892 127.162 136.161  1.00  0.00    -0.035 C 
ATOM      3  C   UNL     1     128.387 126.829 135.950  1.00  0.00     0.007 C 
ATOM      4  C   UNL     1     127.858 125.715 136.878  1.00  0.00     0.008 C 
ATOM      5  C   UNL     1     128.158 125.958 138.384  1.00  0.00    -0.026 C 
ATOM      6  C   UNL     1     127.696 124.705 139.219  1.00  0.00     0.008 C 
ATOM      7  C   UNL     1     128.812 123.987 140.027  1.00  0.00     0.012 C 
ATOM      8  C   UNL     1     129.816 124.914 140.827  1.00  0.00    -0.006 C 
ATOM      9  C   UNL     1     130.059 126.191 140.022  1.00  0.00    -0.064 C 
ATOM     10  C   UNL     1     130.681 127.231 140.601  1.00  0.00    -0.027 C 
ATOM     11  C   UNL     1     131.079 127.189 142.044  1.00  0.00     0.032 C 
ATOM     12  C   UNL     1     129.935 126.633 142.927  1.00  0.00     0.006 C 
ATOM     13  C   UNL     1     129.327 125.250 142.352  1.00  0.00    -0.020 C 
ATOM     14  C   UNL     1     129.666 124.039 143.277  1.00  0.00     0.008 C 
ATOM     15  C   UNL     1     129.458 124.307 144.757  1.00  0.00     0.005 C 
ATOM     16  C   UNL     1     130.431 125.403 145.231  1.00  0.00     0.003 C 
ATOM     17  C   UNL     1     130.143 126.784 144.538  1.00  0.00    -0.025 C 
ATOM     18  C   UNL     1     131.346 127.745 144.912  1.00  0.00     0.010 C 
ATOM     19  C   UNL     1     132.085 127.455 146.239  1.00  0.00     0.033 C 
ATOM     20  C   UNL     1     131.219 126.801 147.309  1.00  0.00     0.120 C 
ATOM     21  C   UNL     1     130.627 125.427 146.816  1.00  0.00    -0.006 C 
ATOM     22  C   UNL     1     129.301 125.169 147.582  1.00  0.00     0.014 C 
ATOM     23  C   UNL     1     131.604 124.277 147.202  1.00  0.00     0.014 C 
ATOM     24  C   UNL     1     128.843 127.445 145.112  1.00  0.00     0.012 C 
ATOM     25  C   UNL     1     127.773 125.403 142.383  1.00  0.00     0.012 C 
ATOM     26  C   UNL     1     129.688 126.173 138.540  1.00  0.00     0.022 C 
ATOM     27  C   UNL     1     130.215 127.344 137.674  1.00  0.00     0.015 C 
ATOM     28  C   UNL     1     131.179 124.150 140.791  1.00  0.00     0.017 C 
ATOM     29  C   UNL     1     127.362 127.203 138.873  1.00  0.00     0.012 C 
ATOM     30  C   UNL     1     130.211 128.485 135.432  1.00  0.00     0.011 C 
ENDROOT
BRANCH  20  31
ATOM     31  O   UNL     1     132.003 126.646 148.469  1.00  0.00    -0.393 OA
ATOM     32  H   UNL     1     132.216 127.557 148.805  1.00  0.00     0.210 HD
ENDBRANCH  20  31
TORSDOF 1
ENDMDL
