MODEL 1
REMARK VINA RESULT:    -4.815      0.000      0.000
REMARK INTER + INTRA:          -9.074
REMARK INTER:                  -8.193
REMARK INTRA:                  -0.881
REMARK UNBOUND:                -0.881
REMARK SMILES CCCCCCCCCCCCCC(=O)[O-]
REMARK SMILES IDX 8 1 9 2 10 3 11 4 12 5 13 6 14 7 15 8 16 9 7 10 6 11 5 12
REMARK SMILES IDX 4 13 3 14 2 15 1 16
REMARK H PARENT
REMARK Flexibility Score: inf
ROOT
ATOM      1  C   UNL     1       4.914 -12.948   3.836  1.00  0.00     0.000 C 
ENDROOT
BRANCH   1   2
ATOM      2  C   UNL     1       4.670 -14.024   4.909  1.00  0.00     0.000 C 
BRANCH   2   3
ATOM      3  C   UNL     1       4.764 -13.463   6.337  1.00  0.00     0.000 C 
BRANCH   3   4
ATOM      4  C   UNL     1       5.930 -12.474   6.507  1.00  0.00     0.000 C 
BRANCH   4   5
ATOM      5  C   UNL     1       5.500 -11.163   7.184  1.00  0.00     0.006 C 
BRANCH   5   6
ATOM      6  C   UNL     1       4.019 -10.838   6.950  1.00  0.00     0.053 C 
BRANCH   6   7
ATOM      7  C   UNL     1       3.848  -9.384   6.638  1.00  0.00     0.041 C 
ATOM      8  O   UNL     1       4.851  -8.623   6.597  1.00  0.00    -0.550 OA
ATOM      9  O   UNL     1       2.588  -8.880   6.344  1.00  0.00    -0.550 OA
ENDBRANCH   6   7
ENDBRANCH   5   6
ENDBRANCH   4   5
ENDBRANCH   3   4
ENDBRANCH   2   3
ENDBRANCH   1   2
BRANCH   1  10
ATOM     10  C   UNL     1       4.226 -13.276   2.502  1.00  0.00     0.000 C 
BRANCH  10  11
ATOM     11  C   UNL     1       4.591 -12.278   1.389  1.00  0.00    -0.000 C 
BRANCH  11  12
ATOM     12  C   UNL     1       5.320 -12.946   0.212  1.00  0.00    -0.000 C 
BRANCH  12  13
ATOM     13  C   UNL     1       6.757 -12.432   0.035  1.00  0.00    -0.000 C 
BRANCH  13  14
ATOM     14  C   UNL     1       7.675 -12.982   1.133  1.00  0.00    -0.000 C 
BRANCH  14  15
ATOM     15  C   UNL     1       8.760 -13.888   0.540  1.00  0.00    -0.003 C 
ATOM     16  C   UNL     1       8.236 -15.304   0.318  1.00  0.00     0.004 C 
ENDBRANCH  14  15
ENDBRANCH  13  14
ENDBRANCH  12  13
ENDBRANCH  11  12
ENDBRANCH  10  11
ENDBRANCH   1  10
TORSDOF 12
ENDMDL
MODEL 2
REMARK VINA RESULT:    -4.794      0.963      1.135
REMARK INTER + INTRA:          -9.037
REMARK INTER:                  -8.155
REMARK INTRA:                  -0.883
REMARK UNBOUND:                -0.881
REMARK SMILES CCCCCCCCCCCCCC(=O)[O-]
REMARK SMILES IDX 8 1 9 2 10 3 11 4 12 5 13 6 14 7 15 8 16 9 7 10 6 11 5 12
REMARK SMILES IDX 4 13 3 14 2 15 1 16
REMARK H PARENT
REMARK Flexibility Score: inf
ROOT
ATOM      1  C   UNL     1       3.700 -14.105   4.353  1.00  0.00     0.000 C 
ENDROOT
BRANCH   1   2
ATOM      2  C   UNL     1       5.070 -13.816   4.994  1.00  0.00     0.000 C 
BRANCH   2   3
ATOM      3  C   UNL     1       4.954 -13.417   6.474  1.00  0.00     0.000 C 
BRANCH   3   4
ATOM      4  C   UNL     1       5.989 -12.353   6.881  1.00  0.00     0.000 C 
BRANCH   4   5
ATOM      5  C   UNL     1       5.341 -11.011   7.256  1.00  0.00     0.006 C 
BRANCH   5   6
ATOM      6  C   UNL     1       3.893 -10.898   6.762  1.00  0.00     0.053 C 
BRANCH   6   7
ATOM      7  C   UNL     1       3.823 -10.026   5.548  1.00  0.00     0.041 C 
ATOM      8  O   UNL     1       4.461  -8.941   5.510  1.00  0.00    -0.550 OA
ATOM      9  O   UNL     1       3.093 -10.434   4.440  1.00  0.00    -0.550 OA
ENDBRANCH   6   7
ENDBRANCH   5   6
ENDBRANCH   4   5
ENDBRANCH   3   4
ENDBRANCH   2   3
ENDBRANCH   1   2
BRANCH   1  10
ATOM     10  C   UNL     1       3.642 -13.698   2.872  1.00  0.00     0.000 C 
BRANCH  10  11
ATOM     11  C   UNL     1       5.019 -13.291   2.318  1.00  0.00    -0.000 C 
BRANCH  11  12
ATOM     12  C   UNL     1       4.913 -12.387   1.079  1.00  0.00    -0.000 C 
BRANCH  12  13
ATOM     13  C   UNL     1       6.163 -12.452   0.188  1.00  0.00    -0.000 C 
BRANCH  13  14
ATOM     14  C   UNL     1       7.373 -12.967   0.976  1.00  0.00    -0.000 C 
BRANCH  14  15
ATOM     15  C   UNL     1       7.849 -14.320   0.432  1.00  0.00    -0.003 C 
ATOM     16  C   UNL     1       9.369 -14.358   0.302  1.00  0.00     0.004 C 
ENDBRANCH  14  15
ENDBRANCH  13  14
ENDBRANCH  12  13
ENDBRANCH  11  12
ENDBRANCH  10  11
ENDBRANCH   1  10
TORSDOF 12
ENDMDL
MODEL 3
REMARK VINA RESULT:    -4.765      3.498      6.985
REMARK INTER + INTRA:          -8.989
REMARK INTER:                  -7.754
REMARK INTRA:                  -1.235
REMARK UNBOUND:                -0.881
REMARK SMILES CCCCCCCCCCCCCC(=O)[O-]
REMARK SMILES IDX 8 1 9 2 10 3 11 4 12 5 13 6 14 7 15 8 16 9 7 10 6 11 5 12
REMARK SMILES IDX 4 13 3 14 2 15 1 16
REMARK H PARENT
REMARK Flexibility Score: inf
ROOT
ATOM      1  C   UNL     1       4.918 -13.154   3.883  1.00  0.00     0.000 C 
ENDROOT
BRANCH   1   2
ATOM      2  C   UNL     1       3.772 -12.427   3.155  1.00  0.00     0.000 C 
BRANCH   2   3
ATOM      3  C   UNL     1       4.200 -11.880   1.783  1.00  0.00     0.000 C 
BRANCH   3   4
ATOM      4  C   UNL     1       4.717 -12.984   0.844  1.00  0.00     0.000 C 
BRANCH   4   5
ATOM      5  C   UNL     1       6.028 -12.596   0.142  1.00  0.00     0.006 C 
BRANCH   5   6
ATOM      6  C   UNL     1       7.267 -12.912   0.989  1.00  0.00     0.053 C 
BRANCH   6   7
ATOM      7  C   UNL     1       8.144 -13.898   0.282  1.00  0.00     0.041 C 
ATOM      8  O   UNL     1       9.273 -14.193   0.755  1.00  0.00    -0.550 OA
ATOM      9  O   UNL     1       7.694 -14.526  -0.871  1.00  0.00    -0.550 OA
ENDBRANCH   6   7
ENDBRANCH   5   6
ENDBRANCH   4   5
ENDBRANCH   3   4
ENDBRANCH   2   3
ENDBRANCH   1   2
BRANCH   1  10
ATOM     10  C   UNL     1       4.420 -14.031   5.042  1.00  0.00     0.000 C 
BRANCH  10  11
ATOM     11  C   UNL     1       4.867 -13.502   6.416  1.00  0.00    -0.000 C 
BRANCH  11  12
ATOM     12  C   UNL     1       5.804 -12.290   6.306  1.00  0.00    -0.000 C 
BRANCH  12  13
ATOM     13  C   UNL     1       5.352 -11.108   7.177  1.00  0.00    -0.000 C 
BRANCH  13  14
ATOM     14  C   UNL     1       3.907 -10.710   6.855  1.00  0.00    -0.000 C 
BRANCH  14  15
ATOM     15  C   UNL     1       3.858  -9.701   5.702  1.00  0.00    -0.003 C 
ATOM     16  C   UNL     1       4.596  -8.415   6.062  1.00  0.00     0.004 C 
ENDBRANCH  14  15
ENDBRANCH  13  14
ENDBRANCH  12  13
ENDBRANCH  11  12
ENDBRANCH  10  11
ENDBRANCH   1  10
TORSDOF 12
ENDMDL
MODEL 4
REMARK VINA RESULT:    -4.652      1.393      2.322
REMARK INTER + INTRA:          -8.797
REMARK INTER:                  -7.565
REMARK INTRA:                  -1.231
REMARK UNBOUND:                -0.881
REMARK SMILES CCCCCCCCCCCCCC(=O)[O-]
REMARK SMILES IDX 8 1 9 2 10 3 11 4 12 5 13 6 14 7 15 8 16 9 7 10 6 11 5 12
REMARK SMILES IDX 4 13 3 14 2 15 1 16
REMARK H PARENT
REMARK Flexibility Score: inf
ROOT
ATOM      1  C   UNL     1       5.002 -13.774   4.917  1.00  0.00     0.000 C 
ENDROOT
BRANCH   1   2
ATOM      2  C   UNL     1       4.841 -13.430   6.409  1.00  0.00     0.000 C 
BRANCH   2   3
ATOM      3  C   UNL     1       5.894 -12.423   6.898  1.00  0.00     0.000 C 
BRANCH   3   4
ATOM      4  C   UNL     1       5.347 -10.987   6.972  1.00  0.00     0.000 C 
BRANCH   4   5
ATOM      5  C   UNL     1       3.821 -10.926   6.808  1.00  0.00     0.006 C 
BRANCH   5   6
ATOM      6  C   UNL     1       3.279  -9.492   6.863  1.00  0.00     0.053 C 
BRANCH   6   7
ATOM      7  C   UNL     1       3.600  -8.765   5.594  1.00  0.00     0.041 C 
ATOM      8  O   UNL     1       4.568  -7.961   5.554  1.00  0.00    -0.550 OA
ATOM      9  O   UNL     1       2.861  -9.013   4.445  1.00  0.00    -0.550 OA
ENDBRANCH   6   7
ENDBRANCH   5   6
ENDBRANCH   4   5
ENDBRANCH   3   4
ENDBRANCH   2   3
ENDBRANCH   1   2
BRANCH   1  10
ATOM     10  C   UNL     1       3.751 -14.440   4.323  1.00  0.00     0.000 C 
BRANCH  10  11
ATOM     11  C   UNL     1       3.055 -13.558   3.272  1.00  0.00    -0.000 C 
BRANCH  11  12
ATOM     12  C   UNL     1       3.663 -12.150   3.186  1.00  0.00    -0.000 C 
BRANCH  12  13
ATOM     13  C   UNL     1       4.116 -11.784   1.764  1.00  0.00    -0.000 C 
BRANCH  13  14
ATOM     14  C   UNL     1       4.530 -13.035   0.981  1.00  0.00    -0.000 C 
BRANCH  14  15
ATOM     15  C   UNL     1       6.052 -13.222   1.006  1.00  0.00    -0.003 C 
ATOM     16  C   UNL     1       6.733 -12.344  -0.040  1.00  0.00     0.004 C 
ENDBRANCH  14  15
ENDBRANCH  13  14
ENDBRANCH  12  13
ENDBRANCH  11  12
ENDBRANCH  10  11
ENDBRANCH   1  10
TORSDOF 12
ENDMDL
MODEL 5
REMARK VINA RESULT:    -4.588      1.608      2.552
REMARK INTER + INTRA:          -8.687
REMARK INTER:                  -7.425
REMARK INTRA:                  -1.263
REMARK UNBOUND:                -0.881
REMARK SMILES CCCCCCCCCCCCCC(=O)[O-]
REMARK SMILES IDX 8 1 9 2 10 3 11 4 12 5 13 6 14 7 15 8 16 9 7 10 6 11 5 12
REMARK SMILES IDX 4 13 3 14 2 15 1 16
REMARK H PARENT
REMARK Flexibility Score: inf
ROOT
ATOM      1  C   UNL     1       2.496 -13.232   2.217  1.00  0.00     0.000 C 
ENDROOT
BRANCH   1   2
ATOM      2  C   UNL     1       2.355 -13.569   3.713  1.00  0.00     0.000 C 
BRANCH   2   3
ATOM      3  C   UNL     1       3.311 -14.687   4.157  1.00  0.00     0.000 C 
BRANCH   3   4
ATOM      4  C   UNL     1       4.771 -14.211   4.253  1.00  0.00     0.000 C 
BRANCH   4   5
ATOM      5  C   UNL     1       4.917 -12.909   5.056  1.00  0.00     0.006 C 
BRANCH   5   6
ATOM      6  C   UNL     1       5.299 -13.159   6.520  1.00  0.00     0.053 C 
BRANCH   6   7
ATOM      7  C   UNL     1       5.686 -11.874   7.184  1.00  0.00     0.041 C 
ATOM      8  O   UNL     1       4.865 -10.923   7.249  1.00  0.00    -0.550 OA
ATOM      9  O   UNL     1       6.936 -11.747   7.774  1.00  0.00    -0.550 OA
ENDBRANCH   6   7
ENDBRANCH   5   6
ENDBRANCH   4   5
ENDBRANCH   3   4
ENDBRANCH   2   3
ENDBRANCH   1   2
BRANCH   1  10
ATOM     10  C   UNL     1       3.048 -11.819   1.978  1.00  0.00     0.000 C 
BRANCH  10  11
ATOM     11  C   UNL     1       4.213 -11.803   0.971  1.00  0.00    -0.000 C 
BRANCH  11  12
ATOM     12  C   UNL     1       4.396 -13.152   0.259  1.00  0.00    -0.000 C 
BRANCH  12  13
ATOM     13  C   UNL     1       5.802 -13.740   0.454  1.00  0.00    -0.000 C 
BRANCH  13  14
ATOM     14  C   UNL     1       6.873 -12.647   0.356  1.00  0.00    -0.000 C 
BRANCH  14  15
ATOM     15  C   UNL     1       8.232 -13.162   0.843  1.00  0.00    -0.003 C 
ATOM     16  C   UNL     1       8.522 -14.556   0.294  1.00  0.00     0.004 C 
ENDBRANCH  14  15
ENDBRANCH  13  14
ENDBRANCH  12  13
ENDBRANCH  11  12
ENDBRANCH  10  11
ENDBRANCH   1  10
TORSDOF 12
ENDMDL
MODEL 6
REMARK VINA RESULT:    -4.552      3.946      7.026
REMARK INTER + INTRA:          -8.625
REMARK INTER:                  -7.525
REMARK INTRA:                  -1.101
REMARK UNBOUND:                -0.881
REMARK SMILES CCCCCCCCCCCCCC(=O)[O-]
REMARK SMILES IDX 8 1 9 2 10 3 11 4 12 5 13 6 14 7 15 8 16 9 7 10 6 11 5 12
REMARK SMILES IDX 4 13 3 14 2 15 1 16
REMARK H PARENT
REMARK Flexibility Score: inf
ROOT
ATOM      1  C   UNL     1       3.421 -12.616   1.768  1.00  0.00     0.000 C 
ENDROOT
BRANCH   1   2
ATOM      2  C   UNL     1       4.500 -11.858   0.974  1.00  0.00     0.000 C 
BRANCH   2   3
ATOM      3  C   UNL     1       5.465 -12.804   0.241  1.00  0.00     0.000 C 
BRANCH   3   4
ATOM      4  C   UNL     1       6.586 -13.328   1.156  1.00  0.00     0.000 C 
BRANCH   4   5
ATOM      5  C   UNL     1       7.986 -12.928   0.664  1.00  0.00     0.006 C 
BRANCH   5   6
ATOM      6  C   UNL     1       8.963 -14.110   0.644  1.00  0.00     0.053 C 
BRANCH   6   7
ATOM      7  C   UNL     1       8.436 -15.208  -0.226  1.00  0.00     0.041 C 
ATOM      8  O   UNL     1       8.248 -16.358   0.249  1.00  0.00    -0.550 OA
ATOM      9  O   UNL     1       8.106 -14.947  -1.550  1.00  0.00    -0.550 OA
ENDBRANCH   6   7
ENDBRANCH   5   6
ENDBRANCH   4   5
ENDBRANCH   3   4
ENDBRANCH   2   3
ENDBRANCH   1   2
BRANCH   1  10
ATOM     10  C   UNL     1       3.174 -12.010   3.158  1.00  0.00     0.000 C 
BRANCH  10  11
ATOM     11  C   UNL     1       2.735 -13.063   4.191  1.00  0.00    -0.000 C 
BRANCH  11  12
ATOM     12  C   UNL     1       3.748 -14.209   4.333  1.00  0.00    -0.000 C 
BRANCH  12  13
ATOM     13  C   UNL     1       5.093 -13.746   4.913  1.00  0.00    -0.000 C 
BRANCH  13  14
ATOM     14  C   UNL     1       4.993 -13.535   6.429  1.00  0.00    -0.000 C 
BRANCH  14  15
ATOM     15  C   UNL     1       5.806 -12.312   6.869  1.00  0.00    -0.003 C 
ATOM     16  C   UNL     1       4.913 -11.084   7.028  1.00  0.00     0.004 C 
ENDBRANCH  14  15
ENDBRANCH  13  14
ENDBRANCH  12  13
ENDBRANCH  11  12
ENDBRANCH  10  11
ENDBRANCH   1  10
TORSDOF 12
ENDMDL
MODEL 7
REMARK VINA RESULT:    -4.537      3.144      6.721
REMARK INTER + INTRA:          -8.600
REMARK INTER:                  -7.293
REMARK INTRA:                  -1.307
REMARK UNBOUND:                -0.881
REMARK SMILES CCCCCCCCCCCCCC(=O)[O-]
REMARK SMILES IDX 8 1 9 2 10 3 11 4 12 5 13 6 14 7 15 8 16 9 7 10 6 11 5 12
REMARK SMILES IDX 4 13 3 14 2 15 1 16
REMARK H PARENT
REMARK Flexibility Score: inf
ROOT
ATOM      1  C   UNL     1       4.938 -13.966   5.048  1.00  0.00     0.000 C 
ENDROOT
BRANCH   1   2
ATOM      2  C   UNL     1       3.482 -14.102   4.568  1.00  0.00     0.000 C 
BRANCH   2   3
ATOM      3  C   UNL     1       3.113 -13.055   3.504  1.00  0.00     0.000 C 
BRANCH   3   4
ATOM      4  C   UNL     1       4.347 -12.497   2.772  1.00  0.00     0.000 C 
BRANCH   4   5
ATOM      5  C   UNL     1       4.508 -13.077   1.359  1.00  0.00     0.006 C 
BRANCH   5   6
ATOM      6  C   UNL     1       5.318 -12.160   0.434  1.00  0.00     0.053 C 
BRANCH   6   7
ATOM      7  C   UNL     1       6.648 -12.775   0.124  1.00  0.00     0.041 C 
ATOM      8  O   UNL     1       7.615 -12.624   0.916  1.00  0.00    -0.550 OA
ATOM      9  O   UNL     1       6.804 -13.554  -1.014  1.00  0.00    -0.550 OA
ENDBRANCH   6   7
ENDBRANCH   5   6
ENDBRANCH   4   5
ENDBRANCH   3   4
ENDBRANCH   2   3
ENDBRANCH   1   2
BRANCH   1  10
ATOM     10  C   UNL     1       5.041 -13.405   6.476  1.00  0.00     0.000 C 
BRANCH  10  11
ATOM     11  C   UNL     1       5.650 -11.993   6.512  1.00  0.00    -0.000 C 
BRANCH  11  12
ATOM     12  C   UNL     1       4.707 -10.959   7.147  1.00  0.00    -0.000 C 
BRANCH  12  13
ATOM     13  C   UNL     1       3.489 -10.646   6.266  1.00  0.00    -0.000 C 
BRANCH  13  14
ATOM     14  C   UNL     1       3.786  -9.482   5.312  1.00  0.00    -0.000 C 
BRANCH  14  15
ATOM     15  C   UNL     1       4.582  -8.379   6.020  1.00  0.00    -0.003 C 
ATOM     16  C   UNL     1       3.669  -7.240   6.465  1.00  0.00     0.004 C 
ENDBRANCH  14  15
ENDBRANCH  13  14
ENDBRANCH  12  13
ENDBRANCH  11  12
ENDBRANCH  10  11
ENDBRANCH   1  10
TORSDOF 12
ENDMDL
MODEL 8
REMARK VINA RESULT:    -4.470      2.972      4.961
REMARK INTER + INTRA:          -8.487
REMARK INTER:                  -7.000
REMARK INTRA:                  -1.487
REMARK UNBOUND:                -0.881
REMARK SMILES CCCCCCCCCCCCCC(=O)[O-]
REMARK SMILES IDX 8 1 9 2 10 3 11 4 12 5 13 6 14 7 15 8 16 9 7 10 6 11 5 12
REMARK SMILES IDX 4 13 3 14 2 15 1 16
REMARK H PARENT
REMARK Flexibility Score: inf
ROOT
ATOM      1  C   UNL     1       2.463 -11.987   4.207  1.00  0.00     0.000 C 
ENDROOT
BRANCH   1   2
ATOM      2  C   UNL     1       2.197 -10.584   4.780  1.00  0.00     0.000 C 
BRANCH   2   3
ATOM      3  C   UNL     1       3.185  -9.533   4.247  1.00  0.00     0.000 C 
BRANCH   3   4
ATOM      4  C   UNL     1       3.929  -8.798   5.375  1.00  0.00     0.000 C 
BRANCH   4   5
ATOM      5  C   UNL     1       3.050  -8.577   6.617  1.00  0.00     0.006 C 
BRANCH   5   6
ATOM      6  C   UNL     1       2.249  -7.271   6.546  1.00  0.00     0.053 C 
BRANCH   6   7
ATOM      7  C   UNL     1       2.607  -6.377   7.692  1.00  0.00     0.041 C 
ATOM      8  O   UNL     1       1.817  -6.247   8.664  1.00  0.00    -0.550 OA
ATOM      9  O   UNL     1       3.833  -5.726   7.709  1.00  0.00    -0.550 OA
ENDBRANCH   6   7
ENDBRANCH   5   6
ENDBRANCH   4   5
ENDBRANCH   3   4
ENDBRANCH   2   3
ENDBRANCH   1   2
BRANCH   1  10
ATOM     10  C   UNL     1       3.743 -12.048   3.358  1.00  0.00     0.000 C 
BRANCH  10  11
ATOM     11  C   UNL     1       4.721 -13.132   3.842  1.00  0.00    -0.000 C 
BRANCH  11  12
ATOM     12  C   UNL     1       4.287 -13.770   5.170  1.00  0.00    -0.000 C 
BRANCH  12  13
ATOM     13  C   UNL     1       5.195 -13.375   6.344  1.00  0.00    -0.000 C 
BRANCH  13  14
ATOM     14  C   UNL     1       4.715 -12.073   6.995  1.00  0.00    -0.000 C 
BRANCH  14  15
ATOM     15  C   UNL     1       5.889 -11.124   7.260  1.00  0.00    -0.003 C 
ATOM     16  C   UNL     1       7.062 -11.862   7.899  1.00  0.00     0.004 C 
ENDBRANCH  14  15
ENDBRANCH  13  14
ENDBRANCH  12  13
ENDBRANCH  11  12
ENDBRANCH  10  11
ENDBRANCH   1  10
TORSDOF 12
ENDMDL
MODEL 9
REMARK VINA RESULT:    -4.466      2.902      4.630
REMARK INTER + INTRA:          -8.480
REMARK INTER:                  -6.917
REMARK INTRA:                  -1.563
REMARK UNBOUND:                -0.881
REMARK SMILES CCCCCCCCCCCCCC(=O)[O-]
REMARK SMILES IDX 8 1 9 2 10 3 11 4 12 5 13 6 14 7 15 8 16 9 7 10 6 11 5 12
REMARK SMILES IDX 4 13 3 14 2 15 1 16
REMARK H PARENT
REMARK Flexibility Score: inf
ROOT
ATOM      1  C   UNL     1       5.767 -12.229   6.272  1.00  0.00     0.000 C 
ENDROOT
BRANCH   1   2
ATOM      2  C   UNL     1       5.245 -11.178   7.269  1.00  0.00     0.000 C 
BRANCH   2   3
ATOM      3  C   UNL     1       3.942 -10.514   6.796  1.00  0.00     0.000 C 
BRANCH   3   4
ATOM      4  C   UNL     1       4.173  -9.513   5.650  1.00  0.00     0.000 C 
BRANCH   4   5
ATOM      5  C   UNL     1       4.344  -8.070   6.151  1.00  0.00     0.006 C 
BRANCH   5   6
ATOM      6  C   UNL     1       3.099  -7.547   6.878  1.00  0.00     0.053 C 
BRANCH   6   7
ATOM      7  C   UNL     1       3.237  -6.083   7.160  1.00  0.00     0.041 C 
ATOM      8  O   UNL     1       4.053  -5.681   8.030  1.00  0.00    -0.550 OA
ATOM      9  O   UNL     1       2.499  -5.162   6.429  1.00  0.00    -0.550 OA
ENDBRANCH   6   7
ENDBRANCH   5   6
ENDBRANCH   4   5
ENDBRANCH   3   4
ENDBRANCH   2   3
ENDBRANCH   1   2
BRANCH   1  10
ATOM     10  C   UNL     1       5.017 -13.567   6.376  1.00  0.00     0.000 C 
BRANCH  10  11
ATOM     11  C   UNL     1       4.220 -13.896   5.102  1.00  0.00    -0.000 C 
BRANCH  11  12
ATOM     12  C   UNL     1       4.784 -13.198   3.855  1.00  0.00    -0.000 C 
BRANCH  12  13
ATOM     13  C   UNL     1       3.746 -12.310   3.151  1.00  0.00    -0.000 C 
BRANCH  13  14
ATOM     14  C   UNL     1       2.347 -12.531   3.737  1.00  0.00    -0.000 C 
BRANCH  14  15
ATOM     15  C   UNL     1       1.552 -11.220   3.776  1.00  0.00    -0.003 C 
ATOM     16  C   UNL     1       2.033 -10.252   2.698  1.00  0.00     0.004 C 
ENDBRANCH  14  15
ENDBRANCH  13  14
ENDBRANCH  12  13
ENDBRANCH  11  12
ENDBRANCH  10  11
ENDBRANCH   1  10
TORSDOF 12
ENDMDL
