MODEL 1
REMARK VINA RESULT:    -3.700      0.000      0.000
REMARK INTER + INTRA:          -3.700
REMARK INTER:                  -3.700
REMARK INTRA:                   0.000
REMARK UNBOUND:                 0.000
REMARK SMILES C=C1CC[C@@H]2C[C@H]1C2(C)C
REMARK SMILES IDX 9 1 8 2 5 3 4 4 3 5 2 6 1 7 7 8 6 9 10 10
REMARK H PARENT
REMARK Flexibility Score: inf
ROOT
ATOM      1  C   UNL     1     137.823 135.089 135.752  1.00  0.00     0.012 C 
ATOM      2  C   UNL     1     138.142 133.708 136.389  1.00  0.00    -0.026 C 
ATOM      3  C   UNL     1     138.774 132.607 135.497  1.00  0.00    -0.004 C 
ATOM      4  C   UNL     1     138.196 132.660 134.047  1.00  0.00     0.008 C 
ATOM      5  C   UNL     1     136.620 132.667 134.022  1.00  0.00     0.031 C 
ATOM      6  C   UNL     1     136.016 132.791 135.429  1.00  0.00    -0.074 C 
ATOM      7  C   UNL     1     134.700 132.954 135.609  1.00  0.00     0.008 C 
ATOM      8  C   UNL     1     136.979 132.713 136.609  1.00  0.00     0.021 C 
ATOM      9  C   UNL     1     137.940 131.565 136.262  1.00  0.00     0.012 C 
ATOM     10  C   UNL     1     138.959 133.943 137.683  1.00  0.00     0.012 C 
ENDROOT
TORSDOF 0
ENDMDL
MODEL 2
REMARK VINA RESULT:    -3.696      3.543      5.346
REMARK INTER + INTRA:          -3.696
REMARK INTER:                  -3.696
REMARK INTRA:                   0.000
REMARK UNBOUND:                 0.000
REMARK SMILES C=C1CC[C@@H]2C[C@H]1C2(C)C
REMARK SMILES IDX 9 1 8 2 5 3 4 4 3 5 2 6 1 7 7 8 6 9 10 10
REMARK H PARENT
REMARK Flexibility Score: inf
ROOT
ATOM      1  C   UNL     1     135.092 134.970 135.655  1.00  0.00     0.012 C 
ATOM      2  C   UNL     1     133.745 134.611 136.341  1.00  0.00    -0.026 C 
ATOM      3  C   UNL     1     132.643 133.920 135.496  1.00  0.00    -0.004 C 
ATOM      4  C   UNL     1     132.628 134.471 134.034  1.00  0.00     0.008 C 
ATOM      5  C   UNL     1     132.573 136.045 133.980  1.00  0.00     0.031 C 
ATOM      6  C   UNL     1     132.717 136.682 135.371  1.00  0.00    -0.074 C 
ATOM      7  C   UNL     1     132.835 138.006 135.521  1.00  0.00     0.008 C 
ATOM      8  C   UNL     1     132.713 135.740 136.571  1.00  0.00     0.021 C 
ATOM      9  C   UNL     1     131.593 134.729 136.278  1.00  0.00     0.012 C 
ATOM     10  C   UNL     1     134.051 133.830 137.642  1.00  0.00     0.012 C 
ENDROOT
TORSDOF 0
ENDMDL
MODEL 3
REMARK VINA RESULT:    -3.684      4.464      6.377
REMARK INTER + INTRA:          -3.684
REMARK INTER:                  -3.684
REMARK INTRA:                   0.000
REMARK UNBOUND:                 0.000
REMARK SMILES C=C1CC[C@@H]2C[C@H]1C2(C)C
REMARK SMILES IDX 9 1 8 2 5 3 4 4 3 5 2 6 1 7 7 8 6 9 10 10
REMARK H PARENT
REMARK Flexibility Score: inf
ROOT
ATOM      1  C   UNL     1     137.410 137.158 135.658  1.00  0.00     0.012 C 
ATOM      2  C   UNL     1     137.819 138.646 135.837  1.00  0.00    -0.026 C 
ATOM      3  C   UNL     1     139.017 139.191 135.016  1.00  0.00    -0.004 C 
ATOM      4  C   UNL     1     140.134 138.108 134.867  1.00  0.00     0.008 C 
ATOM      5  C   UNL     1     140.550 137.473 136.248  1.00  0.00     0.031 C 
ATOM      6  C   UNL     1     139.647 137.938 137.400  1.00  0.00    -0.074 C 
ATOM      7  C   UNL     1     139.749 137.406 138.623  1.00  0.00     0.008 C 
ATOM      8  C   UNL     1     138.636 139.038 137.090  1.00  0.00     0.021 C 
ATOM      9  C   UNL     1     139.404 140.053 136.230  1.00  0.00     0.012 C 
ATOM     10  C   UNL     1     136.555 139.525 135.668  1.00  0.00     0.012 C 
ENDROOT
TORSDOF 0
ENDMDL
MODEL 4
REMARK VINA RESULT:    -3.646      5.509      7.250
REMARK INTER + INTRA:          -3.646
REMARK INTER:                  -3.646
REMARK INTRA:                   0.000
REMARK UNBOUND:                 0.000
REMARK SMILES C=C1CC[C@@H]2C[C@H]1C2(C)C
REMARK SMILES IDX 9 1 8 2 5 3 4 4 3 5 2 6 1 7 7 8 6 9 10 10
REMARK H PARENT
REMARK Flexibility Score: inf
ROOT
ATOM      1  C   UNL     1     135.450 137.385 136.150  1.00  0.00     0.012 C 
ATOM      2  C   UNL     1     135.686 138.884 136.484  1.00  0.00    -0.026 C 
ATOM      3  C   UNL     1     134.550 139.679 137.178  1.00  0.00    -0.004 C 
ATOM      4  C   UNL     1     133.149 139.228 136.654  1.00  0.00     0.008 C 
ATOM      5  C   UNL     1     133.058 139.240 135.080  1.00  0.00     0.031 C 
ATOM      6  C   UNL     1     134.415 139.526 134.420  1.00  0.00    -0.074 C 
ATOM      7  C   UNL     1     134.576 139.442 133.095  1.00  0.00     0.008 C 
ATOM      8  C   UNL     1     135.567 139.919 135.340  1.00  0.00     0.021 C 
ATOM      9  C   UNL     1     134.954 140.907 136.345  1.00  0.00     0.012 C 
ATOM     10  C   UNL     1     137.029 139.011 137.244  1.00  0.00     0.012 C 
ENDROOT
TORSDOF 0
ENDMDL
MODEL 5
REMARK VINA RESULT:    -3.645      5.728      7.504
REMARK INTER + INTRA:          -3.645
REMARK INTER:                  -3.645
REMARK INTRA:                   0.000
REMARK UNBOUND:                 0.000
REMARK SMILES C=C1CC[C@@H]2C[C@H]1C2(C)C
REMARK SMILES IDX 9 1 8 2 5 3 4 4 3 5 2 6 1 7 7 8 6 9 10 10
REMARK H PARENT
REMARK Flexibility Score: inf
ROOT
ATOM      1  C   UNL     1     135.860 138.228 135.241  1.00  0.00     0.012 C 
ATOM      2  C   UNL     1     134.369 138.636 135.078  1.00  0.00    -0.026 C 
ATOM      3  C   UNL     1     133.994 140.136 135.190  1.00  0.00    -0.004 C 
ATOM      4  C   UNL     1     134.864 140.853 136.272  1.00  0.00     0.008 C 
ATOM      5  C   UNL     1     134.860 140.095 137.654  1.00  0.00     0.031 C 
ATOM      6  C   UNL     1     134.142 138.740 137.572  1.00  0.00    -0.074 C 
ATOM      7  C   UNL     1     134.152 137.884 138.601  1.00  0.00     0.008 C 
ATOM      8  C   UNL     1     133.412 138.416 136.273  1.00  0.00     0.021 C 
ATOM      9  C   UNL     1     132.689 139.716 135.888  1.00  0.00     0.012 C 
ATOM     10  C   UNL     1     133.828 138.000 133.774  1.00  0.00     0.012 C 
ENDROOT
TORSDOF 0
ENDMDL
MODEL 6
REMARK VINA RESULT:    -3.635      3.376      4.935
REMARK INTER + INTRA:          -3.635
REMARK INTER:                  -3.635
REMARK INTRA:                   0.000
REMARK UNBOUND:                 0.000
REMARK SMILES C=C1CC[C@@H]2C[C@H]1C2(C)C
REMARK SMILES IDX 9 1 8 2 5 3 4 4 3 5 2 6 1 7 7 8 6 9 10 10
REMARK H PARENT
REMARK Flexibility Score: inf
ROOT
ATOM      1  C   UNL     1     134.485 135.886 135.201  1.00  0.00     0.012 C 
ATOM      2  C   UNL     1     134.075 134.394 135.057  1.00  0.00    -0.026 C 
ATOM      3  C   UNL     1     132.576 134.020 135.188  1.00  0.00    -0.004 C 
ATOM      4  C   UNL     1     131.870 134.902 136.267  1.00  0.00     0.008 C 
ATOM      5  C   UNL     1     132.641 134.911 137.641  1.00  0.00     0.031 C 
ATOM      6  C   UNL     1     133.996 134.193 137.555  1.00  0.00    -0.074 C 
ATOM      7  C   UNL     1     134.861 134.213 138.575  1.00  0.00     0.008 C 
ATOM      8  C   UNL     1     134.307 133.449 136.259  1.00  0.00     0.021 C 
ATOM      9  C   UNL     1     133.004 132.722 135.895  1.00  0.00     0.012 C 
ATOM     10  C   UNL     1     134.699 133.839 133.753  1.00  0.00     0.012 C 
ENDROOT
TORSDOF 0
ENDMDL
MODEL 7
REMARK VINA RESULT:    -3.635      5.554      7.331
REMARK INTER + INTRA:          -3.635
REMARK INTER:                  -3.635
REMARK INTRA:                   0.000
REMARK UNBOUND:                 0.000
REMARK SMILES C=C1CC[C@@H]2C[C@H]1C2(C)C
REMARK SMILES IDX 9 1 8 2 5 3 4 4 3 5 2 6 1 7 7 8 6 9 10 10
REMARK H PARENT
REMARK Flexibility Score: inf
ROOT
ATOM      1  C   UNL     1     136.356 138.160 135.245  1.00  0.00     0.012 C 
ATOM      2  C   UNL     1     135.930 139.646 135.405  1.00  0.00    -0.026 C 
ATOM      3  C   UNL     1     135.647 140.188 136.830  1.00  0.00    -0.004 C 
ATOM      4  C   UNL     1     134.962 139.101 137.719  1.00  0.00     0.008 C 
ATOM      5  C   UNL     1     133.701 138.458 137.025  1.00  0.00     0.031 C 
ATOM      6  C   UNL     1     133.535 138.924 135.571  1.00  0.00    -0.074 C 
ATOM      7  C   UNL     1     132.608 138.387 134.770  1.00  0.00     0.008 C 
ATOM      8  C   UNL     1     134.466 140.030 135.084  1.00  0.00     0.021 C 
ATOM      9  C   UNL     1     134.516 141.045 136.236  1.00  0.00     0.012 C 
ATOM     10  C   UNL     1     136.944 140.531 134.640  1.00  0.00     0.012 C 
ENDROOT
TORSDOF 0
ENDMDL
MODEL 8
REMARK VINA RESULT:    -3.635      3.876      5.967
REMARK INTER + INTRA:          -3.635
REMARK INTER:                  -3.635
REMARK INTRA:                   0.000
REMARK UNBOUND:                 0.000
REMARK SMILES C=C1CC[C@@H]2C[C@H]1C2(C)C
REMARK SMILES IDX 9 1 8 2 5 3 4 4 3 5 2 6 1 7 7 8 6 9 10 10
REMARK H PARENT
REMARK Flexibility Score: inf
ROOT
ATOM      1  C   UNL     1     138.104 136.364 135.241  1.00  0.00     0.012 C 
ATOM      2  C   UNL     1     139.581 136.823 135.389  1.00  0.00    -0.026 C 
ATOM      3  C   UNL     1     140.134 137.103 136.810  1.00  0.00    -0.004 C 
ATOM      4  C   UNL     1     139.042 137.752 137.719  1.00  0.00     0.008 C 
ATOM      5  C   UNL     1     138.361 139.006 137.048  1.00  0.00     0.031 C 
ATOM      6  C   UNL     1     138.806 139.199 135.590  1.00  0.00    -0.074 C 
ATOM      7  C   UNL     1     138.237 140.122 134.806  1.00  0.00     0.008 C 
ATOM      8  C   UNL     1     139.926 138.299 135.080  1.00  0.00     0.021 C 
ATOM      9  C   UNL     1     140.956 138.261 136.219  1.00  0.00     0.012 C 
ATOM     10  C   UNL     1     140.480 135.839 134.601  1.00  0.00     0.012 C 
ENDROOT
TORSDOF 0
ENDMDL
MODEL 9
REMARK VINA RESULT:    -3.629      1.193      3.354
REMARK INTER + INTRA:          -3.629
REMARK INTER:                  -3.629
REMARK INTRA:                   0.000
REMARK UNBOUND:                 0.000
REMARK SMILES C=C1CC[C@@H]2C[C@H]1C2(C)C
REMARK SMILES IDX 9 1 8 2 5 3 4 4 3 5 2 6 1 7 7 8 6 9 10 10
REMARK H PARENT
REMARK Flexibility Score: inf
ROOT
ATOM      1  C   UNL     1     136.382 134.478 135.391  1.00  0.00     0.012 C 
ATOM      2  C   UNL     1     136.854 132.998 135.429  1.00  0.00    -0.026 C 
ATOM      3  C   UNL     1     137.158 132.350 136.804  1.00  0.00    -0.004 C 
ATOM      4  C   UNL     1     137.812 133.382 137.778  1.00  0.00     0.008 C 
ATOM      5  C   UNL     1     139.050 134.118 137.139  1.00  0.00     0.031 C 
ATOM      6  C   UNL     1     139.226 133.779 135.651  1.00  0.00    -0.074 C 
ATOM      7  C   UNL     1     140.133 134.408 134.896  1.00  0.00     0.008 C 
ATOM      8  C   UNL     1     138.328 132.688 135.076  1.00  0.00     0.021 C 
ATOM      9  C   UNL     1     138.314 131.581 136.141  1.00  0.00     0.012 C 
ATOM     10  C   UNL     1     135.865 132.148 134.594  1.00  0.00     0.012 C 
ENDROOT
TORSDOF 0
ENDMDL
