MODEL 1
REMARK VINA RESULT:    -4.308      0.000      0.000
REMARK INTER + INTRA:          -7.330
REMARK INTER:                  -6.826
REMARK INTRA:                  -0.504
REMARK UNBOUND:                -0.504
REMARK SMILES CCCCCCCCCCCC(=O)[O-]
REMARK SMILES IDX 7 1 8 2 9 3 10 4 11 5 12 6 13 7 14 8 6 9 5 10 4 11 3 12 2 13
REMARK SMILES IDX 1 14
REMARK H PARENT
REMARK Flexibility Score: inf
ROOT
ATOM      1  C   UNL     1      23.141   5.660  17.050  1.00  0.00     0.000 C 
ENDROOT
BRANCH   1   2
ATOM      2  C   UNL     1      23.414   7.092  16.575  1.00  0.00     0.000 C 
BRANCH   2   3
ATOM      3  C   UNL     1      24.513   7.118  15.504  1.00  0.00     0.000 C 
BRANCH   3   4
ATOM      4  C   UNL     1      25.431   5.883  15.552  1.00  0.00     0.006 C 
BRANCH   4   5
ATOM      5  C   UNL     1      26.889   6.173  15.150  1.00  0.00     0.053 C 
BRANCH   5   6
ATOM      6  C   UNL     1      27.074   6.260  13.666  1.00  0.00     0.041 C 
ATOM      7  O   UNL     1      27.423   7.345  13.131  1.00  0.00    -0.550 OA
ATOM      8  O   UNL     1      26.829   5.150  12.869  1.00  0.00    -0.550 OA
ENDBRANCH   5   6
ENDBRANCH   4   5
ENDBRANCH   3   4
ENDBRANCH   2   3
ENDBRANCH   1   2
BRANCH   1   9
ATOM      9  C   UNL     1      23.103   5.587  18.583  1.00  0.00     0.000 C 
BRANCH   9  10
ATOM     10  C   UNL     1      23.680   4.269  19.126  1.00  0.00    -0.000 C 
BRANCH  10  11
ATOM     11  C   UNL     1      22.634   3.432  19.880  1.00  0.00    -0.000 C 
BRANCH  11  12
ATOM     12  C   UNL     1      22.514   3.822  21.364  1.00  0.00    -0.000 C 
BRANCH  12  13
ATOM     13  C   UNL     1      22.733   2.664  22.355  1.00  0.00    -0.003 C 
ATOM     14  C   UNL     1      23.757   1.643  21.864  1.00  0.00     0.004 C 
ENDBRANCH  12  13
ENDBRANCH  11  12
ENDBRANCH  10  11
ENDBRANCH   9  10
ENDBRANCH   1   9
TORSDOF 10
ENDMDL
MODEL 2
REMARK VINA RESULT:    -4.274      7.888     10.295
REMARK INTER + INTRA:          -7.276
REMARK INTER:                  -6.334
REMARK INTRA:                  -0.942
REMARK UNBOUND:                -0.504
REMARK SMILES CCCCCCCCCCCC(=O)[O-]
REMARK SMILES IDX 7 1 8 2 9 3 10 4 11 5 12 6 13 7 14 8 6 9 5 10 4 11 3 12 2 13
REMARK SMILES IDX 1 14
REMARK H PARENT
REMARK Flexibility Score: inf
ROOT
ATOM      1  C   UNL     1      21.831   3.989   8.029  1.00  0.00     0.000 C 
ENDROOT
BRANCH   1   2
ATOM      2  C   UNL     1      22.801   4.319   9.170  1.00  0.00     0.000 C 
BRANCH   2   3
ATOM      3  C   UNL     1      23.916   5.259   8.690  1.00  0.00     0.000 C 
BRANCH   3   4
ATOM      4  C   UNL     1      24.232   6.383   9.693  1.00  0.00     0.006 C 
BRANCH   4   5
ATOM      5  C   UNL     1      23.290   6.416  10.910  1.00  0.00     0.053 C 
BRANCH   5   6
ATOM      6  C   UNL     1      22.347   7.581  10.881  1.00  0.00     0.041 C 
ATOM      7  O   UNL     1      22.253   8.297   9.850  1.00  0.00    -0.550 OA
ATOM      8  O   UNL     1      21.596   7.894  12.005  1.00  0.00    -0.550 OA
ENDBRANCH   5   6
ENDBRANCH   4   5
ENDBRANCH   3   4
ENDBRANCH   2   3
ENDBRANCH   1   2
BRANCH   1   9
ATOM      9  C   UNL     1      20.384   3.921   8.539  1.00  0.00     0.000 C 
BRANCH   9  10
ATOM     10  C   UNL     1      20.090   4.970   9.624  1.00  0.00    -0.000 C 
BRANCH  10  11
ATOM     11  C   UNL     1      19.224   6.131   9.104  1.00  0.00    -0.000 C 
BRANCH  11  12
ATOM     12  C   UNL     1      18.491   5.788   7.795  1.00  0.00    -0.000 C 
BRANCH  12  13
ATOM     13  C   UNL     1      17.066   6.360   7.686  1.00  0.00    -0.003 C 
ATOM     14  C   UNL     1      17.041   7.823   7.249  1.00  0.00     0.004 C 
ENDBRANCH  12  13
ENDBRANCH  11  12
ENDBRANCH  10  11
ENDBRANCH   9  10
ENDBRANCH   1   9
TORSDOF 10
ENDMDL
MODEL 3
REMARK VINA RESULT:    -4.215      8.456     10.638
REMARK INTER + INTRA:          -7.183
REMARK INTER:                  -6.060
REMARK INTRA:                  -1.124
REMARK UNBOUND:                -0.504
REMARK SMILES CCCCCCCCCCCC(=O)[O-]
REMARK SMILES IDX 7 1 8 2 9 3 10 4 11 5 12 6 13 7 14 8 6 9 5 10 4 11 3 12 2 13
REMARK SMILES IDX 1 14
REMARK H PARENT
REMARK Flexibility Score: inf
ROOT
ATOM      1  C   UNL     1      17.154   7.880   7.634  1.00  0.00     0.000 C 
ENDROOT
BRANCH   1   2
ATOM      2  C   UNL     1      16.885   8.032   9.136  1.00  0.00     0.000 C 
BRANCH   2   3
ATOM      3  C   UNL     1      18.186   8.306   9.904  1.00  0.00     0.000 C 
BRANCH   3   4
ATOM      4  C   UNL     1      18.067   8.027  11.413  1.00  0.00     0.006 C 
BRANCH   4   5
ATOM      5  C   UNL     1      19.009   6.920  11.919  1.00  0.00     0.053 C 
BRANCH   5   6
ATOM      6  C   UNL     1      20.200   7.462  12.649  1.00  0.00     0.041 C 
ATOM      7  O   UNL     1      21.113   8.059  12.021  1.00  0.00    -0.550 OA
ATOM      8  O   UNL     1      20.317   7.279  14.020  1.00  0.00    -0.550 OA
ENDBRANCH   5   6
ENDBRANCH   4   5
ENDBRANCH   3   4
ENDBRANCH   2   3
ENDBRANCH   1   2
BRANCH   1   9
ATOM      9  C   UNL     1      17.891   6.566   7.338  1.00  0.00     0.000 C 
BRANCH   9  10
ATOM     10  C   UNL     1      17.232   5.353   8.014  1.00  0.00    -0.000 C 
BRANCH  10  11
ATOM     11  C   UNL     1      18.225   4.532   8.854  1.00  0.00    -0.000 C 
BRANCH  11  12
ATOM     12  C   UNL     1      19.668   4.619   8.325  1.00  0.00    -0.000 C 
BRANCH  12  13
ATOM     13  C   UNL     1      20.711   5.054   9.370  1.00  0.00    -0.003 C 
ATOM     14  C   UNL     1      22.110   4.516   9.077  1.00  0.00     0.004 C 
ENDBRANCH  12  13
ENDBRANCH  11  12
ENDBRANCH  10  11
ENDBRANCH   9  10
ENDBRANCH   1   9
TORSDOF 10
ENDMDL
MODEL 4
REMARK VINA RESULT:    -4.161      1.295      2.042
REMARK INTER + INTRA:          -7.098
REMARK INTER:                  -6.051
REMARK INTRA:                  -1.047
REMARK UNBOUND:                -0.504
REMARK SMILES CCCCCCCCCCCC(=O)[O-]
REMARK SMILES IDX 7 1 8 2 9 3 10 4 11 5 12 6 13 7 14 8 6 9 5 10 4 11 3 12 2 13
REMARK SMILES IDX 1 14
REMARK H PARENT
REMARK Flexibility Score: inf
ROOT
ATOM      1  C   UNL     1      22.666   5.443  16.079  1.00  0.00     0.000 C 
ENDROOT
BRANCH   1   2
ATOM      2  C   UNL     1      23.148   6.693  16.826  1.00  0.00     0.000 C 
BRANCH   2   3
ATOM      3  C   UNL     1      24.224   7.435  16.022  1.00  0.00     0.000 C 
BRANCH   3   4
ATOM      4  C   UNL     1      24.731   6.634  14.809  1.00  0.00     0.006 C 
BRANCH   4   5
ATOM      5  C   UNL     1      26.240   6.330  14.848  1.00  0.00     0.053 C 
BRANCH   5   6
ATOM      6  C   UNL     1      26.862   6.313  13.485  1.00  0.00     0.041 C 
ATOM      7  O   UNL     1      26.771   5.290  12.757  1.00  0.00    -0.550 OA
ATOM      8  O   UNL     1      27.571   7.417  13.031  1.00  0.00    -0.550 OA
ENDBRANCH   5   6
ENDBRANCH   4   5
ENDBRANCH   3   4
ENDBRANCH   2   3
ENDBRANCH   1   2
BRANCH   1   9
ATOM      9  C   UNL     1      22.837   4.185  16.943  1.00  0.00     0.000 C 
BRANCH   9  10
ATOM     10  C   UNL     1      24.307   3.909  17.299  1.00  0.00    -0.000 C 
BRANCH  10  11
ATOM     11  C   UNL     1      24.549   3.862  18.817  1.00  0.00    -0.000 C 
BRANCH  11  12
ATOM     12  C   UNL     1      23.335   3.326  19.598  1.00  0.00    -0.000 C 
BRANCH  12  13
ATOM     13  C   UNL     1      22.695   4.336  20.566  1.00  0.00    -0.003 C 
ATOM     14  C   UNL     1      23.093   5.781  20.272  1.00  0.00     0.004 C 
ENDBRANCH  12  13
ENDBRANCH  11  12
ENDBRANCH  10  11
ENDBRANCH   9  10
ENDBRANCH   1   9
TORSDOF 10
ENDMDL
MODEL 5
REMARK VINA RESULT:    -4.143      7.519     10.057
REMARK INTER + INTRA:          -7.068
REMARK INTER:                  -5.855
REMARK INTRA:                  -1.213
REMARK UNBOUND:                -0.504
REMARK SMILES CCCCCCCCCCCC(=O)[O-]
REMARK SMILES IDX 7 1 8 2 9 3 10 4 11 5 12 6 13 7 14 8 6 9 5 10 4 11 3 12 2 13
REMARK SMILES IDX 1 14
REMARK H PARENT
REMARK Flexibility Score: inf
ROOT
ATOM      1  C   UNL     1      21.998   4.103   7.898  1.00  0.00     0.000 C 
ENDROOT
BRANCH   1   2
ATOM      2  C   UNL     1      20.641   3.767   8.527  1.00  0.00     0.000 C 
BRANCH   2   3
ATOM      3  C   UNL     1      20.284   4.767   9.635  1.00  0.00     0.000 C 
BRANCH   3   4
ATOM      4  C   UNL     1      19.360   5.900   9.152  1.00  0.00     0.006 C 
BRANCH   4   5
ATOM      5  C   UNL     1      19.617   7.252   9.842  1.00  0.00     0.053 C 
BRANCH   5   6
ATOM      6  C   UNL     1      18.412   8.142   9.837  1.00  0.00     0.041 C 
ATOM      7  O   UNL     1      18.135   8.842  10.846  1.00  0.00    -0.550 OA
ATOM      8  O   UNL     1      17.575   8.174   8.729  1.00  0.00    -0.550 OA
ENDBRANCH   5   6
ENDBRANCH   4   5
ENDBRANCH   3   4
ENDBRANCH   2   3
ENDBRANCH   1   2
BRANCH   1   9
ATOM      9  C   UNL     1      23.019   4.502   8.974  1.00  0.00     0.000 C 
BRANCH   9  10
ATOM     10  C   UNL     1      24.126   5.418   8.427  1.00  0.00    -0.000 C 
BRANCH  10  11
ATOM     11  C   UNL     1      24.422   6.607   9.357  1.00  0.00    -0.000 C 
BRANCH  11  12
ATOM     12  C   UNL     1      23.151   7.199   9.992  1.00  0.00    -0.000 C 
BRANCH  12  13
ATOM     13  C   UNL     1      23.191   7.313  11.527  1.00  0.00    -0.003 C 
ATOM     14  C   UNL     1      22.530   6.131  12.232  1.00  0.00     0.004 C 
ENDBRANCH  12  13
ENDBRANCH  11  12
ENDBRANCH  10  11
ENDBRANCH   9  10
ENDBRANCH   1   9
TORSDOF 10
ENDMDL
MODEL 6
REMARK VINA RESULT:    -4.132      1.713      2.700
REMARK INTER + INTRA:          -7.051
REMARK INTER:                  -6.031
REMARK INTRA:                  -1.020
REMARK UNBOUND:                -0.504
REMARK SMILES CCCCCCCCCCCC(=O)[O-]
REMARK SMILES IDX 7 1 8 2 9 3 10 4 11 5 12 6 13 7 14 8 6 9 5 10 4 11 3 12 2 13
REMARK SMILES IDX 1 14
REMARK H PARENT
REMARK Flexibility Score: inf
ROOT
ATOM      1  C   UNL     1      22.954   6.450  17.259  1.00  0.00     0.000 C 
ENDROOT
BRANCH   1   2
ATOM      2  C   UNL     1      23.944   6.963  16.207  1.00  0.00     0.000 C 
BRANCH   2   3
ATOM      3  C   UNL     1      24.926   5.859  15.789  1.00  0.00     0.000 C 
BRANCH   3   4
ATOM      4  C   UNL     1      26.206   6.406  15.132  1.00  0.00     0.006 C 
BRANCH   4   5
ATOM      5  C   UNL     1      26.567   5.720  13.802  1.00  0.00     0.053 C 
BRANCH   5   6
ATOM      6  C   UNL     1      26.121   6.504  12.606  1.00  0.00     0.041 C 
ATOM      7  O   UNL     1      26.938   6.789  11.692  1.00  0.00    -0.550 OA
ATOM      8  O   UNL     1      24.809   6.949  12.517  1.00  0.00    -0.550 OA
ENDBRANCH   5   6
ENDBRANCH   4   5
ENDBRANCH   3   4
ENDBRANCH   2   3
ENDBRANCH   1   2
BRANCH   1   9
ATOM      9  C   UNL     1      23.144   4.946  17.506  1.00  0.00     0.000 C 
BRANCH   9  10
ATOM     10  C   UNL     1      22.973   4.565  18.986  1.00  0.00    -0.000 C 
BRANCH  10  11
ATOM     11  C   UNL     1      23.982   3.497  19.442  1.00  0.00    -0.000 C 
BRANCH  11  12
ATOM     12  C   UNL     1      24.994   3.126  18.344  1.00  0.00    -0.000 C 
BRANCH  12  13
ATOM     13  C   UNL     1      26.466   3.387  18.710  1.00  0.00    -0.003 C 
ATOM     14  C   UNL     1      27.345   3.664  17.492  1.00  0.00     0.004 C 
ENDBRANCH  12  13
ENDBRANCH  11  12
ENDBRANCH  10  11
ENDBRANCH   9  10
ENDBRANCH   1   9
TORSDOF 10
ENDMDL
MODEL 7
REMARK VINA RESULT:    -4.110     12.485     15.061
REMARK INTER + INTRA:          -7.016
REMARK INTER:                  -5.650
REMARK INTRA:                  -1.367
REMARK UNBOUND:                -0.504
REMARK SMILES CCCCCCCCCCCC(=O)[O-]
REMARK SMILES IDX 7 1 8 2 9 3 10 4 11 5 12 6 13 7 14 8 6 9 5 10 4 11 3 12 2 13
REMARK SMILES IDX 1 14
REMARK H PARENT
REMARK Flexibility Score: inf
ROOT
ATOM      1  C   UNL     1      29.369  -4.378   8.160  1.00  0.00     0.000 C 
ENDROOT
BRANCH   1   2
ATOM      2  C   UNL     1      29.929  -4.627   6.755  1.00  0.00     0.000 C 
BRANCH   2   3
ATOM      3  C   UNL     1      29.034  -3.988   5.684  1.00  0.00     0.000 C 
BRANCH   3   4
ATOM      4  C   UNL     1      29.774  -3.718   4.361  1.00  0.00     0.006 C 
BRANCH   4   5
ATOM      5  C   UNL     1      31.261  -3.363   4.538  1.00  0.00     0.053 C 
BRANCH   5   6
ATOM      6  C   UNL     1      31.744  -2.371   3.525  1.00  0.00     0.041 C 
ATOM      7  O   UNL     1      32.833  -2.558   2.921  1.00  0.00    -0.550 OA
ATOM      8  O   UNL     1      31.007  -1.223   3.269  1.00  0.00    -0.550 OA
ENDBRANCH   5   6
ENDBRANCH   4   5
ENDBRANCH   3   4
ENDBRANCH   2   3
ENDBRANCH   1   2
BRANCH   1   9
ATOM      9  C   UNL     1      28.229  -3.350   8.124  1.00  0.00     0.000 C 
BRANCH   9  10
ATOM     10  C   UNL     1      28.440  -2.199   9.122  1.00  0.00    -0.000 C 
BRANCH  10  11
ATOM     11  C   UNL     1      28.187  -0.818   8.493  1.00  0.00    -0.000 C 
BRANCH  11  12
ATOM     12  C   UNL     1      29.484  -0.120   8.046  1.00  0.00    -0.000 C 
BRANCH  12  13
ATOM     13  C   UNL     1      29.864  -0.350   6.572  1.00  0.00    -0.003 C 
ATOM     14  C   UNL     1      28.665  -0.283   5.628  1.00  0.00     0.004 C 
ENDBRANCH  12  13
ENDBRANCH  11  12
ENDBRANCH  10  11
ENDBRANCH   9  10
ENDBRANCH   1   9
TORSDOF 10
ENDMDL
MODEL 8
REMARK VINA RESULT:    -4.094      6.160      8.745
REMARK INTER + INTRA:          -6.990
REMARK INTER:                  -5.717
REMARK INTRA:                  -1.273
REMARK UNBOUND:                -0.504
REMARK SMILES CCCCCCCCCCCC(=O)[O-]
REMARK SMILES IDX 7 1 8 2 9 3 10 4 11 5 12 6 13 7 14 8 6 9 5 10 4 11 3 12 2 13
REMARK SMILES IDX 1 14
REMARK H PARENT
REMARK Flexibility Score: inf
ROOT
ATOM      1  C   UNL     1      23.775   4.407   8.517  1.00  0.00     0.000 C 
ENDROOT
BRANCH   1   2
ATOM      2  C   UNL     1      24.153   5.886   8.366  1.00  0.00     0.000 C 
BRANCH   2   3
ATOM      3  C   UNL     1      24.630   6.471   9.703  1.00  0.00     0.000 C 
BRANCH   3   4
ATOM      4  C   UNL     1      24.471   5.493  10.882  1.00  0.00     0.006 C 
BRANCH   4   5
ATOM      5  C   UNL     1      24.401   6.179  12.258  1.00  0.00     0.053 C 
BRANCH   5   6
ATOM      6  C   UNL     1      25.746   6.321  12.903  1.00  0.00     0.041 C 
ATOM      7  O   UNL     1      26.003   7.321  13.624  1.00  0.00    -0.550 OA
ATOM      8  O   UNL     1      26.727   5.365  12.682  1.00  0.00    -0.550 OA
ENDBRANCH   5   6
ENDBRANCH   4   5
ENDBRANCH   3   4
ENDBRANCH   2   3
ENDBRANCH   1   2
BRANCH   1   9
ATOM      9  C   UNL     1      22.420   4.116   7.855  1.00  0.00     0.000 C 
BRANCH   9  10
ATOM     10  C   UNL     1      21.289   3.933   8.881  1.00  0.00    -0.000 C 
BRANCH  10  11
ATOM     11  C   UNL     1      19.979   4.608   8.442  1.00  0.00    -0.000 C 
BRANCH  11  12
ATOM     12  C   UNL     1      19.653   5.869   9.262  1.00  0.00    -0.000 C 
BRANCH  12  13
ATOM     13  C   UNL     1      20.511   6.054  10.527  1.00  0.00    -0.003 C 
ATOM     14  C   UNL     1      21.272   7.377  10.545  1.00  0.00     0.004 C 
ENDBRANCH  12  13
ENDBRANCH  11  12
ENDBRANCH  10  11
ENDBRANCH   9  10
ENDBRANCH   1   9
TORSDOF 10
ENDMDL
MODEL 9
REMARK VINA RESULT:    -4.055      8.360     10.509
REMARK INTER + INTRA:          -6.929
REMARK INTER:                  -5.732
REMARK INTRA:                  -1.197
REMARK UNBOUND:                -0.504
REMARK SMILES CCCCCCCCCCCC(=O)[O-]
REMARK SMILES IDX 7 1 8 2 9 3 10 4 11 5 12 6 13 7 14 8 6 9 5 10 4 11 3 12 2 13
REMARK SMILES IDX 1 14
REMARK H PARENT
REMARK Flexibility Score: inf
ROOT
ATOM      1  C   UNL     1      17.923   4.635   8.294  1.00  0.00     0.000 C 
ENDROOT
BRANCH   1   2
ATOM      2  C   UNL     1      19.366   5.146   8.380  1.00  0.00     0.000 C 
BRANCH   2   3
ATOM      3  C   UNL     1      19.840   5.215   9.839  1.00  0.00     0.000 C 
BRANCH   3   4
ATOM      4  C   UNL     1      21.325   5.598   9.974  1.00  0.00     0.006 C 
BRANCH   4   5
ATOM      5  C   UNL     1      21.574   7.114  10.061  1.00  0.00     0.053 C 
BRANCH   5   6
ATOM      6  C   UNL     1      22.089   7.540  11.402  1.00  0.00     0.041 C 
ATOM      7  O   UNL     1      21.298   7.980  12.277  1.00  0.00    -0.550 OA
ATOM      8  O   UNL     1      23.449   7.481  11.675  1.00  0.00    -0.550 OA
ENDBRANCH   5   6
ENDBRANCH   4   5
ENDBRANCH   3   4
ENDBRANCH   2   3
ENDBRANCH   1   2
BRANCH   1   9
ATOM      9  C   UNL     1      16.982   5.731   7.773  1.00  0.00     0.000 C 
BRANCH   9  10
ATOM     10  C   UNL     1      17.723   7.035   7.436  1.00  0.00    -0.000 C 
BRANCH  10  11
ATOM     11  C   UNL     1      17.410   8.167   8.429  1.00  0.00    -0.000 C 
BRANCH  11  12
ATOM     12  C   UNL     1      16.203   7.852   9.330  1.00  0.00    -0.000 C 
BRANCH  12  13
ATOM     13  C   UNL     1      16.519   7.798  10.835  1.00  0.00    -0.003 C 
ATOM     14  C   UNL     1      17.960   8.189  11.158  1.00  0.00     0.004 C 
ENDBRANCH  12  13
ENDBRANCH  11  12
ENDBRANCH  10  11
ENDBRANCH   9  10
ENDBRANCH   1   9
TORSDOF 10
ENDMDL
