MODEL 1
REMARK VINA RESULT:    -3.895      0.000      0.000
REMARK INTER + INTRA:         -15.238
REMARK INTER:                  -9.816
REMARK INTRA:                  -5.422
REMARK UNBOUND:                -5.422
REMARK SMILES CCCCCCCCCCCCCCCCCCCCCCCCCCCC(=O)[O-]
REMARK SMILES IDX 15 1 16 2 17 3 18 4 19 5 20 6 21 7 22 8 23 9 24 10 25 11
REMARK SMILES IDX 26 12 27 13 28 14 29 15 30 16 14 17 13 18 12 19 11 20 10 21
REMARK SMILES IDX 9 22 8 23 7 24 6 25 5 26 4 27 3 28 2 29 1 30
REMARK H PARENT
REMARK Flexibility Score: inf
ROOT
ATOM      1  C   UNL     1     -45.142 -48.444  37.406  1.00  0.00     0.000 C 
ENDROOT
BRANCH   1   2
ATOM      2  C   UNL     1     -44.040 -48.362  36.334  1.00  0.00     0.000 C 
BRANCH   2   3
ATOM      3  C   UNL     1     -44.056 -49.556  35.367  1.00  0.00     0.000 C 
BRANCH   3   4
ATOM      4  C   UNL     1     -42.934 -49.432  34.327  1.00  0.00     0.000 C 
BRANCH   4   5
ATOM      5  C   UNL     1     -42.504 -47.967  34.151  1.00  0.00     0.000 C 
BRANCH   5   6
ATOM      6  C   UNL     1     -40.987 -47.772  34.346  1.00  0.00     0.000 C 
BRANCH   6   7
ATOM      7  C   UNL     1     -40.250 -49.040  34.811  1.00  0.00     0.000 C 
BRANCH   7   8
ATOM      8  C   UNL     1     -39.477 -48.837  36.123  1.00  0.00     0.000 C 
BRANCH   8   9
ATOM      9  C   UNL     1     -40.347 -49.045  37.374  1.00  0.00     0.000 C 
BRANCH   9  10
ATOM     10  C   UNL     1     -40.382 -47.824  38.319  1.00  0.00     0.000 C 
BRANCH  10  11
ATOM     11  C   UNL     1     -41.817 -47.335  38.587  1.00  0.00     0.000 C 
BRANCH  11  12
ATOM     12  C   UNL     1     -42.048 -46.948  40.061  1.00  0.00     0.006 C 
BRANCH  12  13
ATOM     13  C   UNL     1     -42.355 -45.457  40.282  1.00  0.00     0.053 C 
BRANCH  13  14
ATOM     14  C   UNL     1     -41.223 -44.745  40.958  1.00  0.00     0.041 C 
ATOM     15  O   UNL     1     -41.457 -43.816  41.776  1.00  0.00    -0.550 OA
ATOM     16  O   UNL     1     -39.911 -45.131  40.712  1.00  0.00    -0.550 OA
ENDBRANCH  13  14
ENDBRANCH  12  13
ENDBRANCH  11  12
ENDBRANCH  10  11
ENDBRANCH   9  10
ENDBRANCH   8   9
ENDBRANCH   7   8
ENDBRANCH   6   7
ENDBRANCH   5   6
ENDBRANCH   4   5
ENDBRANCH   3   4
ENDBRANCH   2   3
ENDBRANCH   1   2
BRANCH   1  17
ATOM     17  C   UNL     1     -46.401 -49.227  36.988  1.00  0.00     0.000 C 
BRANCH  17  18
ATOM     18  C   UNL     1     -46.732 -50.384  37.944  1.00  0.00     0.000 C 
BRANCH  18  19
ATOM     19  C   UNL     1     -46.873 -51.706  37.180  1.00  0.00     0.000 C 
BRANCH  19  20
ATOM     20  C   UNL     1     -45.949 -52.783  37.770  1.00  0.00     0.000 C 
BRANCH  20  21
ATOM     21  C   UNL     1     -44.755 -53.110  36.857  1.00  0.00     0.000 C 
BRANCH  21  22
ATOM     22  C   UNL     1     -43.404 -53.004  37.587  1.00  0.00    -0.000 C 
BRANCH  22  23
ATOM     23  C   UNL     1     -43.059 -51.558  37.979  1.00  0.00    -0.000 C 
BRANCH  23  24
ATOM     24  C   UNL     1     -42.811 -51.392  39.489  1.00  0.00    -0.000 C 
BRANCH  24  25
ATOM     25  C   UNL     1     -43.680 -50.275  40.105  1.00  0.00    -0.000 C 
BRANCH  25  26
ATOM     26  C   UNL     1     -44.890 -50.799  40.895  1.00  0.00    -0.000 C 
BRANCH  26  27
ATOM     27  C   UNL     1     -44.799 -52.304  41.197  1.00  0.00    -0.000 C 
BRANCH  27  28
ATOM     28  C   UNL     1     -46.167 -52.934  41.517  1.00  0.00    -0.000 C 
BRANCH  28  29
ATOM     29  C   UNL     1     -47.375 -52.018  41.253  1.00  0.00    -0.003 C 
ATOM     30  C   UNL     1     -48.556 -52.754  40.619  1.00  0.00     0.004 C 
ENDBRANCH  28  29
ENDBRANCH  27  28
ENDBRANCH  26  27
ENDBRANCH  25  26
ENDBRANCH  24  25
ENDBRANCH  23  24
ENDBRANCH  22  23
ENDBRANCH  21  22
ENDBRANCH  20  21
ENDBRANCH  19  20
ENDBRANCH  18  19
ENDBRANCH  17  18
ENDBRANCH   1  17
TORSDOF 26
ENDMDL
MODEL 2
REMARK VINA RESULT:    -3.786      1.282      3.704
REMARK INTER + INTRA:         -14.964
REMARK INTER:                  -9.194
REMARK INTRA:                  -5.770
REMARK UNBOUND:                -5.422
REMARK SMILES CCCCCCCCCCCCCCCCCCCCCCCCCCCC(=O)[O-]
REMARK SMILES IDX 15 1 16 2 17 3 18 4 19 5 20 6 21 7 22 8 23 9 24 10 25 11
REMARK SMILES IDX 26 12 27 13 28 14 29 15 30 16 14 17 13 18 12 19 11 20 10 21
REMARK SMILES IDX 9 22 8 23 7 24 6 25 5 26 4 27 3 28 2 29 1 30
REMARK H PARENT
REMARK Flexibility Score: inf
ROOT
ATOM      1  C   UNL     1     -42.830 -52.924  39.269  1.00  0.00     0.000 C 
ENDROOT
BRANCH   1   2
ATOM      2  C   UNL     1     -42.445 -52.904  37.779  1.00  0.00     0.000 C 
BRANCH   2   3
ATOM      3  C   UNL     1     -42.398 -51.486  37.191  1.00  0.00     0.000 C 
BRANCH   3   4
ATOM      4  C   UNL     1     -42.242 -51.531  35.666  1.00  0.00     0.000 C 
BRANCH   4   5
ATOM      5  C   UNL     1     -43.230 -50.572  34.981  1.00  0.00     0.000 C 
BRANCH   5   6
ATOM      6  C   UNL     1     -42.590 -49.813  33.800  1.00  0.00     0.000 C 
BRANCH   6   7
ATOM      7  C   UNL     1     -42.863 -48.299  33.812  1.00  0.00     0.000 C 
BRANCH   7   8
ATOM      8  C   UNL     1     -41.681 -47.481  34.356  1.00  0.00     0.000 C 
BRANCH   8   9
ATOM      9  C   UNL     1     -40.368 -48.280  34.407  1.00  0.00     0.000 C 
BRANCH   9  10
ATOM     10  C   UNL     1     -39.748 -48.372  35.818  1.00  0.00     0.000 C 
BRANCH  10  11
ATOM     11  C   UNL     1     -40.731 -47.928  36.917  1.00  0.00     0.000 C 
BRANCH  11  12
ATOM     12  C   UNL     1     -40.320 -48.421  38.318  1.00  0.00     0.006 C 
BRANCH  12  13
ATOM     13  C   UNL     1     -39.620 -47.358  39.181  1.00  0.00     0.053 C 
BRANCH  13  14
ATOM     14  C   UNL     1     -40.501 -46.865  40.289  1.00  0.00     0.041 C 
ATOM     15  O   UNL     1     -40.515 -47.459  41.399  1.00  0.00    -0.550 OA
ATOM     16  O   UNL     1     -41.278 -45.729  40.107  1.00  0.00    -0.550 OA
ENDBRANCH  13  14
ENDBRANCH  12  13
ENDBRANCH  11  12
ENDBRANCH  10  11
ENDBRANCH   9  10
ENDBRANCH   8   9
ENDBRANCH   7   8
ENDBRANCH   6   7
ENDBRANCH   5   6
ENDBRANCH   4   5
ENDBRANCH   3   4
ENDBRANCH   2   3
ENDBRANCH   1   2
BRANCH   1  17
ATOM     17  C   UNL     1     -42.959 -51.537  39.927  1.00  0.00     0.000 C 
BRANCH  17  18
ATOM     18  C   UNL     1     -44.336 -51.305  40.569  1.00  0.00     0.000 C 
BRANCH  18  19
ATOM     19  C   UNL     1     -44.802 -49.858  40.365  1.00  0.00     0.000 C 
BRANCH  19  20
ATOM     20  C   UNL     1     -43.607 -48.925  40.115  1.00  0.00     0.000 C 
BRANCH  20  21
ATOM     21  C   UNL     1     -43.913 -47.828  39.082  1.00  0.00     0.000 C 
BRANCH  21  22
ATOM     22  C   UNL     1     -44.274 -48.398  37.699  1.00  0.00    -0.000 C 
BRANCH  22  23
ATOM     23  C   UNL     1     -45.668 -47.953  37.225  1.00  0.00    -0.000 C 
BRANCH  23  24
ATOM     24  C   UNL     1     -46.699 -49.095  37.249  1.00  0.00    -0.000 C 
BRANCH  24  25
ATOM     25  C   UNL     1     -46.046 -50.477  37.032  1.00  0.00    -0.000 C 
BRANCH  25  26
ATOM     26  C   UNL     1     -46.972 -51.657  37.371  1.00  0.00    -0.000 C 
BRANCH  26  27
ATOM     27  C   UNL     1     -46.199 -52.929  37.759  1.00  0.00    -0.000 C 
BRANCH  27  28
ATOM     28  C   UNL     1     -46.882 -53.723  38.888  1.00  0.00    -0.000 C 
BRANCH  28  29
ATOM     29  C   UNL     1     -48.057 -52.996  39.567  1.00  0.00    -0.003 C 
ATOM     30  C   UNL     1     -47.729 -52.519  40.981  1.00  0.00     0.004 C 
ENDBRANCH  28  29
ENDBRANCH  27  28
ENDBRANCH  26  27
ENDBRANCH  25  26
ENDBRANCH  24  25
ENDBRANCH  23  24
ENDBRANCH  22  23
ENDBRANCH  21  22
ENDBRANCH  20  21
ENDBRANCH  19  20
ENDBRANCH  18  19
ENDBRANCH  17  18
ENDBRANCH   1  17
TORSDOF 26
ENDMDL
MODEL 3
REMARK VINA RESULT:    -3.749      1.325      3.029
REMARK INTER + INTRA:         -14.869
REMARK INTER:                 -10.147
REMARK INTRA:                  -4.722
REMARK UNBOUND:                -5.422
REMARK SMILES CCCCCCCCCCCCCCCCCCCCCCCCCCCC(=O)[O-]
REMARK SMILES IDX 15 1 16 2 17 3 18 4 19 5 20 6 21 7 22 8 23 9 24 10 25 11
REMARK SMILES IDX 26 12 27 13 28 14 29 15 30 16 14 17 13 18 12 19 11 20 10 21
REMARK SMILES IDX 9 22 8 23 7 24 6 25 5 26 4 27 3 28 2 29 1 30
REMARK H PARENT
REMARK Flexibility Score: inf
ROOT
ATOM      1  C   UNL     1     -43.814 -49.633  35.510  1.00  0.00     0.000 C 
ENDROOT
BRANCH   1   2
ATOM      2  C   UNL     1     -43.011 -49.317  34.235  1.00  0.00     0.000 C 
BRANCH   2   3
ATOM      3  C   UNL     1     -42.439 -47.891  34.225  1.00  0.00     0.000 C 
BRANCH   3   4
ATOM      4  C   UNL     1     -40.929 -47.907  34.498  1.00  0.00     0.000 C 
BRANCH   4   5
ATOM      5  C   UNL     1     -40.638 -47.763  36.001  1.00  0.00     0.000 C 
BRANCH   5   6
ATOM      6  C   UNL     1     -40.068 -49.057  36.616  1.00  0.00     0.000 C 
BRANCH   6   7
ATOM      7  C   UNL     1     -40.743 -49.470  37.936  1.00  0.00     0.000 C 
BRANCH   7   8
ATOM      8  C   UNL     1     -41.158 -48.269  38.798  1.00  0.00     0.000 C 
BRANCH   8   9
ATOM      9  C   UNL     1     -41.845 -48.679  40.112  1.00  0.00     0.000 C 
BRANCH   9  10
ATOM     10  C   UNL     1     -43.129 -47.877  40.420  1.00  0.00     0.000 C 
BRANCH  10  11
ATOM     11  C   UNL     1     -43.268 -46.632  39.526  1.00  0.00     0.000 C 
BRANCH  11  12
ATOM     12  C   UNL     1     -43.398 -45.328  40.336  1.00  0.00     0.006 C 
BRANCH  12  13
ATOM     13  C   UNL     1     -42.364 -45.181  41.465  1.00  0.00     0.053 C 
BRANCH  13  14
ATOM     14  C   UNL     1     -41.081 -44.578  40.976  1.00  0.00     0.041 C 
ATOM     15  O   UNL     1     -40.981 -43.331  40.831  1.00  0.00    -0.550 OA
ATOM     16  O   UNL     1     -39.985 -45.391  40.715  1.00  0.00    -0.550 OA
ENDBRANCH  13  14
ENDBRANCH  12  13
ENDBRANCH  11  12
ENDBRANCH  10  11
ENDBRANCH   9  10
ENDBRANCH   8   9
ENDBRANCH   7   8
ENDBRANCH   6   7
ENDBRANCH   5   6
ENDBRANCH   4   5
ENDBRANCH   3   4
ENDBRANCH   2   3
ENDBRANCH   1   2
BRANCH   1  17
ATOM     17  C   UNL     1     -44.114 -48.418  36.409  1.00  0.00     0.000 C 
BRANCH  17  18
ATOM     18  C   UNL     1     -45.379 -48.602  37.262  1.00  0.00     0.000 C 
BRANCH  18  19
ATOM     19  C   UNL     1     -45.304 -49.892  38.087  1.00  0.00     0.000 C 
BRANCH  19  20
ATOM     20  C   UNL     1     -46.651 -50.631  38.078  1.00  0.00     0.000 C 
BRANCH  20  21
ATOM     21  C   UNL     1     -46.611 -51.935  37.265  1.00  0.00     0.000 C 
BRANCH  21  22
ATOM     22  C   UNL     1     -47.698 -52.936  37.695  1.00  0.00    -0.000 C 
BRANCH  22  23
ATOM     23  C   UNL     1     -47.115 -54.168  38.407  1.00  0.00    -0.000 C 
BRANCH  23  24
ATOM     24  C   UNL     1     -45.576 -54.182  38.412  1.00  0.00    -0.000 C 
BRANCH  24  25
ATOM     25  C   UNL     1     -44.996 -54.049  39.836  1.00  0.00    -0.000 C 
BRANCH  25  26
ATOM     26  C   UNL     1     -45.945 -53.356  40.827  1.00  0.00    -0.000 C 
BRANCH  26  27
ATOM     27  C   UNL     1     -45.385 -52.026  41.358  1.00  0.00    -0.000 C 
BRANCH  27  28
ATOM     28  C   UNL     1     -43.943 -51.753  40.889  1.00  0.00    -0.000 C 
BRANCH  28  29
ATOM     29  C   UNL     1     -42.868 -51.942  41.974  1.00  0.00    -0.003 C 
ATOM     30  C   UNL     1     -42.809 -50.782  42.966  1.00  0.00     0.004 C 
ENDBRANCH  28  29
ENDBRANCH  27  28
ENDBRANCH  26  27
ENDBRANCH  25  26
ENDBRANCH  24  25
ENDBRANCH  23  24
ENDBRANCH  22  23
ENDBRANCH  21  22
ENDBRANCH  20  21
ENDBRANCH  19  20
ENDBRANCH  18  19
ENDBRANCH  17  18
ENDBRANCH   1  17
TORSDOF 26
ENDMDL
MODEL 4
REMARK VINA RESULT:    -3.728      2.783      4.932
REMARK INTER + INTRA:         -14.818
REMARK INTER:                 -10.035
REMARK INTRA:                  -4.783
REMARK UNBOUND:                -5.422
REMARK SMILES CCCCCCCCCCCCCCCCCCCCCCCCCCCC(=O)[O-]
REMARK SMILES IDX 15 1 16 2 17 3 18 4 19 5 20 6 21 7 22 8 23 9 24 10 25 11
REMARK SMILES IDX 26 12 27 13 28 14 29 15 30 16 14 17 13 18 12 19 11 20 10 21
REMARK SMILES IDX 9 22 8 23 7 24 6 25 5 26 4 27 3 28 2 29 1 30
REMARK H PARENT
REMARK Flexibility Score: inf
ROOT
ATOM      1  C   UNL     1     -41.483 -49.020  38.770  1.00  0.00     0.000 C 
ENDROOT
BRANCH   1   2
ATOM      2  C   UNL     1     -42.035 -48.012  37.745  1.00  0.00     0.000 C 
BRANCH   2   3
ATOM      3  C   UNL     1     -41.577 -48.307  36.309  1.00  0.00     0.000 C 
BRANCH   3   4
ATOM      4  C   UNL     1     -42.700 -48.011  35.306  1.00  0.00     0.000 C 
BRANCH   4   5
ATOM      5  C   UNL     1     -42.323 -48.493  33.896  1.00  0.00     0.000 C 
BRANCH   5   6
ATOM      6  C   UNL     1     -42.881 -49.897  33.586  1.00  0.00     0.000 C 
BRANCH   6   7
ATOM      7  C   UNL     1     -41.871 -51.035  33.814  1.00  0.00     0.000 C 
BRANCH   7   8
ATOM      8  C   UNL     1     -42.393 -52.117  34.771  1.00  0.00     0.000 C 
BRANCH   8   9
ATOM      9  C   UNL     1     -42.057 -51.831  36.245  1.00  0.00     0.000 C 
BRANCH   9  10
ATOM     10  C   UNL     1     -43.235 -52.079  37.212  1.00  0.00     0.000 C 
BRANCH  10  11
ATOM     11  C   UNL     1     -44.591 -51.703  36.588  1.00  0.00     0.000 C 
BRANCH  11  12
ATOM     12  C   UNL     1     -44.869 -50.188  36.635  1.00  0.00     0.006 C 
BRANCH  12  13
ATOM     13  C   UNL     1     -46.329 -49.825  36.954  1.00  0.00     0.053 C 
BRANCH  13  14
ATOM     14  C   UNL     1     -46.513 -48.348  37.137  1.00  0.00     0.041 C 
ATOM     15  O   UNL     1     -47.632 -47.817  36.911  1.00  0.00    -0.550 OA
ATOM     16  O   UNL     1     -45.459 -47.566  37.591  1.00  0.00    -0.550 OA
ENDBRANCH  13  14
ENDBRANCH  12  13
ENDBRANCH  11  12
ENDBRANCH  10  11
ENDBRANCH   9  10
ENDBRANCH   8   9
ENDBRANCH   7   8
ENDBRANCH   6   7
ENDBRANCH   5   6
ENDBRANCH   4   5
ENDBRANCH   3   4
ENDBRANCH   2   3
ENDBRANCH   1   2
BRANCH   1  17
ATOM     17  C   UNL     1     -41.835 -48.716  40.238  1.00  0.00     0.000 C 
BRANCH  17  18
ATOM     18  C   UNL     1     -42.835 -49.719  40.835  1.00  0.00     0.000 C 
BRANCH  18  19
ATOM     19  C   UNL     1     -44.249 -49.476  40.293  1.00  0.00     0.000 C 
BRANCH  19  20
ATOM     20  C   UNL     1     -45.050 -50.786  40.239  1.00  0.00     0.000 C 
BRANCH  20  21
ATOM     21  C   UNL     1     -44.735 -51.728  41.412  1.00  0.00     0.000 C 
BRANCH  21  22
ATOM     22  C   UNL     1     -45.668 -52.951  41.459  1.00  0.00    -0.000 C 
BRANCH  22  23
ATOM     23  C   UNL     1     -47.146 -52.558  41.620  1.00  0.00    -0.000 C 
BRANCH  23  24
ATOM     24  C   UNL     1     -48.055 -53.204  40.559  1.00  0.00    -0.000 C 
BRANCH  24  25
ATOM     25  C   UNL     1     -47.753 -52.685  39.137  1.00  0.00    -0.000 C 
BRANCH  25  26
ATOM     26  C   UNL     1     -47.515 -53.803  38.110  1.00  0.00    -0.000 C 
BRANCH  26  27
ATOM     27  C   UNL     1     -46.139 -54.472  38.265  1.00  0.00    -0.000 C 
BRANCH  27  28
ATOM     28  C   UNL     1     -46.231 -56.002  38.418  1.00  0.00    -0.000 C 
BRANCH  28  29
ATOM     29  C   UNL     1     -47.597 -56.520  38.901  1.00  0.00    -0.003 C 
ATOM     30  C   UNL     1     -48.046 -57.789  38.178  1.00  0.00     0.004 C 
ENDBRANCH  28  29
ENDBRANCH  27  28
ENDBRANCH  26  27
ENDBRANCH  25  26
ENDBRANCH  24  25
ENDBRANCH  23  24
ENDBRANCH  22  23
ENDBRANCH  21  22
ENDBRANCH  20  21
ENDBRANCH  19  20
ENDBRANCH  18  19
ENDBRANCH  17  18
ENDBRANCH   1  17
TORSDOF 26
ENDMDL
MODEL 5
REMARK VINA RESULT:    -3.678      1.365      3.286
REMARK INTER + INTRA:         -14.691
REMARK INTER:                  -9.561
REMARK INTRA:                  -5.130
REMARK UNBOUND:                -5.422
REMARK SMILES CCCCCCCCCCCCCCCCCCCCCCCCCCCC(=O)[O-]
REMARK SMILES IDX 15 1 16 2 17 3 18 4 19 5 20 6 21 7 22 8 23 9 24 10 25 11
REMARK SMILES IDX 26 12 27 13 28 14 29 15 30 16 14 17 13 18 12 19 11 20 10 21
REMARK SMILES IDX 9 22 8 23 7 24 6 25 5 26 4 27 3 28 2 29 1 30
REMARK H PARENT
REMARK Flexibility Score: inf
ROOT
ATOM      1  C   UNL     1     -42.204 -51.692  37.583  1.00  0.00     0.000 C 
ENDROOT
BRANCH   1   2
ATOM      2  C   UNL     1     -41.131 -50.647  37.942  1.00  0.00     0.000 C 
BRANCH   2   3
ATOM      3  C   UNL     1     -40.353 -50.143  36.717  1.00  0.00     0.000 C 
BRANCH   3   4
ATOM      4  C   UNL     1     -39.874 -48.702  36.930  1.00  0.00     0.000 C 
BRANCH   4   5
ATOM      5  C   UNL     1     -40.021 -47.874  35.642  1.00  0.00     0.000 C 
BRANCH   5   6
ATOM      6  C   UNL     1     -40.732 -48.657  34.518  1.00  0.00     0.000 C 
BRANCH   6   7
ATOM      7  C   UNL     1     -42.177 -48.199  34.258  1.00  0.00     0.000 C 
BRANCH   7   8
ATOM      8  C   UNL     1     -43.201 -49.336  34.399  1.00  0.00     0.000 C 
BRANCH   8   9
ATOM      9  C   UNL     1     -44.083 -49.201  35.652  1.00  0.00     0.000 C 
BRANCH   9  10
ATOM     10  C   UNL     1     -43.548 -48.184  36.684  1.00  0.00     0.000 C 
BRANCH  10  11
ATOM     11  C   UNL     1     -44.545 -47.936  37.830  1.00  0.00     0.000 C 
BRANCH  11  12
ATOM     12  C   UNL     1     -43.855 -47.794  39.200  1.00  0.00     0.006 C 
BRANCH  12  13
ATOM     13  C   UNL     1     -42.432 -47.214  39.133  1.00  0.00     0.053 C 
BRANCH  13  14
ATOM     14  C   UNL     1     -42.295 -45.966  39.953  1.00  0.00     0.041 C 
ATOM     15  O   UNL     1     -43.320 -45.324  40.305  1.00  0.00    -0.550 OA
ATOM     16  O   UNL     1     -41.039 -45.534  40.357  1.00  0.00    -0.550 OA
ENDBRANCH  13  14
ENDBRANCH  12  13
ENDBRANCH  11  12
ENDBRANCH  10  11
ENDBRANCH   9  10
ENDBRANCH   8   9
ENDBRANCH   7   8
ENDBRANCH   6   7
ENDBRANCH   5   6
ENDBRANCH   4   5
ENDBRANCH   3   4
ENDBRANCH   2   3
ENDBRANCH   1   2
BRANCH   1  17
ATOM     17  C   UNL     1     -42.539 -52.693  38.704  1.00  0.00     0.000 C 
BRANCH  17  18
ATOM     18  C   UNL     1     -42.825 -54.109  38.177  1.00  0.00     0.000 C 
BRANCH  18  19
ATOM     19  C   UNL     1     -43.984 -54.758  38.943  1.00  0.00     0.000 C 
BRANCH  19  20
ATOM     20  C   UNL     1     -45.169 -55.046  38.008  1.00  0.00     0.000 C 
BRANCH  20  21
ATOM     21  C   UNL     1     -46.511 -54.560  38.580  1.00  0.00     0.000 C 
BRANCH  21  22
ATOM     22  C   UNL     1     -47.178 -53.488  37.699  1.00  0.00    -0.000 C 
BRANCH  22  23
ATOM     23  C   UNL     1     -46.194 -52.388  37.265  1.00  0.00    -0.000 C 
BRANCH  23  24
ATOM     24  C   UNL     1     -46.794 -50.974  37.372  1.00  0.00    -0.000 C 
BRANCH  24  25
ATOM     25  C   UNL     1     -46.575 -50.351  38.767  1.00  0.00    -0.000 C 
BRANCH  25  26
ATOM     26  C   UNL     1     -45.518 -51.082  39.610  1.00  0.00    -0.000 C 
BRANCH  26  27
ATOM     27  C   UNL     1     -46.095 -51.683  40.903  1.00  0.00    -0.000 C 
BRANCH  27  28
ATOM     28  C   UNL     1     -47.609 -51.438  41.052  1.00  0.00    -0.000 C 
BRANCH  28  29
ATOM     29  C   UNL     1     -48.437 -52.699  41.358  1.00  0.00    -0.003 C 
ATOM     30  C   UNL     1     -47.621 -53.801  42.033  1.00  0.00     0.004 C 
ENDBRANCH  28  29
ENDBRANCH  27  28
ENDBRANCH  26  27
ENDBRANCH  25  26
ENDBRANCH  24  25
ENDBRANCH  23  24
ENDBRANCH  22  23
ENDBRANCH  21  22
ENDBRANCH  20  21
ENDBRANCH  19  20
ENDBRANCH  18  19
ENDBRANCH  17  18
ENDBRANCH   1  17
TORSDOF 26
ENDMDL
MODEL 6
REMARK VINA RESULT:    -3.656      1.977      5.269
REMARK INTER + INTRA:         -14.635
REMARK INTER:                  -9.123
REMARK INTRA:                  -5.512
REMARK UNBOUND:                -5.422
REMARK SMILES CCCCCCCCCCCCCCCCCCCCCCCCCCCC(=O)[O-]
REMARK SMILES IDX 15 1 16 2 17 3 18 4 19 5 20 6 21 7 22 8 23 9 24 10 25 11
REMARK SMILES IDX 26 12 27 13 28 14 29 15 30 16 14 17 13 18 12 19 11 20 10 21
REMARK SMILES IDX 9 22 8 23 7 24 6 25 5 26 4 27 3 28 2 29 1 30
REMARK H PARENT
REMARK Flexibility Score: inf
ROOT
ATOM      1  C   UNL     1     -41.294 -49.120  37.769  1.00  0.00     0.000 C 
ENDROOT
BRANCH   1   2
ATOM      2  C   UNL     1     -41.768 -47.823  38.450  1.00  0.00     0.000 C 
BRANCH   2   3
ATOM      3  C   UNL     1     -43.272 -47.825  38.761  1.00  0.00     0.000 C 
BRANCH   3   4
ATOM      4  C   UNL     1     -44.068 -48.449  37.608  1.00  0.00     0.000 C 
BRANCH   4   5
ATOM      5  C   UNL     1     -45.412 -47.728  37.411  1.00  0.00     0.000 C 
BRANCH   5   6
ATOM      6  C   UNL     1     -46.581 -48.711  37.198  1.00  0.00     0.000 C 
BRANCH   6   7
ATOM      7  C   UNL     1     -46.136 -50.145  36.861  1.00  0.00     0.000 C 
BRANCH   7   8
ATOM      8  C   UNL     1     -46.611 -51.178  37.894  1.00  0.00     0.000 C 
BRANCH   8   9
ATOM      9  C   UNL     1     -46.864 -50.568  39.284  1.00  0.00     0.000 C 
BRANCH   9  10
ATOM     10  C   UNL     1     -45.986 -51.175  40.400  1.00  0.00     0.000 C 
BRANCH  10  11
ATOM     11  C   UNL     1     -44.487 -51.139  40.048  1.00  0.00     0.000 C 
BRANCH  11  12
ATOM     12  C   UNL     1     -43.584 -51.087  41.295  1.00  0.00     0.006 C 
BRANCH  12  13
ATOM     13  C   UNL     1     -42.142 -50.635  41.011  1.00  0.00     0.053 C 
BRANCH  13  14
ATOM     14  C   UNL     1     -41.700 -49.547  41.944  1.00  0.00     0.041 C 
ATOM     15  O   UNL     1     -40.661 -48.881  41.693  1.00  0.00    -0.550 OA
ATOM     16  O   UNL     1     -42.456 -49.246  43.069  1.00  0.00    -0.550 OA
ENDBRANCH  13  14
ENDBRANCH  12  13
ENDBRANCH  11  12
ENDBRANCH  10  11
ENDBRANCH   9  10
ENDBRANCH   8   9
ENDBRANCH   7   8
ENDBRANCH   6   7
ENDBRANCH   5   6
ENDBRANCH   4   5
ENDBRANCH   3   4
ENDBRANCH   2   3
ENDBRANCH   1   2
BRANCH   1  17
ATOM     17  C   UNL     1     -40.249 -48.927  36.654  1.00  0.00     0.000 C 
BRANCH  17  18
ATOM     18  C   UNL     1     -40.510 -47.677  35.799  1.00  0.00     0.000 C 
BRANCH  18  19
ATOM     19  C   UNL     1     -40.989 -48.061  34.394  1.00  0.00     0.000 C 
BRANCH  19  20
ATOM     20  C   UNL     1     -42.521 -47.990  34.297  1.00  0.00     0.000 C 
BRANCH  20  21
ATOM     21  C   UNL     1     -43.184 -49.377  34.294  1.00  0.00     0.000 C 
BRANCH  21  22
ATOM     22  C   UNL     1     -42.281 -50.465  33.685  1.00  0.00    -0.000 C 
BRANCH  22  23
ATOM     23  C   UNL     1     -42.119 -51.682  34.611  1.00  0.00    -0.000 C 
BRANCH  23  24
ATOM     24  C   UNL     1     -43.085 -51.653  35.810  1.00  0.00    -0.000 C 
BRANCH  24  25
ATOM     25  C   UNL     1     -43.940 -52.934  35.901  1.00  0.00    -0.000 C 
BRANCH  25  26
ATOM     26  C   UNL     1     -43.853 -53.637  37.266  1.00  0.00    -0.000 C 
BRANCH  26  27
ATOM     27  C   UNL     1     -44.978 -54.664  37.481  1.00  0.00    -0.000 C 
BRANCH  27  28
ATOM     28  C   UNL     1     -45.683 -54.503  38.841  1.00  0.00    -0.000 C 
BRANCH  28  29
ATOM     29  C   UNL     1     -47.157 -54.946  38.858  1.00  0.00    -0.003 C 
ATOM     30  C   UNL     1     -47.345 -56.411  38.468  1.00  0.00     0.004 C 
ENDBRANCH  28  29
ENDBRANCH  27  28
ENDBRANCH  26  27
ENDBRANCH  25  26
ENDBRANCH  24  25
ENDBRANCH  23  24
ENDBRANCH  22  23
ENDBRANCH  21  22
ENDBRANCH  20  21
ENDBRANCH  19  20
ENDBRANCH  18  19
ENDBRANCH  17  18
ENDBRANCH   1  17
TORSDOF 26
ENDMDL
MODEL 7
REMARK VINA RESULT:    -3.609      3.468      6.985
REMARK INTER + INTRA:         -14.517
REMARK INTER:                  -8.905
REMARK INTRA:                  -5.612
REMARK UNBOUND:                -5.422
REMARK SMILES CCCCCCCCCCCCCCCCCCCCCCCCCCCC(=O)[O-]
REMARK SMILES IDX 15 1 16 2 17 3 18 4 19 5 20 6 21 7 22 8 23 9 24 10 25 11
REMARK SMILES IDX 26 12 27 13 28 14 29 15 30 16 14 17 13 18 12 19 11 20 10 21
REMARK SMILES IDX 9 22 8 23 7 24 6 25 5 26 4 27 3 28 2 29 1 30
REMARK H PARENT
REMARK Flexibility Score: inf
ROOT
ATOM      1  C   UNL     1     -40.989 -51.211  38.425  1.00  0.00     0.000 C 
ENDROOT
BRANCH   1   2
ATOM      2  C   UNL     1     -41.651 -50.660  39.701  1.00  0.00     0.000 C 
BRANCH   2   3
ATOM      3  C   UNL     1     -43.185 -50.736  39.660  1.00  0.00     0.000 C 
BRANCH   3   4
ATOM      4  C   UNL     1     -43.810 -49.536  40.383  1.00  0.00     0.000 C 
BRANCH   4   5
ATOM      5  C   UNL     1     -43.895 -48.314  39.453  1.00  0.00     0.000 C 
BRANCH   5   6
ATOM      6  C   UNL     1     -44.115 -48.711  37.979  1.00  0.00     0.000 C 
BRANCH   6   7
ATOM      7  C   UNL     1     -45.309 -48.004  37.315  1.00  0.00     0.000 C 
BRANCH   7   8
ATOM      8  C   UNL     1     -46.457 -48.964  36.970  1.00  0.00     0.000 C 
BRANCH   8   9
ATOM      9  C   UNL     1     -46.578 -50.139  37.955  1.00  0.00     0.000 C 
BRANCH   9  10
ATOM     10  C   UNL     1     -47.038 -51.459  37.299  1.00  0.00     0.000 C 
BRANCH  10  11
ATOM     11  C   UNL     1     -47.170 -52.603  38.320  1.00  0.00     0.000 C 
BRANCH  11  12
ATOM     12  C   UNL     1     -46.922 -52.140  39.768  1.00  0.00     0.006 C 
BRANCH  12  13
ATOM     13  C   UNL     1     -46.368 -53.236  40.695  1.00  0.00     0.053 C 
BRANCH  13  14
ATOM     14  C   UNL     1     -47.409 -53.751  41.641  1.00  0.00     0.041 C 
ATOM     15  O   UNL     1     -48.595 -53.332  41.569  1.00  0.00    -0.550 OA
ATOM     16  O   UNL     1     -47.079 -54.721  42.579  1.00  0.00    -0.550 OA
ENDBRANCH  13  14
ENDBRANCH  12  13
ENDBRANCH  11  12
ENDBRANCH  10  11
ENDBRANCH   9  10
ENDBRANCH   8   9
ENDBRANCH   7   8
ENDBRANCH   6   7
ENDBRANCH   5   6
ENDBRANCH   4   5
ENDBRANCH   3   4
ENDBRANCH   2   3
ENDBRANCH   1   2
BRANCH   1  17
ATOM     17  C   UNL     1     -40.108 -50.205  37.661  1.00  0.00     0.000 C 
BRANCH  17  18
ATOM     18  C   UNL     1     -40.323 -48.753  38.119  1.00  0.00     0.000 C 
BRANCH  18  19
ATOM     19  C   UNL     1     -40.922 -47.904  36.992  1.00  0.00     0.000 C 
BRANCH  19  20
ATOM     20  C   UNL     1     -40.036 -47.951  35.736  1.00  0.00     0.000 C 
BRANCH  20  21
ATOM     21  C   UNL     1     -40.850 -48.022  34.434  1.00  0.00     0.000 C 
BRANCH  21  22
ATOM     22  C   UNL     1     -42.367 -47.918  34.676  1.00  0.00    -0.000 C 
BRANCH  22  23
ATOM     23  C   UNL     1     -43.131 -49.149  34.162  1.00  0.00    -0.000 C 
BRANCH  23  24
ATOM     24  C   UNL     1     -42.201 -50.323  33.807  1.00  0.00    -0.000 C 
BRANCH  24  25
ATOM     25  C   UNL     1     -42.297 -51.475  34.830  1.00  0.00    -0.000 C 
BRANCH  25  26
ATOM     26  C   UNL     1     -43.508 -51.364  35.771  1.00  0.00    -0.000 C 
BRANCH  26  27
ATOM     27  C   UNL     1     -43.915 -52.715  36.382  1.00  0.00    -0.000 C 
BRANCH  27  28
ATOM     28  C   UNL     1     -42.765 -53.740  36.388  1.00  0.00    -0.000 C 
BRANCH  28  29
ATOM     29  C   UNL     1     -43.013 -54.981  37.264  1.00  0.00    -0.003 C 
ATOM     30  C   UNL     1     -44.416 -55.015  37.868  1.00  0.00     0.004 C 
ENDBRANCH  28  29
ENDBRANCH  27  28
ENDBRANCH  26  27
ENDBRANCH  25  26
ENDBRANCH  24  25
ENDBRANCH  23  24
ENDBRANCH  22  23
ENDBRANCH  21  22
ENDBRANCH  20  21
ENDBRANCH  19  20
ENDBRANCH  18  19
ENDBRANCH  17  18
ENDBRANCH   1  17
TORSDOF 26
ENDMDL
MODEL 8
REMARK VINA RESULT:    -3.607      2.352      3.768
REMARK INTER + INTRA:         -14.513
REMARK INTER:                  -9.531
REMARK INTRA:                  -4.982
REMARK UNBOUND:                -5.422
REMARK SMILES CCCCCCCCCCCCCCCCCCCCCCCCCCCC(=O)[O-]
REMARK SMILES IDX 15 1 16 2 17 3 18 4 19 5 20 6 21 7 22 8 23 9 24 10 25 11
REMARK SMILES IDX 26 12 27 13 28 14 29 15 30 16 14 17 13 18 12 19 11 20 10 21
REMARK SMILES IDX 9 22 8 23 7 24 6 25 5 26 4 27 3 28 2 29 1 30
REMARK H PARENT
REMARK Flexibility Score: inf
ROOT
ATOM      1  C   UNL     1     -44.107 -51.722  36.971  1.00  0.00     0.000 C 
ENDROOT
BRANCH   1   2
ATOM      2  C   UNL     1     -43.481 -51.247  35.647  1.00  0.00     0.000 C 
BRANCH   2   3
ATOM      3  C   UNL     1     -43.795 -49.776  35.330  1.00  0.00     0.000 C 
BRANCH   3   4
ATOM      4  C   UNL     1     -43.105 -49.338  34.033  1.00  0.00     0.000 C 
BRANCH   4   5
ATOM      5  C   UNL     1     -42.458 -47.952  34.193  1.00  0.00     0.000 C 
BRANCH   5   6
ATOM      6  C   UNL     1     -40.948 -48.040  34.498  1.00  0.00     0.000 C 
BRANCH   6   7
ATOM      7  C   UNL     1     -40.589 -47.734  35.962  1.00  0.00     0.000 C 
BRANCH   7   8
ATOM      8  C   UNL     1     -40.439 -49.000  36.819  1.00  0.00     0.000 C 
BRANCH   8   9
ATOM      9  C   UNL     1     -41.211 -48.924  38.147  1.00  0.00     0.000 C 
BRANCH   9  10
ATOM     10  C   UNL     1     -42.327 -47.857  38.159  1.00  0.00     0.000 C 
BRANCH  10  11
ATOM     11  C   UNL     1     -43.641 -48.393  38.755  1.00  0.00     0.000 C 
BRANCH  11  12
ATOM     12  C   UNL     1     -43.468 -49.760  39.446  1.00  0.00     0.006 C 
BRANCH  12  13
ATOM     13  C   UNL     1     -43.969 -49.801  40.899  1.00  0.00     0.053 C 
BRANCH  13  14
ATOM     14  C   UNL     1     -42.839 -49.771  41.884  1.00  0.00     0.041 C 
ATOM     15  O   UNL     1     -41.952 -48.882  41.804  1.00  0.00    -0.550 OA
ATOM     16  O   UNL     1     -42.787 -50.704  42.912  1.00  0.00    -0.550 OA
ENDBRANCH  13  14
ENDBRANCH  12  13
ENDBRANCH  11  12
ENDBRANCH  10  11
ENDBRANCH   9  10
ENDBRANCH   8   9
ENDBRANCH   7   8
ENDBRANCH   6   7
ENDBRANCH   5   6
ENDBRANCH   4   5
ENDBRANCH   3   4
ENDBRANCH   2   3
ENDBRANCH   1   2
BRANCH   1  17
ATOM     17  C   UNL     1     -45.571 -52.190  36.868  1.00  0.00     0.000 C 
BRANCH  17  18
ATOM     18  C   UNL     1     -46.568 -51.171  37.441  1.00  0.00     0.000 C 
BRANCH  18  19
ATOM     19  C   UNL     1     -46.783 -51.396  38.943  1.00  0.00     0.000 C 
BRANCH  19  20
ATOM     20  C   UNL     1     -47.787 -52.534  39.190  1.00  0.00     0.000 C 
BRANCH  20  21
ATOM     21  C   UNL     1     -48.391 -52.499  40.603  1.00  0.00     0.000 C 
BRANCH  21  22
ATOM     22  C   UNL     1     -47.333 -52.683  41.706  1.00  0.00    -0.000 C 
BRANCH  22  23
ATOM     23  C   UNL     1     -47.245 -54.136  42.201  1.00  0.00    -0.000 C 
BRANCH  23  24
ATOM     24  C   UNL     1     -45.868 -54.773  41.944  1.00  0.00    -0.000 C 
BRANCH  24  25
ATOM     25  C   UNL     1     -44.895 -53.798  41.247  1.00  0.00    -0.000 C 
BRANCH  25  26
ATOM     26  C   UNL     1     -44.564 -54.188  39.797  1.00  0.00    -0.000 C 
BRANCH  26  27
ATOM     27  C   UNL     1     -44.998 -55.622  39.451  1.00  0.00    -0.000 C 
BRANCH  27  28
ATOM     28  C   UNL     1     -46.004 -55.678  38.286  1.00  0.00    -0.000 C 
BRANCH  28  29
ATOM     29  C   UNL     1     -47.438 -56.061  38.692  1.00  0.00    -0.003 C 
ATOM     30  C   UNL     1     -47.821 -57.479  38.270  1.00  0.00     0.004 C 
ENDBRANCH  28  29
ENDBRANCH  27  28
ENDBRANCH  26  27
ENDBRANCH  25  26
ENDBRANCH  24  25
ENDBRANCH  23  24
ENDBRANCH  22  23
ENDBRANCH  21  22
ENDBRANCH  20  21
ENDBRANCH  19  20
ENDBRANCH  18  19
ENDBRANCH  17  18
ENDBRANCH   1  17
TORSDOF 26
ENDMDL
MODEL 9
REMARK VINA RESULT:    -3.587      1.703      5.204
REMARK INTER + INTRA:         -14.461
REMARK INTER:                  -8.938
REMARK INTRA:                  -5.524
REMARK UNBOUND:                -5.422
REMARK SMILES CCCCCCCCCCCCCCCCCCCCCCCCCCCC(=O)[O-]
REMARK SMILES IDX 15 1 16 2 17 3 18 4 19 5 20 6 21 7 22 8 23 9 24 10 25 11
REMARK SMILES IDX 26 12 27 13 28 14 29 15 30 16 14 17 13 18 12 19 11 20 10 21
REMARK SMILES IDX 9 22 8 23 7 24 6 25 5 26 4 27 3 28 2 29 1 30
REMARK H PARENT
REMARK Flexibility Score: inf
ROOT
ATOM      1  C   UNL     1     -44.527 -50.157  36.222  1.00  0.00     0.000 C 
ENDROOT
BRANCH   1   2
ATOM      2  C   UNL     1     -45.543 -49.172  36.827  1.00  0.00     0.000 C 
BRANCH   2   3
ATOM      3  C   UNL     1     -46.843 -49.854  37.279  1.00  0.00     0.000 C 
BRANCH   3   4
ATOM      4  C   UNL     1     -46.679 -51.379  37.306  1.00  0.00     0.000 C 
BRANCH   4   5
ATOM      5  C   UNL     1     -47.122 -51.959  38.659  1.00  0.00     0.000 C 
BRANCH   5   6
ATOM      6  C   UNL     1     -46.633 -51.110  39.851  1.00  0.00     0.000 C 
BRANCH   6   7
ATOM      7  C   UNL     1     -45.188 -51.416  40.282  1.00  0.00     0.000 C 
BRANCH   7   8
ATOM      8  C   UNL     1     -44.232 -50.236  40.052  1.00  0.00     0.000 C 
BRANCH   8   9
ATOM      9  C   UNL     1     -42.843 -50.673  39.556  1.00  0.00     0.000 C 
BRANCH   9  10
ATOM     10  C   UNL     1     -41.816 -49.523  39.485  1.00  0.00     0.000 C 
BRANCH  10  11
ATOM     11  C   UNL     1     -42.318 -48.344  38.631  1.00  0.00     0.000 C 
BRANCH  11  12
ATOM     12  C   UNL     1     -41.769 -46.986  39.110  1.00  0.00     0.006 C 
BRANCH  12  13
ATOM     13  C   UNL     1     -42.110 -46.646  40.570  1.00  0.00     0.053 C 
BRANCH  13  14
ATOM     14  C   UNL     1     -42.640 -45.252  40.713  1.00  0.00     0.041 C 
ATOM     15  O   UNL     1     -43.789 -44.964  40.286  1.00  0.00    -0.550 OA
ATOM     16  O   UNL     1     -41.880 -44.280  41.351  1.00  0.00    -0.550 OA
ENDBRANCH  13  14
ENDBRANCH  12  13
ENDBRANCH  11  12
ENDBRANCH  10  11
ENDBRANCH   9  10
ENDBRANCH   8   9
ENDBRANCH   7   8
ENDBRANCH   6   7
ENDBRANCH   5   6
ENDBRANCH   4   5
ENDBRANCH   3   4
ENDBRANCH   2   3
ENDBRANCH   1   2
BRANCH   1  17
ATOM     17  C   UNL     1     -43.705 -49.604  35.043  1.00  0.00     0.000 C 
BRANCH  17  18
ATOM     18  C   UNL     1     -43.122 -48.209  35.321  1.00  0.00     0.000 C 
BRANCH  18  19
ATOM     19  C   UNL     1     -41.982 -47.885  34.348  1.00  0.00     0.000 C 
BRANCH  19  20
ATOM     20  C   UNL     1     -40.617 -47.981  35.047  1.00  0.00     0.000 C 
BRANCH  20  21
ATOM     21  C   UNL     1     -39.980 -49.375  34.923  1.00  0.00     0.000 C 
BRANCH  21  22
ATOM     22  C   UNL     1     -39.962 -50.141  36.258  1.00  0.00    -0.000 C 
BRANCH  22  23
ATOM     23  C   UNL     1     -40.874 -51.379  36.239  1.00  0.00    -0.000 C 
BRANCH  23  24
ATOM     24  C   UNL     1     -40.652 -52.265  35.000  1.00  0.00    -0.000 C 
BRANCH  24  25
ATOM     25  C   UNL     1     -41.936 -52.423  34.158  1.00  0.00    -0.000 C 
BRANCH  25  26
ATOM     26  C   UNL     1     -42.378 -53.884  33.976  1.00  0.00    -0.000 C 
BRANCH  26  27
ATOM     27  C   UNL     1     -42.812 -54.545  35.295  1.00  0.00    -0.000 C 
BRANCH  27  28
ATOM     28  C   UNL     1     -43.989 -53.816  35.971  1.00  0.00    -0.000 C 
BRANCH  28  29
ATOM     29  C   UNL     1     -43.789 -53.523  37.468  1.00  0.00    -0.003 C 
ATOM     30  C   UNL     1     -42.804 -54.480  38.139  1.00  0.00     0.004 C 
ENDBRANCH  28  29
ENDBRANCH  27  28
ENDBRANCH  26  27
ENDBRANCH  25  26
ENDBRANCH  24  25
ENDBRANCH  23  24
ENDBRANCH  22  23
ENDBRANCH  21  22
ENDBRANCH  20  21
ENDBRANCH  19  20
ENDBRANCH  18  19
ENDBRANCH  17  18
ENDBRANCH   1  17
TORSDOF 26
ENDMDL
