MODEL 1
REMARK VINA RESULT:    -3.858      0.000      0.000
REMARK INTER + INTRA:          -4.785
REMARK INTER:                  -4.535
REMARK INTRA:                  -0.250
REMARK UNBOUND:                -0.250
REMARK SMILES O=c1c(O)c(-c2ccc(O)cc2)oc2cc(O)cc(O)c12
REMARK SMILES IDX 5 1 3 2 2 3 1 4 21 5 19 6 18 7 16 8 15 9 14 10 13 11 6 12
REMARK SMILES IDX 7 13 8 14 9 15 12 16 11 17 10 18 4 20 20 22 17 24
REMARK H PARENT 10 19 4 21 20 23 17 25
REMARK Flexibility Score: inf
ROOT
ATOM      1  C   UNL     1    -100.139  27.352 -38.939  1.00  0.00     0.180 A 
ATOM      2  C   UNL     1    -100.285  26.094 -39.554  1.00  0.00     0.208 A 
ATOM      3  C   UNL     1     -99.144  25.448 -40.057  1.00  0.00     0.238 A 
ATOM      4  O   UNL     1     -99.264  24.326 -40.619  1.00  0.00    -0.285 OA
ATOM      5  C   UNL     1     -97.880  26.058 -39.918  1.00  0.00     0.111 A 
ATOM      6  C   UNL     1     -96.682  25.472 -40.391  1.00  0.00     0.134 A 
ATOM      7  C   UNL     1     -95.461  26.138 -40.207  1.00  0.00     0.093 A 
ATOM      8  C   UNL     1     -95.415  27.374 -39.558  1.00  0.00     0.123 A 
ATOM      9  C   UNL     1     -96.596  27.958 -39.088  1.00  0.00     0.094 A 
ATOM     10  C   UNL     1     -97.822  27.311 -39.264  1.00  0.00     0.146 A 
ATOM     11  O   UNL     1     -98.930  27.890 -38.812  1.00  0.00    -0.452 OA
ENDROOT
BRANCH   1  12
ATOM     12  C   UNL     1    -101.296  28.103 -38.402  1.00  0.00     0.021 A 
ATOM     13  C   UNL     1    -101.476  28.195 -37.011  1.00  0.00     0.016 A 
ATOM     14  C   UNL     1    -102.547  28.919 -36.481  1.00  0.00     0.047 A 
ATOM     15  C   UNL     1    -103.446  29.573 -37.335  1.00  0.00     0.115 A 
ATOM     16  C   UNL     1    -102.190  28.780 -39.252  1.00  0.00     0.016 A 
ATOM     17  C   UNL     1    -103.261  29.504 -38.719  1.00  0.00     0.047 A 
BRANCH  15  18
ATOM     18  O   UNL     1    -104.519  30.297 -36.819  1.00  0.00    -0.508 OA
ATOM     19  H   UNL     1    -104.834  31.157 -37.252  1.00  0.00     0.293 HD
ENDBRANCH  15  18
ENDBRANCH   1  12
BRANCH   2  20
ATOM     20  O   UNL     1    -101.542  25.489 -39.635  1.00  0.00    -0.502 OA
ATOM     21  H   UNL     1    -101.694  24.618 -40.130  1.00  0.00     0.293 HD
ENDBRANCH   2  20
BRANCH   6  22
ATOM     22  O   UNL     1     -96.694  24.238 -41.043  1.00  0.00    -0.507 OA
ATOM     23  H   UNL     1     -96.423  24.146 -42.015  1.00  0.00     0.293 HD
ENDBRANCH   6  22
BRANCH   8  24
ATOM     24  O   UNL     1     -94.190  28.014 -39.386  1.00  0.00    -0.508 OA
ATOM     25  H   UNL     1     -94.043  28.969 -39.692  1.00  0.00     0.293 HD
ENDBRANCH   8  24
TORSDOF 5
ENDMDL
MODEL 2
REMARK VINA RESULT:    -3.720      3.409      7.530
REMARK INTER + INTRA:          -4.622
REMARK INTER:                  -4.376
REMARK INTRA:                  -0.246
REMARK UNBOUND:                -0.250
REMARK SMILES O=c1c(O)c(-c2ccc(O)cc2)oc2cc(O)cc(O)c12
REMARK SMILES IDX 5 1 3 2 2 3 1 4 21 5 19 6 18 7 16 8 15 9 14 10 13 11 6 12
REMARK SMILES IDX 7 13 8 14 9 15 12 16 11 17 10 18 4 20 20 22 17 24
REMARK H PARENT 10 19 4 21 20 23 17 25
REMARK Flexibility Score: inf
ROOT
ATOM      1  C   UNL     1     -96.469  23.805 -40.989  1.00  0.00     0.180 A 
ATOM      2  C   UNL     1     -97.680  23.737 -40.274  1.00  0.00     0.208 A 
ATOM      3  C   UNL     1     -98.086  24.849 -39.520  1.00  0.00     0.238 A 
ATOM      4  O   UNL     1     -99.164  24.795 -38.867  1.00  0.00    -0.285 OA
ATOM      5  C   UNL     1     -97.290  26.012 -39.510  1.00  0.00     0.111 A 
ATOM      6  C   UNL     1     -97.630  27.177 -38.781  1.00  0.00     0.134 A 
ATOM      7  C   UNL     1     -96.789  28.298 -38.829  1.00  0.00     0.093 A 
ATOM      8  C   UNL     1     -95.619  28.280 -39.591  1.00  0.00     0.123 A 
ATOM      9  C   UNL     1     -95.277  27.131 -40.314  1.00  0.00     0.094 A 
ATOM     10  C   UNL     1     -96.102  26.003 -40.277  1.00  0.00     0.146 A 
ATOM     11  O   UNL     1     -95.751  24.924 -40.969  1.00  0.00    -0.452 OA
ENDROOT
BRANCH   1  12
ATOM     12  C   UNL     1     -95.964  22.667 -41.792  1.00  0.00     0.021 A 
ATOM     13  C   UNL     1     -96.001  22.740 -43.194  1.00  0.00     0.016 A 
ATOM     14  C   UNL     1     -95.508  21.688 -43.972  1.00  0.00     0.047 A 
ATOM     15  C   UNL     1     -94.959  20.556 -43.357  1.00  0.00     0.115 A 
ATOM     16  C   UNL     1     -95.392  21.536 -41.181  1.00  0.00     0.016 A 
ATOM     17  C   UNL     1     -94.900  20.485 -41.961  1.00  0.00     0.047 A 
BRANCH  15  18
ATOM     18  O   UNL     1     -94.466  19.500 -44.121  1.00  0.00    -0.508 OA
ATOM     19  H   UNL     1     -93.507  19.184 -44.031  1.00  0.00     0.293 HD
ENDBRANCH  15  18
ENDBRANCH   1  12
BRANCH   2  20
ATOM     20  O   UNL     1     -98.476  22.589 -40.340  1.00  0.00    -0.502 OA
ATOM     21  H   UNL     1     -98.736  22.062 -39.516  1.00  0.00     0.293 HD
ENDBRANCH   2  20
BRANCH   6  22
ATOM     22  O   UNL     1     -98.793  27.229 -38.010  1.00  0.00    -0.507 OA
ATOM     23  H   UNL     1     -99.535  27.890 -38.208  1.00  0.00     0.293 HD
ENDBRANCH   6  22
BRANCH   8  24
ATOM     24  O   UNL     1     -94.802  29.407 -39.623  1.00  0.00    -0.508 OA
ATOM     25  H   UNL     1     -95.096  30.262 -40.082  1.00  0.00     0.293 HD
ENDBRANCH   8  24
TORSDOF 5
ENDMDL
MODEL 3
REMARK VINA RESULT:    -3.672      2.140      6.663
REMARK INTER + INTRA:          -4.566
REMARK INTER:                  -4.274
REMARK INTRA:                  -0.293
REMARK UNBOUND:                -0.250
REMARK SMILES O=c1c(O)c(-c2ccc(O)cc2)oc2cc(O)cc(O)c12
REMARK SMILES IDX 5 1 3 2 2 3 1 4 21 5 19 6 18 7 16 8 15 9 14 10 13 11 6 12
REMARK SMILES IDX 7 13 8 14 9 15 12 16 11 17 10 18 4 20 20 22 17 24
REMARK H PARENT 10 19 4 21 20 23 17 25
REMARK Flexibility Score: inf
ROOT
ATOM      1  C   UNL     1     -99.645  27.556 -39.310  1.00  0.00     0.180 A 
ATOM      2  C   UNL     1    -100.430  27.447 -38.145  1.00  0.00     0.208 A 
ATOM      3  C   UNL     1    -101.821  27.608 -38.247  1.00  0.00     0.238 A 
ATOM      4  O   UNL     1    -102.532  27.523 -37.209  1.00  0.00    -0.285 OA
ATOM      5  C   UNL     1    -102.403  27.854 -39.507  1.00  0.00     0.111 A 
ATOM      6  C   UNL     1    -103.796  28.023 -39.696  1.00  0.00     0.134 A 
ATOM      7  C   UNL     1    -104.300  28.256 -40.984  1.00  0.00     0.093 A 
ATOM      8  C   UNL     1    -103.443  28.320 -42.084  1.00  0.00     0.123 A 
ATOM      9  C   UNL     1    -102.065  28.154 -41.904  1.00  0.00     0.094 A 
ATOM     10  C   UNL     1    -101.543  27.923 -40.627  1.00  0.00     0.146 A 
ATOM     11  O   UNL     1    -100.231  27.774 -40.483  1.00  0.00    -0.452 OA
ENDROOT
BRANCH   1  12
ATOM     12  C   UNL     1     -98.172  27.418 -39.281  1.00  0.00     0.021 A 
ATOM     13  C   UNL     1     -97.585  26.192 -39.637  1.00  0.00     0.016 A 
ATOM     14  C   UNL     1     -96.195  26.045 -39.639  1.00  0.00     0.047 A 
ATOM     15  C   UNL     1     -95.372  27.128 -39.300  1.00  0.00     0.115 A 
ATOM     16  C   UNL     1     -97.338  28.507 -38.962  1.00  0.00     0.016 A 
ATOM     17  C   UNL     1     -95.948  28.357 -38.966  1.00  0.00     0.047 A 
BRANCH  15  18
ATOM     18  O   UNL     1     -93.986  26.994 -39.298  1.00  0.00    -0.508 OA
ATOM     19  H   UNL     1     -93.445  27.104 -38.449  1.00  0.00     0.293 HD
ENDBRANCH  15  18
ENDBRANCH   1  12
BRANCH   2  20
ATOM     20  O   UNL     1     -99.832  27.154 -36.916  1.00  0.00    -0.502 OA
ATOM     21  H   UNL     1     -99.952  27.743 -36.101  1.00  0.00     0.293 HD
ENDBRANCH   2  20
BRANCH   6  22
ATOM     22  O   UNL     1    -104.680  27.963 -38.618  1.00  0.00    -0.507 OA
ATOM     23  H   UNL     1    -105.662  28.193 -38.719  1.00  0.00     0.293 HD
ENDBRANCH   6  22
BRANCH   8  24
ATOM     24  O   UNL     1    -103.969  28.551 -43.353  1.00  0.00    -0.508 OA
ATOM     25  H   UNL     1    -103.563  29.238 -43.978  1.00  0.00     0.293 HD
ENDBRANCH   8  24
TORSDOF 5
ENDMDL
MODEL 4
REMARK VINA RESULT:    -3.621      2.671      3.317
REMARK INTER + INTRA:          -4.507
REMARK INTER:                  -4.309
REMARK INTRA:                  -0.198
REMARK UNBOUND:                -0.250
REMARK SMILES O=c1c(O)c(-c2ccc(O)cc2)oc2cc(O)cc(O)c12
REMARK SMILES IDX 5 1 3 2 2 3 1 4 21 5 19 6 18 7 16 8 15 9 14 10 13 11 6 12
REMARK SMILES IDX 7 13 8 14 9 15 12 16 11 17 10 18 4 20 20 22 17 24
REMARK H PARENT 10 19 4 21 20 23 17 25
REMARK Flexibility Score: inf
ROOT
ATOM      1  C   UNL     1    -101.999  27.448 -41.120  1.00  0.00     0.180 A 
ATOM      2  C   UNL     1    -101.836  26.106 -41.514  1.00  0.00     0.208 A 
ATOM      3  C   UNL     1    -100.655  25.434 -41.161  1.00  0.00     0.238 A 
ATOM      4  O   UNL     1    -100.494  24.235 -41.518  1.00  0.00    -0.285 OA
ATOM      5  C   UNL     1     -99.671  26.104 -40.407  1.00  0.00     0.111 A 
ATOM      6  C   UNL     1     -98.456  25.497 -40.006  1.00  0.00     0.134 A 
ATOM      7  C   UNL     1     -97.530  26.228 -39.248  1.00  0.00     0.093 A 
ATOM      8  C   UNL     1     -97.794  27.550 -38.881  1.00  0.00     0.123 A 
ATOM      9  C   UNL     1     -98.993  28.155 -39.274  1.00  0.00     0.094 A 
ATOM     10  C   UNL     1     -99.928  27.443 -40.032  1.00  0.00     0.146 A 
ATOM     11  O   UNL     1    -101.056  28.043 -40.396  1.00  0.00    -0.452 OA
ENDROOT
BRANCH   1  12
ATOM     12  C   UNL     1    -103.207  28.229 -41.469  1.00  0.00     0.021 A 
ATOM     13  C   UNL     1    -104.075  28.655 -40.450  1.00  0.00     0.016 A 
ATOM     14  C   UNL     1    -105.208  29.413 -40.754  1.00  0.00     0.047 A 
ATOM     15  C   UNL     1    -105.481  29.769 -42.082  1.00  0.00     0.115 A 
ATOM     16  C   UNL     1    -103.477  28.608 -42.798  1.00  0.00     0.016 A 
ATOM     17  C   UNL     1    -104.611  29.368 -43.099  1.00  0.00     0.047 A 
BRANCH  15  18
ATOM     18  O   UNL     1    -106.609  30.524 -42.398  1.00  0.00    -0.508 OA
ATOM     19  H   UNL     1    -107.285  30.787 -41.690  1.00  0.00     0.293 HD
ENDBRANCH  15  18
ENDBRANCH   1  12
BRANCH   2  20
ATOM     20  O   UNL     1    -102.848  25.449 -42.219  1.00  0.00    -0.502 OA
ATOM     21  H   UNL     1    -103.567  24.905 -41.757  1.00  0.00     0.293 HD
ENDBRANCH   2  20
BRANCH   6  22
ATOM     22  O   UNL     1     -98.162  24.178 -40.355  1.00  0.00    -0.507 OA
ATOM     23  H   UNL     1     -97.934  23.480 -39.658  1.00  0.00     0.293 HD
ENDBRANCH   6  22
BRANCH   8  24
ATOM     24  O   UNL     1     -96.858  28.254 -38.127  1.00  0.00    -0.508 OA
ATOM     25  H   UNL     1     -96.152  27.776 -37.578  1.00  0.00     0.293 HD
ENDBRANCH   8  24
TORSDOF 5
ENDMDL
MODEL 5
REMARK VINA RESULT:    -3.563     10.984     13.405
REMARK INTER + INTRA:          -4.438
REMARK INTER:                  -4.158
REMARK INTRA:                  -0.280
REMARK UNBOUND:                -0.250
REMARK SMILES O=c1c(O)c(-c2ccc(O)cc2)oc2cc(O)cc(O)c12
REMARK SMILES IDX 5 1 3 2 2 3 1 4 21 5 19 6 18 7 16 8 15 9 14 10 13 11 6 12
REMARK SMILES IDX 7 13 8 14 9 15 12 16 11 17 10 18 4 20 20 22 17 24
REMARK H PARENT 10 19 4 21 20 23 17 25
REMARK Flexibility Score: inf
ROOT
ATOM      1  C   UNL     1     -98.286  25.272 -27.876  1.00  0.00     0.180 A 
ATOM      2  C   UNL     1     -99.632  24.878 -28.005  1.00  0.00     0.208 A 
ATOM      3  C   UNL     1    -100.607  25.535 -27.239  1.00  0.00     0.238 A 
ATOM      4  O   UNL     1    -101.814  25.183 -27.339  1.00  0.00    -0.285 OA
ATOM      5  C   UNL     1    -100.226  26.582 -26.375  1.00  0.00     0.111 A 
ATOM      6  C   UNL     1    -101.147  27.297 -25.573  1.00  0.00     0.134 A 
ATOM      7  C   UNL     1    -100.690  28.333 -24.744  1.00  0.00     0.093 A 
ATOM      8  C   UNL     1     -99.336  28.669 -24.705  1.00  0.00     0.123 A 
ATOM      9  C   UNL     1     -98.420  27.966 -25.496  1.00  0.00     0.094 A 
ATOM     10  C   UNL     1     -98.856  26.929 -26.326  1.00  0.00     0.146 A 
ATOM     11  O   UNL     1     -97.965  26.274 -27.063  1.00  0.00    -0.452 OA
ENDROOT
BRANCH   1  12
ATOM     12  C   UNL     1     -97.198  24.616 -28.636  1.00  0.00     0.021 A 
ATOM     13  C   UNL     1     -96.903  25.053 -29.939  1.00  0.00     0.016 A 
ATOM     14  C   UNL     1     -95.865  24.464 -30.666  1.00  0.00     0.047 A 
ATOM     15  C   UNL     1     -95.098  23.439 -30.095  1.00  0.00     0.115 A 
ATOM     16  C   UNL     1     -96.410  23.600 -28.062  1.00  0.00     0.016 A 
ATOM     17  C   UNL     1     -95.372  23.014 -28.791  1.00  0.00     0.047 A 
BRANCH  15  18
ATOM     18  O   UNL     1     -94.062  22.844 -30.810  1.00  0.00    -0.508 OA
ATOM     19  H   UNL     1     -93.371  22.259 -30.354  1.00  0.00     0.293 HD
ENDBRANCH  15  18
ENDBRANCH   1  12
BRANCH   2  20
ATOM     20  O   UNL     1     -99.989  23.871 -28.905  1.00  0.00    -0.502 OA
ATOM     21  H   UNL     1    -100.953  23.603 -29.065  1.00  0.00     0.293 HD
ENDBRANCH   2  20
BRANCH   6  22
ATOM     22  O   UNL     1    -102.508  26.987 -25.589  1.00  0.00    -0.507 OA
ATOM     23  H   UNL     1    -102.952  26.579 -26.404  1.00  0.00     0.293 HD
ENDBRANCH   6  22
BRANCH   8  24
ATOM     24  O   UNL     1     -98.908  29.703 -23.875  1.00  0.00    -0.508 OA
ATOM     25  H   UNL     1     -98.878  30.664 -24.198  1.00  0.00     0.293 HD
ENDBRANCH   8  24
TORSDOF 5
ENDMDL
MODEL 6
REMARK VINA RESULT:    -3.561     10.297     13.264
REMARK INTER + INTRA:          -4.436
REMARK INTER:                  -4.160
REMARK INTRA:                  -0.276
REMARK UNBOUND:                -0.250
REMARK SMILES O=c1c(O)c(-c2ccc(O)cc2)oc2cc(O)cc(O)c12
REMARK SMILES IDX 5 1 3 2 2 3 1 4 21 5 19 6 18 7 16 8 15 9 14 10 13 11 6 12
REMARK SMILES IDX 7 13 8 14 9 15 12 16 11 17 10 18 4 20 20 22 17 24
REMARK H PARENT 10 19 4 21 20 23 17 25
REMARK Flexibility Score: inf
ROOT
ATOM      1  C   UNL     1    -100.487  24.617 -28.287  1.00  0.00     0.180 A 
ATOM      2  C   UNL     1    -101.290  24.800 -29.429  1.00  0.00     0.208 A 
ATOM      3  C   UNL     1    -102.592  25.299 -29.270  1.00  0.00     0.238 A 
ATOM      4  O   UNL     1    -103.323  25.457 -30.285  1.00  0.00    -0.285 OA
ATOM      5  C   UNL     1    -103.061  25.625 -27.981  1.00  0.00     0.111 A 
ATOM      6  C   UNL     1    -104.358  26.137 -27.736  1.00  0.00     0.134 A 
ATOM      7  C   UNL     1    -104.747  26.446 -26.424  1.00  0.00     0.093 A 
ATOM      8  C   UNL     1    -103.868  26.255 -25.356  1.00  0.00     0.123 A 
ATOM      9  C   UNL     1    -102.585  25.748 -25.592  1.00  0.00     0.094 A 
ATOM     10  C   UNL     1    -102.179  25.433 -26.892  1.00  0.00     0.146 A 
ATOM     11  O   UNL     1    -100.957  24.949 -27.088  1.00  0.00    -0.452 OA
ENDROOT
BRANCH   1  12
ATOM     12  C   UNL     1     -99.111  24.078 -28.370  1.00  0.00     0.021 A 
ATOM     13  C   UNL     1     -98.017  24.953 -28.258  1.00  0.00     0.016 A 
ATOM     14  C   UNL     1     -96.709  24.463 -28.310  1.00  0.00     0.047 A 
ATOM     15  C   UNL     1     -96.477  23.090 -28.462  1.00  0.00     0.115 A 
ATOM     16  C   UNL     1     -98.870  22.697 -28.501  1.00  0.00     0.016 A 
ATOM     17  C   UNL     1     -97.561  22.210 -28.553  1.00  0.00     0.047 A 
BRANCH  15  18
ATOM     18  O   UNL     1     -95.178  22.590 -28.517  1.00  0.00    -0.508 OA
ATOM     19  H   UNL     1     -94.399  23.096 -28.113  1.00  0.00     0.293 HD
ENDBRANCH  15  18
ENDBRANCH   1  12
BRANCH   2  20
ATOM     20  O   UNL     1    -100.783  24.516 -30.700  1.00  0.00    -0.502 OA
ATOM     21  H   UNL     1     -99.855  24.137 -30.842  1.00  0.00     0.293 HD
ENDBRANCH   2  20
BRANCH   6  22
ATOM     22  O   UNL     1    -105.260  26.340 -28.781  1.00  0.00    -0.507 OA
ATOM     23  H   UNL     1    -105.273  25.742 -29.598  1.00  0.00     0.293 HD
ENDBRANCH   6  22
BRANCH   8  24
ATOM     24  O   UNL     1    -104.279  26.570 -24.063  1.00  0.00    -0.508 OA
ATOM     25  H   UNL     1    -105.046  27.212 -23.892  1.00  0.00     0.293 HD
ENDBRANCH   8  24
TORSDOF 5
ENDMDL
MODEL 7
REMARK VINA RESULT:    -3.559      3.046      7.739
REMARK INTER + INTRA:          -4.433
REMARK INTER:                  -4.143
REMARK INTRA:                  -0.290
REMARK UNBOUND:                -0.250
REMARK SMILES O=c1c(O)c(-c2ccc(O)cc2)oc2cc(O)cc(O)c12
REMARK SMILES IDX 5 1 3 2 2 3 1 4 21 5 19 6 18 7 16 8 15 9 14 10 13 11 6 12
REMARK SMILES IDX 7 13 8 14 9 15 12 16 11 17 10 18 4 20 20 22 17 24
REMARK H PARENT 10 19 4 21 20 23 17 25
REMARK Flexibility Score: inf
ROOT
ATOM      1  C   UNL     1     -96.651  24.056 -40.997  1.00  0.00     0.180 A 
ATOM      2  C   UNL     1     -95.637  24.633 -40.209  1.00  0.00     0.208 A 
ATOM      3  C   UNL     1     -95.924  25.799 -39.483  1.00  0.00     0.238 A 
ATOM      4  O   UNL     1     -95.020  26.331 -38.782  1.00  0.00    -0.285 OA
ATOM      5  C   UNL     1     -97.218  26.354 -39.539  1.00  0.00     0.111 A 
ATOM      6  C   UNL     1     -97.590  27.524 -38.833  1.00  0.00     0.134 A 
ATOM      7  C   UNL     1     -98.902  28.009 -38.933  1.00  0.00     0.093 A 
ATOM      8  C   UNL     1     -99.848  27.349 -39.720  1.00  0.00     0.123 A 
ATOM      9  C   UNL     1     -99.487  26.193 -40.421  1.00  0.00     0.094 A 
ATOM     10  C   UNL     1     -98.183  25.695 -40.335  1.00  0.00     0.146 A 
ATOM     11  O   UNL     1     -97.865  24.598 -41.014  1.00  0.00    -0.452 OA
ENDROOT
BRANCH   1  12
ATOM     12  C   UNL     1     -96.421  22.837 -41.806  1.00  0.00     0.021 A 
ATOM     13  C   UNL     1     -95.973  22.962 -43.132  1.00  0.00     0.016 A 
ATOM     14  C   UNL     1     -95.726  21.826 -43.907  1.00  0.00     0.047 A 
ATOM     15  C   UNL     1     -95.911  20.548 -43.362  1.00  0.00     0.115 A 
ATOM     16  C   UNL     1     -96.584  21.551 -41.259  1.00  0.00     0.016 A 
ATOM     17  C   UNL     1     -96.336  20.416 -42.036  1.00  0.00     0.047 A 
BRANCH  15  18
ATOM     18  O   UNL     1     -95.669  19.408 -44.125  1.00  0.00    -0.508 OA
ATOM     19  H   UNL     1     -95.528  18.502 -43.693  1.00  0.00     0.293 HD
ENDBRANCH  15  18
ENDBRANCH   1  12
BRANCH   2  20
ATOM     20  O   UNL     1     -94.376  24.035 -40.133  1.00  0.00    -0.502 OA
ATOM     21  H   UNL     1     -94.241  23.038 -40.244  1.00  0.00     0.293 HD
ENDBRANCH   2  20
BRANCH   6  22
ATOM     22  O   UNL     1     -96.669  28.206 -38.036  1.00  0.00    -0.507 OA
ATOM     23  H   UNL     1     -96.637  28.080 -37.031  1.00  0.00     0.293 HD
ENDBRANCH   6  22
BRANCH   8  24
ATOM     24  O   UNL     1    -101.145  27.852 -39.802  1.00  0.00    -0.508 OA
ATOM     25  H   UNL     1    -101.919  27.399 -39.329  1.00  0.00     0.293 HD
ENDBRANCH   8  24
TORSDOF 5
ENDMDL
MODEL 8
REMARK VINA RESULT:    -3.535     10.316     11.028
REMARK INTER + INTRA:          -4.405
REMARK INTER:                  -4.154
REMARK INTRA:                  -0.251
REMARK UNBOUND:                -0.250
REMARK SMILES O=c1c(O)c(-c2ccc(O)cc2)oc2cc(O)cc(O)c12
REMARK SMILES IDX 5 1 3 2 2 3 1 4 21 5 19 6 18 7 16 8 15 9 14 10 13 11 6 12
REMARK SMILES IDX 7 13 8 14 9 15 12 16 11 17 10 18 4 20 20 22 17 24
REMARK H PARENT 10 19 4 21 20 23 17 25
REMARK Flexibility Score: inf
ROOT
ATOM      1  C   UNL     1     -96.810  25.272 -28.383  1.00  0.00     0.180 A 
ATOM      2  C   UNL     1     -96.272  23.998 -28.116  1.00  0.00     0.208 A 
ATOM      3  C   UNL     1     -95.484  23.376 -29.098  1.00  0.00     0.238 A 
ATOM      4  O   UNL     1     -95.005  22.231 -28.874  1.00  0.00    -0.285 OA
ATOM      5  C   UNL     1     -95.232  24.043 -30.314  1.00  0.00     0.111 A 
ATOM      6  C   UNL     1     -94.445  23.487 -31.352  1.00  0.00     0.134 A 
ATOM      7  C   UNL     1     -94.233  24.217 -32.531  1.00  0.00     0.093 A 
ATOM      8  C   UNL     1     -94.789  25.488 -32.691  1.00  0.00     0.123 A 
ATOM      9  C   UNL     1     -95.568  26.042 -31.669  1.00  0.00     0.094 A 
ATOM     10  C   UNL     1     -95.792  25.329 -30.488  1.00  0.00     0.146 A 
ATOM     11  O   UNL     1     -96.539  25.876 -29.535  1.00  0.00    -0.452 OA
ENDROOT
BRANCH   1  12
ATOM     12  C   UNL     1     -97.666  25.984 -27.406  1.00  0.00     0.021 A 
ATOM     13  C   UNL     1     -99.063  25.950 -27.557  1.00  0.00     0.016 A 
ATOM     14  C   UNL     1     -99.891  26.596 -26.634  1.00  0.00     0.047 A 
ATOM     15  C   UNL     1     -99.333  27.271 -25.540  1.00  0.00     0.115 A 
ATOM     16  C   UNL     1     -97.115  26.646 -26.293  1.00  0.00     0.016 A 
ATOM     17  C   UNL     1     -97.945  27.290 -25.372  1.00  0.00     0.047 A 
BRANCH  15  18
ATOM     18  O   UNL     1    -100.148  27.919 -24.614  1.00  0.00    -0.508 OA
ATOM     19  H   UNL     1    -100.171  28.929 -24.545  1.00  0.00     0.293 HD
ENDBRANCH  15  18
ENDBRANCH   1  12
BRANCH   2  20
ATOM     20  O   UNL     1     -96.496  23.381 -26.883  1.00  0.00    -0.502 OA
ATOM     21  H   UNL     1     -95.824  22.752 -26.461  1.00  0.00     0.293 HD
ENDBRANCH   2  20
BRANCH   6  22
ATOM     22  O   UNL     1     -93.875  22.220 -31.222  1.00  0.00    -0.507 OA
ATOM     23  H   UNL     1     -93.989  21.509 -31.935  1.00  0.00     0.293 HD
ENDBRANCH   6  22
BRANCH   8  24
ATOM     24  O   UNL     1     -94.562  26.193 -33.871  1.00  0.00    -0.508 OA
ATOM     25  H   UNL     1     -95.122  26.999 -34.123  1.00  0.00     0.293 HD
ENDBRANCH   8  24
TORSDOF 5
ENDMDL
MODEL 9
REMARK VINA RESULT:    -3.491      2.892      5.612
REMARK INTER + INTRA:          -4.353
REMARK INTER:                  -4.067
REMARK INTRA:                  -0.286
REMARK UNBOUND:                -0.250
REMARK SMILES O=c1c(O)c(-c2ccc(O)cc2)oc2cc(O)cc(O)c12
REMARK SMILES IDX 5 1 3 2 2 3 1 4 21 5 19 6 18 7 16 8 15 9 14 10 13 11 6 12
REMARK SMILES IDX 7 13 8 14 9 15 12 16 11 17 10 18 4 20 20 22 17 24
REMARK H PARENT 10 19 4 21 20 23 17 25
REMARK Flexibility Score: inf
ROOT
ATOM      1  C   UNL     1     -99.392  26.620 -39.935  1.00  0.00     0.180 A 
ATOM      2  C   UNL     1     -99.165  25.514 -40.776  1.00  0.00     0.208 A 
ATOM      3  C   UNL     1    -100.009  25.318 -41.880  1.00  0.00     0.238 A 
ATOM      4  O   UNL     1     -99.822  24.324 -42.634  1.00  0.00    -0.285 OA
ATOM      5  C   UNL     1    -101.045  26.238 -42.137  1.00  0.00     0.111 A 
ATOM      6  C   UNL     1    -101.935  26.115 -43.232  1.00  0.00     0.134 A 
ATOM      7  C   UNL     1    -102.937  27.077 -43.425  1.00  0.00     0.093 A 
ATOM      8  C   UNL     1    -103.065  28.158 -42.550  1.00  0.00     0.123 A 
ATOM      9  C   UNL     1    -102.189  28.285 -41.466  1.00  0.00     0.094 A 
ATOM     10  C   UNL     1    -101.186  27.334 -41.256  1.00  0.00     0.146 A 
ATOM     11  O   UNL     1    -100.370  27.476 -40.217  1.00  0.00    -0.452 OA
ENDROOT
BRANCH   1  12
ATOM     12  C   UNL     1     -98.558  26.884 -38.740  1.00  0.00     0.021 A 
ATOM     13  C   UNL     1     -98.950  26.365 -37.495  1.00  0.00     0.016 A 
ATOM     14  C   UNL     1     -98.166  26.582 -36.358  1.00  0.00     0.047 A 
ATOM     15  C   UNL     1     -96.971  27.308 -36.454  1.00  0.00     0.115 A 
ATOM     16  C   UNL     1     -97.346  27.595 -38.833  1.00  0.00     0.016 A 
ATOM     17  C   UNL     1     -96.564  27.809 -37.695  1.00  0.00     0.047 A 
BRANCH  15  18
ATOM     18  O   UNL     1     -96.182  27.531 -35.328  1.00  0.00    -0.508 OA
ATOM     19  H   UNL     1     -95.210  27.805 -35.409  1.00  0.00     0.293 HD
ENDBRANCH  15  18
ENDBRANCH   1  12
BRANCH   2  20
ATOM     20  O   UNL     1     -98.100  24.644 -40.527  1.00  0.00    -0.502 OA
ATOM     21  H   UNL     1     -98.234  23.718 -40.140  1.00  0.00     0.293 HD
ENDBRANCH   2  20
BRANCH   6  22
ATOM     22  O   UNL     1    -101.834  25.047 -44.125  1.00  0.00    -0.507 OA
ATOM     23  H   UNL     1    -101.606  25.189 -45.102  1.00  0.00     0.293 HD
ENDBRANCH   6  22
BRANCH   8  24
ATOM     24  O   UNL     1    -104.068  29.101 -42.765  1.00  0.00    -0.508 OA
ATOM     25  H   UNL     1    -104.660  29.067 -43.588  1.00  0.00     0.293 HD
ENDBRANCH   8  24
TORSDOF 5
ENDMDL
