MODEL 1
REMARK VINA RESULT:    -5.386      0.000      0.000
REMARK INTER + INTRA:         -17.520
REMARK INTER:                 -13.574
REMARK INTRA:                  -3.947
REMARK UNBOUND:                -3.947
REMARK SMILES CCCCCCCCCCCCCCCCCCCCCCCCCCCC(=O)[O-]
REMARK SMILES IDX 15 1 16 2 17 3 18 4 19 5 20 6 21 7 22 8 23 9 24 10 25 11
REMARK SMILES IDX 26 12 27 13 28 14 29 15 30 16 14 17 13 18 12 19 11 20 10 21
REMARK SMILES IDX 9 22 8 23 7 24 6 25 5 26 4 27 3 28 2 29 1 30
REMARK H PARENT
REMARK Flexibility Score: inf
ROOT
ATOM      1  C   UNL     1     160.762 159.555 152.848  1.00  0.00     0.000 C 
ENDROOT
BRANCH   1   2
ATOM      2  C   UNL     1     159.774 159.974 153.949  1.00  0.00     0.000 C 
BRANCH   2   3
ATOM      3  C   UNL     1     158.380 160.320 153.393  1.00  0.00     0.000 C 
BRANCH   3   4
ATOM      4  C   UNL     1     157.871 161.739 153.722  1.00  0.00     0.000 C 
BRANCH   4   5
ATOM      5  C   UNL     1     157.691 162.673 152.513  1.00  0.00     0.000 C 
BRANCH   5   6
ATOM      6  C   UNL     1     158.861 162.594 151.517  1.00  0.00     0.000 C 
BRANCH   6   7
ATOM      7  C   UNL     1     158.393 162.442 150.060  1.00  0.00     0.000 C 
BRANCH   7   8
ATOM      8  C   UNL     1     158.619 161.030 149.502  1.00  0.00     0.000 C 
BRANCH   8   9
ATOM      9  C   UNL     1     159.349 161.082 148.150  1.00  0.00     0.000 C 
BRANCH   9  10
ATOM     10  C   UNL     1     160.739 161.742 148.257  1.00  0.00     0.000 C 
BRANCH  10  11
ATOM     11  C   UNL     1     161.681 161.053 149.258  1.00  0.00     0.000 C 
BRANCH  11  12
ATOM     12  C   UNL     1     162.267 162.021 150.295  1.00  0.00     0.006 C 
BRANCH  12  13
ATOM     13  C   UNL     1     162.895 163.245 149.615  1.00  0.00     0.053 C 
BRANCH  13  14
ATOM     14  C   UNL     1     164.257 163.532 150.167  1.00  0.00     0.041 C 
ATOM     15  O   UNL     1     164.394 164.285 151.167  1.00  0.00    -0.550 OA
ATOM     16  O   UNL     1     165.382 162.993 149.555  1.00  0.00    -0.550 OA
ENDBRANCH  13  14
ENDBRANCH  12  13
ENDBRANCH  11  12
ENDBRANCH  10  11
ENDBRANCH   9  10
ENDBRANCH   8   9
ENDBRANCH   7   8
ENDBRANCH   6   7
ENDBRANCH   5   6
ENDBRANCH   4   5
ENDBRANCH   3   4
ENDBRANCH   2   3
ENDBRANCH   1   2
BRANCH   1  17
ATOM     17  C   UNL     1     160.090 158.777 151.703  1.00  0.00     0.000 C 
BRANCH  17  18
ATOM     18  C   UNL     1     160.608 157.342 151.492  1.00  0.00     0.000 C 
BRANCH  18  19
ATOM     19  C   UNL     1     160.973 157.043 150.027  1.00  0.00     0.000 C 
BRANCH  19  20
ATOM     20  C   UNL     1     159.991 157.688 149.033  1.00  0.00     0.000 C 
BRANCH  20  21
ATOM     21  C   UNL     1     159.088 156.647 148.344  1.00  0.00     0.000 C 
BRANCH  21  22
ATOM     22  C   UNL     1     157.975 156.127 149.269  1.00  0.00    -0.000 C 
BRANCH  22  23
ATOM     23  C   UNL     1     157.156 157.265 149.901  1.00  0.00    -0.000 C 
BRANCH  23  24
ATOM     24  C   UNL     1     155.908 156.753 150.636  1.00  0.00    -0.000 C 
BRANCH  24  25
ATOM     25  C   UNL     1     155.133 155.702 149.826  1.00  0.00    -0.000 C 
BRANCH  25  26
ATOM     26  C   UNL     1     154.328 154.782 150.751  1.00  0.00    -0.000 C 
BRANCH  26  27
ATOM     27  C   UNL     1     155.149 153.550 151.157  1.00  0.00    -0.000 C 
BRANCH  27  28
ATOM     28  C   UNL     1     155.873 152.901 149.966  1.00  0.00    -0.000 C 
BRANCH  28  29
ATOM     29  C   UNL     1     156.491 151.539 150.318  1.00  0.00    -0.003 C 
ATOM     30  C   UNL     1     157.938 151.698 150.782  1.00  0.00     0.004 C 
ENDBRANCH  28  29
ENDBRANCH  27  28
ENDBRANCH  26  27
ENDBRANCH  25  26
ENDBRANCH  24  25
ENDBRANCH  23  24
ENDBRANCH  22  23
ENDBRANCH  21  22
ENDBRANCH  20  21
ENDBRANCH  19  20
ENDBRANCH  18  19
ENDBRANCH  17  18
ENDBRANCH   1  17
TORSDOF 26
ENDMDL
MODEL 2
REMARK VINA RESULT:    -5.193      1.116      1.919
REMARK INTER + INTRA:         -17.032
REMARK INTER:                 -13.750
REMARK INTRA:                  -3.282
REMARK UNBOUND:                -3.947
REMARK SMILES CCCCCCCCCCCCCCCCCCCCCCCCCCCC(=O)[O-]
REMARK SMILES IDX 15 1 16 2 17 3 18 4 19 5 20 6 21 7 22 8 23 9 24 10 25 11
REMARK SMILES IDX 26 12 27 13 28 14 29 15 30 16 14 17 13 18 12 19 11 20 10 21
REMARK SMILES IDX 9 22 8 23 7 24 6 25 5 26 4 27 3 28 2 29 1 30
REMARK H PARENT
REMARK Flexibility Score: inf
ROOT
ATOM      1  C   UNL     1     161.133 157.555 152.643  1.00  0.00     0.000 C 
ENDROOT
BRANCH   1   2
ATOM      2  C   UNL     1     161.024 159.088 152.706  1.00  0.00     0.000 C 
BRANCH   2   3
ATOM      3  C   UNL     1     160.086 159.569 153.828  1.00  0.00     0.000 C 
BRANCH   3   4
ATOM      4  C   UNL     1     158.731 160.141 153.357  1.00  0.00     0.000 C 
BRANCH   4   5
ATOM      5  C   UNL     1     158.688 160.621 151.896  1.00  0.00     0.000 C 
BRANCH   5   6
ATOM      6  C   UNL     1     158.672 162.155 151.772  1.00  0.00     0.000 C 
BRANCH   6   7
ATOM      7  C   UNL     1     159.231 162.648 150.427  1.00  0.00     0.000 C 
BRANCH   7   8
ATOM      8  C   UNL     1     159.265 161.550 149.354  1.00  0.00     0.000 C 
BRANCH   8   9
ATOM      9  C   UNL     1     160.669 161.423 148.741  1.00  0.00     0.000 C 
BRANCH   9  10
ATOM     10  C   UNL     1     161.787 161.588 149.791  1.00  0.00     0.000 C 
BRANCH  10  11
ATOM     11  C   UNL     1     162.613 162.875 149.625  1.00  0.00     0.000 C 
BRANCH  11  12
ATOM     12  C   UNL     1     164.031 162.757 150.200  1.00  0.00     0.006 C 
BRANCH  12  13
ATOM     13  C   UNL     1     164.486 164.083 150.822  1.00  0.00     0.053 C 
BRANCH  13  14
ATOM     14  C   UNL     1     164.711 165.126 149.771  1.00  0.00     0.041 C 
ATOM     15  O   UNL     1     165.585 164.955 148.880  1.00  0.00    -0.550 OA
ATOM     16  O   UNL     1     163.977 166.305 149.793  1.00  0.00    -0.550 OA
ENDBRANCH  13  14
ENDBRANCH  12  13
ENDBRANCH  11  12
ENDBRANCH  10  11
ENDBRANCH   9  10
ENDBRANCH   8   9
ENDBRANCH   7   8
ENDBRANCH   6   7
ENDBRANCH   5   6
ENDBRANCH   4   5
ENDBRANCH   3   4
ENDBRANCH   2   3
ENDBRANCH   1   2
BRANCH   1  17
ATOM     17  C   UNL     1     160.751 156.982 151.266  1.00  0.00     0.000 C 
BRANCH  17  18
ATOM     18  C   UNL     1     160.695 158.008 150.120  1.00  0.00     0.000 C 
BRANCH  18  19
ATOM     19  C   UNL     1     159.953 157.484 148.878  1.00  0.00     0.000 C 
BRANCH  19  20
ATOM     20  C   UNL     1     158.560 158.117 148.716  1.00  0.00     0.000 C 
BRANCH  20  21
ATOM     21  C   UNL     1     157.624 157.782 149.894  1.00  0.00     0.000 C 
BRANCH  21  22
ATOM     22  C   UNL     1     156.870 156.459 149.691  1.00  0.00    -0.000 C 
BRANCH  22  23
ATOM     23  C   UNL     1     155.496 156.452 150.383  1.00  0.00    -0.000 C 
BRANCH  23  24
ATOM     24  C   UNL     1     154.471 155.577 149.648  1.00  0.00    -0.000 C 
BRANCH  24  25
ATOM     25  C   UNL     1     153.990 154.390 150.496  1.00  0.00    -0.000 C 
BRANCH  25  26
ATOM     26  C   UNL     1     155.051 153.987 151.526  1.00  0.00    -0.000 C 
BRANCH  26  27
ATOM     27  C   UNL     1     155.590 152.577 151.243  1.00  0.00    -0.000 C 
BRANCH  27  28
ATOM     28  C   UNL     1     156.594 152.548 150.079  1.00  0.00    -0.000 C 
BRANCH  28  29
ATOM     29  C   UNL     1     156.661 151.178 149.388  1.00  0.00    -0.003 C 
ATOM     30  C   UNL     1     155.835 151.171 148.103  1.00  0.00     0.004 C 
ENDBRANCH  28  29
ENDBRANCH  27  28
ENDBRANCH  26  27
ENDBRANCH  25  26
ENDBRANCH  24  25
ENDBRANCH  23  24
ENDBRANCH  22  23
ENDBRANCH  21  22
ENDBRANCH  20  21
ENDBRANCH  19  20
ENDBRANCH  18  19
ENDBRANCH  17  18
ENDBRANCH   1  17
TORSDOF 26
ENDMDL
MODEL 3
REMARK VINA RESULT:    -5.181      4.120     10.071
REMARK INTER + INTRA:         -17.003
REMARK INTER:                 -13.612
REMARK INTRA:                  -3.391
REMARK UNBOUND:                -3.947
REMARK SMILES CCCCCCCCCCCCCCCCCCCCCCCCCCCC(=O)[O-]
REMARK SMILES IDX 15 1 16 2 17 3 18 4 19 5 20 6 21 7 22 8 23 9 24 10 25 11
REMARK SMILES IDX 26 12 27 13 28 14 29 15 30 16 14 17 13 18 12 19 11 20 10 21
REMARK SMILES IDX 9 22 8 23 7 24 6 25 5 26 4 27 3 28 2 29 1 30
REMARK H PARENT
REMARK Flexibility Score: inf
ROOT
ATOM      1  C   UNL     1     159.134 160.295 152.058  1.00  0.00     0.000 C 
ENDROOT
BRANCH   1   2
ATOM      2  C   UNL     1     160.600 159.963 152.380  1.00  0.00     0.000 C 
BRANCH   2   3
ATOM      3  C   UNL     1     160.824 158.461 152.635  1.00  0.00     0.000 C 
BRANCH   3   4
ATOM      4  C   UNL     1     160.238 157.513 151.567  1.00  0.00     0.000 C 
BRANCH   4   5
ATOM      5  C   UNL     1     161.088 157.346 150.295  1.00  0.00     0.000 C 
BRANCH   5   6
ATOM      6  C   UNL     1     160.687 158.322 149.175  1.00  0.00     0.000 C 
BRANCH   6   7
ATOM      7  C   UNL     1     159.200 158.212 148.795  1.00  0.00     0.000 C 
BRANCH   7   8
ATOM      8  C   UNL     1     158.808 156.810 148.309  1.00  0.00     0.000 C 
BRANCH   8   9
ATOM      9  C   UNL     1     157.783 156.166 149.255  1.00  0.00     0.000 C 
BRANCH   9  10
ATOM     10  C   UNL     1     156.898 157.212 149.964  1.00  0.00     0.000 C 
BRANCH  10  11
ATOM     11  C   UNL     1     155.668 156.614 150.667  1.00  0.00     0.000 C 
BRANCH  11  12
ATOM     12  C   UNL     1     154.727 155.874 149.706  1.00  0.00     0.006 C 
BRANCH  12  13
ATOM     13  C   UNL     1     154.073 154.668 150.393  1.00  0.00     0.053 C 
BRANCH  13  14
ATOM     14  C   UNL     1     155.104 153.760 150.992  1.00  0.00     0.041 C 
ATOM     15  O   UNL     1     155.119 153.544 152.233  1.00  0.00    -0.550 OA
ATOM     16  O   UNL     1     156.070 153.177 150.182  1.00  0.00    -0.550 OA
ENDBRANCH  13  14
ENDBRANCH  12  13
ENDBRANCH  11  12
ENDBRANCH  10  11
ENDBRANCH   9  10
ENDBRANCH   8   9
ENDBRANCH   7   8
ENDBRANCH   6   7
ENDBRANCH   5   6
ENDBRANCH   4   5
ENDBRANCH   3   4
ENDBRANCH   2   3
ENDBRANCH   1   2
BRANCH   1  17
ATOM     17  C   UNL     1     158.819 161.797 152.178  1.00  0.00     0.000 C 
BRANCH  17  18
ATOM     18  C   UNL     1     159.190 162.646 150.948  1.00  0.00     0.000 C 
BRANCH  18  19
ATOM     19  C   UNL     1     159.063 161.874 149.623  1.00  0.00     0.000 C 
BRANCH  19  20
ATOM     20  C   UNL     1     160.302 162.040 148.726  1.00  0.00     0.000 C 
BRANCH  20  21
ATOM     21  C   UNL     1     161.431 162.822 149.425  1.00  0.00     0.000 C 
BRANCH  21  22
ATOM     22  C   UNL     1     162.571 161.909 149.905  1.00  0.00    -0.000 C 
BRANCH  22  23
ATOM     23  C   UNL     1     163.715 162.696 150.567  1.00  0.00    -0.000 C 
BRANCH  23  24
ATOM     24  C   UNL     1     164.229 163.843 149.684  1.00  0.00    -0.000 C 
BRANCH  24  25
ATOM     25  C   UNL     1     165.004 164.902 150.482  1.00  0.00    -0.000 C 
BRANCH  25  26
ATOM     26  C   UNL     1     164.108 166.101 150.815  1.00  0.00    -0.000 C 
BRANCH  26  27
ATOM     27  C   UNL     1     163.144 166.408 149.660  1.00  0.00    -0.000 C 
BRANCH  27  28
ATOM     28  C   UNL     1     162.864 167.913 149.506  1.00  0.00    -0.000 C 
BRANCH  28  29
ATOM     29  C   UNL     1     161.936 168.458 150.602  1.00  0.00    -0.003 C 
ATOM     30  C   UNL     1     162.637 169.534 151.429  1.00  0.00     0.004 C 
ENDBRANCH  28  29
ENDBRANCH  27  28
ENDBRANCH  26  27
ENDBRANCH  25  26
ENDBRANCH  24  25
ENDBRANCH  23  24
ENDBRANCH  22  23
ENDBRANCH  21  22
ENDBRANCH  20  21
ENDBRANCH  19  20
ENDBRANCH  18  19
ENDBRANCH  17  18
ENDBRANCH   1  17
TORSDOF 26
ENDMDL
MODEL 4
REMARK VINA RESULT:    -5.168      3.832      9.459
REMARK INTER + INTRA:         -16.969
REMARK INTER:                 -13.619
REMARK INTRA:                  -3.350
REMARK UNBOUND:                -3.947
REMARK SMILES CCCCCCCCCCCCCCCCCCCCCCCCCCCC(=O)[O-]
REMARK SMILES IDX 15 1 16 2 17 3 18 4 19 5 20 6 21 7 22 8 23 9 24 10 25 11
REMARK SMILES IDX 26 12 27 13 28 14 29 15 30 16 14 17 13 18 12 19 11 20 10 21
REMARK SMILES IDX 9 22 8 23 7 24 6 25 5 26 4 27 3 28 2 29 1 30
REMARK H PARENT
REMARK Flexibility Score: inf
ROOT
ATOM      1  C   UNL     1     158.880 160.410 152.251  1.00  0.00     0.000 C 
ENDROOT
BRANCH   1   2
ATOM      2  C   UNL     1     159.573 159.794 153.477  1.00  0.00     0.000 C 
BRANCH   2   3
ATOM      3  C   UNL     1     161.055 159.465 153.216  1.00  0.00     0.000 C 
BRANCH   3   4
ATOM      4  C   UNL     1     161.517 158.071 153.691  1.00  0.00     0.000 C 
BRANCH   4   5
ATOM      5  C   UNL     1     161.631 157.002 152.590  1.00  0.00     0.000 C 
BRANCH   5   6
ATOM      6  C   UNL     1     160.545 157.139 151.509  1.00  0.00     0.000 C 
BRANCH   6   7
ATOM      7  C   UNL     1     161.130 157.396 150.109  1.00  0.00     0.000 C 
BRANCH   7   8
ATOM      8  C   UNL     1     160.829 158.807 149.584  1.00  0.00     0.000 C 
BRANCH   8   9
ATOM      9  C   UNL     1     160.550 158.783 148.072  1.00  0.00     0.000 C 
BRANCH   9  10
ATOM     10  C   UNL     1     159.213 158.092 147.731  1.00  0.00     0.000 C 
BRANCH  10  11
ATOM     11  C   UNL     1     158.149 158.213 148.835  1.00  0.00     0.000 C 
BRANCH  11  12
ATOM     12  C   UNL     1     157.613 156.853 149.303  1.00  0.00     0.006 C 
BRANCH  12  13
ATOM     13  C   UNL     1     156.481 157.028 150.324  1.00  0.00     0.053 C 
BRANCH  13  14
ATOM     14  C   UNL     1     155.344 156.096 150.038  1.00  0.00     0.041 C 
ATOM     15  O   UNL     1     154.247 156.543 149.609  1.00  0.00    -0.550 OA
ATOM     16  O   UNL     1     155.484 154.735 150.278  1.00  0.00    -0.550 OA
ENDBRANCH  13  14
ENDBRANCH  12  13
ENDBRANCH  11  12
ENDBRANCH  10  11
ENDBRANCH   9  10
ENDBRANCH   8   9
ENDBRANCH   7   8
ENDBRANCH   6   7
ENDBRANCH   5   6
ENDBRANCH   4   5
ENDBRANCH   3   4
ENDBRANCH   2   3
ENDBRANCH   1   2
BRANCH   1  17
ATOM     17  C   UNL     1     158.739 161.940 152.346  1.00  0.00     0.000 C 
BRANCH  17  18
ATOM     18  C   UNL     1     158.909 162.698 151.017  1.00  0.00     0.000 C 
BRANCH  18  19
ATOM     19  C   UNL     1     159.388 161.797 149.866  1.00  0.00     0.000 C 
BRANCH  19  20
ATOM     20  C   UNL     1     160.217 162.566 148.824  1.00  0.00     0.000 C 
BRANCH  20  21
ATOM     21  C   UNL     1     161.508 163.157 149.424  1.00  0.00     0.000 C 
BRANCH  21  22
ATOM     22  C   UNL     1     162.461 162.075 149.955  1.00  0.00    -0.000 C 
BRANCH  22  23
ATOM     23  C   UNL     1     163.719 162.669 150.611  1.00  0.00    -0.000 C 
BRANCH  23  24
ATOM     24  C   UNL     1     164.732 163.187 149.579  1.00  0.00    -0.000 C 
BRANCH  24  25
ATOM     25  C   UNL     1     165.134 164.649 149.827  1.00  0.00    -0.000 C 
BRANCH  25  26
ATOM     26  C   UNL     1     164.660 165.121 151.206  1.00  0.00    -0.000 C 
BRANCH  26  27
ATOM     27  C   UNL     1     164.054 166.530 151.130  1.00  0.00    -0.000 C 
BRANCH  27  28
ATOM     28  C   UNL     1     163.237 166.756 149.847  1.00  0.00    -0.000 C 
BRANCH  28  29
ATOM     29  C   UNL     1     162.532 168.121 149.825  1.00  0.00    -0.003 C 
ATOM     30  C   UNL     1     161.678 168.317 151.077  1.00  0.00     0.004 C 
ENDBRANCH  28  29
ENDBRANCH  27  28
ENDBRANCH  26  27
ENDBRANCH  25  26
ENDBRANCH  24  25
ENDBRANCH  23  24
ENDBRANCH  22  23
ENDBRANCH  21  22
ENDBRANCH  20  21
ENDBRANCH  19  20
ENDBRANCH  18  19
ENDBRANCH  17  18
ENDBRANCH   1  17
TORSDOF 26
ENDMDL
MODEL 5
REMARK VINA RESULT:    -5.167      1.323      2.797
REMARK INTER + INTRA:         -16.969
REMARK INTER:                 -13.208
REMARK INTRA:                  -3.761
REMARK UNBOUND:                -3.947
REMARK SMILES CCCCCCCCCCCCCCCCCCCCCCCCCCCC(=O)[O-]
REMARK SMILES IDX 15 1 16 2 17 3 18 4 19 5 20 6 21 7 22 8 23 9 24 10 25 11
REMARK SMILES IDX 26 12 27 13 28 14 29 15 30 16 14 17 13 18 12 19 11 20 10 21
REMARK SMILES IDX 9 22 8 23 7 24 6 25 5 26 4 27 3 28 2 29 1 30
REMARK H PARENT
REMARK Flexibility Score: inf
ROOT
ATOM      1  C   UNL     1     159.598 160.283 153.600  1.00  0.00     0.000 C 
ENDROOT
BRANCH   1   2
ATOM      2  C   UNL     1     158.620 160.633 152.466  1.00  0.00     0.000 C 
BRANCH   2   3
ATOM      3  C   UNL     1     158.827 162.060 151.926  1.00  0.00     0.000 C 
BRANCH   3   4
ATOM      4  C   UNL     1     158.503 162.255 150.429  1.00  0.00     0.000 C 
BRANCH   4   5
ATOM      5  C   UNL     1     158.888 161.081 149.512  1.00  0.00     0.000 C 
BRANCH   5   6
ATOM      6  C   UNL     1     160.203 161.324 148.751  1.00  0.00     0.000 C 
BRANCH   6   7
ATOM      7  C   UNL     1     160.510 162.819 148.557  1.00  0.00     0.000 C 
BRANCH   7   8
ATOM      8  C   UNL     1     161.733 163.288 149.358  1.00  0.00     0.000 C 
BRANCH   8   9
ATOM      9  C   UNL     1     162.536 162.090 149.889  1.00  0.00     0.000 C 
BRANCH   9  10
ATOM     10  C   UNL     1     163.844 162.519 150.585  1.00  0.00     0.000 C 
BRANCH  10  11
ATOM     11  C   UNL     1     164.924 163.034 149.619  1.00  0.00     0.000 C 
BRANCH  11  12
ATOM     12  C   UNL     1     165.461 164.419 150.003  1.00  0.00     0.006 C 
BRANCH  12  13
ATOM     13  C   UNL     1     164.656 165.022 151.162  1.00  0.00     0.053 C 
BRANCH  13  14
ATOM     14  C   UNL     1     163.935 166.263 150.734  1.00  0.00     0.041 C 
ATOM     15  O   UNL     1     163.498 166.372 149.557  1.00  0.00    -0.550 OA
ATOM     16  O   UNL     1     163.773 167.315 151.626  1.00  0.00    -0.550 OA
ENDBRANCH  13  14
ENDBRANCH  12  13
ENDBRANCH  11  12
ENDBRANCH  10  11
ENDBRANCH   9  10
ENDBRANCH   8   9
ENDBRANCH   7   8
ENDBRANCH   6   7
ENDBRANCH   5   6
ENDBRANCH   4   5
ENDBRANCH   3   4
ENDBRANCH   2   3
ENDBRANCH   1   2
BRANCH   1  17
ATOM     17  C   UNL     1     160.888 159.612 153.094  1.00  0.00     0.000 C 
BRANCH  17  18
ATOM     18  C   UNL     1     160.778 158.932 151.718  1.00  0.00     0.000 C 
BRANCH  18  19
ATOM     19  C   UNL     1     160.734 157.396 151.806  1.00  0.00     0.000 C 
BRANCH  19  20
ATOM     20  C   UNL     1     160.734 156.728 150.420  1.00  0.00     0.000 C 
BRANCH  20  21
ATOM     21  C   UNL     1     160.520 157.743 149.281  1.00  0.00     0.000 C 
BRANCH  21  22
ATOM     22  C   UNL     1     159.277 157.426 148.434  1.00  0.00    -0.000 C 
BRANCH  22  23
ATOM     23  C   UNL     1     158.187 156.697 149.239  1.00  0.00    -0.000 C 
BRANCH  23  24
ATOM     24  C   UNL     1     157.227 157.667 149.943  1.00  0.00    -0.000 C 
BRANCH  24  25
ATOM     25  C   UNL     1     156.125 156.941 150.731  1.00  0.00    -0.000 C 
BRANCH  25  26
ATOM     26  C   UNL     1     155.035 156.417 149.789  1.00  0.00    -0.000 C 
BRANCH  26  27
ATOM     27  C   UNL     1     154.489 155.066 150.273  1.00  0.00    -0.000 C 
BRANCH  27  28
ATOM     28  C   UNL     1     155.425 153.893 149.935  1.00  0.00    -0.000 C 
BRANCH  28  29
ATOM     29  C   UNL     1     155.562 152.892 151.092  1.00  0.00    -0.003 C 
ATOM     30  C   UNL     1     155.059 153.495 152.402  1.00  0.00     0.004 C 
ENDBRANCH  28  29
ENDBRANCH  27  28
ENDBRANCH  26  27
ENDBRANCH  25  26
ENDBRANCH  24  25
ENDBRANCH  23  24
ENDBRANCH  22  23
ENDBRANCH  21  22
ENDBRANCH  20  21
ENDBRANCH  19  20
ENDBRANCH  18  19
ENDBRANCH  17  18
ENDBRANCH   1  17
TORSDOF 26
ENDMDL
MODEL 6
REMARK VINA RESULT:    -5.146      0.979      2.508
REMARK INTER + INTRA:         -16.915
REMARK INTER:                 -13.708
REMARK INTRA:                  -3.206
REMARK UNBOUND:                -3.947
REMARK SMILES CCCCCCCCCCCCCCCCCCCCCCCCCCCC(=O)[O-]
REMARK SMILES IDX 15 1 16 2 17 3 18 4 19 5 20 6 21 7 22 8 23 9 24 10 25 11
REMARK SMILES IDX 26 12 27 13 28 14 29 15 30 16 14 17 13 18 12 19 11 20 10 21
REMARK SMILES IDX 9 22 8 23 7 24 6 25 5 26 4 27 3 28 2 29 1 30
REMARK H PARENT
REMARK Flexibility Score: inf
ROOT
ATOM      1  C   UNL     1     161.004 156.995 150.395  1.00  0.00     0.000 C 
ENDROOT
BRANCH   1   2
ATOM      2  C   UNL     1     160.751 157.375 151.863  1.00  0.00     0.000 C 
BRANCH   2   3
ATOM      3  C   UNL     1     160.727 158.899 152.084  1.00  0.00     0.000 C 
BRANCH   3   4
ATOM      4  C   UNL     1     160.517 159.353 153.545  1.00  0.00     0.000 C 
BRANCH   4   5
ATOM      5  C   UNL     1     159.196 160.091 153.823  1.00  0.00     0.000 C 
BRANCH   5   6
ATOM      6  C   UNL     1     158.548 160.658 152.548  1.00  0.00     0.000 C 
BRANCH   6   7
ATOM      7  C   UNL     1     158.535 162.196 152.522  1.00  0.00     0.000 C 
BRANCH   7   8
ATOM      8  C   UNL     1     158.643 162.772 151.102  1.00  0.00     0.000 C 
BRANCH   8   9
ATOM      9  C   UNL     1     158.807 161.649 150.065  1.00  0.00     0.000 C 
BRANCH   9  10
ATOM     10  C   UNL     1     160.051 161.847 149.174  1.00  0.00     0.000 C 
BRANCH  10  11
ATOM     11  C   UNL     1     161.385 161.716 149.928  1.00  0.00     0.000 C 
BRANCH  11  12
ATOM     12  C   UNL     1     162.365 162.855 149.617  1.00  0.00     0.006 C 
BRANCH  12  13
ATOM     13  C   UNL     1     163.723 162.613 150.290  1.00  0.00     0.053 C 
BRANCH  13  14
ATOM     14  C   UNL     1     164.519 163.879 150.375  1.00  0.00     0.041 C 
ATOM     15  O   UNL     1     164.685 164.454 151.484  1.00  0.00    -0.550 OA
ATOM     16  O   UNL     1     165.051 164.444 149.223  1.00  0.00    -0.550 OA
ENDBRANCH  13  14
ENDBRANCH  12  13
ENDBRANCH  11  12
ENDBRANCH  10  11
ENDBRANCH   9  10
ENDBRANCH   8   9
ENDBRANCH   7   8
ENDBRANCH   6   7
ENDBRANCH   5   6
ENDBRANCH   4   5
ENDBRANCH   3   4
ENDBRANCH   2   3
ENDBRANCH   1   2
BRANCH   1  17
ATOM     17  C   UNL     1     160.662 158.130 149.413  1.00  0.00     0.000 C 
BRANCH  17  18
ATOM     18  C   UNL     1     159.240 158.084 148.827  1.00  0.00     0.000 C 
BRANCH  18  19
ATOM     19  C   UNL     1     158.859 156.699 148.276  1.00  0.00     0.000 C 
BRANCH  19  20
ATOM     20  C   UNL     1     157.935 155.921 149.229  1.00  0.00     0.000 C 
BRANCH  20  21
ATOM     21  C   UNL     1     157.123 156.854 150.148  1.00  0.00     0.000 C 
BRANCH  21  22
ATOM     22  C   UNL     1     155.608 156.726 149.927  1.00  0.00    -0.000 C 
BRANCH  22  23
ATOM     23  C   UNL     1     155.155 155.263 149.783  1.00  0.00    -0.000 C 
BRANCH  23  24
ATOM     24  C   UNL     1     154.498 154.722 151.062  1.00  0.00    -0.000 C 
BRANCH  24  25
ATOM     25  C   UNL     1     155.204 153.471 151.607  1.00  0.00    -0.000 C 
BRANCH  25  26
ATOM     26  C   UNL     1     155.956 152.737 150.490  1.00  0.00    -0.000 C 
BRANCH  26  27
ATOM     27  C   UNL     1     156.624 151.460 151.021  1.00  0.00    -0.000 C 
BRANCH  27  28
ATOM     28  C   UNL     1     158.051 151.269 150.481  1.00  0.00    -0.000 C 
BRANCH  28  29
ATOM     29  C   UNL     1     158.220 149.953 149.705  1.00  0.00    -0.003 C 
ATOM     30  C   UNL     1     159.498 149.970 148.869  1.00  0.00     0.004 C 
ENDBRANCH  28  29
ENDBRANCH  27  28
ENDBRANCH  26  27
ENDBRANCH  25  26
ENDBRANCH  24  25
ENDBRANCH  23  24
ENDBRANCH  22  23
ENDBRANCH  21  22
ENDBRANCH  20  21
ENDBRANCH  19  20
ENDBRANCH  18  19
ENDBRANCH  17  18
ENDBRANCH   1  17
TORSDOF 26
ENDMDL
MODEL 7
REMARK VINA RESULT:    -5.100      1.982      4.226
REMARK INTER + INTRA:         -16.799
REMARK INTER:                 -13.550
REMARK INTRA:                  -3.249
REMARK UNBOUND:                -3.947
REMARK SMILES CCCCCCCCCCCCCCCCCCCCCCCCCCCC(=O)[O-]
REMARK SMILES IDX 15 1 16 2 17 3 18 4 19 5 20 6 21 7 22 8 23 9 24 10 25 11
REMARK SMILES IDX 26 12 27 13 28 14 29 15 30 16 14 17 13 18 12 19 11 20 10 21
REMARK SMILES IDX 9 22 8 23 7 24 6 25 5 26 4 27 3 28 2 29 1 30
REMARK H PARENT
REMARK Flexibility Score: inf
ROOT
ATOM      1  C   UNL     1     157.864 161.658 153.718  1.00  0.00     0.000 C 
ENDROOT
BRANCH   1   2
ATOM      2  C   UNL     1     157.690 162.547 152.475  1.00  0.00     0.000 C 
BRANCH   2   3
ATOM      3  C   UNL     1     158.953 162.587 151.595  1.00  0.00     0.000 C 
BRANCH   3   4
ATOM      4  C   UNL     1     158.736 162.225 150.110  1.00  0.00     0.000 C 
BRANCH   4   5
ATOM      5  C   UNL     1     159.998 162.254 149.231  1.00  0.00     0.000 C 
BRANCH   5   6
ATOM      6  C   UNL     1     161.278 161.909 150.012  1.00  0.00     0.000 C 
BRANCH   6   7
ATOM      7  C   UNL     1     162.521 162.632 149.466  1.00  0.00     0.000 C 
BRANCH   7   8
ATOM      8  C   UNL     1     163.746 162.491 150.381  1.00  0.00     0.000 C 
BRANCH   8   9
ATOM      9  C   UNL     1     165.026 162.945 149.660  1.00  0.00     0.000 C 
BRANCH   9  10
ATOM     10  C   UNL     1     165.380 164.416 149.960  1.00  0.00     0.000 C 
BRANCH  10  11
ATOM     11  C   UNL     1     164.880 164.912 151.327  1.00  0.00     0.000 C 
BRANCH  11  12
ATOM     12  C   UNL     1     164.202 166.286 151.256  1.00  0.00     0.006 C 
BRANCH  12  13
ATOM     13  C   UNL     1     163.309 166.397 150.013  1.00  0.00     0.053 C 
BRANCH  13  14
ATOM     14  C   UNL     1     162.760 167.783 149.861  1.00  0.00     0.041 C 
ATOM     15  O   UNL     1     163.021 168.669 150.718  1.00  0.00    -0.550 OA
ATOM     16  O   UNL     1     161.932 168.088 148.789  1.00  0.00    -0.550 OA
ENDBRANCH  13  14
ENDBRANCH  12  13
ENDBRANCH  11  12
ENDBRANCH  10  11
ENDBRANCH   9  10
ENDBRANCH   8   9
ENDBRANCH   7   8
ENDBRANCH   6   7
ENDBRANCH   5   6
ENDBRANCH   4   5
ENDBRANCH   3   4
ENDBRANCH   2   3
ENDBRANCH   1   2
BRANCH   1  17
ATOM     17  C   UNL     1     158.462 160.278 153.390  1.00  0.00     0.000 C 
BRANCH  17  18
ATOM     18  C   UNL     1     159.915 160.067 153.851  1.00  0.00     0.000 C 
BRANCH  18  19
ATOM     19  C   UNL     1     160.784 159.357 152.798  1.00  0.00     0.000 C 
BRANCH  19  20
ATOM     20  C   UNL     1     159.947 158.532 151.805  1.00  0.00     0.000 C 
BRANCH  20  21
ATOM     21  C   UNL     1     160.675 157.255 151.344  1.00  0.00     0.000 C 
BRANCH  21  22
ATOM     22  C   UNL     1     161.048 157.293 149.854  1.00  0.00    -0.000 C 
BRANCH  22  23
ATOM     23  C   UNL     1     160.396 158.473 149.114  1.00  0.00    -0.000 C 
BRANCH  23  24
ATOM     24  C   UNL     1     159.026 158.112 148.521  1.00  0.00    -0.000 C 
BRANCH  24  25
ATOM     25  C   UNL     1     158.850 156.599 148.315  1.00  0.00    -0.000 C 
BRANCH  25  26
ATOM     26  C   UNL     1     157.802 156.034 149.280  1.00  0.00    -0.000 C 
BRANCH  26  27
ATOM     27  C   UNL     1     156.967 157.158 149.911  1.00  0.00    -0.000 C 
BRANCH  27  28
ATOM     28  C   UNL     1     155.586 156.676 150.384  1.00  0.00    -0.000 C 
BRANCH  28  29
ATOM     29  C   UNL     1     155.338 155.192 150.076  1.00  0.00    -0.003 C 
ATOM     30  C   UNL     1     154.042 155.004 149.288  1.00  0.00     0.004 C 
ENDBRANCH  28  29
ENDBRANCH  27  28
ENDBRANCH  26  27
ENDBRANCH  25  26
ENDBRANCH  24  25
ENDBRANCH  23  24
ENDBRANCH  22  23
ENDBRANCH  21  22
ENDBRANCH  20  21
ENDBRANCH  19  20
ENDBRANCH  18  19
ENDBRANCH  17  18
ENDBRANCH   1  17
TORSDOF 26
ENDMDL
MODEL 8
REMARK VINA RESULT:    -5.093      4.116      9.931
REMARK INTER + INTRA:         -16.781
REMARK INTER:                 -13.581
REMARK INTRA:                  -3.200
REMARK UNBOUND:                -3.947
REMARK SMILES CCCCCCCCCCCCCCCCCCCCCCCCCCCC(=O)[O-]
REMARK SMILES IDX 15 1 16 2 17 3 18 4 19 5 20 6 21 7 22 8 23 9 24 10 25 11
REMARK SMILES IDX 26 12 27 13 28 14 29 15 30 16 14 17 13 18 12 19 11 20 10 21
REMARK SMILES IDX 9 22 8 23 7 24 6 25 5 26 4 27 3 28 2 29 1 30
REMARK H PARENT
REMARK Flexibility Score: inf
ROOT
ATOM      1  C   UNL     1     159.962 160.139 153.112  1.00  0.00     0.000 C 
ENDROOT
BRANCH   1   2
ATOM      2  C   UNL     1     160.867 159.331 152.167  1.00  0.00     0.000 C 
BRANCH   2   3
ATOM      3  C   UNL     1     160.742 157.812 152.383  1.00  0.00     0.000 C 
BRANCH   3   4
ATOM      4  C   UNL     1     160.761 156.957 151.098  1.00  0.00     0.000 C 
BRANCH   4   5
ATOM      5  C   UNL     1     160.681 157.745 149.779  1.00  0.00     0.000 C 
BRANCH   5   6
ATOM      6  C   UNL     1     159.665 157.151 148.788  1.00  0.00     0.000 C 
BRANCH   6   7
ATOM      7  C   UNL     1     158.437 156.543 149.489  1.00  0.00     0.000 C 
BRANCH   7   8
ATOM      8  C   UNL     1     157.299 157.555 149.686  1.00  0.00     0.000 C 
BRANCH   8   9
ATOM      9  C   UNL     1     156.119 156.915 150.436  1.00  0.00     0.000 C 
BRANCH   9  10
ATOM     10  C   UNL     1     155.871 155.454 150.007  1.00  0.00     0.000 C 
BRANCH  10  11
ATOM     11  C   UNL     1     154.789 154.738 150.832  1.00  0.00     0.000 C 
BRANCH  11  12
ATOM     12  C   UNL     1     155.261 153.393 151.402  1.00  0.00     0.006 C 
BRANCH  12  13
ATOM     13  C   UNL     1     156.173 152.662 150.408  1.00  0.00     0.053 C 
BRANCH  13  14
ATOM     14  C   UNL     1     156.727 151.404 151.004  1.00  0.00     0.041 C 
ATOM     15  O   UNL     1     156.046 150.344 151.001  1.00  0.00    -0.550 OA
ATOM     16  O   UNL     1     157.984 151.410 151.594  1.00  0.00    -0.550 OA
ENDBRANCH  13  14
ENDBRANCH  12  13
ENDBRANCH  11  12
ENDBRANCH  10  11
ENDBRANCH   9  10
ENDBRANCH   8   9
ENDBRANCH   7   8
ENDBRANCH   6   7
ENDBRANCH   5   6
ENDBRANCH   4   5
ENDBRANCH   3   4
ENDBRANCH   2   3
ENDBRANCH   1   2
BRANCH   1  17
ATOM     17  C   UNL     1     158.720 160.714 152.408  1.00  0.00     0.000 C 
BRANCH  17  18
ATOM     18  C   UNL     1     158.887 162.135 151.839  1.00  0.00     0.000 C 
BRANCH  18  19
ATOM     19  C   UNL     1     158.443 162.251 150.370  1.00  0.00     0.000 C 
BRANCH  19  20
ATOM     20  C   UNL     1     158.845 161.023 149.536  1.00  0.00     0.000 C 
BRANCH  20  21
ATOM     21  C   UNL     1     160.236 161.183 148.892  1.00  0.00     0.000 C 
BRANCH  21  22
ATOM     22  C   UNL     1     160.544 162.638 148.507  1.00  0.00    -0.000 C 
BRANCH  22  23
ATOM     23  C   UNL     1     161.766 163.199 149.254  1.00  0.00    -0.000 C 
BRANCH  23  24
ATOM     24  C   UNL     1     162.559 162.108 149.989  1.00  0.00    -0.000 C 
BRANCH  24  25
ATOM     25  C   UNL     1     163.907 162.614 150.524  1.00  0.00    -0.000 C 
BRANCH  25  26
ATOM     26  C   UNL     1     164.388 163.834 149.730  1.00  0.00    -0.000 C 
BRANCH  26  27
ATOM     27  C   UNL     1     164.483 165.076 150.629  1.00  0.00    -0.000 C 
BRANCH  27  28
ATOM     28  C   UNL     1     163.780 166.302 150.023  1.00  0.00    -0.000 C 
BRANCH  28  29
ATOM     29  C   UNL     1     163.293 167.294 151.091  1.00  0.00    -0.003 C 
ATOM     30  C   UNL     1     162.279 168.275 150.506  1.00  0.00     0.004 C 
ENDBRANCH  28  29
ENDBRANCH  27  28
ENDBRANCH  26  27
ENDBRANCH  25  26
ENDBRANCH  24  25
ENDBRANCH  23  24
ENDBRANCH  22  23
ENDBRANCH  21  22
ENDBRANCH  20  21
ENDBRANCH  19  20
ENDBRANCH  18  19
ENDBRANCH  17  18
ENDBRANCH   1  17
TORSDOF 26
ENDMDL
MODEL 9
REMARK VINA RESULT:    -5.050      4.195      9.932
REMARK INTER + INTRA:         -16.672
REMARK INTER:                 -13.616
REMARK INTRA:                  -3.055
REMARK UNBOUND:                -3.947
REMARK SMILES CCCCCCCCCCCCCCCCCCCCCCCCCCCC(=O)[O-]
REMARK SMILES IDX 15 1 16 2 17 3 18 4 19 5 20 6 21 7 22 8 23 9 24 10 25 11
REMARK SMILES IDX 26 12 27 13 28 14 29 15 30 16 14 17 13 18 12 19 11 20 10 21
REMARK SMILES IDX 9 22 8 23 7 24 6 25 5 26 4 27 3 28 2 29 1 30
REMARK H PARENT
REMARK Flexibility Score: inf
ROOT
ATOM      1  C   UNL     1     158.881 162.531 151.461  1.00  0.00     0.000 C 
ENDROOT
BRANCH   1   2
ATOM      2  C   UNL     1     158.447 161.933 152.809  1.00  0.00     0.000 C 
BRANCH   2   3
ATOM      3  C   UNL     1     158.556 160.398 152.838  1.00  0.00     0.000 C 
BRANCH   3   4
ATOM      4  C   UNL     1     159.713 159.832 153.689  1.00  0.00     0.000 C 
BRANCH   4   5
ATOM      5  C   UNL     1     160.951 159.373 152.899  1.00  0.00     0.000 C 
BRANCH   5   6
ATOM      6  C   UNL     1     161.145 157.847 152.926  1.00  0.00     0.000 C 
BRANCH   6   7
ATOM      7  C   UNL     1     160.727 157.170 151.609  1.00  0.00     0.000 C 
BRANCH   7   8
ATOM      8  C   UNL     1     160.603 158.159 150.441  1.00  0.00     0.000 C 
BRANCH   8   9
ATOM      9  C   UNL     1     159.212 158.072 149.792  1.00  0.00     0.000 C 
BRANCH   9  10
ATOM     10  C   UNL     1     159.021 156.774 148.981  1.00  0.00     0.000 C 
BRANCH  10  11
ATOM     11  C   UNL     1     157.714 156.028 149.297  1.00  0.00     0.000 C 
BRANCH  11  12
ATOM     12  C   UNL     1     156.678 156.908 150.011  1.00  0.00     0.006 C 
BRANCH  12  13
ATOM     13  C   UNL     1     155.269 156.316 149.882  1.00  0.00     0.053 C 
BRANCH  13  14
ATOM     14  C   UNL     1     155.146 155.034 150.648  1.00  0.00     0.041 C 
ATOM     15  O   UNL     1     155.020 155.051 151.901  1.00  0.00    -0.550 OA
ATOM     16  O   UNL     1     155.205 153.818 149.980  1.00  0.00    -0.550 OA
ENDBRANCH  13  14
ENDBRANCH  12  13
ENDBRANCH  11  12
ENDBRANCH  10  11
ENDBRANCH   9  10
ENDBRANCH   8   9
ENDBRANCH   7   8
ENDBRANCH   6   7
ENDBRANCH   5   6
ENDBRANCH   4   5
ENDBRANCH   3   4
ENDBRANCH   2   3
ENDBRANCH   1   2
BRANCH   1  17
ATOM     17  C   UNL     1     158.705 161.553 150.286  1.00  0.00     0.000 C 
BRANCH  17  18
ATOM     18  C   UNL     1     159.850 161.550 149.257  1.00  0.00     0.000 C 
BRANCH  18  19
ATOM     19  C   UNL     1     160.295 162.965 148.847  1.00  0.00     0.000 C 
BRANCH  19  20
ATOM     20  C   UNL     1     161.751 163.262 149.249  1.00  0.00     0.000 C 
BRANCH  20  21
ATOM     21  C   UNL     1     162.407 162.080 149.988  1.00  0.00     0.000 C 
BRANCH  21  22
ATOM     22  C   UNL     1     163.855 162.378 150.408  1.00  0.00    -0.000 C 
BRANCH  22  23
ATOM     23  C   UNL     1     164.339 163.754 149.918  1.00  0.00    -0.000 C 
BRANCH  23  24
ATOM     24  C   UNL     1     165.017 164.569 151.029  1.00  0.00    -0.000 C 
BRANCH  24  25
ATOM     25  C   UNL     1     164.423 165.979 151.175  1.00  0.00    -0.000 C 
BRANCH  25  26
ATOM     26  C   UNL     1     163.680 166.395 149.899  1.00  0.00    -0.000 C 
BRANCH  26  27
ATOM     27  C   UNL     1     162.665 167.510 150.189  1.00  0.00    -0.000 C 
BRANCH  27  28
ATOM     28  C   UNL     1     161.786 167.843 148.972  1.00  0.00    -0.000 C 
BRANCH  28  29
ATOM     29  C   UNL     1     161.004 169.153 149.147  1.00  0.00    -0.003 C 
ATOM     30  C   UNL     1     160.804 169.856 147.805  1.00  0.00     0.004 C 
ENDBRANCH  28  29
ENDBRANCH  27  28
ENDBRANCH  26  27
ENDBRANCH  25  26
ENDBRANCH  24  25
ENDBRANCH  23  24
ENDBRANCH  22  23
ENDBRANCH  21  22
ENDBRANCH  20  21
ENDBRANCH  19  20
ENDBRANCH  18  19
ENDBRANCH  17  18
ENDBRANCH   1  17
TORSDOF 26
ENDMDL
