MODEL 1
REMARK VINA RESULT:    -4.499      0.000      0.000
REMARK INTER + INTRA:          -5.440
REMARK INTER:                  -5.156
REMARK INTRA:                  -0.283
REMARK UNBOUND:                -0.283
REMARK SMILES O=C([O-])C=Cc1ccc(O)cc1
REMARK SMILES IDX 6 1 7 2 12 3 8 4 11 5 9 6 5 7 4 8 2 9 1 10 3 11 10 12
REMARK H PARENT 10 13
REMARK Flexibility Score: inf
ROOT
ATOM      1  C   UNL     1      11.583  -9.904 -43.755  1.00  0.00    -0.025 A 
ATOM      2  C   UNL     1      11.298  -8.861 -44.655  1.00  0.00     0.012 A 
ATOM      3  C   UNL     1      11.122  -9.815 -42.433  1.00  0.00     0.012 A 
ATOM      4  C   UNL     1      10.520  -7.773 -44.248  1.00  0.00     0.047 A 
ATOM      5  C   UNL     1      10.344  -8.725 -42.029  1.00  0.00     0.047 A 
ATOM      6  C   UNL     1      10.038  -7.704 -42.934  1.00  0.00     0.115 A 
ENDROOT
BRANCH   1   7
ATOM      7  C   UNL     1      12.446 -11.037 -44.146  1.00  0.00     0.010 C 
ATOM      8  C   UNL     1      12.016 -12.214 -44.628  1.00  0.00     0.025 C 
BRANCH   8   9
ATOM      9  C   UNL     1      10.609 -12.658 -44.688  1.00  0.00     0.064 C 
ATOM     10  O   UNL     1       9.875 -12.393 -45.676  1.00  0.00    -0.545 OA
ATOM     11  O   UNL     1      10.065 -13.326 -43.598  1.00  0.00    -0.545 OA
ENDBRANCH   8   9
ENDBRANCH   1   7
BRANCH   6  12
ATOM     12  O   UNL     1       9.261  -6.625 -42.518  1.00  0.00    -0.508 OA
ATOM     13  H   UNL     1       9.579  -5.991 -41.794  1.00  0.00     0.293 HD
ENDBRANCH   6  12
TORSDOF 3
ENDMDL
MODEL 2
REMARK VINA RESULT:    -4.476      2.384      4.822
REMARK INTER + INTRA:          -5.413
REMARK INTER:                  -5.589
REMARK INTRA:                   0.176
REMARK UNBOUND:                -0.283
REMARK SMILES O=C([O-])C=Cc1ccc(O)cc1
REMARK SMILES IDX 6 1 7 2 12 3 8 4 11 5 9 6 5 7 4 8 2 9 1 10 3 11 10 12
REMARK H PARENT 10 13
REMARK Flexibility Score: inf
ROOT
ATOM      1  C   UNL     1       9.997 -11.095 -44.816  1.00  0.00    -0.025 A 
ATOM      2  C   UNL     1       8.814 -10.382 -45.084  1.00  0.00     0.012 A 
ATOM      3  C   UNL     1      10.277 -12.260 -45.546  1.00  0.00     0.012 A 
ATOM      4  C   UNL     1       7.953 -10.804 -46.102  1.00  0.00     0.047 A 
ATOM      5  C   UNL     1       9.414 -12.679 -46.563  1.00  0.00     0.047 A 
ATOM      6  C   UNL     1       8.253 -11.952 -46.846  1.00  0.00     0.115 A 
ENDROOT
BRANCH   1   7
ATOM      7  C   UNL     1      10.895 -10.700 -43.711  1.00  0.00     0.010 C 
ATOM      8  C   UNL     1      11.170  -9.439 -43.344  1.00  0.00     0.025 C 
BRANCH   8   9
ATOM      9  C   UNL     1      10.777  -8.221 -44.080  1.00  0.00     0.064 C 
ATOM     10  O   UNL     1      11.367  -7.870 -45.136  1.00  0.00    -0.545 OA
ATOM     11  O   UNL     1       9.778  -7.409 -43.559  1.00  0.00    -0.545 OA
ENDBRANCH   8   9
ENDBRANCH   1   7
BRANCH   6  12
ATOM     12  O   UNL     1       7.404 -12.381 -47.864  1.00  0.00    -0.508 OA
ATOM     13  H   UNL     1       7.275 -11.838 -48.710  1.00  0.00     0.293 HD
ENDBRANCH   6  12
TORSDOF 3
ENDMDL
MODEL 3
REMARK VINA RESULT:    -4.275      1.751      4.641
REMARK INTER + INTRA:          -5.183
REMARK INTER:                  -5.191
REMARK INTRA:                   0.008
REMARK UNBOUND:                -0.283
REMARK SMILES O=C([O-])C=Cc1ccc(O)cc1
REMARK SMILES IDX 6 1 7 2 12 3 8 4 11 5 9 6 5 7 4 8 2 9 1 10 3 11 10 12
REMARK H PARENT 10 13
REMARK Flexibility Score: inf
ROOT
ATOM      1  C   UNL     1      11.944 -10.567 -44.152  1.00  0.00    -0.025 A 
ATOM      2  C   UNL     1      13.039 -11.278 -43.630  1.00  0.00     0.012 A 
ATOM      3  C   UNL     1      10.694 -11.198 -44.238  1.00  0.00     0.012 A 
ATOM      4  C   UNL     1      12.871 -12.583 -43.156  1.00  0.00     0.047 A 
ATOM      5  C   UNL     1      10.529 -12.504 -43.763  1.00  0.00     0.047 A 
ATOM      6  C   UNL     1      11.614 -13.197 -43.219  1.00  0.00     0.115 A 
ENDROOT
BRANCH   1   7
ATOM      7  C   UNL     1      12.107  -9.208 -44.707  1.00  0.00     0.010 C 
ATOM      8  C   UNL     1      11.416  -8.122 -44.326  1.00  0.00     0.025 C 
BRANCH   8   9
ATOM      9  C   UNL     1      10.250  -8.117 -43.421  1.00  0.00     0.064 C 
ATOM     10  O   UNL     1       9.072  -8.051 -43.863  1.00  0.00    -0.545 OA
ATOM     11  O   UNL     1      10.459  -8.117 -42.048  1.00  0.00    -0.545 OA
ENDBRANCH   8   9
ENDBRANCH   1   7
BRANCH   6  12
ATOM     12  O   UNL     1      11.434 -14.496 -42.748  1.00  0.00    -0.508 OA
ATOM     13  H   UNL     1      10.528 -14.826 -42.436  1.00  0.00     0.293 HD
ENDBRANCH   6  12
TORSDOF 3
ENDMDL
MODEL 4
REMARK VINA RESULT:    -4.164     12.696     14.086
REMARK INTER + INTRA:          -5.056
REMARK INTER:                  -4.765
REMARK INTRA:                  -0.291
REMARK UNBOUND:                -0.283
REMARK SMILES O=C([O-])C=Cc1ccc(O)cc1
REMARK SMILES IDX 6 1 7 2 12 3 8 4 11 5 9 6 5 7 4 8 2 9 1 10 3 11 10 12
REMARK H PARENT 10 13
REMARK Flexibility Score: inf
ROOT
ATOM      1  C   UNL     1       7.843 -21.681 -35.703  1.00  0.00    -0.025 A 
ATOM      2  C   UNL     1       7.938 -20.281 -35.609  1.00  0.00     0.012 A 
ATOM      3  C   UNL     1       6.818 -22.250 -36.473  1.00  0.00     0.012 A 
ATOM      4  C   UNL     1       7.050 -19.466 -36.318  1.00  0.00     0.047 A 
ATOM      5  C   UNL     1       5.930 -21.432 -37.180  1.00  0.00     0.047 A 
ATOM      6  C   UNL     1       6.045 -20.041 -37.108  1.00  0.00     0.115 A 
ENDROOT
BRANCH   1   7
ATOM      7  C   UNL     1       8.736 -22.563 -34.923  1.00  0.00     0.010 C 
ATOM      8  C   UNL     1       9.952 -22.979 -35.310  1.00  0.00     0.025 C 
BRANCH   8   9
ATOM      9  C   UNL     1      10.543 -22.786 -36.649  1.00  0.00     0.064 C 
ATOM     10  O   UNL     1      10.494 -23.687 -37.528  1.00  0.00    -0.545 OA
ATOM     11  O   UNL     1      11.230 -21.610 -36.921  1.00  0.00    -0.545 OA
ENDBRANCH   8   9
ENDBRANCH   1   7
BRANCH   6  12
ATOM     12  O   UNL     1       5.155 -19.239 -37.819  1.00  0.00    -0.508 OA
ATOM     13  H   UNL     1       4.639 -19.597 -38.614  1.00  0.00     0.293 HD
ENDBRANCH   6  12
TORSDOF 3
ENDMDL
MODEL 5
REMARK VINA RESULT:    -4.126      2.536      4.605
REMARK INTER + INTRA:          -5.012
REMARK INTER:                  -5.121
REMARK INTRA:                   0.109
REMARK UNBOUND:                -0.283
REMARK SMILES O=C([O-])C=Cc1ccc(O)cc1
REMARK SMILES IDX 6 1 7 2 12 3 8 4 11 5 9 6 5 7 4 8 2 9 1 10 3 11 10 12
REMARK H PARENT 10 13
REMARK Flexibility Score: inf
ROOT
ATOM      1  C   UNL     1       9.653 -10.682 -45.322  1.00  0.00    -0.025 A 
ATOM      2  C   UNL     1      10.190 -11.853 -45.885  1.00  0.00     0.012 A 
ATOM      3  C   UNL     1       8.281 -10.420 -45.460  1.00  0.00     0.012 A 
ATOM      4  C   UNL     1       9.355 -12.771 -46.529  1.00  0.00     0.047 A 
ATOM      5  C   UNL     1       7.449 -11.340 -46.107  1.00  0.00     0.047 A 
ATOM      6  C   UNL     1       7.981 -12.518 -46.639  1.00  0.00     0.115 A 
ENDROOT
BRANCH   1   7
ATOM      7  C   UNL     1      10.521  -9.672 -44.683  1.00  0.00     0.010 C 
ATOM      8  C   UNL     1      11.474  -9.928 -43.773  1.00  0.00     0.025 C 
BRANCH   8   9
ATOM      9  C   UNL     1      11.708 -11.227 -43.112  1.00  0.00     0.064 C 
ATOM     10  O   UNL     1      10.809 -11.794 -42.437  1.00  0.00    -0.545 OA
ATOM     11  O   UNL     1      12.970 -11.802 -43.180  1.00  0.00    -0.545 OA
ENDBRANCH   8   9
ENDBRANCH   1   7
BRANCH   6  12
ATOM     12  O   UNL     1       7.140 -13.426 -47.278  1.00  0.00    -0.508 OA
ATOM     13  H   UNL     1       7.110 -13.500 -48.288  1.00  0.00     0.293 HD
ENDBRANCH   6  12
TORSDOF 3
ENDMDL
MODEL 6
REMARK VINA RESULT:    -4.087      1.710      2.245
REMARK INTER + INTRA:          -4.967
REMARK INTER:                  -4.802
REMARK INTRA:                  -0.166
REMARK UNBOUND:                -0.283
REMARK SMILES O=C([O-])C=Cc1ccc(O)cc1
REMARK SMILES IDX 6 1 7 2 12 3 8 4 11 5 9 6 5 7 4 8 2 9 1 10 3 11 10 12
REMARK H PARENT 10 13
REMARK Flexibility Score: inf
ROOT
ATOM      1  C   UNL     1      10.689 -10.929 -44.558  1.00  0.00    -0.025 A 
ATOM      2  C   UNL     1      10.452  -9.622 -45.019  1.00  0.00     0.012 A 
ATOM      3  C   UNL     1      10.936 -11.141 -43.194  1.00  0.00     0.012 A 
ATOM      4  C   UNL     1      10.413  -8.553 -44.118  1.00  0.00     0.047 A 
ATOM      5  C   UNL     1      10.897 -10.070 -42.295  1.00  0.00     0.047 A 
ATOM      6  C   UNL     1      10.632  -8.776 -42.752  1.00  0.00     0.115 A 
ENDROOT
BRANCH   1   7
ATOM      7  C   UNL     1      10.787 -12.066 -45.497  1.00  0.00     0.010 C 
ATOM      8  C   UNL     1       9.777 -12.559 -46.231  1.00  0.00     0.025 C 
BRANCH   8   9
ATOM      9  C   UNL     1       8.356 -12.182 -46.105  1.00  0.00     0.064 C 
ATOM     10  O   UNL     1       7.546 -12.876 -45.434  1.00  0.00    -0.545 OA
ATOM     11  O   UNL     1       7.886 -11.075 -46.800  1.00  0.00    -0.545 OA
ENDBRANCH   8   9
ENDBRANCH   1   7
BRANCH   6  12
ATOM     12  O   UNL     1      10.594  -7.720 -41.845  1.00  0.00    -0.508 OA
ATOM     13  H   UNL     1      11.406  -7.136 -41.677  1.00  0.00     0.293 HD
ENDBRANCH   6  12
TORSDOF 3
ENDMDL
MODEL 7
REMARK VINA RESULT:    -4.060      1.657      4.778
REMARK INTER + INTRA:          -4.936
REMARK INTER:                  -4.683
REMARK INTRA:                  -0.253
REMARK UNBOUND:                -0.283
REMARK SMILES O=C([O-])C=Cc1ccc(O)cc1
REMARK SMILES IDX 6 1 7 2 12 3 8 4 11 5 9 6 5 7 4 8 2 9 1 10 3 11 10 12
REMARK H PARENT 10 13
REMARK Flexibility Score: inf
ROOT
ATOM      1  C   UNL     1      10.732 -10.665 -44.665  1.00  0.00    -0.025 A 
ATOM      2  C   UNL     1      11.016 -11.877 -44.012  1.00  0.00     0.012 A 
ATOM      3  C   UNL     1       9.587 -10.571 -45.470  1.00  0.00     0.012 A 
ATOM      4  C   UNL     1      10.139 -12.961 -44.125  1.00  0.00     0.047 A 
ATOM      5  C   UNL     1       8.712 -11.656 -45.582  1.00  0.00     0.047 A 
ATOM      6  C   UNL     1       8.982 -12.851 -44.908  1.00  0.00     0.115 A 
ENDROOT
BRANCH   1   7
ATOM      7  C   UNL     1      11.669  -9.524 -44.604  1.00  0.00     0.010 C 
ATOM      8  C   UNL     1      11.549  -8.460 -43.794  1.00  0.00     0.025 C 
BRANCH   8   9
ATOM      9  C   UNL     1      10.378  -8.144 -42.954  1.00  0.00     0.064 C 
ATOM     10  O   UNL     1      10.336  -8.461 -41.735  1.00  0.00    -0.545 OA
ATOM     11  O   UNL     1       9.269  -7.546 -43.537  1.00  0.00    -0.545 OA
ENDBRANCH   8   9
ENDBRANCH   1   7
BRANCH   6  12
ATOM     12  O   UNL     1       8.101 -13.923 -45.026  1.00  0.00    -0.508 OA
ATOM     13  H   UNL     1       7.146 -13.791 -45.339  1.00  0.00     0.293 HD
ENDBRANCH   6  12
TORSDOF 3
ENDMDL
MODEL 8
REMARK VINA RESULT:    -4.006     11.751     13.976
REMARK INTER + INTRA:          -4.875
REMARK INTER:                  -4.587
REMARK INTRA:                  -0.288
REMARK UNBOUND:                -0.283
REMARK SMILES O=C([O-])C=Cc1ccc(O)cc1
REMARK SMILES IDX 6 1 7 2 12 3 8 4 11 5 9 6 5 7 4 8 2 9 1 10 3 11 10 12
REMARK H PARENT 10 13
REMARK Flexibility Score: inf
ROOT
ATOM      1  C   UNL     1       7.633 -20.808 -36.082  1.00  0.00    -0.025 A 
ATOM      2  C   UNL     1       8.708 -20.911 -35.181  1.00  0.00     0.012 A 
ATOM      3  C   UNL     1       7.241 -21.939 -36.815  1.00  0.00     0.012 A 
ATOM      4  C   UNL     1       9.345 -22.140 -34.982  1.00  0.00     0.047 A 
ATOM      5  C   UNL     1       7.880 -23.166 -36.614  1.00  0.00     0.047 A 
ATOM      6  C   UNL     1       8.930 -23.272 -35.696  1.00  0.00     0.115 A 
ENDROOT
BRANCH   1   7
ATOM      7  C   UNL     1       6.979 -19.511 -36.349  1.00  0.00     0.010 C 
ATOM      8  C   UNL     1       7.286 -18.676 -37.355  1.00  0.00     0.025 C 
BRANCH   8   9
ATOM      9  C   UNL     1       8.441 -18.810 -38.263  1.00  0.00     0.064 C 
ATOM     10  O   UNL     1       8.366 -19.470 -39.333  1.00  0.00    -0.545 OA
ATOM     11  O   UNL     1       9.659 -18.252 -37.895  1.00  0.00    -0.545 OA
ENDBRANCH   8   9
ENDBRANCH   1   7
BRANCH   6  12
ATOM     12  O   UNL     1       9.555 -24.501 -35.504  1.00  0.00    -0.508 OA
ATOM     13  H   UNL     1       9.898 -24.786 -34.594  1.00  0.00     0.293 HD
ENDBRANCH   6  12
TORSDOF 3
ENDMDL
MODEL 9
REMARK VINA RESULT:    -3.989     13.037     14.805
REMARK INTER + INTRA:          -4.856
REMARK INTER:                  -4.556
REMARK INTRA:                  -0.299
REMARK UNBOUND:                -0.283
REMARK SMILES O=C([O-])C=Cc1ccc(O)cc1
REMARK SMILES IDX 6 1 7 2 12 3 8 4 11 5 9 6 5 7 4 8 2 9 1 10 3 11 10 12
REMARK H PARENT 10 13
REMARK Flexibility Score: inf
ROOT
ATOM      1  C   UNL     1       8.905 -21.569 -35.934  1.00  0.00    -0.025 A 
ATOM      2  C   UNL     1       8.689 -22.762 -35.222  1.00  0.00     0.012 A 
ATOM      3  C   UNL     1       9.938 -21.513 -36.882  1.00  0.00     0.012 A 
ATOM      4  C   UNL     1       9.463 -23.895 -35.494  1.00  0.00     0.047 A 
ATOM      5  C   UNL     1      10.711 -22.647 -37.151  1.00  0.00     0.047 A 
ATOM      6  C   UNL     1      10.474 -23.840 -36.462  1.00  0.00     0.115 A 
ENDROOT
BRANCH   1   7
ATOM      7  C   UNL     1       8.136 -20.345 -35.629  1.00  0.00     0.010 C 
ATOM      8  C   UNL     1       6.960 -20.007 -36.178  1.00  0.00     0.025 C 
BRANCH   8   9
ATOM      9  C   UNL     1       6.308 -20.693 -37.311  1.00  0.00     0.064 C 
ATOM     10  O   UNL     1       5.481 -21.626 -37.129  1.00  0.00    -0.545 OA
ATOM     11  O   UNL     1       6.668 -20.349 -38.607  1.00  0.00    -0.545 OA
ENDBRANCH   8   9
ENDBRANCH   1   7
BRANCH   6  12
ATOM     12  O   UNL     1      11.250 -24.962 -36.743  1.00  0.00    -0.508 OA
ATOM     13  H   UNL     1      10.828 -25.858 -36.959  1.00  0.00     0.293 HD
ENDBRANCH   6  12
TORSDOF 3
ENDMDL
