MODEL 1
REMARK VINA RESULT:    -4.390      0.000      0.000
REMARK INTER + INTRA:          -8.204
REMARK INTER:                  -6.956
REMARK INTRA:                  -1.248
REMARK UNBOUND:                -1.248
REMARK SMILES CCCCCCCCCCCC(=O)[O-]
REMARK SMILES IDX 7 1 8 2 9 3 10 4 11 5 12 6 13 7 14 8 6 9 5 10 4 11 3 12 2 13
REMARK SMILES IDX 1 14
REMARK H PARENT
REMARK Flexibility Score: inf
ROOT
ATOM      1  C   UNL     1       9.089   7.744  28.946  1.00  0.00     0.000 C 
ENDROOT
BRANCH   1   2
ATOM      2  C   UNL     1      10.133   8.825  28.633  1.00  0.00     0.000 C 
BRANCH   2   3
ATOM      3  C   UNL     1      10.854   8.524  27.311  1.00  0.00     0.000 C 
BRANCH   3   4
ATOM      4  C   UNL     1      11.383   7.081  27.232  1.00  0.00     0.006 C 
BRANCH   4   5
ATOM      5  C   UNL     1      12.812   6.961  26.676  1.00  0.00     0.053 C 
BRANCH   5   6
ATOM      6  C   UNL     1      13.438   5.644  27.018  1.00  0.00     0.041 C 
ATOM      7  O   UNL     1      13.878   5.434  28.179  1.00  0.00    -0.550 OA
ATOM      8  O   UNL     1      13.563   4.661  26.046  1.00  0.00    -0.550 OA
ENDBRANCH   5   6
ENDBRANCH   4   5
ENDBRANCH   3   4
ENDBRANCH   2   3
ENDBRANCH   1   2
BRANCH   1   9
ATOM      9  C   UNL     1       9.019   7.397  30.442  1.00  0.00     0.000 C 
BRANCH   9  10
ATOM     10  C   UNL     1       9.051   5.880  30.700  1.00  0.00    -0.000 C 
BRANCH  10  11
ATOM     11  C   UNL     1      10.483   5.330  30.806  1.00  0.00    -0.000 C 
BRANCH  11  12
ATOM     12  C   UNL     1      10.841   4.384  29.647  1.00  0.00    -0.000 C 
BRANCH  12  13
ATOM     13  C   UNL     1       9.609   3.970  28.825  1.00  0.00    -0.003 C 
ATOM     14  C   UNL     1       9.916   3.804  27.338  1.00  0.00     0.004 C 
ENDBRANCH  12  13
ENDBRANCH  11  12
ENDBRANCH  10  11
ENDBRANCH   9  10
ENDBRANCH   1   9
TORSDOF 10
ENDMDL
MODEL 2
REMARK VINA RESULT:    -4.122     14.499     16.008
REMARK INTER + INTRA:          -7.780
REMARK INTER:                  -6.533
REMARK INTRA:                  -1.248
REMARK UNBOUND:                -1.248
REMARK SMILES CCCCCCCCCCCC(=O)[O-]
REMARK SMILES IDX 7 1 8 2 9 3 10 4 11 5 12 6 13 7 14 8 6 9 5 10 4 11 3 12 2 13
REMARK SMILES IDX 1 14
REMARK H PARENT
REMARK Flexibility Score: inf
ROOT
ATOM      1  C   UNL     1       7.158   7.797  15.279  1.00  0.00     0.000 C 
ENDROOT
BRANCH   1   2
ATOM      2  C   UNL     1       6.277   6.541  15.331  1.00  0.00     0.000 C 
BRANCH   2   3
ATOM      3  C   UNL     1       4.810   6.888  15.041  1.00  0.00     0.000 C 
BRANCH   3   4
ATOM      4  C   UNL     1       4.483   8.371  15.297  1.00  0.00     0.006 C 
BRANCH   4   5
ATOM      5  C   UNL     1       3.921   8.660  16.698  1.00  0.00     0.053 C 
BRANCH   5   6
ATOM      6  C   UNL     1       2.423   8.623  16.719  1.00  0.00     0.041 C 
ATOM      7  O   UNL     1       1.810   8.417  17.799  1.00  0.00    -0.550 OA
ATOM      8  O   UNL     1       1.707   8.784  15.541  1.00  0.00    -0.550 OA
ENDBRANCH   5   6
ENDBRANCH   4   5
ENDBRANCH   3   4
ENDBRANCH   2   3
ENDBRANCH   1   2
BRANCH   1   9
ATOM      9  C   UNL     1       8.358   7.646  14.331  1.00  0.00     0.000 C 
BRANCH   9  10
ATOM     10  C   UNL     1       8.274   8.589  13.117  1.00  0.00    -0.000 C 
BRANCH  10  11
ATOM     11  C   UNL     1       7.616   7.923  11.897  1.00  0.00    -0.000 C 
BRANCH  11  12
ATOM     12  C   UNL     1       7.877   6.408  11.838  1.00  0.00    -0.000 C 
BRANCH  12  13
ATOM     13  C   UNL     1       6.604   5.604  11.524  1.00  0.00    -0.003 C 
ATOM     14  C   UNL     1       5.351   6.477  11.465  1.00  0.00     0.004 C 
ENDBRANCH  12  13
ENDBRANCH  11  12
ENDBRANCH  10  11
ENDBRANCH   9  10
ENDBRANCH   1   9
TORSDOF 10
ENDMDL
MODEL 3
REMARK VINA RESULT:    -4.063      1.736      2.025
REMARK INTER + INTRA:          -7.686
REMARK INTER:                  -6.589
REMARK INTRA:                  -1.096
REMARK UNBOUND:                -1.248
REMARK SMILES CCCCCCCCCCCC(=O)[O-]
REMARK SMILES IDX 7 1 8 2 9 3 10 4 11 5 12 6 13 7 14 8 6 9 5 10 4 11 3 12 2 13
REMARK SMILES IDX 1 14
REMARK H PARENT
REMARK Flexibility Score: inf
ROOT
ATOM      1  C   UNL     1      10.055   8.177  28.402  1.00  0.00     0.000 C 
ENDROOT
BRANCH   1   2
ATOM      2  C   UNL     1      10.389   7.581  27.028  1.00  0.00     0.000 C 
BRANCH   2   3
ATOM      3  C   UNL     1      11.865   7.815  26.673  1.00  0.00     0.000 C 
BRANCH   3   4
ATOM      4  C   UNL     1      12.713   6.533  26.763  1.00  0.00     0.006 C 
BRANCH   4   5
ATOM      5  C   UNL     1      13.393   6.132  25.444  1.00  0.00     0.053 C 
BRANCH   5   6
ATOM      6  C   UNL     1      14.180   7.261  24.853  1.00  0.00     0.041 C 
ATOM      7  O   UNL     1      15.188   7.715  25.456  1.00  0.00    -0.550 OA
ATOM      8  O   UNL     1      13.781   7.832  23.652  1.00  0.00    -0.550 OA
ENDBRANCH   5   6
ENDBRANCH   4   5
ENDBRANCH   3   4
ENDBRANCH   2   3
ENDBRANCH   1   2
BRANCH   1   9
ATOM      9  C   UNL     1       8.901   7.446  29.105  1.00  0.00     0.000 C 
BRANCH   9  10
ATOM     10  C   UNL     1       9.205   7.144  30.584  1.00  0.00    -0.000 C 
BRANCH  10  11
ATOM     11  C   UNL     1       9.956   5.816  30.772  1.00  0.00    -0.000 C 
BRANCH  11  12
ATOM     12  C   UNL     1       9.340   4.667  29.955  1.00  0.00    -0.000 C 
BRANCH  12  13
ATOM     13  C   UNL     1      10.316   4.099  28.912  1.00  0.00    -0.003 C 
ATOM     14  C   UNL     1       9.681   3.937  27.532  1.00  0.00     0.004 C 
ENDBRANCH  12  13
ENDBRANCH  11  12
ENDBRANCH  10  11
ENDBRANCH   9  10
ENDBRANCH   1   9
TORSDOF 10
ENDMDL
MODEL 4
REMARK VINA RESULT:    -4.052      2.332      5.127
REMARK INTER + INTRA:          -7.669
REMARK INTER:                  -6.652
REMARK INTRA:                  -1.018
REMARK UNBOUND:                -1.248
REMARK SMILES CCCCCCCCCCCC(=O)[O-]
REMARK SMILES IDX 7 1 8 2 9 3 10 4 11 5 12 6 13 7 14 8 6 9 5 10 4 11 3 12 2 13
REMARK SMILES IDX 1 14
REMARK H PARENT
REMARK Flexibility Score: inf
ROOT
ATOM      1  C   UNL     1       9.754   4.074  28.507  1.00  0.00     0.000 C 
ENDROOT
BRANCH   1   2
ATOM      2  C   UNL     1      10.463   4.080  29.869  1.00  0.00     0.000 C 
BRANCH   2   3
ATOM      3  C   UNL     1       9.616   4.806  30.924  1.00  0.00     0.000 C 
BRANCH   3   4
ATOM      4  C   UNL     1      10.000   6.289  31.083  1.00  0.00     0.006 C 
BRANCH   4   5
ATOM      5  C   UNL     1       8.906   7.275  30.643  1.00  0.00     0.053 C 
BRANCH   5   6
ATOM      6  C   UNL     1       9.200   7.876  29.302  1.00  0.00     0.041 C 
ATOM      7  O   UNL     1       8.688   7.385  28.262  1.00  0.00    -0.550 OA
ATOM      8  O   UNL     1      10.063   8.959  29.200  1.00  0.00    -0.550 OA
ENDBRANCH   5   6
ENDBRANCH   4   5
ENDBRANCH   3   4
ENDBRANCH   2   3
ENDBRANCH   1   2
BRANCH   1   9
ATOM      9  C   UNL     1      10.586   4.738  27.398  1.00  0.00     0.000 C 
BRANCH   9  10
ATOM     10  C   UNL     1      11.813   5.487  27.948  1.00  0.00    -0.000 C 
BRANCH  10  11
ATOM     11  C   UNL     1      12.563   6.271  26.858  1.00  0.00    -0.000 C 
BRANCH  11  12
ATOM     12  C   UNL     1      11.820   7.548  26.432  1.00  0.00    -0.000 C 
BRANCH  12  13
ATOM     13  C   UNL     1      12.658   8.429  25.490  1.00  0.00    -0.003 C 
ATOM     14  C   UNL     1      13.892   7.710  24.948  1.00  0.00     0.004 C 
ENDBRANCH  12  13
ENDBRANCH  11  12
ENDBRANCH  10  11
ENDBRANCH   9  10
ENDBRANCH   1   9
TORSDOF 10
ENDMDL
MODEL 5
REMARK VINA RESULT:    -3.989      1.852      3.179
REMARK INTER + INTRA:          -7.568
REMARK INTER:                  -6.436
REMARK INTRA:                  -1.132
REMARK UNBOUND:                -1.248
REMARK SMILES CCCCCCCCCCCC(=O)[O-]
REMARK SMILES IDX 7 1 8 2 9 3 10 4 11 5 12 6 13 7 14 8 6 9 5 10 4 11 3 12 2 13
REMARK SMILES IDX 1 14
REMARK H PARENT
REMARK Flexibility Score: inf
ROOT
ATOM      1  C   UNL     1      10.571   5.232  27.045  1.00  0.00     0.000 C 
ENDROOT
BRANCH   1   2
ATOM      2  C   UNL     1      10.277   6.671  26.599  1.00  0.00     0.000 C 
BRANCH   2   3
ATOM      3  C   UNL     1      11.559   7.516  26.591  1.00  0.00     0.000 C 
BRANCH   3   4
ATOM      4  C   UNL     1      12.815   6.701  26.954  1.00  0.00     0.006 C 
BRANCH   4   5
ATOM      5  C   UNL     1      13.856   6.611  25.826  1.00  0.00     0.053 C 
BRANCH   5   6
ATOM      6  C   UNL     1      14.728   7.827  25.769  1.00  0.00     0.041 C 
ATOM      7  O   UNL     1      14.427   8.787  25.011  1.00  0.00    -0.550 OA
ATOM      8  O   UNL     1      15.888   7.887  26.529  1.00  0.00    -0.550 OA
ENDBRANCH   5   6
ENDBRANCH   4   5
ENDBRANCH   3   4
ENDBRANCH   2   3
ENDBRANCH   1   2
BRANCH   1   9
ATOM      9  C   UNL     1       9.374   4.567  27.744  1.00  0.00     0.000 C 
BRANCH   9  10
ATOM     10  C   UNL     1       9.645   4.279  29.231  1.00  0.00    -0.000 C 
BRANCH  10  11
ATOM     11  C   UNL     1      10.467   5.389  29.908  1.00  0.00    -0.000 C 
BRANCH  11  12
ATOM     12  C   UNL     1       9.637   6.214  30.906  1.00  0.00    -0.000 C 
BRANCH  12  13
ATOM     13  C   UNL     1       8.773   7.280  30.212  1.00  0.00    -0.003 C 
ATOM     14  C   UNL     1       9.589   8.467  29.703  1.00  0.00     0.004 C 
ENDBRANCH  12  13
ENDBRANCH  11  12
ENDBRANCH  10  11
ENDBRANCH   9  10
ENDBRANCH   1   9
TORSDOF 10
ENDMDL
MODEL 6
REMARK VINA RESULT:    -3.973     13.943     15.396
REMARK INTER + INTRA:          -7.544
REMARK INTER:                  -6.377
REMARK INTRA:                  -1.167
REMARK UNBOUND:                -1.248
REMARK SMILES CCCCCCCCCCCC(=O)[O-]
REMARK SMILES IDX 7 1 8 2 9 3 10 4 11 5 12 6 13 7 14 8 6 9 5 10 4 11 3 12 2 13
REMARK SMILES IDX 1 14
REMARK H PARENT
REMARK Flexibility Score: inf
ROOT
ATOM      1  C   UNL     1       6.337   7.165  15.800  1.00  0.00     0.000 C 
ENDROOT
BRANCH   1   2
ATOM      2  C   UNL     1       5.046   6.570  15.221  1.00  0.00     0.000 C 
BRANCH   2   3
ATOM      3  C   UNL     1       4.082   7.680  14.777  1.00  0.00     0.000 C 
BRANCH   3   4
ATOM      4  C   UNL     1       2.958   7.940  15.796  1.00  0.00     0.006 C 
BRANCH   4   5
ATOM      5  C   UNL     1       3.294   9.010  16.847  1.00  0.00     0.053 C 
BRANCH   5   6
ATOM      6  C   UNL     1       3.321   8.445  18.234  1.00  0.00     0.041 C 
ATOM      7  O   UNL     1       4.304   7.759  18.619  1.00  0.00    -0.550 OA
ATOM      8  O   UNL     1       2.246   8.649  19.089  1.00  0.00    -0.550 OA
ENDBRANCH   5   6
ENDBRANCH   4   5
ENDBRANCH   3   4
ENDBRANCH   2   3
ENDBRANCH   1   2
BRANCH   1   9
ATOM      9  C   UNL     1       7.056   8.102  14.816  1.00  0.00     0.000 C 
BRANCH   9  10
ATOM     10  C   UNL     1       8.323   7.467  14.215  1.00  0.00    -0.000 C 
BRANCH  10  11
ATOM     11  C   UNL     1       8.148   7.086  12.735  1.00  0.00    -0.000 C 
BRANCH  11  12
ATOM     12  C   UNL     1       7.527   5.691  12.554  1.00  0.00    -0.000 C 
BRANCH  12  13
ATOM     13  C   UNL     1       6.618   5.608  11.316  1.00  0.00    -0.003 C 
ATOM     14  C   UNL     1       5.329   6.412  11.472  1.00  0.00     0.004 C 
ENDBRANCH  12  13
ENDBRANCH  11  12
ENDBRANCH  10  11
ENDBRANCH   9  10
ENDBRANCH   1   9
TORSDOF 10
ENDMDL
MODEL 7
REMARK VINA RESULT:    -3.951      2.207      5.010
REMARK INTER + INTRA:          -7.508
REMARK INTER:                  -6.485
REMARK INTRA:                  -1.023
REMARK UNBOUND:                -1.248
REMARK SMILES CCCCCCCCCCCC(=O)[O-]
REMARK SMILES IDX 7 1 8 2 9 3 10 4 11 5 12 6 13 7 14 8 6 9 5 10 4 11 3 12 2 13
REMARK SMILES IDX 1 14
REMARK H PARENT
REMARK Flexibility Score: inf
ROOT
ATOM      1  C   UNL     1      10.565   6.603  26.604  1.00  0.00     0.000 C 
ENDROOT
BRANCH   1   2
ATOM      2  C   UNL     1      10.690   7.880  27.447  1.00  0.00     0.000 C 
BRANCH   2   3
ATOM      3  C   UNL     1       9.787   7.809  28.687  1.00  0.00     0.000 C 
BRANCH   3   4
ATOM      4  C   UNL     1       9.035   6.470  28.803  1.00  0.00     0.006 C 
BRANCH   4   5
ATOM      5  C   UNL     1       9.419   5.635  30.036  1.00  0.00     0.053 C 
BRANCH   5   6
ATOM      6  C   UNL     1      10.392   4.549  29.695  1.00  0.00     0.041 C 
ATOM      7  O   UNL     1      10.143   3.746  28.758  1.00  0.00    -0.550 OA
ATOM      8  O   UNL     1      11.559   4.404  30.434  1.00  0.00    -0.550 OA
ENDBRANCH   5   6
ENDBRANCH   4   5
ENDBRANCH   3   4
ENDBRANCH   2   3
ENDBRANCH   1   2
BRANCH   1   9
ATOM      9  C   UNL     1      11.928   6.018  26.201  1.00  0.00     0.000 C 
BRANCH   9  10
ATOM     10  C   UNL     1      12.919   5.965  27.378  1.00  0.00    -0.000 C 
BRANCH  10  11
ATOM     11  C   UNL     1      14.233   6.706  27.076  1.00  0.00    -0.000 C 
BRANCH  11  12
ATOM     12  C   UNL     1      14.142   7.579  25.813  1.00  0.00    -0.000 C 
BRANCH  12  13
ATOM     13  C   UNL     1      15.517   8.096  25.356  1.00  0.00    -0.003 C 
ATOM     14  C   UNL     1      15.947   7.523  24.007  1.00  0.00     0.004 C 
ENDBRANCH  12  13
ENDBRANCH  11  12
ENDBRANCH  10  11
ENDBRANCH   9  10
ENDBRANCH   1   9
TORSDOF 10
ENDMDL
MODEL 8
REMARK VINA RESULT:    -3.937      3.123      4.294
REMARK INTER + INTRA:          -7.486
REMARK INTER:                  -6.862
REMARK INTRA:                  -0.624
REMARK UNBOUND:                -1.248
REMARK SMILES CCCCCCCCCCCC(=O)[O-]
REMARK SMILES IDX 7 1 8 2 9 3 10 4 11 5 12 6 13 7 14 8 6 9 5 10 4 11 3 12 2 13
REMARK SMILES IDX 1 14
REMARK H PARENT
REMARK Flexibility Score: inf
ROOT
ATOM      1  C   UNL     1      12.764   5.615  27.058  1.00  0.00     0.000 C 
ENDROOT
BRANCH   1   2
ATOM      2  C   UNL     1      13.869   6.658  26.842  1.00  0.00     0.000 C 
BRANCH   2   3
ATOM      3  C   UNL     1      13.648   7.430  25.533  1.00  0.00     0.000 C 
BRANCH   3   4
ATOM      4  C   UNL     1      14.942   7.611  24.718  1.00  0.00     0.006 C 
BRANCH   4   5
ATOM      5  C   UNL     1      16.043   8.397  25.449  1.00  0.00     0.053 C 
BRANCH   5   6
ATOM      6  C   UNL     1      17.354   8.326  24.729  1.00  0.00     0.041 C 
ATOM      7  O   UNL     1      17.737   7.242  24.215  1.00  0.00    -0.550 OA
ATOM      8  O   UNL     1      18.167   9.449  24.652  1.00  0.00    -0.550 OA
ENDBRANCH   5   6
ENDBRANCH   4   5
ENDBRANCH   3   4
ENDBRANCH   2   3
ENDBRANCH   1   2
BRANCH   1   9
ATOM      9  C   UNL     1      11.351   6.207  26.923  1.00  0.00     0.000 C 
BRANCH   9  10
ATOM     10  C   UNL     1      10.249   5.145  27.082  1.00  0.00    -0.000 C 
BRANCH  10  11
ATOM     11  C   UNL     1       9.087   5.628  27.967  1.00  0.00    -0.000 C 
BRANCH  11  12
ATOM     12  C   UNL     1       9.334   5.362  29.462  1.00  0.00    -0.000 C 
BRANCH  12  13
ATOM     13  C   UNL     1      10.207   4.120  29.702  1.00  0.00    -0.003 C 
ATOM     14  C   UNL     1      11.483   4.434  30.481  1.00  0.00     0.004 C 
ENDBRANCH  12  13
ENDBRANCH  11  12
ENDBRANCH  10  11
ENDBRANCH   9  10
ENDBRANCH   1   9
TORSDOF 10
ENDMDL
MODEL 9
REMARK VINA RESULT:    -3.900      1.262      2.443
REMARK INTER + INTRA:          -7.427
REMARK INTER:                  -6.471
REMARK INTRA:                  -0.956
REMARK UNBOUND:                -1.248
REMARK SMILES CCCCCCCCCCCC(=O)[O-]
REMARK SMILES IDX 7 1 8 2 9 3 10 4 11 5 12 6 13 7 14 8 6 9 5 10 4 11 3 12 2 13
REMARK SMILES IDX 1 14
REMARK H PARENT
REMARK Flexibility Score: inf
ROOT
ATOM      1  C   UNL     1      10.613   7.831  27.622  1.00  0.00     0.000 C 
ENDROOT
BRANCH   1   2
ATOM      2  C   UNL     1      11.395   8.528  26.499  1.00  0.00     0.000 C 
BRANCH   2   3
ATOM      3  C   UNL     1      11.292   7.736  25.187  1.00  0.00     0.000 C 
BRANCH   3   4
ATOM      4  C   UNL     1      12.623   7.080  24.778  1.00  0.00     0.006 C 
BRANCH   4   5
ATOM      5  C   UNL     1      13.624   6.910  25.932  1.00  0.00     0.053 C 
BRANCH   5   6
ATOM      6  C   UNL     1      13.509   5.565  26.581  1.00  0.00     0.041 C 
ATOM      7  O   UNL     1      13.493   4.522  25.877  1.00  0.00    -0.550 OA
ATOM      8  O   UNL     1      13.388   5.467  27.961  1.00  0.00    -0.550 OA
ENDBRANCH   5   6
ENDBRANCH   4   5
ENDBRANCH   3   4
ENDBRANCH   2   3
ENDBRANCH   1   2
BRANCH   1   9
ATOM      9  C   UNL     1       9.816   6.613  27.127  1.00  0.00     0.000 C 
BRANCH   9  10
ATOM     10  C   UNL     1       8.998   5.948  28.248  1.00  0.00    -0.000 C 
BRANCH  10  11
ATOM     11  C   UNL     1       9.020   6.758  29.555  1.00  0.00    -0.000 C 
BRANCH  11  12
ATOM     12  C   UNL     1       9.524   5.934  30.752  1.00  0.00    -0.000 C 
BRANCH  12  13
ATOM     13  C   UNL     1      10.201   4.623  30.320  1.00  0.00    -0.003 C 
ATOM     14  C   UNL     1      11.608   4.465  30.893  1.00  0.00     0.004 C 
ENDBRANCH  12  13
ENDBRANCH  11  12
ENDBRANCH  10  11
ENDBRANCH   9  10
ENDBRANCH   1   9
TORSDOF 10
ENDMDL
