MODEL 1
REMARK VINA RESULT:     1.587      0.000      0.000
REMARK INTER + INTRA:           1.663
REMARK INTER:                   1.865
REMARK INTRA:                  -0.202
REMARK UNBOUND:                -0.202
REMARK SMILES O=c1c(O)c(-c2ccc(O)cc2)oc2cc(O)cc(O)c12
REMARK SMILES IDX 5 1 3 2 2 3 1 4 21 5 19 6 18 7 16 8 15 9 14 10 13 11 6 12
REMARK SMILES IDX 7 13 8 14 9 15 12 16 11 17 10 18 4 20 20 22 17 24
REMARK H PARENT 10 19 4 21 20 23 17 25
REMARK Flexibility Score: inf
ROOT
ATOM      1  C   UNL     1     188.380 191.564 174.338  1.00  0.00     0.180 A 
ATOM      2  C   UNL     1     188.575 191.958 173.003  1.00  0.00     0.208 A 
ATOM      3  C   UNL     1     188.826 193.311 172.723  1.00  0.00     0.238 A 
ATOM      4  O   UNL     1     189.073 193.645 171.535  1.00  0.00    -0.285 OA
ATOM      5  C   UNL     1     188.823 194.261 173.774  1.00  0.00     0.111 A 
ATOM      6  C   UNL     1     189.021 195.666 173.600  1.00  0.00     0.134 A 
ATOM      7  C   UNL     1     189.104 196.496 174.725  1.00  0.00     0.093 A 
ATOM      8  C   UNL     1     188.931 195.983 176.013  1.00  0.00     0.123 A 
ATOM      9  C   UNL     1     188.682 194.625 176.189  1.00  0.00     0.094 A 
ATOM     10  C   UNL     1     188.633 193.764 175.089  1.00  0.00     0.146 A 
ATOM     11  O   UNL     1     188.415 192.472 175.306  1.00  0.00    -0.452 OA
ENDROOT
BRANCH   1  12
ATOM     12  C   UNL     1     188.124 190.154 174.715  1.00  0.00     0.021 A 
ATOM     13  C   UNL     1     186.872 189.581 174.438  1.00  0.00     0.016 A 
ATOM     14  C   UNL     1     186.602 188.259 174.804  1.00  0.00     0.047 A 
ATOM     15  C   UNL     1     187.573 187.500 175.466  1.00  0.00     0.115 A 
ATOM     16  C   UNL     1     189.089 189.392 175.398  1.00  0.00     0.016 A 
ATOM     17  C   UNL     1     188.816 188.071 175.764  1.00  0.00     0.047 A 
BRANCH  15  18
ATOM     18  O   UNL     1     187.289 186.185 175.825  1.00  0.00    -0.508 OA
ATOM     19  H   UNL     1     186.401 185.930 176.243  1.00  0.00     0.293 HD
ENDBRANCH  15  18
ENDBRANCH   1  12
BRANCH   2  20
ATOM     20  O   UNL     1     188.497 191.018 171.972  1.00  0.00    -0.502 OA
ATOM     21  H   UNL     1     187.668 190.902 171.403  1.00  0.00     0.293 HD
ENDBRANCH   2  20
BRANCH   6  22
ATOM     22  O   UNL     1     189.117 196.294 172.355  1.00  0.00    -0.507 OA
ATOM     23  H   UNL     1     189.852 196.137 171.682  1.00  0.00     0.293 HD
ENDBRANCH   6  22
BRANCH   8  24
ATOM     24  O   UNL     1     188.998 196.819 177.125  1.00  0.00    -0.508 OA
ATOM     25  H   UNL     1     189.703 196.694 177.842  1.00  0.00     0.293 HD
ENDBRANCH   8  24
TORSDOF 5
ENDMDL
MODEL 2
REMARK VINA RESULT:     1.666      1.262      3.070
REMARK INTER + INTRA:           1.757
REMARK INTER:                   2.054
REMARK INTRA:                  -0.298
REMARK UNBOUND:                -0.202
REMARK SMILES O=c1c(O)c(-c2ccc(O)cc2)oc2cc(O)cc(O)c12
REMARK SMILES IDX 5 1 3 2 2 3 1 4 21 5 19 6 18 7 16 8 15 9 14 10 13 11 6 12
REMARK SMILES IDX 7 13 8 14 9 15 12 16 11 17 10 18 4 20 20 22 17 24
REMARK H PARENT 10 19 4 21 20 23 17 25
REMARK Flexibility Score: inf
ROOT
ATOM      1  C   UNL     1     188.172 191.879 174.698  1.00  0.00     0.180 A 
ATOM      2  C   UNL     1     188.194 192.608 175.900  1.00  0.00     0.208 A 
ATOM      3  C   UNL     1     188.412 193.994 175.851  1.00  0.00     0.238 A 
ATOM      4  O   UNL     1     188.357 194.651 176.923  1.00  0.00    -0.285 OA
ATOM      5  C   UNL     1     188.660 194.626 174.608  1.00  0.00     0.111 A 
ATOM      6  C   UNL     1     188.938 196.018 174.445  1.00  0.00     0.134 A 
ATOM      7  C   UNL     1     189.062 196.551 173.156  1.00  0.00     0.093 A 
ATOM      8  C   UNL     1     188.982 195.732 172.027  1.00  0.00     0.123 A 
ATOM      9  C   UNL     1     188.767 194.365 172.178  1.00  0.00     0.094 A 
ATOM     10  C   UNL     1     188.601 193.809 173.449  1.00  0.00     0.146 A 
ATOM     11  O   UNL     1     188.376 192.504 173.545  1.00  0.00    -0.452 OA
ENDROOT
BRANCH   1  12
ATOM     12  C   UNL     1     187.935 190.418 174.666  1.00  0.00     0.021 A 
ATOM     13  C   UNL     1     189.030 189.541 174.621  1.00  0.00     0.016 A 
ATOM     14  C   UNL     1     188.830 188.158 174.568  1.00  0.00     0.047 A 
ATOM     15  C   UNL     1     187.532 187.636 174.543  1.00  0.00     0.115 A 
ATOM     16  C   UNL     1     186.632 189.887 174.620  1.00  0.00     0.016 A 
ATOM     17  C   UNL     1     186.434 188.505 174.566  1.00  0.00     0.047 A 
BRANCH  15  18
ATOM     18  O   UNL     1     187.348 186.256 174.490  1.00  0.00    -0.508 OA
ATOM     19  H   UNL     1     186.633 185.797 175.043  1.00  0.00     0.293 HD
ENDBRANCH  15  18
ENDBRANCH   1  12
BRANCH   2  20
ATOM     20  O   UNL     1     188.024 191.954 177.123  1.00  0.00    -0.502 OA
ATOM     21  H   UNL     1     187.622 191.028 177.193  1.00  0.00     0.293 HD
ENDBRANCH   2  20
BRANCH   6  22
ATOM     22  O   UNL     1     189.125 196.908 175.507  1.00  0.00    -0.507 OA
ATOM     23  H   UNL     1     189.993 197.044 176.001  1.00  0.00     0.293 HD
ENDBRANCH   6  22
BRANCH   8  24
ATOM     24  O   UNL     1     189.124 196.269 170.749  1.00  0.00    -0.508 OA
ATOM     25  H   UNL     1     189.083 195.686 169.921  1.00  0.00     0.293 HD
ENDBRANCH   8  24
TORSDOF 5
ENDMDL
MODEL 3
REMARK VINA RESULT:     2.149      2.675      7.043
REMARK INTER + INTRA:           2.324
REMARK INTER:                   1.751
REMARK INTRA:                   0.573
REMARK UNBOUND:                -0.202
REMARK SMILES O=c1c(O)c(-c2ccc(O)cc2)oc2cc(O)cc(O)c12
REMARK SMILES IDX 5 1 3 2 2 3 1 4 21 5 19 6 18 7 16 8 15 9 14 10 13 11 6 12
REMARK SMILES IDX 7 13 8 14 9 15 12 16 11 17 10 18 4 20 20 22 17 24
REMARK H PARENT 10 19 4 21 20 23 17 25
REMARK Flexibility Score: inf
ROOT
ATOM      1  C   UNL     1     188.998 194.129 172.008  1.00  0.00     0.180 A 
ATOM      2  C   UNL     1     189.045 194.771 173.257  1.00  0.00     0.208 A 
ATOM      3  C   UNL     1     189.008 193.991 174.424  1.00  0.00     0.238 A 
ATOM      4  O   UNL     1     189.125 194.566 175.538  1.00  0.00    -0.285 OA
ATOM      5  C   UNL     1     188.867 192.585 174.329  1.00  0.00     0.111 A 
ATOM      6  C   UNL     1     188.772 191.700 175.447  1.00  0.00     0.134 A 
ATOM      7  C   UNL     1     188.742 190.316 175.232  1.00  0.00     0.093 A 
ATOM      8  C   UNL     1     188.738 189.788 173.939  1.00  0.00     0.123 A 
ATOM      9  C   UNL     1     188.775 190.645 172.842  1.00  0.00     0.094 A 
ATOM     10  C   UNL     1     188.844 192.028 173.024  1.00  0.00     0.146 A 
ATOM     11  O   UNL     1     188.899 192.806 171.949  1.00  0.00    -0.452 OA
ENDROOT
BRANCH   1  12
ATOM     12  C   UNL     1     189.048 194.881 170.732  1.00  0.00     0.021 A 
ATOM     13  C   UNL     1     189.100 196.284 170.759  1.00  0.00     0.016 A 
ATOM     14  C   UNL     1     189.125 197.014 169.567  1.00  0.00     0.047 A 
ATOM     15  C   UNL     1     189.082 196.353 168.335  1.00  0.00     0.115 A 
ATOM     16  C   UNL     1     188.984 194.222 169.491  1.00  0.00     0.016 A 
ATOM     17  C   UNL     1     189.008 194.955 168.301  1.00  0.00     0.047 A 
BRANCH  15  18
ATOM     18  O   UNL     1     189.107 197.094 167.156  1.00  0.00    -0.508 OA
ATOM     19  H   UNL     1     188.714 198.027 167.110  1.00  0.00     0.293 HD
ENDBRANCH  15  18
ENDBRANCH   1  12
BRANCH   2  20
ATOM     20  O   UNL     1     189.107 196.165 173.331  1.00  0.00    -0.502 OA
ATOM     21  H   UNL     1     188.374 196.720 173.756  1.00  0.00     0.293 HD
ENDBRANCH   2  20
BRANCH   6  22
ATOM     22  O   UNL     1     188.680 192.125 176.776  1.00  0.00    -0.507 OA
ATOM     23  H   UNL     1     189.429 192.551 177.300  1.00  0.00     0.293 HD
ENDBRANCH   6  22
BRANCH   8  24
ATOM     24  O   UNL     1     188.691 188.411 173.735  1.00  0.00    -0.508 OA
ATOM     25  H   UNL     1     188.031 187.823 174.230  1.00  0.00     0.293 HD
ENDBRANCH   8  24
TORSDOF 5
ENDMDL
MODEL 4
REMARK VINA RESULT:     3.252      8.256     10.279
REMARK INTER + INTRA:           3.620
REMARK INTER:                   3.066
REMARK INTRA:                   0.554
REMARK UNBOUND:                -0.202
REMARK SMILES O=c1c(O)c(-c2ccc(O)cc2)oc2cc(O)cc(O)c12
REMARK SMILES IDX 5 1 3 2 2 3 1 4 21 5 19 6 18 7 16 8 15 9 14 10 13 11 6 12
REMARK SMILES IDX 7 13 8 14 9 15 12 16 11 17 10 18 4 20 20 22 17 24
REMARK H PARENT 10 19 4 21 20 23 17 25
REMARK Flexibility Score: inf
ROOT
ATOM      1  C   UNL     1     188.760 184.136 167.857  1.00  0.00     0.180 A 
ATOM      2  C   UNL     1     188.916 183.910 166.479  1.00  0.00     0.208 A 
ATOM      3  C   UNL     1     188.910 185.007 165.604  1.00  0.00     0.238 A 
ATOM      4  O   UNL     1     189.125 184.804 164.380  1.00  0.00    -0.285 OA
ATOM      5  C   UNL     1     188.692 186.312 166.110  1.00  0.00     0.111 A 
ATOM      6  C   UNL     1     188.621 187.494 165.309  1.00  0.00     0.134 A 
ATOM      7  C   UNL     1     188.508 188.743 165.931  1.00  0.00     0.093 A 
ATOM      8  C   UNL     1     188.398 188.850 167.319  1.00  0.00     0.123 A 
ATOM      9  C   UNL     1     188.410 187.701 168.104  1.00  0.00     0.094 A 
ATOM     10  C   UNL     1     188.561 186.442 167.517  1.00  0.00     0.146 A 
ATOM     11  O   UNL     1     188.589 185.374 168.306  1.00  0.00    -0.452 OA
ENDROOT
BRANCH   1  12
ATOM     12  C   UNL     1     188.769 183.032 168.844  1.00  0.00     0.021 A 
ATOM     13  C   UNL     1     189.125 181.739 168.430  1.00  0.00     0.016 A 
ATOM     14  C   UNL     1     189.119 180.677 169.341  1.00  0.00     0.047 A 
ATOM     15  C   UNL     1     188.743 180.893 170.671  1.00  0.00     0.115 A 
ATOM     16  C   UNL     1     188.372 183.239 170.178  1.00  0.00     0.016 A 
ATOM     17  C   UNL     1     188.367 182.176 171.086  1.00  0.00     0.047 A 
BRANCH  15  18
ATOM     18  O   UNL     1     188.742 179.825 171.566  1.00  0.00    -0.508 OA
ATOM     19  H   UNL     1     188.403 178.909 171.296  1.00  0.00     0.293 HD
ENDBRANCH  15  18
ENDBRANCH   1  12
BRANCH   2  20
ATOM     20  O   UNL     1     189.053 182.607 165.990  1.00  0.00    -0.502 OA
ATOM     21  H   UNL     1     188.664 181.804 166.468  1.00  0.00     0.293 HD
ENDBRANCH   2  20
BRANCH   6  22
ATOM     22  O   UNL     1     188.633 187.493 163.911  1.00  0.00    -0.507 OA
ATOM     23  H   UNL     1     188.003 186.963 163.328  1.00  0.00     0.293 HD
ENDBRANCH   6  22
BRANCH   8  24
ATOM     24  O   UNL     1     188.268 190.097 167.927  1.00  0.00    -0.508 OA
ATOM     25  H   UNL     1     188.954 190.830 167.787  1.00  0.00     0.293 HD
ENDBRANCH   8  24
TORSDOF 5
ENDMDL
