MODEL 1
REMARK VINA RESULT:    -4.208      0.000      0.000
REMARK INTER + INTRA:          -7.497
REMARK INTER:                  -7.160
REMARK INTRA:                  -0.337
REMARK UNBOUND:                -0.337
REMARK SMILES CCCCCCCCCCCCCC(=O)[O-]
REMARK SMILES IDX 8 1 9 2 10 3 11 4 12 5 13 6 14 7 15 8 16 9 7 10 6 11 5 12
REMARK SMILES IDX 4 13 3 14 2 15 1 16
REMARK H PARENT
REMARK Flexibility Score: inf
ROOT
ATOM      1  C   UNL     1     -22.724  25.663  10.112  1.00  0.00     0.000 C 
ENDROOT
BRANCH   1   2
ATOM      2  C   UNL     1     -22.757  25.870   8.587  1.00  0.00     0.000 C 
BRANCH   2   3
ATOM      3  C   UNL     1     -24.125  26.367   8.089  1.00  0.00     0.000 C 
BRANCH   3   4
ATOM      4  C   UNL     1     -24.030  27.714   7.351  1.00  0.00     0.000 C 
BRANCH   4   5
ATOM      5  C   UNL     1     -23.693  28.880   8.295  1.00  0.00     0.006 C 
BRANCH   5   6
ATOM      6  C   UNL     1     -23.927  30.252   7.650  1.00  0.00     0.053 C 
BRANCH   6   7
ATOM      7  C   UNL     1     -22.876  31.221   8.090  1.00  0.00     0.041 C 
ATOM      8  O   UNL     1     -22.933  31.740   9.236  1.00  0.00    -0.550 OA
ATOM      9  O   UNL     1     -21.807  31.516   7.254  1.00  0.00    -0.550 OA
ENDBRANCH   6   7
ENDBRANCH   5   6
ENDBRANCH   4   5
ENDBRANCH   3   4
ENDBRANCH   2   3
ENDBRANCH   1   2
BRANCH   1  10
ATOM     10  C   UNL     1     -21.955  24.395  10.521  1.00  0.00     0.000 C 
BRANCH  10  11
ATOM     11  C   UNL     1     -22.183  24.012  11.993  1.00  0.00    -0.000 C 
BRANCH  11  12
ATOM     12  C   UNL     1     -21.132  23.015  12.511  1.00  0.00    -0.000 C 
BRANCH  12  13
ATOM     13  C   UNL     1     -20.064  23.691  13.390  1.00  0.00    -0.000 C 
BRANCH  13  14
ATOM     14  C   UNL     1     -19.890  23.001  14.755  1.00  0.00    -0.000 C 
BRANCH  14  15
ATOM     15  C   UNL     1     -19.293  23.890  15.861  1.00  0.00    -0.003 C 
ATOM     16  C   UNL     1     -19.280  23.212  17.232  1.00  0.00     0.004 C 
ENDBRANCH  14  15
ENDBRANCH  13  14
ENDBRANCH  12  13
ENDBRANCH  11  12
ENDBRANCH  10  11
ENDBRANCH   1  10
TORSDOF 12
ENDMDL
MODEL 2
REMARK VINA RESULT:    -4.119     10.357     13.776
REMARK INTER + INTRA:          -7.345
REMARK INTER:                  -6.171
REMARK INTRA:                  -1.174
REMARK UNBOUND:                -0.337
REMARK SMILES CCCCCCCCCCCCCC(=O)[O-]
REMARK SMILES IDX 8 1 9 2 10 3 11 4 12 5 13 6 14 7 15 8 16 9 7 10 6 11 5 12
REMARK SMILES IDX 4 13 3 14 2 15 1 16
REMARK H PARENT
REMARK Flexibility Score: inf
ROOT
ATOM      1  C   UNL     1     -18.824  30.452  23.814  1.00  0.00     0.000 C 
ENDROOT
BRANCH   1   2
ATOM      2  C   UNL     1     -17.591  29.624  23.408  1.00  0.00     0.000 C 
BRANCH   2   3
ATOM      3  C   UNL     1     -17.786  28.896  22.067  1.00  0.00     0.000 C 
BRANCH   3   4
ATOM      4  C   UNL     1     -19.263  28.830  21.640  1.00  0.00     0.000 C 
BRANCH   4   5
ATOM      5  C   UNL     1     -19.530  29.576  20.322  1.00  0.00     0.006 C 
BRANCH   5   6
ATOM      6  C   UNL     1     -20.519  28.836  19.412  1.00  0.00     0.053 C 
BRANCH   6   7
ATOM      7  C   UNL     1     -21.864  28.756  20.060  1.00  0.00     0.041 C 
ATOM      8  O   UNL     1     -22.585  29.785  20.153  1.00  0.00    -0.550 OA
ATOM      9  O   UNL     1     -22.344  27.536  20.517  1.00  0.00    -0.550 OA
ENDBRANCH   6   7
ENDBRANCH   5   6
ENDBRANCH   4   5
ENDBRANCH   3   4
ENDBRANCH   2   3
ENDBRANCH   1   2
BRANCH   1  10
ATOM     10  C   UNL     1     -18.510  31.952  23.952  1.00  0.00     0.000 C 
BRANCH  10  11
ATOM     11  C   UNL     1     -19.590  32.844  23.317  1.00  0.00    -0.000 C 
BRANCH  11  12
ATOM     12  C   UNL     1     -20.730  32.029  22.684  1.00  0.00    -0.000 C 
BRANCH  12  13
ATOM     13  C   UNL     1     -21.754  32.917  21.954  1.00  0.00    -0.000 C 
BRANCH  13  14
ATOM     14  C   UNL     1     -21.314  34.390  21.872  1.00  0.00    -0.000 C 
BRANCH  14  15
ATOM     15  C   UNL     1     -21.690  35.108  20.563  1.00  0.00    -0.003 C 
ATOM     16  C   UNL     1     -23.089  34.744  20.062  1.00  0.00     0.004 C 
ENDBRANCH  14  15
ENDBRANCH  13  14
ENDBRANCH  12  13
ENDBRANCH  11  12
ENDBRANCH  10  11
ENDBRANCH   1  10
TORSDOF 12
ENDMDL
MODEL 3
REMARK VINA RESULT:    -4.104     10.270     13.057
REMARK INTER + INTRA:          -7.320
REMARK INTER:                  -6.048
REMARK INTRA:                  -1.272
REMARK UNBOUND:                -0.337
REMARK SMILES CCCCCCCCCCCCCC(=O)[O-]
REMARK SMILES IDX 8 1 9 2 10 3 11 4 12 5 13 6 14 7 15 8 16 9 7 10 6 11 5 12
REMARK SMILES IDX 4 13 3 14 2 15 1 16
REMARK H PARENT
REMARK Flexibility Score: inf
ROOT
ATOM      1  C   UNL     1     -19.197  30.463  23.524  1.00  0.00     0.000 C 
ENDROOT
BRANCH   1   2
ATOM      2  C   UNL     1     -18.743  31.922  23.713  1.00  0.00     0.000 C 
BRANCH   2   3
ATOM      3  C   UNL     1     -19.844  32.934  23.352  1.00  0.00     0.000 C 
BRANCH   3   4
ATOM      4  C   UNL     1     -21.148  32.252  22.904  1.00  0.00     0.000 C 
BRANCH   4   5
ATOM      5  C   UNL     1     -22.015  33.161  22.017  1.00  0.00     0.006 C 
BRANCH   5   6
ATOM      6  C   UNL     1     -21.492  34.601  21.954  1.00  0.00     0.053 C 
BRANCH   6   7
ATOM      7  C   UNL     1     -22.202  35.367  20.883  1.00  0.00     0.041 C 
ATOM      8  O   UNL     1     -22.626  34.775  19.856  1.00  0.00    -0.550 OA
ATOM      9  O   UNL     1     -22.439  36.726  21.040  1.00  0.00    -0.550 OA
ENDBRANCH   6   7
ENDBRANCH   5   6
ENDBRANCH   4   5
ENDBRANCH   3   4
ENDBRANCH   2   3
ENDBRANCH   1   2
BRANCH   1  10
ATOM     10  C   UNL     1     -18.118  29.588  22.866  1.00  0.00     0.000 C 
BRANCH  10  11
ATOM     11  C   UNL     1     -18.634  28.843  21.623  1.00  0.00    -0.000 C 
BRANCH  11  12
ATOM     12  C   UNL     1     -19.662  29.667  20.829  1.00  0.00    -0.000 C 
BRANCH  12  13
ATOM     13  C   UNL     1     -20.133  28.947  19.553  1.00  0.00    -0.000 C 
BRANCH  13  14
ATOM     14  C   UNL     1     -21.667  28.870  19.440  1.00  0.00    -0.000 C 
BRANCH  14  15
ATOM     15  C   UNL     1     -22.436  29.533  20.597  1.00  0.00    -0.003 C 
ATOM     16  C   UNL     1     -23.643  30.345  20.126  1.00  0.00     0.004 C 
ENDBRANCH  14  15
ENDBRANCH  13  14
ENDBRANCH  12  13
ENDBRANCH  11  12
ENDBRANCH  10  11
ENDBRANCH   1  10
TORSDOF 12
ENDMDL
MODEL 4
REMARK VINA RESULT:    -3.997      1.172      2.016
REMARK INTER + INTRA:          -7.139
REMARK INTER:                  -6.719
REMARK INTRA:                  -0.420
REMARK UNBOUND:                -0.337
REMARK SMILES CCCCCCCCCCCCCC(=O)[O-]
REMARK SMILES IDX 8 1 9 2 10 3 11 4 12 5 13 6 14 7 15 8 16 9 7 10 6 11 5 12
REMARK SMILES IDX 4 13 3 14 2 15 1 16
REMARK H PARENT
REMARK Flexibility Score: inf
ROOT
ATOM      1  C   UNL     1     -23.601  26.162   9.138  1.00  0.00     0.000 C 
ENDROOT
BRANCH   1   2
ATOM      2  C   UNL     1     -23.593  26.598   7.661  1.00  0.00     0.000 C 
BRANCH   2   3
ATOM      3  C   UNL     1     -24.125  28.028   7.466  1.00  0.00     0.000 C 
BRANCH   3   4
ATOM      4  C   UNL     1     -23.400  29.054   8.356  1.00  0.00     0.000 C 
BRANCH   4   5
ATOM      5  C   UNL     1     -23.725  30.505   7.967  1.00  0.00     0.006 C 
BRANCH   5   6
ATOM      6  C   UNL     1     -22.829  31.526   8.681  1.00  0.00     0.053 C 
BRANCH   6   7
ATOM      7  C   UNL     1     -21.518  31.655   7.973  1.00  0.00     0.041 C 
ATOM      8  O   UNL     1     -21.486  31.843   6.728  1.00  0.00    -0.550 OA
ATOM      9  O   UNL     1     -20.332  31.617   8.693  1.00  0.00    -0.550 OA
ENDBRANCH   6   7
ENDBRANCH   5   6
ENDBRANCH   4   5
ENDBRANCH   3   4
ENDBRANCH   2   3
ENDBRANCH   1   2
BRANCH   1  10
ATOM     10  C   UNL     1     -23.618  24.634   9.304  1.00  0.00     0.000 C 
BRANCH  10  11
ATOM     11  C   UNL     1     -23.793  24.198  10.769  1.00  0.00    -0.000 C 
BRANCH  11  12
ATOM     12  C   UNL     1     -22.499  24.351  11.586  1.00  0.00    -0.000 C 
BRANCH  12  13
ATOM     13  C   UNL     1     -21.877  22.994  11.961  1.00  0.00    -0.000 C 
BRANCH  13  14
ATOM     14  C   UNL     1     -20.615  23.136  12.833  1.00  0.00    -0.000 C 
BRANCH  14  15
ATOM     15  C   UNL     1     -20.872  23.611  14.274  1.00  0.00    -0.003 C 
ATOM     16  C   UNL     1     -19.585  23.847  15.065  1.00  0.00     0.004 C 
ENDBRANCH  14  15
ENDBRANCH  13  14
ENDBRANCH  12  13
ENDBRANCH  11  12
ENDBRANCH  10  11
ENDBRANCH   1  10
TORSDOF 12
ENDMDL
MODEL 5
REMARK VINA RESULT:    -3.997     10.489     13.933
REMARK INTER + INTRA:          -7.137
REMARK INTER:                  -5.794
REMARK INTRA:                  -1.343
REMARK UNBOUND:                -0.337
REMARK SMILES CCCCCCCCCCCCCC(=O)[O-]
REMARK SMILES IDX 8 1 9 2 10 3 11 4 12 5 13 6 14 7 15 8 16 9 7 10 6 11 5 12
REMARK SMILES IDX 4 13 3 14 2 15 1 16
REMARK H PARENT
REMARK Flexibility Score: inf
ROOT
ATOM      1  C   UNL     1     -18.942  31.880  23.734  1.00  0.00     0.000 C 
ENDROOT
BRANCH   1   2
ATOM      2  C   UNL     1     -19.330  30.415  23.462  1.00  0.00     0.000 C 
BRANCH   2   3
ATOM      3  C   UNL     1     -18.156  29.587  22.910  1.00  0.00     0.000 C 
BRANCH   3   4
ATOM      4  C   UNL     1     -18.508  28.867  21.596  1.00  0.00     0.000 C 
BRANCH   4   5
ATOM      5  C   UNL     1     -19.510  29.659  20.740  1.00  0.00     0.006 C 
BRANCH   5   6
ATOM      6  C   UNL     1     -20.214  28.787  19.692  1.00  0.00     0.053 C 
BRANCH   6   7
ATOM      7  C   UNL     1     -21.662  28.628  20.033  1.00  0.00     0.041 C 
ATOM      8  O   UNL     1     -22.483  28.259  19.152  1.00  0.00    -0.550 OA
ATOM      9  O   UNL     1     -22.098  28.840  21.334  1.00  0.00    -0.550 OA
ENDBRANCH   6   7
ENDBRANCH   5   6
ENDBRANCH   4   5
ENDBRANCH   3   4
ENDBRANCH   2   3
ENDBRANCH   1   2
BRANCH   1  10
ATOM     10  C   UNL     1     -19.909  32.880  23.078  1.00  0.00     0.000 C 
BRANCH  10  11
ATOM     11  C   UNL     1     -21.336  32.322  22.942  1.00  0.00    -0.000 C 
BRANCH  11  12
ATOM     12  C   UNL     1     -21.853  32.376  21.494  1.00  0.00    -0.000 C 
BRANCH  12  13
ATOM     13  C   UNL     1     -22.860  33.518  21.272  1.00  0.00    -0.000 C 
BRANCH  13  14
ATOM     14  C   UNL     1     -22.307  34.634  20.366  1.00  0.00    -0.000 C 
BRANCH  14  15
ATOM     15  C   UNL     1     -22.236  36.025  21.021  1.00  0.00    -0.003 C 
ATOM     16  C   UNL     1     -22.029  35.965  22.535  1.00  0.00     0.004 C 
ENDBRANCH  14  15
ENDBRANCH  13  14
ENDBRANCH  12  13
ENDBRANCH  11  12
ENDBRANCH  10  11
ENDBRANCH   1  10
TORSDOF 12
ENDMDL
MODEL 6
REMARK VINA RESULT:    -3.974     10.522     12.625
REMARK INTER + INTRA:          -7.099
REMARK INTER:                  -5.477
REMARK INTRA:                  -1.622
REMARK UNBOUND:                -0.337
REMARK SMILES CCCCCCCCCCCCCC(=O)[O-]
REMARK SMILES IDX 8 1 9 2 10 3 11 4 12 5 13 6 14 7 15 8 16 9 7 10 6 11 5 12
REMARK SMILES IDX 4 13 3 14 2 15 1 16
REMARK H PARENT
REMARK Flexibility Score: inf
ROOT
ATOM      1  C   UNL     1     -21.254  30.710  23.109  1.00  0.00     0.000 C 
ENDROOT
BRANCH   1   2
ATOM      2  C   UNL     1     -22.192  31.894  22.808  1.00  0.00     0.000 C 
BRANCH   2   3
ATOM      3  C   UNL     1     -21.931  32.515  21.425  1.00  0.00     0.000 C 
BRANCH   3   4
ATOM      4  C   UNL     1     -23.223  33.004  20.746  1.00  0.00     0.000 C 
BRANCH   4   5
ATOM      5  C   UNL     1     -23.095  34.435  20.198  1.00  0.00     0.006 C 
BRANCH   5   6
ATOM      6  C   UNL     1     -21.825  35.145  20.684  1.00  0.00     0.053 C 
BRANCH   6   7
ATOM      7  C   UNL     1     -22.160  36.148  21.741  1.00  0.00     0.041 C 
ATOM      8  O   UNL     1     -22.698  37.244  21.428  1.00  0.00    -0.550 OA
ATOM      9  O   UNL     1     -21.924  35.856  23.078  1.00  0.00    -0.550 OA
ENDBRANCH   6   7
ENDBRANCH   5   6
ENDBRANCH   4   5
ENDBRANCH   3   4
ENDBRANCH   2   3
ENDBRANCH   1   2
BRANCH   1  10
ATOM     10  C   UNL     1     -19.913  30.813  22.363  1.00  0.00     0.000 C 
BRANCH  10  11
ATOM     11  C   UNL     1     -19.601  29.559  21.528  1.00  0.00    -0.000 C 
BRANCH  11  12
ATOM     12  C   UNL     1     -19.921  29.750  20.036  1.00  0.00    -0.000 C 
BRANCH  12  13
ATOM     13  C   UNL     1     -20.380  28.446  19.362  1.00  0.00    -0.000 C 
BRANCH  13  14
ATOM     14  C   UNL     1     -21.863  28.124  19.628  1.00  0.00    -0.000 C 
BRANCH  14  15
ATOM     15  C   UNL     1     -22.803  29.343  19.616  1.00  0.00    -0.003 C 
ATOM     16  C   UNL     1     -23.861  29.293  20.720  1.00  0.00     0.004 C 
ENDBRANCH  14  15
ENDBRANCH  13  14
ENDBRANCH  12  13
ENDBRANCH  11  12
ENDBRANCH  10  11
ENDBRANCH   1  10
TORSDOF 12
ENDMDL
MODEL 7
REMARK VINA RESULT:    -3.900      4.816      8.298
REMARK INTER + INTRA:          -6.973
REMARK INTER:                  -6.279
REMARK INTRA:                  -0.694
REMARK UNBOUND:                -0.337
REMARK SMILES CCCCCCCCCCCCCC(=O)[O-]
REMARK SMILES IDX 8 1 9 2 10 3 11 4 12 5 13 6 14 7 15 8 16 9 7 10 6 11 5 12
REMARK SMILES IDX 4 13 3 14 2 15 1 16
REMARK H PARENT
REMARK Flexibility Score: inf
ROOT
ATOM      1  C   UNL     1     -19.986  23.866  18.317  1.00  0.00     0.000 C 
ENDROOT
BRANCH   1   2
ATOM      2  C   UNL     1     -19.245  23.674  16.981  1.00  0.00     0.000 C 
BRANCH   2   3
ATOM      3  C   UNL     1     -20.203  23.598  15.780  1.00  0.00     0.000 C 
BRANCH   3   4
ATOM      4  C   UNL     1     -19.640  24.296  14.530  1.00  0.00     0.000 C 
BRANCH   4   5
ATOM      5  C   UNL     1     -20.213  23.720  13.225  1.00  0.00     0.006 C 
BRANCH   5   6
ATOM      6  C   UNL     1     -21.736  23.545  13.272  1.00  0.00     0.053 C 
BRANCH   6   7
ATOM      7  C   UNL     1     -22.379  24.257  12.124  1.00  0.00     0.041 C 
ATOM      8  O   UNL     1     -23.555  24.697  12.229  1.00  0.00    -0.550 OA
ATOM      9  O   UNL     1     -21.664  24.480  10.955  1.00  0.00    -0.550 OA
ENDBRANCH   6   7
ENDBRANCH   5   6
ENDBRANCH   4   5
ENDBRANCH   3   4
ENDBRANCH   2   3
ENDBRANCH   1   2
BRANCH   1  10
ATOM     10  C   UNL     1     -19.044  24.264  19.465  1.00  0.00     0.000 C 
BRANCH  10  11
ATOM     11  C   UNL     1     -19.578  25.450  20.286  1.00  0.00    -0.000 C 
BRANCH  11  12
ATOM     12  C   UNL     1     -21.010  25.845  19.886  1.00  0.00    -0.000 C 
BRANCH  12  13
ATOM     13  C   UNL     1     -21.288  27.343  20.101  1.00  0.00    -0.000 C 
BRANCH  13  14
ATOM     14  C   UNL     1     -20.309  28.249  19.331  1.00  0.00    -0.000 C 
BRANCH  14  15
ATOM     15  C   UNL     1     -19.831  29.492  20.103  1.00  0.00    -0.003 C 
ATOM     16  C   UNL     1     -19.160  29.149  21.434  1.00  0.00     0.004 C 
ENDBRANCH  14  15
ENDBRANCH  13  14
ENDBRANCH  12  13
ENDBRANCH  11  12
ENDBRANCH  10  11
ENDBRANCH   1  10
TORSDOF 12
ENDMDL
MODEL 8
REMARK VINA RESULT:    -3.875     10.619     13.121
REMARK INTER + INTRA:          -6.931
REMARK INTER:                  -5.725
REMARK INTRA:                  -1.206
REMARK UNBOUND:                -0.337
REMARK SMILES CCCCCCCCCCCCCC(=O)[O-]
REMARK SMILES IDX 8 1 9 2 10 3 11 4 12 5 13 6 14 7 15 8 16 9 7 10 6 11 5 12
REMARK SMILES IDX 4 13 3 14 2 15 1 16
REMARK H PARENT
REMARK Flexibility Score: inf
ROOT
ATOM      1  C   UNL     1     -19.987  32.654  23.198  1.00  0.00     0.000 C 
ENDROOT
BRANCH   1   2
ATOM      2  C   UNL     1     -21.444  32.216  22.963  1.00  0.00     0.000 C 
BRANCH   2   3
ATOM      3  C   UNL     1     -21.856  32.307  21.483  1.00  0.00     0.000 C 
BRANCH   3   4
ATOM      4  C   UNL     1     -23.225  32.983  21.292  1.00  0.00     0.000 C 
BRANCH   4   5
ATOM      5  C   UNL     1     -23.160  34.187  20.338  1.00  0.00     0.006 C 
BRANCH   5   6
ATOM      6  C   UNL     1     -21.909  35.049  20.554  1.00  0.00     0.053 C 
BRANCH   6   7
ATOM      7  C   UNL     1     -22.152  36.060  21.629  1.00  0.00     0.041 C 
ATOM      8  O   UNL     1     -21.870  35.791  22.827  1.00  0.00    -0.550 OA
ATOM      9  O   UNL     1     -22.644  37.317  21.305  1.00  0.00    -0.550 OA
ENDBRANCH   6   7
ENDBRANCH   5   6
ENDBRANCH   4   5
ENDBRANCH   3   4
ENDBRANCH   2   3
ENDBRANCH   1   2
BRANCH   1  10
ATOM     10  C   UNL     1     -19.210  31.670  24.088  1.00  0.00     0.000 C 
BRANCH  10  11
ATOM     11  C   UNL     1     -18.422  30.630  23.274  1.00  0.00    -0.000 C 
BRANCH  11  12
ATOM     12  C   UNL     1     -19.243  29.361  22.988  1.00  0.00    -0.000 C 
BRANCH  12  13
ATOM     13  C   UNL     1     -19.016  28.822  21.565  1.00  0.00    -0.000 C 
BRANCH  13  14
ATOM     14  C   UNL     1     -19.667  29.701  20.482  1.00  0.00    -0.000 C 
BRANCH  14  15
ATOM     15  C   UNL     1     -20.329  28.927  19.328  1.00  0.00    -0.003 C 
ATOM     16  C   UNL     1     -21.390  27.934  19.805  1.00  0.00     0.004 C 
ENDBRANCH  14  15
ENDBRANCH  13  14
ENDBRANCH  12  13
ENDBRANCH  11  12
ENDBRANCH  10  11
ENDBRANCH   1  10
TORSDOF 12
ENDMDL
MODEL 9
REMARK VINA RESULT:    -3.821     10.129     12.278
REMARK INTER + INTRA:          -6.839
REMARK INTER:                  -5.253
REMARK INTRA:                  -1.586
REMARK UNBOUND:                -0.337
REMARK SMILES CCCCCCCCCCCCCC(=O)[O-]
REMARK SMILES IDX 8 1 9 2 10 3 11 4 12 5 13 6 14 7 15 8 16 9 7 10 6 11 5 12
REMARK SMILES IDX 4 13 3 14 2 15 1 16
REMARK H PARENT
REMARK Flexibility Score: inf
ROOT
ATOM      1  C   UNL     1     -19.077  29.246  21.323  1.00  0.00     0.000 C 
ENDROOT
BRANCH   1   2
ATOM      2  C   UNL     1     -19.497  30.069  22.555  1.00  0.00     0.000 C 
BRANCH   2   3
ATOM      3  C   UNL     1     -20.554  31.136  22.218  1.00  0.00     0.000 C 
BRANCH   3   4
ATOM      4  C   UNL     1     -20.375  32.424  23.041  1.00  0.00     0.000 C 
BRANCH   4   5
ATOM      5  C   UNL     1     -21.605  33.343  22.970  1.00  0.00     0.006 C 
BRANCH   5   6
ATOM      6  C   UNL     1     -21.500  34.390  21.853  1.00  0.00     0.053 C 
BRANCH   6   7
ATOM      7  C   UNL     1     -22.526  34.131  20.797  1.00  0.00     0.041 C 
ATOM      8  O   UNL     1     -23.424  33.267  20.985  1.00  0.00    -0.550 OA
ATOM      9  O   UNL     1     -22.523  34.875  19.625  1.00  0.00    -0.550 OA
ENDBRANCH   6   7
ENDBRANCH   5   6
ENDBRANCH   4   5
ENDBRANCH   3   4
ENDBRANCH   2   3
ENDBRANCH   1   2
BRANCH   1  10
ATOM     10  C   UNL     1     -19.848  29.644  20.054  1.00  0.00     0.000 C 
BRANCH  10  11
ATOM     11  C   UNL     1     -20.369  28.427  19.271  1.00  0.00    -0.000 C 
BRANCH  11  12
ATOM     12  C   UNL     1     -20.895  27.315  20.193  1.00  0.00    -0.000 C 
BRANCH  12  13
ATOM     13  C   UNL     1     -22.420  27.384  20.388  1.00  0.00    -0.000 C 
BRANCH  13  14
ATOM     14  C   UNL     1     -22.829  28.239  21.603  1.00  0.00    -0.000 C 
BRANCH  14  15
ATOM     15  C   UNL     1     -23.855  29.345  21.302  1.00  0.00    -0.003 C 
ATOM     16  C   UNL     1     -23.651  29.995  19.932  1.00  0.00     0.004 C 
ENDBRANCH  14  15
ENDBRANCH  13  14
ENDBRANCH  12  13
ENDBRANCH  11  12
ENDBRANCH  10  11
ENDBRANCH   1  10
TORSDOF 12
ENDMDL
