MODEL 1
REMARK VINA RESULT:    -3.681      0.000      0.000
REMARK INTER + INTRA:          -9.641
REMARK INTER:                  -7.124
REMARK INTRA:                  -2.518
REMARK UNBOUND:                -2.518
REMARK SMILES CCCCCCCCCCCCCCCCCC(=O)[O-]
REMARK SMILES IDX 10 1 11 2 12 3 13 4 14 5 15 6 16 7 17 8 18 9 19 10 20 11
REMARK SMILES IDX 9 12 8 13 7 14 6 15 5 16 4 17 3 18 2 19 1 20
REMARK H PARENT
REMARK Flexibility Score: inf
ROOT
ATOM      1  C   UNL     1      52.495 -44.040 -26.459  1.00  0.00     0.000 C 
ENDROOT
BRANCH   1   2
ATOM      2  C   UNL     1      51.792 -42.813 -25.866  1.00  0.00     0.000 C 
BRANCH   2   3
ATOM      3  C   UNL     1      51.020 -43.185 -24.591  1.00  0.00     0.000 C 
BRANCH   3   4
ATOM      4  C   UNL     1      50.973 -42.037 -23.570  1.00  0.00     0.000 C 
BRANCH   4   5
ATOM      5  C   UNL     1      52.164 -41.076 -23.704  1.00  0.00     0.000 C 
BRANCH   5   6
ATOM      6  C   UNL     1      52.488 -40.414 -22.359  1.00  0.00     0.000 C 
BRANCH   6   7
ATOM      7  C   UNL     1      53.774 -39.579 -22.453  1.00  0.00     0.006 C 
BRANCH   7   8
ATOM      8  C   UNL     1      54.813 -40.216 -23.385  1.00  0.00     0.053 C 
BRANCH   8   9
ATOM      9  C   UNL     1      56.056 -39.385 -23.484  1.00  0.00     0.041 C 
ATOM     10  O   UNL     1      56.053 -38.192 -23.083  1.00  0.00    -0.550 OA
ATOM     11  O   UNL     1      57.225 -39.940 -23.987  1.00  0.00    -0.550 OA
ENDBRANCH   8   9
ENDBRANCH   7   8
ENDBRANCH   6   7
ENDBRANCH   5   6
ENDBRANCH   4   5
ENDBRANCH   3   4
ENDBRANCH   2   3
ENDBRANCH   1   2
BRANCH   1  12
ATOM     12  C   UNL     1      53.885 -43.674 -26.995  1.00  0.00     0.000 C 
BRANCH  12  13
ATOM     13  C   UNL     1      54.627 -42.755 -26.014  1.00  0.00    -0.000 C 
BRANCH  13  14
ATOM     14  C   UNL     1      55.469 -41.679 -26.723  1.00  0.00    -0.000 C 
BRANCH  14  15
ATOM     15  C   UNL     1      54.715 -40.375 -27.050  1.00  0.00    -0.000 C 
BRANCH  15  16
ATOM     16  C   UNL     1      54.045 -40.336 -28.439  1.00  0.00    -0.000 C 
BRANCH  16  17
ATOM     17  C   UNL     1      52.513 -40.192 -28.416  1.00  0.00    -0.000 C 
BRANCH  17  18
ATOM     18  C   UNL     1      51.841 -40.763 -29.673  1.00  0.00    -0.000 C 
BRANCH  18  19
ATOM     19  C   UNL     1      52.514 -42.071 -30.108  1.00  0.00    -0.003 C 
ATOM     20  C   UNL     1      51.517 -43.227 -30.113  1.00  0.00     0.004 C 
ENDBRANCH  18  19
ENDBRANCH  17  18
ENDBRANCH  16  17
ENDBRANCH  15  16
ENDBRANCH  14  15
ENDBRANCH  13  14
ENDBRANCH  12  13
ENDBRANCH   1  12
TORSDOF 16
ENDMDL
MODEL 2
REMARK VINA RESULT:    -3.657      2.140      3.634
REMARK INTER + INTRA:          -9.595
REMARK INTER:                  -6.394
REMARK INTRA:                  -3.201
REMARK UNBOUND:                -2.518
REMARK SMILES CCCCCCCCCCCCCCCCCC(=O)[O-]
REMARK SMILES IDX 10 1 11 2 12 3 13 4 14 5 15 6 16 7 17 8 18 9 19 10 20 11
REMARK SMILES IDX 9 12 8 13 7 14 6 15 5 16 4 17 3 18 2 19 1 20
REMARK H PARENT
REMARK Flexibility Score: inf
ROOT
ATOM      1  C   UNL     1      53.556 -41.004 -25.872  1.00  0.00     0.000 C 
ENDROOT
BRANCH   1   2
ATOM      2  C   UNL     1      53.271 -40.324 -27.217  1.00  0.00     0.000 C 
BRANCH   2   3
ATOM      3  C   UNL     1      53.849 -38.902 -27.247  1.00  0.00     0.000 C 
BRANCH   3   4
ATOM      4  C   UNL     1      55.328 -38.871 -27.663  1.00  0.00     0.000 C 
BRANCH   4   5
ATOM      5  C   UNL     1      56.218 -38.158 -26.633  1.00  0.00     0.000 C 
BRANCH   5   6
ATOM      6  C   UNL     1      57.213 -39.137 -25.997  1.00  0.00     0.000 C 
BRANCH   6   7
ATOM      7  C   UNL     1      57.342 -38.886 -24.487  1.00  0.00     0.006 C 
BRANCH   7   8
ATOM      8  C   UNL     1      56.305 -39.675 -23.677  1.00  0.00     0.053 C 
BRANCH   8   9
ATOM      9  C   UNL     1      55.315 -38.770 -23.009  1.00  0.00     0.041 C 
ATOM     10  O   UNL     1      54.316 -38.346 -23.646  1.00  0.00    -0.550 OA
ATOM     11  O   UNL     1      55.479 -38.423 -21.674  1.00  0.00    -0.550 OA
ENDBRANCH   8   9
ENDBRANCH   7   8
ENDBRANCH   6   7
ENDBRANCH   5   6
ENDBRANCH   4   5
ENDBRANCH   3   4
ENDBRANCH   2   3
ENDBRANCH   1   2
BRANCH   1  12
ATOM     12  C   UNL     1      54.105 -42.420 -26.075  1.00  0.00     0.000 C 
BRANCH  12  13
ATOM     13  C   UNL     1      55.638 -42.431 -26.002  1.00  0.00    -0.000 C 
BRANCH  13  14
ATOM     14  C   UNL     1      56.293 -43.080 -27.234  1.00  0.00    -0.000 C 
BRANCH  14  15
ATOM     15  C   UNL     1      56.912 -42.088 -28.240  1.00  0.00    -0.000 C 
BRANCH  15  16
ATOM     16  C   UNL     1      56.167 -41.967 -29.585  1.00  0.00    -0.000 C 
BRANCH  16  17
ATOM     17  C   UNL     1      55.169 -43.102 -29.878  1.00  0.00    -0.000 C 
BRANCH  17  18
ATOM     18  C   UNL     1      53.716 -42.611 -29.967  1.00  0.00    -0.000 C 
BRANCH  18  19
ATOM     19  C   UNL     1      53.619 -41.342 -30.821  1.00  0.00    -0.003 C 
ATOM     20  C   UNL     1      52.215 -40.745 -30.762  1.00  0.00     0.004 C 
ENDBRANCH  18  19
ENDBRANCH  17  18
ENDBRANCH  16  17
ENDBRANCH  15  16
ENDBRANCH  14  15
ENDBRANCH  13  14
ENDBRANCH  12  13
ENDBRANCH   1  12
TORSDOF 16
ENDMDL
MODEL 3
REMARK VINA RESULT:    -3.639      1.726      3.006
REMARK INTER + INTRA:          -9.561
REMARK INTER:                  -6.902
REMARK INTRA:                  -2.659
REMARK UNBOUND:                -2.518
REMARK SMILES CCCCCCCCCCCCCCCCCC(=O)[O-]
REMARK SMILES IDX 10 1 11 2 12 3 13 4 14 5 15 6 16 7 17 8 18 9 19 10 20 11
REMARK SMILES IDX 9 12 8 13 7 14 6 15 5 16 4 17 3 18 2 19 1 20
REMARK H PARENT
REMARK Flexibility Score: inf
ROOT
ATOM      1  C   UNL     1      53.380 -43.241 -27.813  1.00  0.00     0.000 C 
ENDROOT
BRANCH   1   2
ATOM      2  C   UNL     1      52.155 -43.397 -26.903  1.00  0.00     0.000 C 
BRANCH   2   3
ATOM      3  C   UNL     1      52.519 -43.114 -25.438  1.00  0.00     0.000 C 
BRANCH   3   4
ATOM      4  C   UNL     1      51.372 -42.448 -24.660  1.00  0.00     0.000 C 
BRANCH   4   5
ATOM      5  C   UNL     1      51.797 -41.133 -23.990  1.00  0.00     0.000 C 
BRANCH   5   6
ATOM      6  C   UNL     1      53.174 -40.682 -24.491  1.00  0.00     0.000 C 
BRANCH   6   7
ATOM      7  C   UNL     1      54.130 -40.426 -23.315  1.00  0.00     0.006 C 
BRANCH   7   8
ATOM      8  C   UNL     1      55.527 -40.000 -23.785  1.00  0.00     0.053 C 
BRANCH   8   9
ATOM      9  C   UNL     1      56.081 -40.941 -24.812  1.00  0.00     0.041 C 
ATOM     10  O   UNL     1      56.417 -40.513 -25.947  1.00  0.00    -0.550 OA
ATOM     11  O   UNL     1      56.255 -42.284 -24.502  1.00  0.00    -0.550 OA
ENDBRANCH   8   9
ENDBRANCH   7   8
ENDBRANCH   6   7
ENDBRANCH   5   6
ENDBRANCH   4   5
ENDBRANCH   3   4
ENDBRANCH   2   3
ENDBRANCH   1   2
BRANCH   1  12
ATOM     12  C   UNL     1      53.764 -41.765 -27.972  1.00  0.00     0.000 C 
BRANCH  12  13
ATOM     13  C   UNL     1      52.523 -40.899 -28.226  1.00  0.00    -0.000 C 
BRANCH  13  14
ATOM     14  C   UNL     1      52.470 -40.335 -29.658  1.00  0.00    -0.000 C 
BRANCH  14  15
ATOM     15  C   UNL     1      51.355 -40.921 -30.547  1.00  0.00    -0.000 C 
BRANCH  15  16
ATOM     16  C   UNL     1      51.466 -42.434 -30.826  1.00  0.00    -0.000 C 
BRANCH  16  17
ATOM     17  C   UNL     1      50.355 -43.292 -30.195  1.00  0.00    -0.000 C 
BRANCH  17  18
ATOM     18  C   UNL     1      49.137 -42.465 -29.757  1.00  0.00    -0.000 C 
BRANCH  18  19
ATOM     19  C   UNL     1      48.947 -42.533 -28.238  1.00  0.00    -0.003 C 
ATOM     20  C   UNL     1      48.823 -41.136 -27.635  1.00  0.00     0.004 C 
ENDBRANCH  18  19
ENDBRANCH  17  18
ENDBRANCH  16  17
ENDBRANCH  15  16
ENDBRANCH  14  15
ENDBRANCH  13  14
ENDBRANCH  12  13
ENDBRANCH   1  12
TORSDOF 16
ENDMDL
MODEL 4
REMARK VINA RESULT:    -3.627      3.423      6.790
REMARK INTER + INTRA:          -9.538
REMARK INTER:                  -6.596
REMARK INTRA:                  -2.942
REMARK UNBOUND:                -2.518
REMARK SMILES CCCCCCCCCCCCCCCCCC(=O)[O-]
REMARK SMILES IDX 10 1 11 2 12 3 13 4 14 5 15 6 16 7 17 8 18 9 19 10 20 11
REMARK SMILES IDX 9 12 8 13 7 14 6 15 5 16 4 17 3 18 2 19 1 20
REMARK H PARENT
REMARK Flexibility Score: inf
ROOT
ATOM      1  C   UNL     1      55.677 -37.990 -26.656  1.00  0.00     0.000 C 
ENDROOT
BRANCH   1   2
ATOM      2  C   UNL     1      55.788 -39.032 -27.776  1.00  0.00     0.000 C 
BRANCH   2   3
ATOM      3  C   UNL     1      57.173 -39.697 -27.772  1.00  0.00     0.000 C 
BRANCH   3   4
ATOM      4  C   UNL     1      57.198 -41.018 -28.557  1.00  0.00     0.000 C 
BRANCH   4   5
ATOM      5  C   UNL     1      56.101 -41.092 -29.629  1.00  0.00     0.000 C 
BRANCH   5   6
ATOM      6  C   UNL     1      55.733 -42.548 -29.938  1.00  0.00     0.000 C 
BRANCH   6   7
ATOM      7  C   UNL     1      54.210 -42.721 -30.040  1.00  0.00     0.006 C 
BRANCH   7   8
ATOM      8  C   UNL     1      53.454 -41.442 -29.655  1.00  0.00     0.053 C 
BRANCH   8   9
ATOM      9  C   UNL     1      52.563 -40.967 -30.762  1.00  0.00     0.041 C 
ATOM     10  O   UNL     1      52.924 -41.093 -31.962  1.00  0.00    -0.550 OA
ATOM     11  O   UNL     1      51.322 -40.417 -30.470  1.00  0.00    -0.550 OA
ENDBRANCH   8   9
ENDBRANCH   7   8
ENDBRANCH   6   7
ENDBRANCH   5   6
ENDBRANCH   4   5
ENDBRANCH   3   4
ENDBRANCH   2   3
ENDBRANCH   1   2
BRANCH   1  12
ATOM     12  C   UNL     1      56.994 -37.874 -25.880  1.00  0.00     0.000 C 
BRANCH  12  13
ATOM     13  C   UNL     1      56.735 -37.538 -24.405  1.00  0.00    -0.000 C 
BRANCH  13  14
ATOM     14  C   UNL     1      55.375 -38.055 -23.903  1.00  0.00    -0.000 C 
BRANCH  14  15
ATOM     15  C   UNL     1      55.439 -39.351 -23.071  1.00  0.00    -0.000 C 
BRANCH  15  16
ATOM     16  C   UNL     1      55.021 -40.633 -23.820  1.00  0.00    -0.000 C 
BRANCH  16  17
ATOM     17  C   UNL     1      56.174 -41.386 -24.508  1.00  0.00    -0.000 C 
BRANCH  17  18
ATOM     18  C   UNL     1      55.686 -42.387 -25.566  1.00  0.00    -0.000 C 
BRANCH  18  19
ATOM     19  C   UNL     1      54.258 -42.055 -26.016  1.00  0.00    -0.003 C 
ATOM     20  C   UNL     1      53.502 -43.317 -26.421  1.00  0.00     0.004 C 
ENDBRANCH  18  19
ENDBRANCH  17  18
ENDBRANCH  16  17
ENDBRANCH  15  16
ENDBRANCH  14  15
ENDBRANCH  13  14
ENDBRANCH  12  13
ENDBRANCH   1  12
TORSDOF 16
ENDMDL
MODEL 5
REMARK VINA RESULT:    -3.614      2.161      3.749
REMARK INTER + INTRA:          -9.513
REMARK INTER:                  -7.191
REMARK INTRA:                  -2.322
REMARK UNBOUND:                -2.518
REMARK SMILES CCCCCCCCCCCCCCCCCC(=O)[O-]
REMARK SMILES IDX 10 1 11 2 12 3 13 4 14 5 15 6 16 7 17 8 18 9 19 10 20 11
REMARK SMILES IDX 9 12 8 13 7 14 6 15 5 16 4 17 3 18 2 19 1 20
REMARK H PARENT
REMARK Flexibility Score: inf
ROOT
ATOM      1  C   UNL     1      52.655 -40.465 -28.955  1.00  0.00     0.000 C 
ENDROOT
BRANCH   1   2
ATOM      2  C   UNL     1      51.764 -41.190 -27.938  1.00  0.00     0.000 C 
BRANCH   2   3
ATOM      3  C   UNL     1      52.350 -42.563 -27.577  1.00  0.00     0.000 C 
BRANCH   3   4
ATOM      4  C   UNL     1      53.250 -42.515 -26.332  1.00  0.00     0.000 C 
BRANCH   4   5
ATOM      5  C   UNL     1      52.567 -41.839 -25.134  1.00  0.00     0.000 C 
BRANCH   5   6
ATOM      6  C   UNL     1      53.557 -40.954 -24.366  1.00  0.00     0.000 C 
BRANCH   6   7
ATOM      7  C   UNL     1      54.992 -41.168 -24.871  1.00  0.00     0.006 C 
BRANCH   7   8
ATOM      8  C   UNL     1      55.704 -39.843 -25.174  1.00  0.00     0.053 C 
BRANCH   8   9
ATOM      9  C   UNL     1      56.543 -39.385 -24.020  1.00  0.00     0.041 C 
ATOM     10  O   UNL     1      56.016 -39.188 -22.894  1.00  0.00    -0.550 OA
ATOM     11  O   UNL     1      57.911 -39.208 -24.182  1.00  0.00    -0.550 OA
ENDBRANCH   8   9
ENDBRANCH   7   8
ENDBRANCH   6   7
ENDBRANCH   5   6
ENDBRANCH   4   5
ENDBRANCH   3   4
ENDBRANCH   2   3
ENDBRANCH   1   2
BRANCH   1  12
ATOM     12  C   UNL     1      51.972 -40.383 -30.325  1.00  0.00     0.000 C 
BRANCH  12  13
ATOM     13  C   UNL     1      52.593 -41.384 -31.309  1.00  0.00    -0.000 C 
BRANCH  13  14
ATOM     14  C   UNL     1      53.410 -40.703 -32.421  1.00  0.00    -0.000 C 
BRANCH  14  15
ATOM     15  C   UNL     1      54.902 -41.091 -32.462  1.00  0.00    -0.000 C 
BRANCH  15  16
ATOM     16  C   UNL     1      55.846 -40.149 -31.687  1.00  0.00    -0.000 C 
BRANCH  16  17
ATOM     17  C   UNL     1      56.096 -40.545 -30.221  1.00  0.00    -0.000 C 
BRANCH  17  18
ATOM     18  C   UNL     1      56.646 -41.972 -30.074  1.00  0.00    -0.000 C 
BRANCH  18  19
ATOM     19  C   UNL     1      55.757 -42.808 -29.146  1.00  0.00    -0.003 C 
ATOM     20  C   UNL     1      54.958 -43.843 -29.935  1.00  0.00     0.004 C 
ENDBRANCH  18  19
ENDBRANCH  17  18
ENDBRANCH  16  17
ENDBRANCH  15  16
ENDBRANCH  14  15
ENDBRANCH  13  14
ENDBRANCH  12  13
ENDBRANCH   1  12
TORSDOF 16
ENDMDL
MODEL 6
REMARK VINA RESULT:    -3.607      3.831      5.852
REMARK INTER + INTRA:          -9.499
REMARK INTER:                  -6.287
REMARK INTRA:                  -3.212
REMARK UNBOUND:                -2.518
REMARK SMILES CCCCCCCCCCCCCCCCCC(=O)[O-]
REMARK SMILES IDX 10 1 11 2 12 3 13 4 14 5 15 6 16 7 17 8 18 9 19 10 20 11
REMARK SMILES IDX 9 12 8 13 7 14 6 15 5 16 4 17 3 18 2 19 1 20
REMARK H PARENT
REMARK Flexibility Score: inf
ROOT
ATOM      1  C   UNL     1      56.507 -43.269 -27.768  1.00  0.00     0.000 C 
ENDROOT
BRANCH   1   2
ATOM      2  C   UNL     1      56.085 -42.994 -26.319  1.00  0.00     0.000 C 
BRANCH   2   3
ATOM      3  C   UNL     1      54.590 -42.649 -26.239  1.00  0.00     0.000 C 
BRANCH   3   4
ATOM      4  C   UNL     1      54.334 -41.263 -25.627  1.00  0.00     0.000 C 
BRANCH   4   5
ATOM      5  C   UNL     1      53.229 -40.487 -26.360  1.00  0.00     0.000 C 
BRANCH   5   6
ATOM      6  C   UNL     1      52.779 -41.235 -27.622  1.00  0.00     0.000 C 
BRANCH   6   7
ATOM      7  C   UNL     1      53.136 -40.442 -28.888  1.00  0.00     0.006 C 
BRANCH   7   8
ATOM      8  C   UNL     1      51.978 -40.400 -29.893  1.00  0.00     0.053 C 
BRANCH   8   9
ATOM      9  C   UNL     1      52.171 -41.383 -31.006  1.00  0.00     0.041 C 
ATOM     10  O   UNL     1      52.912 -41.096 -31.983  1.00  0.00    -0.550 OA
ATOM     11  O   UNL     1      51.558 -42.628 -30.949  1.00  0.00    -0.550 OA
ENDBRANCH   8   9
ENDBRANCH   7   8
ENDBRANCH   6   7
ENDBRANCH   5   6
ENDBRANCH   4   5
ENDBRANCH   3   4
ENDBRANCH   2   3
ENDBRANCH   1   2
BRANCH   1  12
ATOM     12  C   UNL     1      55.318 -43.757 -28.604  1.00  0.00     0.000 C 
BRANCH  12  13
ATOM     13  C   UNL     1      55.349 -43.147 -30.012  1.00  0.00    -0.000 C 
BRANCH  13  14
ATOM     14  C   UNL     1      56.582 -42.258 -30.253  1.00  0.00    -0.000 C 
BRANCH  14  15
ATOM     15  C   UNL     1      56.283 -40.896 -30.911  1.00  0.00    -0.000 C 
BRANCH  15  16
ATOM     16  C   UNL     1      56.567 -39.665 -30.027  1.00  0.00    -0.000 C 
BRANCH  16  17
ATOM     17  C   UNL     1      57.588 -39.897 -28.900  1.00  0.00    -0.000 C 
BRANCH  17  18
ATOM     18  C   UNL     1      57.040 -39.531 -27.512  1.00  0.00    -0.000 C 
BRANCH  18  19
ATOM     19  C   UNL     1      55.989 -38.420 -27.615  1.00  0.00    -0.003 C 
ATOM     20  C   UNL     1      56.581 -37.065 -27.237  1.00  0.00     0.004 C 
ENDBRANCH  18  19
ENDBRANCH  17  18
ENDBRANCH  16  17
ENDBRANCH  15  16
ENDBRANCH  14  15
ENDBRANCH  13  14
ENDBRANCH  12  13
ENDBRANCH   1  12
TORSDOF 16
ENDMDL
MODEL 7
REMARK VINA RESULT:    -3.597      2.242      3.839
REMARK INTER + INTRA:          -9.479
REMARK INTER:                  -6.666
REMARK INTRA:                  -2.813
REMARK UNBOUND:                -2.518
REMARK SMILES CCCCCCCCCCCCCCCCCC(=O)[O-]
REMARK SMILES IDX 10 1 11 2 12 3 13 4 14 5 15 6 16 7 17 8 18 9 19 10 20 11
REMARK SMILES IDX 9 12 8 13 7 14 6 15 5 16 4 17 3 18 2 19 1 20
REMARK H PARENT
REMARK Flexibility Score: inf
ROOT
ATOM      1  C   UNL     1      52.337 -42.264 -29.977  1.00  0.00     0.000 C 
ENDROOT
BRANCH   1   2
ATOM      2  C   UNL     1      52.157 -40.786 -29.609  1.00  0.00     0.000 C 
BRANCH   2   3
ATOM      3  C   UNL     1      52.515 -40.540 -28.136  1.00  0.00     0.000 C 
BRANCH   3   4
ATOM      4  C   UNL     1      53.469 -39.349 -27.948  1.00  0.00     0.000 C 
BRANCH   4   5
ATOM      5  C   UNL     1      54.570 -39.630 -26.915  1.00  0.00     0.000 C 
BRANCH   5   6
ATOM      6  C   UNL     1      54.781 -41.139 -26.734  1.00  0.00     0.000 C 
BRANCH   6   7
ATOM      7  C   UNL     1      54.784 -41.519 -25.246  1.00  0.00     0.006 C 
BRANCH   7   8
ATOM      8  C   UNL     1      54.379 -40.344 -24.346  1.00  0.00     0.053 C 
BRANCH   8   9
ATOM      9  C   UNL     1      55.518 -39.879 -23.491  1.00  0.00     0.041 C 
ATOM     10  O   UNL     1      56.706 -40.084 -23.853  1.00  0.00    -0.550 OA
ATOM     11  O   UNL     1      55.266 -39.190 -22.311  1.00  0.00    -0.550 OA
ENDBRANCH   8   9
ENDBRANCH   7   8
ENDBRANCH   6   7
ENDBRANCH   5   6
ENDBRANCH   4   5
ENDBRANCH   3   4
ENDBRANCH   2   3
ENDBRANCH   1   2
BRANCH   1  12
ATOM     12  C   UNL     1      52.437 -43.136 -28.719  1.00  0.00     0.000 C 
BRANCH  12  13
ATOM     13  C   UNL     1      53.664 -44.057 -28.785  1.00  0.00    -0.000 C 
BRANCH  13  14
ATOM     14  C   UNL     1      54.635 -43.681 -29.918  1.00  0.00    -0.000 C 
BRANCH  14  15
ATOM     15  C   UNL     1      56.028 -43.213 -29.453  1.00  0.00    -0.000 C 
BRANCH  15  16
ATOM     16  C   UNL     1      56.665 -42.098 -30.307  1.00  0.00    -0.000 C 
BRANCH  16  17
ATOM     17  C   UNL     1      55.869 -40.782 -30.353  1.00  0.00    -0.000 C 
BRANCH  17  18
ATOM     18  C   UNL     1      55.704 -40.233 -31.778  1.00  0.00    -0.000 C 
BRANCH  18  19
ATOM     19  C   UNL     1      54.601 -40.987 -32.530  1.00  0.00    -0.003 C 
ATOM     20  C   UNL     1      54.574 -40.595 -34.005  1.00  0.00     0.004 C 
ENDBRANCH  18  19
ENDBRANCH  17  18
ENDBRANCH  16  17
ENDBRANCH  15  16
ENDBRANCH  14  15
ENDBRANCH  13  14
ENDBRANCH  12  13
ENDBRANCH   1  12
TORSDOF 16
ENDMDL
MODEL 8
REMARK VINA RESULT:    -3.592      3.566      6.329
REMARK INTER + INTRA:          -9.469
REMARK INTER:                  -7.019
REMARK INTRA:                  -2.450
REMARK UNBOUND:                -2.518
REMARK SMILES CCCCCCCCCCCCCCCCCC(=O)[O-]
REMARK SMILES IDX 10 1 11 2 12 3 13 4 14 5 15 6 16 7 17 8 18 9 19 10 20 11
REMARK SMILES IDX 9 12 8 13 7 14 6 15 5 16 4 17 3 18 2 19 1 20
REMARK H PARENT
REMARK Flexibility Score: inf
ROOT
ATOM      1  C   UNL     1      50.624 -43.058 -27.839  1.00  0.00     0.000 C 
ENDROOT
BRANCH   1   2
ATOM      2  C   UNL     1      50.295 -42.862 -29.324  1.00  0.00     0.000 C 
BRANCH   2   3
ATOM      3  C   UNL     1      50.686 -41.452 -29.792  1.00  0.00     0.000 C 
BRANCH   3   4
ATOM      4  C   UNL     1      51.623 -40.739 -28.804  1.00  0.00     0.000 C 
BRANCH   4   5
ATOM      5  C   UNL     1      53.003 -40.438 -29.408  1.00  0.00     0.000 C 
BRANCH   5   6
ATOM      6  C   UNL     1      53.828 -41.722 -29.557  1.00  0.00     0.000 C 
BRANCH   6   7
ATOM      7  C   UNL     1      54.400 -41.847 -30.977  1.00  0.00     0.006 C 
BRANCH   7   8
ATOM      8  C   UNL     1      53.644 -40.971 -31.986  1.00  0.00     0.053 C 
BRANCH   8   9
ATOM      9  C   UNL     1      54.559 -40.413 -33.033  1.00  0.00     0.041 C 
ATOM     10  O   UNL     1      55.504 -39.648 -32.705  1.00  0.00    -0.550 OA
ATOM     11  O   UNL     1      54.387 -40.763 -34.365  1.00  0.00    -0.550 OA
ENDBRANCH   8   9
ENDBRANCH   7   8
ENDBRANCH   6   7
ENDBRANCH   5   6
ENDBRANCH   4   5
ENDBRANCH   3   4
ENDBRANCH   2   3
ENDBRANCH   1   2
BRANCH   1  12
ATOM     12  C   UNL     1      51.710 -44.124 -27.651  1.00  0.00     0.000 C 
BRANCH  12  13
ATOM     13  C   UNL     1      52.345 -44.022 -26.257  1.00  0.00    -0.000 C 
BRANCH  13  14
ATOM     14  C   UNL     1      51.659 -42.975 -25.362  1.00  0.00    -0.000 C 
BRANCH  14  15
ATOM     15  C   UNL     1      52.449 -41.665 -25.172  1.00  0.00    -0.000 C 
BRANCH  15  16
ATOM     16  C   UNL     1      53.839 -41.634 -25.839  1.00  0.00    -0.000 C 
BRANCH  16  17
ATOM     17  C   UNL     1      55.016 -41.415 -24.873  1.00  0.00    -0.000 C 
BRANCH  17  18
ATOM     18  C   UNL     1      56.233 -42.291 -25.207  1.00  0.00    -0.000 C 
BRANCH  18  19
ATOM     19  C   UNL     1      55.856 -43.397 -26.199  1.00  0.00    -0.003 C 
ATOM     20  C   UNL     1      56.611 -43.237 -27.516  1.00  0.00     0.004 C 
ENDBRANCH  18  19
ENDBRANCH  17  18
ENDBRANCH  16  17
ENDBRANCH  15  16
ENDBRANCH  14  15
ENDBRANCH  13  14
ENDBRANCH  12  13
ENDBRANCH   1  12
TORSDOF 16
ENDMDL
MODEL 9
REMARK VINA RESULT:    -3.585      1.818      4.055
REMARK INTER + INTRA:          -9.456
REMARK INTER:                  -6.433
REMARK INTRA:                  -3.023
REMARK UNBOUND:                -2.518
REMARK SMILES CCCCCCCCCCCCCCCCCC(=O)[O-]
REMARK SMILES IDX 10 1 11 2 12 3 13 4 14 5 15 6 16 7 17 8 18 9 19 10 20 11
REMARK SMILES IDX 9 12 8 13 7 14 6 15 5 16 4 17 3 18 2 19 1 20
REMARK H PARENT
REMARK Flexibility Score: inf
ROOT
ATOM      1  C   UNL     1      50.373 -41.172 -28.441  1.00  0.00     0.000 C 
ENDROOT
BRANCH   1   2
ATOM      2  C   UNL     1      50.010 -42.618 -28.799  1.00  0.00     0.000 C 
BRANCH   2   3
ATOM      3  C   UNL     1      50.952 -43.610 -28.100  1.00  0.00     0.000 C 
BRANCH   3   4
ATOM      4  C   UNL     1      50.728 -43.670 -26.581  1.00  0.00     0.000 C 
BRANCH   4   5
ATOM      5  C   UNL     1      52.009 -43.387 -25.781  1.00  0.00     0.000 C 
BRANCH   5   6
ATOM      6  C   UNL     1      53.251 -43.521 -26.671  1.00  0.00     0.000 C 
BRANCH   6   7
ATOM      7  C   UNL     1      54.410 -42.671 -26.129  1.00  0.00     0.006 C 
BRANCH   7   8
ATOM      8  C   UNL     1      53.916 -41.464 -25.320  1.00  0.00     0.053 C 
BRANCH   8   9
ATOM      9  C   UNL     1      54.999 -40.891 -24.457  1.00  0.00     0.041 C 
ATOM     10  O   UNL     1      56.175 -40.798 -24.897  1.00  0.00    -0.550 OA
ATOM     11  O   UNL     1      54.701 -40.431 -23.182  1.00  0.00    -0.550 OA
ENDBRANCH   8   9
ENDBRANCH   7   8
ENDBRANCH   6   7
ENDBRANCH   5   6
ENDBRANCH   4   5
ENDBRANCH   3   4
ENDBRANCH   2   3
ENDBRANCH   1   2
BRANCH   1  12
ATOM     12  C   UNL     1      51.822 -40.856 -28.830  1.00  0.00     0.000 C 
BRANCH  12  13
ATOM     13  C   UNL     1      51.917 -40.436 -30.304  1.00  0.00    -0.000 C 
BRANCH  13  14
ATOM     14  C   UNL     1      52.929 -41.277 -31.102  1.00  0.00    -0.000 C 
BRANCH  14  15
ATOM     15  C   UNL     1      53.562 -42.446 -30.322  1.00  0.00    -0.000 C 
BRANCH  15  16
ATOM     16  C   UNL     1      55.089 -42.353 -30.123  1.00  0.00    -0.000 C 
BRANCH  16  17
ATOM     17  C   UNL     1      55.787 -41.272 -30.967  1.00  0.00    -0.000 C 
BRANCH  17  18
ATOM     18  C   UNL     1      56.290 -40.090 -30.125  1.00  0.00    -0.000 C 
BRANCH  18  19
ATOM     19  C   UNL     1      56.054 -40.342 -28.632  1.00  0.00    -0.003 C 
ATOM     20  C   UNL     1      55.132 -39.283 -28.034  1.00  0.00     0.004 C 
ENDBRANCH  18  19
ENDBRANCH  17  18
ENDBRANCH  16  17
ENDBRANCH  15  16
ENDBRANCH  14  15
ENDBRANCH  13  14
ENDBRANCH  12  13
ENDBRANCH   1  12
TORSDOF 16
ENDMDL
