MODEL 1
REMARK VINA RESULT:    -3.559      0.000      0.000
REMARK INTER + INTRA:          -8.987
REMARK INTER:                  -6.887
REMARK INTRA:                  -2.100
REMARK UNBOUND:                -2.100
REMARK SMILES CCCCCCCCCCCCCCCCCC(=O)[O-]
REMARK SMILES IDX 10 1 11 2 12 3 13 4 14 5 15 6 16 7 17 8 18 9 19 10 20 11
REMARK SMILES IDX 9 12 8 13 7 14 6 15 5 16 4 17 3 18 2 19 1 20
REMARK H PARENT
REMARK Flexibility Score: inf
ROOT
ATOM      1  C   UNL     1     -97.676 149.055 239.319  1.00  0.00     0.000 C 
ENDROOT
BRANCH   1   2
ATOM      2  C   UNL     1     -96.543 148.049 239.049  1.00  0.00     0.000 C 
BRANCH   2   3
ATOM      3  C   UNL     1     -95.225 148.737 238.655  1.00  0.00     0.000 C 
BRANCH   3   4
ATOM      4  C   UNL     1     -94.782 148.401 237.221  1.00  0.00     0.000 C 
BRANCH   4   5
ATOM      5  C   UNL     1     -94.772 149.644 236.307  1.00  0.00     0.000 C 
BRANCH   5   6
ATOM      6  C   UNL     1     -95.047 150.965 237.050  1.00  0.00     0.000 C 
BRANCH   6   7
ATOM      7  C   UNL     1     -96.219 151.789 236.489  1.00  0.00     0.006 C 
BRANCH   7   8
ATOM      8  C   UNL     1     -96.381 153.143 237.191  1.00  0.00     0.053 C 
BRANCH   8   9
ATOM      9  C   UNL     1     -97.782 153.305 237.693  1.00  0.00     0.041 C 
ATOM     10  O   UNL     1     -98.405 152.318 238.167  1.00  0.00    -0.550 OA
ATOM     11  O   UNL     1     -98.415 154.538 237.596  1.00  0.00    -0.550 OA
ENDBRANCH   8   9
ENDBRANCH   7   8
ENDBRANCH   6   7
ENDBRANCH   5   6
ENDBRANCH   4   5
ENDBRANCH   3   4
ENDBRANCH   2   3
ENDBRANCH   1   2
BRANCH   1  12
ATOM     12  C   UNL     1     -98.423 148.762 240.632  1.00  0.00     0.000 C 
BRANCH  12  13
ATOM     13  C   UNL     1     -98.323 149.921 241.639  1.00  0.00    -0.000 C 
BRANCH  13  14
ATOM     14  C   UNL     1     -97.753 149.478 242.996  1.00  0.00    -0.000 C 
BRANCH  14  15
ATOM     15  C   UNL     1     -96.324 148.922 242.889  1.00  0.00    -0.000 C 
BRANCH  15  16
ATOM     16  C   UNL     1     -96.297 147.421 243.202  1.00  0.00    -0.000 C 
BRANCH  16  17
ATOM     17  C   UNL     1     -95.152 146.722 242.455  1.00  0.00    -0.000 C 
BRANCH  17  18
ATOM     18  C   UNL     1     -94.126 147.713 241.883  1.00  0.00    -0.000 C 
BRANCH  18  19
ATOM     19  C   UNL     1     -92.918 147.012 241.245  1.00  0.00    -0.003 C 
ATOM     20  C   UNL     1     -93.359 146.049 240.146  1.00  0.00     0.004 C 
ENDBRANCH  18  19
ENDBRANCH  17  18
ENDBRANCH  16  17
ENDBRANCH  15  16
ENDBRANCH  14  15
ENDBRANCH  13  14
ENDBRANCH  12  13
ENDBRANCH   1  12
TORSDOF 16
ENDMDL
MODEL 2
REMARK VINA RESULT:    -3.555      3.671      7.225
REMARK INTER + INTRA:          -8.980
REMARK INTER:                  -7.170
REMARK INTRA:                  -1.810
REMARK UNBOUND:                -2.100
REMARK SMILES CCCCCCCCCCCCCCCCCC(=O)[O-]
REMARK SMILES IDX 10 1 11 2 12 3 13 4 14 5 15 6 16 7 17 8 18 9 19 10 20 11
REMARK SMILES IDX 9 12 8 13 7 14 6 15 5 16 4 17 3 18 2 19 1 20
REMARK H PARENT
REMARK Flexibility Score: inf
ROOT
ATOM      1  C   UNL     1     -94.385 145.794 242.588  1.00  0.00     0.000 C 
ENDROOT
BRANCH   1   2
ATOM      2  C   UNL     1     -94.505 147.299 242.287  1.00  0.00     0.000 C 
BRANCH   2   3
ATOM      3  C   UNL     1     -95.963 147.787 242.289  1.00  0.00     0.000 C 
BRANCH   3   4
ATOM      4  C   UNL     1     -96.164 149.066 243.119  1.00  0.00     0.000 C 
BRANCH   4   5
ATOM      5  C   UNL     1     -97.629 149.551 243.100  1.00  0.00     0.000 C 
BRANCH   5   6
ATOM      6  C   UNL     1     -98.425 149.177 244.365  1.00  0.00     0.000 C 
BRANCH   6   7
ATOM      7  C   UNL     1     -97.570 148.970 245.627  1.00  0.00     0.006 C 
BRANCH   7   8
ATOM      8  C   UNL     1     -98.390 149.065 246.921  1.00  0.00     0.053 C 
BRANCH   8   9
ATOM      9  C   UNL     1     -98.064 150.329 247.652  1.00  0.00     0.041 C 
ATOM     10  O   UNL     1     -98.860 151.305 247.619  1.00  0.00    -0.550 OA
ATOM     11  O   UNL     1     -96.860 150.445 248.335  1.00  0.00    -0.550 OA
ENDBRANCH   8   9
ENDBRANCH   7   8
ENDBRANCH   6   7
ENDBRANCH   5   6
ENDBRANCH   4   5
ENDBRANCH   3   4
ENDBRANCH   2   3
ENDBRANCH   1   2
BRANCH   1  12
ATOM     12  C   UNL     1     -93.105 145.176 242.000  1.00  0.00     0.000 C 
BRANCH  12  13
ATOM     13  C   UNL     1     -92.507 146.027 240.867  1.00  0.00    -0.000 C 
BRANCH  13  14
ATOM     14  C   UNL     1     -92.730 145.407 239.479  1.00  0.00    -0.000 C 
BRANCH  14  15
ATOM     15  C   UNL     1     -93.545 146.315 238.544  1.00  0.00    -0.000 C 
BRANCH  15  16
ATOM     16  C   UNL     1     -95.049 146.144 238.790  1.00  0.00    -0.000 C 
BRANCH  16  17
ATOM     17  C   UNL     1     -95.794 147.472 238.598  1.00  0.00    -0.000 C 
BRANCH  17  18
ATOM     18  C   UNL     1     -94.875 148.695 238.756  1.00  0.00    -0.000 C 
BRANCH  18  19
ATOM     19  C   UNL     1     -95.035 149.706 237.611  1.00  0.00    -0.003 C 
ATOM     20  C   UNL     1     -94.465 149.154 236.308  1.00  0.00     0.004 C 
ENDBRANCH  18  19
ENDBRANCH  17  18
ENDBRANCH  16  17
ENDBRANCH  15  16
ENDBRANCH  14  15
ENDBRANCH  13  14
ENDBRANCH  12  13
ENDBRANCH   1  12
TORSDOF 16
ENDMDL
MODEL 3
REMARK VINA RESULT:    -3.547      1.022      3.358
REMARK INTER + INTRA:          -8.964
REMARK INTER:                  -6.805
REMARK INTRA:                  -2.159
REMARK UNBOUND:                -2.100
REMARK SMILES CCCCCCCCCCCCCCCCCC(=O)[O-]
REMARK SMILES IDX 10 1 11 2 12 3 13 4 14 5 15 6 16 7 17 8 18 9 19 10 20 11
REMARK SMILES IDX 9 12 8 13 7 14 6 15 5 16 4 17 3 18 2 19 1 20
REMARK H PARENT
REMARK Flexibility Score: inf
ROOT
ATOM      1  C   UNL     1     -93.710 146.921 239.633  1.00  0.00     0.000 C 
ENDROOT
BRANCH   1   2
ATOM      2  C   UNL     1     -94.424 148.263 239.387  1.00  0.00     0.000 C 
BRANCH   2   3
ATOM      3  C   UNL     1     -94.838 148.451 237.919  1.00  0.00     0.000 C 
BRANCH   3   4
ATOM      4  C   UNL     1     -94.834 149.925 237.481  1.00  0.00     0.000 C 
BRANCH   4   5
ATOM      5  C   UNL     1     -95.476 150.123 236.091  1.00  0.00     0.000 C 
BRANCH   5   6
ATOM      6  C   UNL     1     -95.990 151.554 235.842  1.00  0.00     0.000 C 
BRANCH   6   7
ATOM      7  C   UNL     1     -96.114 152.424 237.104  1.00  0.00     0.006 C 
BRANCH   7   8
ATOM      8  C   UNL     1     -97.569 152.776 237.441  1.00  0.00     0.053 C 
BRANCH   8   9
ATOM      9  C   UNL     1     -97.747 154.261 237.491  1.00  0.00     0.041 C 
ATOM     10  O   UNL     1     -98.864 154.758 237.795  1.00  0.00    -0.550 OA
ATOM     11  O   UNL     1     -96.688 155.098 237.159  1.00  0.00    -0.550 OA
ENDBRANCH   8   9
ENDBRANCH   7   8
ENDBRANCH   6   7
ENDBRANCH   5   6
ENDBRANCH   4   5
ENDBRANCH   3   4
ENDBRANCH   2   3
ENDBRANCH   1   2
BRANCH   1  12
ATOM     12  C   UNL     1     -93.114 146.822 241.048  1.00  0.00     0.000 C 
BRANCH  12  13
ATOM     13  C   UNL     1     -94.006 147.486 242.112  1.00  0.00    -0.000 C 
BRANCH  13  14
ATOM     14  C   UNL     1     -95.036 146.516 242.710  1.00  0.00    -0.000 C 
BRANCH  14  15
ATOM     15  C   UNL     1     -96.405 147.173 242.948  1.00  0.00    -0.000 C 
BRANCH  15  16
ATOM     16  C   UNL     1     -96.305 148.700 242.841  1.00  0.00    -0.000 C 
BRANCH  16  17
ATOM     17  C   UNL     1     -97.525 149.283 242.113  1.00  0.00    -0.000 C 
BRANCH  17  18
ATOM     18  C   UNL     1     -97.745 148.654 240.728  1.00  0.00    -0.000 C 
BRANCH  18  19
ATOM     19  C   UNL     1     -98.176 149.684 239.673  1.00  0.00    -0.003 C 
ATOM     20  C   UNL     1     -98.427 149.015 238.324  1.00  0.00     0.004 C 
ENDBRANCH  18  19
ENDBRANCH  17  18
ENDBRANCH  16  17
ENDBRANCH  15  16
ENDBRANCH  14  15
ENDBRANCH  13  14
ENDBRANCH  12  13
ENDBRANCH   1  12
TORSDOF 16
ENDMDL
MODEL 4
REMARK VINA RESULT:    -3.542      1.149      3.272
REMARK INTER + INTRA:          -8.955
REMARK INTER:                  -6.307
REMARK INTRA:                  -2.648
REMARK UNBOUND:                -2.100
REMARK SMILES CCCCCCCCCCCCCCCCCC(=O)[O-]
REMARK SMILES IDX 10 1 11 2 12 3 13 4 14 5 15 6 16 7 17 8 18 9 19 10 20 11
REMARK SMILES IDX 9 12 8 13 7 14 6 15 5 16 4 17 3 18 2 19 1 20
REMARK H PARENT
REMARK Flexibility Score: inf
ROOT
ATOM      1  C   UNL     1     -93.987 147.405 241.975  1.00  0.00     0.000 C 
ENDROOT
BRANCH   1   2
ATOM      2  C   UNL     1     -93.559 147.393 240.496  1.00  0.00     0.000 C 
BRANCH   2   3
ATOM      3  C   UNL     1     -94.500 148.219 239.603  1.00  0.00     0.000 C 
BRANCH   3   4
ATOM      4  C   UNL     1     -94.610 147.661 238.174  1.00  0.00     0.000 C 
BRANCH   4   5
ATOM      5  C   UNL     1     -95.440 148.578 237.251  1.00  0.00     0.000 C 
BRANCH   5   6
ATOM      6  C   UNL     1     -94.599 149.629 236.500  1.00  0.00     0.000 C 
BRANCH   6   7
ATOM      7  C   UNL     1     -95.257 151.014 236.378  1.00  0.00     0.006 C 
BRANCH   7   8
ATOM      8  C   UNL     1     -96.718 151.021 236.845  1.00  0.00     0.053 C 
BRANCH   8   9
ATOM      9  C   UNL     1     -97.038 152.310 237.534  1.00  0.00     0.041 C 
ATOM     10  O   UNL     1     -96.221 153.268 237.503  1.00  0.00    -0.550 OA
ATOM     11  O   UNL     1     -98.224 152.440 238.247  1.00  0.00    -0.550 OA
ENDBRANCH   8   9
ENDBRANCH   7   8
ENDBRANCH   6   7
ENDBRANCH   5   6
ENDBRANCH   4   5
ENDBRANCH   3   4
ENDBRANCH   2   3
ENDBRANCH   1   2
BRANCH   1  12
ATOM     12  C   UNL     1     -95.273 148.217 242.209  1.00  0.00     0.000 C 
BRANCH  12  13
ATOM     13  C   UNL     1     -96.266 147.495 243.136  1.00  0.00    -0.000 C 
BRANCH  13  14
ATOM     14  C   UNL     1     -97.456 148.381 243.534  1.00  0.00    -0.000 C 
BRANCH  14  15
ATOM     15  C   UNL     1     -97.575 149.645 242.666  1.00  0.00    -0.000 C 
BRANCH  15  16
ATOM     16  C   UNL     1     -99.025 149.867 242.219  1.00  0.00    -0.000 C 
BRANCH  16  17
ATOM     17  C   UNL     1     -99.109 150.064 240.698  1.00  0.00    -0.000 C 
BRANCH  17  18
ATOM     18  C   UNL     1     -98.015 149.296 239.940  1.00  0.00    -0.000 C 
BRANCH  18  19
ATOM     19  C   UNL     1     -98.541 148.011 239.283  1.00  0.00    -0.003 C 
ATOM     20  C   UNL     1     -97.947 146.772 239.948  1.00  0.00     0.004 C 
ENDBRANCH  18  19
ENDBRANCH  17  18
ENDBRANCH  16  17
ENDBRANCH  15  16
ENDBRANCH  14  15
ENDBRANCH  13  14
ENDBRANCH  12  13
ENDBRANCH   1  12
TORSDOF 16
ENDMDL
MODEL 5
REMARK VINA RESULT:    -3.524      2.272      4.746
REMARK INTER + INTRA:          -8.920
REMARK INTER:                  -6.244
REMARK INTRA:                  -2.676
REMARK UNBOUND:                -2.100
REMARK SMILES CCCCCCCCCCCCCCCCCC(=O)[O-]
REMARK SMILES IDX 10 1 11 2 12 3 13 4 14 5 15 6 16 7 17 8 18 9 19 10 20 11
REMARK SMILES IDX 9 12 8 13 7 14 6 15 5 16 4 17 3 18 2 19 1 20
REMARK H PARENT
REMARK Flexibility Score: inf
ROOT
ATOM      1  C   UNL     1     -93.600 145.976 242.628  1.00  0.00     0.000 C 
ENDROOT
BRANCH   1   2
ATOM      2  C   UNL     1     -93.006 144.973 241.623  1.00  0.00     0.000 C 
BRANCH   2   3
ATOM      3  C   UNL     1     -92.229 145.664 240.490  1.00  0.00     0.000 C 
BRANCH   3   4
ATOM      4  C   UNL     1     -92.842 145.409 239.103  1.00  0.00     0.000 C 
BRANCH   4   5
ATOM      5  C   UNL     1     -94.357 145.126 239.177  1.00  0.00     0.000 C 
BRANCH   5   6
ATOM      6  C   UNL     1     -95.235 146.342 238.825  1.00  0.00     0.000 C 
BRANCH   6   7
ATOM      7  C   UNL     1     -94.474 147.534 238.220  1.00  0.00     0.006 C 
BRANCH   7   8
ATOM      8  C   UNL     1     -95.154 148.879 238.506  1.00  0.00     0.053 C 
BRANCH   8   9
ATOM      9  C   UNL     1     -95.583 149.528 237.228  1.00  0.00     0.041 C 
ATOM     10  O   UNL     1     -96.693 149.237 236.709  1.00  0.00    -0.550 OA
ATOM     11  O   UNL     1     -94.737 150.424 236.587  1.00  0.00    -0.550 OA
ENDBRANCH   8   9
ENDBRANCH   7   8
ENDBRANCH   6   7
ENDBRANCH   5   6
ENDBRANCH   4   5
ENDBRANCH   3   4
ENDBRANCH   2   3
ENDBRANCH   1   2
BRANCH   1  12
ATOM     12  C   UNL     1     -93.636 147.411 242.077  1.00  0.00     0.000 C 
BRANCH  12  13
ATOM     13  C   UNL     1     -95.042 148.034 242.146  1.00  0.00    -0.000 C 
BRANCH  13  14
ATOM     14  C   UNL     1     -96.127 147.008 242.505  1.00  0.00    -0.000 C 
BRANCH  14  15
ATOM     15  C   UNL     1     -96.950 147.417 243.738  1.00  0.00    -0.000 C 
BRANCH  15  16
ATOM     16  C   UNL     1     -97.185 148.932 243.760  1.00  0.00    -0.000 C 
BRANCH  16  17
ATOM     17  C   UNL     1     -98.677 149.257 243.922  1.00  0.00    -0.000 C 
BRANCH  17  18
ATOM     18  C   UNL     1     -99.367 149.555 242.582  1.00  0.00    -0.000 C 
BRANCH  18  19
ATOM     19  C   UNL     1     -98.374 149.968 241.484  1.00  0.00    -0.003 C 
ATOM     20  C   UNL     1     -98.437 149.009 240.298  1.00  0.00     0.004 C 
ENDBRANCH  18  19
ENDBRANCH  17  18
ENDBRANCH  16  17
ENDBRANCH  15  16
ENDBRANCH  14  15
ENDBRANCH  13  14
ENDBRANCH  12  13
ENDBRANCH   1  12
TORSDOF 16
ENDMDL
MODEL 6
REMARK VINA RESULT:    -3.514      1.147      3.761
REMARK INTER + INTRA:          -8.901
REMARK INTER:                  -6.507
REMARK INTRA:                  -2.395
REMARK UNBOUND:                -2.100
REMARK SMILES CCCCCCCCCCCCCCCCCC(=O)[O-]
REMARK SMILES IDX 10 1 11 2 12 3 13 4 14 5 15 6 16 7 17 8 18 9 19 10 20 11
REMARK SMILES IDX 9 12 8 13 7 14 6 15 5 16 4 17 3 18 2 19 1 20
REMARK H PARENT
REMARK Flexibility Score: inf
ROOT
ATOM      1  C   UNL     1     -95.264 145.140 239.158  1.00  0.00     0.000 C 
ENDROOT
BRANCH   1   2
ATOM      2  C   UNL     1     -96.345 145.976 238.449  1.00  0.00     0.000 C 
BRANCH   2   3
ATOM      3  C   UNL     1     -96.911 147.090 239.344  1.00  0.00     0.000 C 
BRANCH   3   4
ATOM      4  C   UNL     1     -96.673 148.497 238.770  1.00  0.00     0.000 C 
BRANCH   4   5
ATOM      5  C   UNL     1     -95.182 148.763 238.476  1.00  0.00     0.000 C 
BRANCH   5   6
ATOM      6  C   UNL     1     -94.925 149.409 237.101  1.00  0.00     0.000 C 
BRANCH   6   7
ATOM      7  C   UNL     1     -94.969 150.946 237.092  1.00  0.00     0.006 C 
BRANCH   7   8
ATOM      8  C   UNL     1     -96.260 151.499 236.474  1.00  0.00     0.053 C 
BRANCH   8   9
ATOM      9  C   UNL     1     -96.889 152.500 237.392  1.00  0.00     0.041 C 
ATOM     10  O   UNL     1     -96.454 153.681 237.439  1.00  0.00    -0.550 OA
ATOM     11  O   UNL     1     -97.931 152.115 238.228  1.00  0.00    -0.550 OA
ENDBRANCH   8   9
ENDBRANCH   7   8
ENDBRANCH   6   7
ENDBRANCH   5   6
ENDBRANCH   4   5
ENDBRANCH   3   4
ENDBRANCH   2   3
ENDBRANCH   1   2
BRANCH   1  12
ATOM     12  C   UNL     1     -93.849 145.446 238.638  1.00  0.00     0.000 C 
BRANCH  12  13
ATOM     13  C   UNL     1     -92.832 145.639 239.777  1.00  0.00    -0.000 C 
BRANCH  13  14
ATOM     14  C   UNL     1     -93.235 146.760 240.747  1.00  0.00    -0.000 C 
BRANCH  14  15
ATOM     15  C   UNL     1     -93.650 146.231 242.129  1.00  0.00    -0.000 C 
BRANCH  15  16
ATOM     16  C   UNL     1     -95.009 146.804 242.548  1.00  0.00    -0.000 C 
BRANCH  16  17
ATOM     17  C   UNL     1     -95.106 148.299 242.208  1.00  0.00    -0.000 C 
BRANCH  17  18
ATOM     18  C   UNL     1     -96.178 149.026 243.036  1.00  0.00    -0.000 C 
BRANCH  18  19
ATOM     19  C   UNL     1     -97.606 148.619 242.642  1.00  0.00    -0.003 C 
ATOM     20  C   UNL     1     -98.351 149.787 242.000  1.00  0.00     0.004 C 
ENDBRANCH  18  19
ENDBRANCH  17  18
ENDBRANCH  16  17
ENDBRANCH  15  16
ENDBRANCH  14  15
ENDBRANCH  13  14
ENDBRANCH  12  13
ENDBRANCH   1  12
TORSDOF 16
ENDMDL
MODEL 7
REMARK VINA RESULT:    -3.499      1.857      4.389
REMARK INTER + INTRA:          -8.872
REMARK INTER:                  -6.805
REMARK INTRA:                  -2.066
REMARK UNBOUND:                -2.100
REMARK SMILES CCCCCCCCCCCCCCCCCC(=O)[O-]
REMARK SMILES IDX 10 1 11 2 12 3 13 4 14 5 15 6 16 7 17 8 18 9 19 10 20 11
REMARK SMILES IDX 9 12 8 13 7 14 6 15 5 16 4 17 3 18 2 19 1 20
REMARK H PARENT
REMARK Flexibility Score: inf
ROOT
ATOM      1  C   UNL     1     -95.210 148.191 241.830  1.00  0.00     0.000 C 
ENDROOT
BRANCH   1   2
ATOM      2  C   UNL     1     -96.093 147.388 240.858  1.00  0.00     0.000 C 
BRANCH   2   3
ATOM      3  C   UNL     1     -96.562 148.226 239.657  1.00  0.00     0.000 C 
BRANCH   3   4
ATOM      4  C   UNL     1     -95.762 147.934 238.376  1.00  0.00     0.000 C 
BRANCH   4   5
ATOM      5  C   UNL     1     -94.714 149.028 238.080  1.00  0.00     0.000 C 
BRANCH   5   6
ATOM      6  C   UNL     1     -94.713 149.509 236.616  1.00  0.00     0.000 C 
BRANCH   6   7
ATOM      7  C   UNL     1     -95.178 150.961 236.413  1.00  0.00     0.006 C 
BRANCH   7   8
ATOM      8  C   UNL     1     -96.689 151.135 236.614  1.00  0.00     0.053 C 
BRANCH   8   9
ATOM      9  C   UNL     1     -96.977 152.431 237.304  1.00  0.00     0.041 C 
ATOM     10  O   UNL     1     -96.043 153.239 237.554  1.00  0.00    -0.550 OA
ATOM     11  O   UNL     1     -98.272 152.727 237.710  1.00  0.00    -0.550 OA
ENDBRANCH   8   9
ENDBRANCH   7   8
ENDBRANCH   6   7
ENDBRANCH   5   6
ENDBRANCH   4   5
ENDBRANCH   3   4
ENDBRANCH   2   3
ENDBRANCH   1   2
BRANCH   1  12
ATOM     12  C   UNL     1     -93.878 147.486 242.137  1.00  0.00     0.000 C 
BRANCH  12  13
ATOM     13  C   UNL     1     -93.101 147.114 240.862  1.00  0.00    -0.000 C 
BRANCH  13  14
ATOM     14  C   UNL     1     -92.312 145.804 241.010  1.00  0.00    -0.000 C 
BRANCH  14  15
ATOM     15  C   UNL     1     -91.919 145.188 239.658  1.00  0.00    -0.000 C 
BRANCH  15  16
ATOM     16  C   UNL     1     -93.002 145.448 238.604  1.00  0.00    -0.000 C 
BRANCH  16  17
ATOM     17  C   UNL     1     -92.415 145.400 237.186  1.00  0.00    -0.000 C 
BRANCH  17  18
ATOM     18  C   UNL     1     -93.337 146.048 236.141  1.00  0.00    -0.000 C 
BRANCH  18  19
ATOM     19  C   UNL     1     -92.561 146.845 235.081  1.00  0.00    -0.003 C 
ATOM     20  C   UNL     1     -93.462 147.218 233.907  1.00  0.00     0.004 C 
ENDBRANCH  18  19
ENDBRANCH  17  18
ENDBRANCH  16  17
ENDBRANCH  15  16
ENDBRANCH  14  15
ENDBRANCH  13  14
ENDBRANCH  12  13
ENDBRANCH   1  12
TORSDOF 16
ENDMDL
MODEL 8
REMARK VINA RESULT:    -3.451      1.486      3.443
REMARK INTER + INTRA:          -8.779
REMARK INTER:                  -6.956
REMARK INTRA:                  -1.823
REMARK UNBOUND:                -2.100
REMARK SMILES CCCCCCCCCCCCCCCCCC(=O)[O-]
REMARK SMILES IDX 10 1 11 2 12 3 13 4 14 5 15 6 16 7 17 8 18 9 19 10 20 11
REMARK SMILES IDX 9 12 8 13 7 14 6 15 5 16 4 17 3 18 2 19 1 20
REMARK H PARENT
REMARK Flexibility Score: inf
ROOT
ATOM      1  C   UNL     1     -95.823 148.010 238.776  1.00  0.00     0.000 C 
ENDROOT
BRANCH   1   2
ATOM      2  C   UNL     1     -95.953 148.259 237.263  1.00  0.00     0.000 C 
BRANCH   2   3
ATOM      3  C   UNL     1     -94.727 148.978 236.676  1.00  0.00     0.000 C 
BRANCH   3   4
ATOM      4  C   UNL     1     -95.056 150.385 236.149  1.00  0.00     0.000 C 
BRANCH   4   5
ATOM      5  C   UNL     1     -95.452 151.356 237.282  1.00  0.00     0.000 C 
BRANCH   5   6
ATOM      6  C   UNL     1     -96.204 152.609 236.793  1.00  0.00     0.000 C 
BRANCH   6   7
ATOM      7  C   UNL     1     -97.393 153.032 237.672  1.00  0.00     0.006 C 
BRANCH   7   8
ATOM      8  C   UNL     1     -98.541 152.015 237.646  1.00  0.00     0.053 C 
BRANCH   8   9
ATOM      9  C   UNL     1     -98.807 151.494 239.024  1.00  0.00     0.041 C 
ATOM     10  O   UNL     1     -98.361 150.370 239.376  1.00  0.00    -0.550 OA
ATOM     11  O   UNL     1     -99.584 152.234 239.907  1.00  0.00    -0.550 OA
ENDBRANCH   8   9
ENDBRANCH   7   8
ENDBRANCH   6   7
ENDBRANCH   5   6
ENDBRANCH   4   5
ENDBRANCH   3   4
ENDBRANCH   2   3
ENDBRANCH   1   2
BRANCH   1  12
ATOM     12  C   UNL     1     -94.377 148.165 239.276  1.00  0.00     0.000 C 
BRANCH  12  13
ATOM     13  C   UNL     1     -93.725 146.815 239.624  1.00  0.00    -0.000 C 
BRANCH  13  14
ATOM     14  C   UNL     1     -92.885 146.877 240.909  1.00  0.00    -0.000 C 
BRANCH  14  15
ATOM     15  C   UNL     1     -93.676 147.411 242.113  1.00  0.00    -0.000 C 
BRANCH  15  16
ATOM     16  C   UNL     1     -94.696 146.375 242.601  1.00  0.00    -0.000 C 
BRANCH  16  17
ATOM     17  C   UNL     1     -96.089 147.002 242.756  1.00  0.00    -0.000 C 
BRANCH  17  18
ATOM     18  C   UNL     1     -96.083 148.521 242.524  1.00  0.00    -0.000 C 
BRANCH  18  19
ATOM     19  C   UNL     1     -96.979 149.274 243.520  1.00  0.00    -0.003 C 
ATOM     20  C   UNL     1     -97.364 148.380 244.696  1.00  0.00     0.004 C 
ENDBRANCH  18  19
ENDBRANCH  17  18
ENDBRANCH  16  17
ENDBRANCH  15  16
ENDBRANCH  14  15
ENDBRANCH  13  14
ENDBRANCH  12  13
ENDBRANCH   1  12
TORSDOF 16
ENDMDL
MODEL 9
REMARK VINA RESULT:    -3.438      1.246      3.132
REMARK INTER + INTRA:          -8.753
REMARK INTER:                  -6.358
REMARK INTRA:                  -2.395
REMARK UNBOUND:                -2.100
REMARK SMILES CCCCCCCCCCCCCCCCCC(=O)[O-]
REMARK SMILES IDX 10 1 11 2 12 3 13 4 14 5 15 6 16 7 17 8 18 9 19 10 20 11
REMARK SMILES IDX 9 12 8 13 7 14 6 15 5 16 4 17 3 18 2 19 1 20
REMARK H PARENT
REMARK Flexibility Score: inf
ROOT
ATOM      1  C   UNL     1     -96.637 147.335 237.894  1.00  0.00     0.000 C 
ENDROOT
BRANCH   1   2
ATOM      2  C   UNL     1     -97.024 147.907 236.518  1.00  0.00     0.000 C 
BRANCH   2   3
ATOM      3  C   UNL     1     -95.798 148.237 235.651  1.00  0.00     0.000 C 
BRANCH   3   4
ATOM      4  C   UNL     1     -95.751 149.713 235.220  1.00  0.00     0.000 C 
BRANCH   4   5
ATOM      5  C   UNL     1     -94.809 150.551 236.111  1.00  0.00     0.000 C 
BRANCH   5   6
ATOM      6  C   UNL     1     -95.542 151.570 237.004  1.00  0.00     0.000 C 
BRANCH   6   7
ATOM      7  C   UNL     1     -97.051 151.701 236.731  1.00  0.00     0.006 C 
BRANCH   7   8
ATOM      8  C   UNL     1     -97.423 153.045 236.091  1.00  0.00     0.053 C 
BRANCH   8   9
ATOM      9  C   UNL     1     -97.572 154.099 237.143  1.00  0.00     0.041 C 
ATOM     10  O   UNL     1     -96.659 154.947 237.327  1.00  0.00    -0.550 OA
ATOM     11  O   UNL     1     -98.703 154.118 237.950  1.00  0.00    -0.550 OA
ENDBRANCH   8   9
ENDBRANCH   7   8
ENDBRANCH   6   7
ENDBRANCH   5   6
ENDBRANCH   4   5
ENDBRANCH   3   4
ENDBRANCH   2   3
ENDBRANCH   1   2
BRANCH   1  12
ATOM     12  C   UNL     1     -96.164 148.424 238.872  1.00  0.00     0.000 C 
BRANCH  12  13
ATOM     13  C   UNL     1     -94.644 148.385 239.108  1.00  0.00    -0.000 C 
BRANCH  13  14
ATOM     14  C   UNL     1     -94.017 147.041 238.706  1.00  0.00    -0.000 C 
BRANCH  14  15
ATOM     15  C   UNL     1     -93.399 146.291 239.897  1.00  0.00    -0.000 C 
BRANCH  15  16
ATOM     16  C   UNL     1     -93.207 147.230 241.094  1.00  0.00    -0.000 C 
BRANCH  16  17
ATOM     17  C   UNL     1     -93.870 146.659 242.355  1.00  0.00    -0.000 C 
BRANCH  17  18
ATOM     18  C   UNL     1     -95.357 147.031 242.462  1.00  0.00    -0.000 C 
BRANCH  18  19
ATOM     19  C   UNL     1     -95.576 148.539 242.659  1.00  0.00    -0.003 C 
ATOM     20  C   UNL     1     -97.062 148.888 242.615  1.00  0.00     0.004 C 
ENDBRANCH  18  19
ENDBRANCH  17  18
ENDBRANCH  16  17
ENDBRANCH  15  16
ENDBRANCH  14  15
ENDBRANCH  13  14
ENDBRANCH  12  13
ENDBRANCH   1  12
TORSDOF 16
ENDMDL
