MODEL 1
REMARK VINA RESULT:    -4.515      0.000      0.000
REMARK INTER + INTRA:         -13.739
REMARK INTER:                  -9.793
REMARK INTRA:                  -3.946
REMARK UNBOUND:                -3.946
REMARK SMILES CCCCCCCCCCCCCCCCCCCCCC(=O)[O-]
REMARK SMILES IDX 12 1 11 2 10 3 9 4 8 5 7 6 6 7 5 8 4 9 3 10 2 11 1 12 13 13
REMARK SMILES IDX 14 14 15 15 16 16 17 17 18 18 19 19 20 20 21 21 22 22 23 23
REMARK SMILES IDX 24 24
REMARK H PARENT
REMARK Flexibility Score: inf
ROOT
ATOM      1  C   UNL     1      25.386  13.674 -12.823  1.00  0.00     0.000 C 
ENDROOT
BRANCH   1   2
ATOM      2  C   UNL     1      26.644  13.189 -13.557  1.00  0.00     0.000 C 
BRANCH   2   3
ATOM      3  C   UNL     1      27.747  12.707 -12.595  1.00  0.00     0.000 C 
BRANCH   3   4
ATOM      4  C   UNL     1      27.262  12.360 -11.173  1.00  0.00    -0.000 C 
BRANCH   4   5
ATOM      5  C   UNL     1      28.213  12.784 -10.036  1.00  0.00    -0.000 C 
BRANCH   5   6
ATOM      6  C   UNL     1      29.145  13.962 -10.374  1.00  0.00    -0.000 C 
BRANCH   6   7
ATOM      7  C   UNL     1      28.471  15.329 -10.176  1.00  0.00    -0.000 C 
BRANCH   7   8
ATOM      8  C   UNL     1      27.358  15.248  -9.124  1.00  0.00    -0.000 C 
BRANCH   8   9
ATOM      9  C   UNL     1      26.012  15.696  -9.716  1.00  0.00    -0.000 C 
BRANCH   9  10
ATOM     10  C   UNL     1      24.803  15.146  -8.937  1.00  0.00    -0.000 C 
BRANCH  10  11
ATOM     11  C   UNL     1      24.354  13.735  -9.355  1.00  0.00    -0.003 C 
ATOM     12  C   UNL     1      24.804  12.651  -8.376  1.00  0.00     0.004 C 
ENDBRANCH  10  11
ENDBRANCH   9  10
ENDBRANCH   8   9
ENDBRANCH   7   8
ENDBRANCH   6   7
ENDBRANCH   5   6
ENDBRANCH   4   5
ENDBRANCH   3   4
ENDBRANCH   2   3
ENDBRANCH   1   2
BRANCH   1  13
ATOM     13  C   UNL     1      24.972  15.072 -13.303  1.00  0.00     0.000 C 
BRANCH  13  14
ATOM     14  C   UNL     1      23.761  15.634 -12.536  1.00  0.00     0.000 C 
BRANCH  14  15
ATOM     15  C   UNL     1      23.379  17.073 -12.945  1.00  0.00     0.000 C 
BRANCH  15  16
ATOM     16  C   UNL     1      23.182  17.991 -11.725  1.00  0.00     0.000 C 
BRANCH  16  17
ATOM     17  C   UNL     1      24.517  18.418 -11.086  1.00  0.00     0.000 C 
BRANCH  17  18
ATOM     18  C   UNL     1      25.554  18.940 -12.099  1.00  0.00     0.000 C 
BRANCH  18  19
ATOM     19  C   UNL     1      26.819  18.065 -12.143  1.00  0.00     0.000 C 
BRANCH  19  20
ATOM     20  C   UNL     1      27.412  17.950 -13.555  1.00  0.00     0.006 C 
BRANCH  20  21
ATOM     21  C   UNL     1      26.423  18.366 -14.653  1.00  0.00     0.053 C 
BRANCH  21  22
ATOM     22  C   UNL     1      26.412  17.361 -15.764  1.00  0.00     0.041 C 
ATOM     23  O   UNL     1      27.496  16.917 -16.228  1.00  0.00    -0.550 OA
ATOM     24  O   UNL     1      25.203  16.932 -16.302  1.00  0.00    -0.550 OA
ENDBRANCH  21  22
ENDBRANCH  20  21
ENDBRANCH  19  20
ENDBRANCH  18  19
ENDBRANCH  17  18
ENDBRANCH  16  17
ENDBRANCH  15  16
ENDBRANCH  14  15
ENDBRANCH  13  14
ENDBRANCH   1  13
TORSDOF 20
ENDMDL
MODEL 2
REMARK VINA RESULT:    -4.496      2.434      5.074
REMARK INTER + INTRA:         -13.698
REMARK INTER:                 -10.492
REMARK INTRA:                  -3.206
REMARK UNBOUND:                -3.946
REMARK SMILES CCCCCCCCCCCCCCCCCCCCCC(=O)[O-]
REMARK SMILES IDX 12 1 11 2 10 3 9 4 8 5 7 6 6 7 5 8 4 9 3 10 2 11 1 12 13 13
REMARK SMILES IDX 14 14 15 15 16 16 17 17 18 18 19 19 20 20 21 21 22 22 23 23
REMARK SMILES IDX 24 24
REMARK H PARENT
REMARK Flexibility Score: inf
ROOT
ATOM      1  C   UNL     1      28.070  14.177  -8.865  1.00  0.00     0.000 C 
ENDROOT
BRANCH   1   2
ATOM      2  C   UNL     1      29.053  14.498  -9.999  1.00  0.00     0.000 C 
BRANCH   2   3
ATOM      3  C   UNL     1      29.219  13.331 -10.991  1.00  0.00     0.000 C 
BRANCH   3   4
ATOM      4  C   UNL     1      27.903  12.651 -11.419  1.00  0.00    -0.000 C 
BRANCH   4   5
ATOM      5  C   UNL     1      27.507  12.862 -12.894  1.00  0.00    -0.000 C 
BRANCH   5   6
ATOM      6  C   UNL     1      26.074  13.378 -13.114  1.00  0.00    -0.000 C 
BRANCH   6   7
ATOM      7  C   UNL     1      25.904  14.107 -14.456  1.00  0.00    -0.000 C 
BRANCH   7   8
ATOM      8  C   UNL     1      24.933  15.286 -14.324  1.00  0.00    -0.000 C 
BRANCH   8   9
ATOM      9  C   UNL     1      25.189  16.332 -15.421  1.00  0.00    -0.000 C 
BRANCH   9  10
ATOM     10  C   UNL     1      26.635  16.304 -15.950  1.00  0.00    -0.000 C 
BRANCH  10  11
ATOM     11  C   UNL     1      27.209  17.680 -16.333  1.00  0.00    -0.003 C 
ATOM     12  C   UNL     1      28.245  18.193 -15.333  1.00  0.00     0.004 C 
ENDBRANCH  10  11
ENDBRANCH   9  10
ENDBRANCH   8   9
ENDBRANCH   7   8
ENDBRANCH   6   7
ENDBRANCH   5   6
ENDBRANCH   4   5
ENDBRANCH   3   4
ENDBRANCH   2   3
ENDBRANCH   1   2
BRANCH   1  13
ATOM     13  C   UNL     1      26.982  15.255  -8.757  1.00  0.00     0.000 C 
BRANCH  13  14
ATOM     14  C   UNL     1      25.896  15.120  -9.839  1.00  0.00     0.000 C 
BRANCH  14  15
ATOM     15  C   UNL     1      25.613  16.431 -10.603  1.00  0.00     0.000 C 
BRANCH  15  16
ATOM     16  C   UNL     1      26.742  16.786 -11.588  1.00  0.00     0.000 C 
BRANCH  16  17
ATOM     17  C   UNL     1      26.603  18.211 -12.157  1.00  0.00     0.000 C 
BRANCH  17  18
ATOM     18  C   UNL     1      25.145  18.695 -12.274  1.00  0.00     0.000 C 
BRANCH  18  19
ATOM     19  C   UNL     1      24.873  19.408 -13.611  1.00  0.00     0.000 C 
BRANCH  19  20
ATOM     20  C   UNL     1      23.375  19.628 -13.873  1.00  0.00     0.006 C 
BRANCH  20  21
ATOM     21  C   UNL     1      23.101  20.322 -15.215  1.00  0.00     0.053 C 
BRANCH  21  22
ATOM     22  C   UNL     1      23.239  21.807 -15.080  1.00  0.00     0.041 C 
ATOM     23  O   UNL     1      22.219  22.527 -14.913  1.00  0.00    -0.550 OA
ATOM     24  O   UNL     1      24.495  22.399 -15.161  1.00  0.00    -0.550 OA
ENDBRANCH  21  22
ENDBRANCH  20  21
ENDBRANCH  19  20
ENDBRANCH  18  19
ENDBRANCH  17  18
ENDBRANCH  16  17
ENDBRANCH  15  16
ENDBRANCH  14  15
ENDBRANCH  13  14
ENDBRANCH   1  13
TORSDOF 20
ENDMDL
MODEL 3
REMARK VINA RESULT:    -4.484      2.960      6.103
REMARK INTER + INTRA:         -13.674
REMARK INTER:                 -10.012
REMARK INTRA:                  -3.662
REMARK UNBOUND:                -3.946
REMARK SMILES CCCCCCCCCCCCCCCCCCCCCC(=O)[O-]
REMARK SMILES IDX 12 1 11 2 10 3 9 4 8 5 7 6 6 7 5 8 4 9 3 10 2 11 1 12 13 13
REMARK SMILES IDX 14 14 15 15 16 16 17 17 18 18 19 19 20 20 21 21 22 22 23 23
REMARK SMILES IDX 24 24
REMARK H PARENT
REMARK Flexibility Score: inf
ROOT
ATOM      1  C   UNL     1      28.837  13.396 -10.298  1.00  0.00     0.000 C 
ENDROOT
BRANCH   1   2
ATOM      2  C   UNL     1      28.561  14.858  -9.917  1.00  0.00     0.000 C 
BRANCH   2   3
ATOM      3  C   UNL     1      27.654  14.990  -8.679  1.00  0.00     0.000 C 
BRANCH   3   4
ATOM      4  C   UNL     1      26.247  15.552  -8.961  1.00  0.00    -0.000 C 
BRANCH   4   5
ATOM      5  C   UNL     1      25.964  15.899 -10.436  1.00  0.00    -0.000 C 
BRANCH   5   6
ATOM      6  C   UNL     1      25.211  17.222 -10.660  1.00  0.00    -0.000 C 
BRANCH   6   7
ATOM      7  C   UNL     1      25.939  18.164 -11.631  1.00  0.00    -0.000 C 
BRANCH   7   8
ATOM      8  C   UNL     1      26.916  17.390 -12.524  1.00  0.00    -0.000 C 
BRANCH   8   9
ATOM      9  C   UNL     1      26.506  17.492 -14.001  1.00  0.00    -0.000 C 
BRANCH   9  10
ATOM     10  C   UNL     1      25.126  16.872 -14.284  1.00  0.00    -0.000 C 
BRANCH  10  11
ATOM     11  C   UNL     1      25.020  15.367 -13.979  1.00  0.00    -0.003 C 
ATOM     12  C   UNL     1      26.085  14.537 -14.695  1.00  0.00     0.004 C 
ENDBRANCH  10  11
ENDBRANCH   9  10
ENDBRANCH   8   9
ENDBRANCH   7   8
ENDBRANCH   6   7
ENDBRANCH   5   6
ENDBRANCH   4   5
ENDBRANCH   3   4
ENDBRANCH   2   3
ENDBRANCH   1   2
BRANCH   1  13
ATOM     13  C   UNL     1      28.214  13.053 -11.658  1.00  0.00     0.000 C 
BRANCH  13  14
ATOM     14  C   UNL     1      26.746  12.603 -11.547  1.00  0.00     0.000 C 
BRANCH  14  15
ATOM     15  C   UNL     1      26.392  11.964 -10.187  1.00  0.00     0.000 C 
BRANCH  15  16
ATOM     16  C   UNL     1      24.880  12.007  -9.900  1.00  0.00     0.000 C 
BRANCH  16  17
ATOM     17  C   UNL     1      24.567  12.376  -8.437  1.00  0.00     0.000 C 
BRANCH  17  18
ATOM     18  C   UNL     1      23.390  13.355  -8.278  1.00  0.00     0.000 C 
BRANCH  18  19
ATOM     19  C   UNL     1      22.586  13.516  -9.581  1.00  0.00     0.000 C 
BRANCH  19  20
ATOM     20  C   UNL     1      22.336  14.987  -9.947  1.00  0.00     0.006 C 
BRANCH  20  21
ATOM     21  C   UNL     1      22.142  15.883  -8.714  1.00  0.00     0.053 C 
BRANCH  21  22
ATOM     22  C   UNL     1      21.047  16.877  -8.951  1.00  0.00     0.041 C 
ATOM     23  O   UNL     1      20.052  16.568  -9.659  1.00  0.00    -0.550 OA
ATOM     24  O   UNL     1      21.137  18.154  -8.407  1.00  0.00    -0.550 OA
ENDBRANCH  21  22
ENDBRANCH  20  21
ENDBRANCH  19  20
ENDBRANCH  18  19
ENDBRANCH  17  18
ENDBRANCH  16  17
ENDBRANCH  15  16
ENDBRANCH  14  15
ENDBRANCH  13  14
ENDBRANCH   1  13
TORSDOF 20
ENDMDL
MODEL 4
REMARK VINA RESULT:    -4.478      4.327      6.604
REMARK INTER + INTRA:         -13.660
REMARK INTER:                 -10.509
REMARK INTRA:                  -3.151
REMARK UNBOUND:                -3.946
REMARK SMILES CCCCCCCCCCCCCCCCCCCCCC(=O)[O-]
REMARK SMILES IDX 12 1 11 2 10 3 9 4 8 5 7 6 6 7 5 8 4 9 3 10 2 11 1 12 13 13
REMARK SMILES IDX 14 14 15 15 16 16 17 17 18 18 19 19 20 20 21 21 22 22 23 23
REMARK SMILES IDX 24 24
REMARK H PARENT
REMARK Flexibility Score: inf
ROOT
ATOM      1  C   UNL     1      28.581  15.065  -9.279  1.00  0.00     0.000 C 
ENDROOT
BRANCH   1   2
ATOM      2  C   UNL     1      29.003  14.451 -10.621  1.00  0.00     0.000 C 
BRANCH   2   3
ATOM      3  C   UNL     1      28.545  12.989 -10.778  1.00  0.00     0.000 C 
BRANCH   3   4
ATOM      4  C   UNL     1      27.816  12.676 -12.101  1.00  0.00    -0.000 C 
BRANCH   4   5
ATOM      5  C   UNL     1      26.661  13.634 -12.454  1.00  0.00    -0.000 C 
BRANCH   5   6
ATOM      6  C   UNL     1      26.250  13.637 -13.937  1.00  0.00    -0.000 C 
BRANCH   6   7
ATOM      7  C   UNL     1      25.555  14.941 -14.359  1.00  0.00    -0.000 C 
BRANCH   7   8
ATOM      8  C   UNL     1      24.604  15.439 -13.264  1.00  0.00    -0.000 C 
BRANCH   8   9
ATOM      9  C   UNL     1      24.162  16.885 -13.537  1.00  0.00    -0.000 C 
BRANCH   9  10
ATOM     10  C   UNL     1      25.310  17.900 -13.387  1.00  0.00    -0.000 C 
BRANCH  10  11
ATOM     11  C   UNL     1      25.997  17.898 -12.010  1.00  0.00    -0.003 C 
ATOM     12  C   UNL     1      27.482  17.542 -12.084  1.00  0.00     0.004 C 
ENDBRANCH  10  11
ENDBRANCH   9  10
ENDBRANCH   8   9
ENDBRANCH   7   8
ENDBRANCH   6   7
ENDBRANCH   5   6
ENDBRANCH   4   5
ENDBRANCH   3   4
ENDBRANCH   2   3
ENDBRANCH   1   2
BRANCH   1  13
ATOM     13  C   UNL     1      27.203  14.548  -8.844  1.00  0.00     0.000 C 
BRANCH  13  14
ATOM     14  C   UNL     1      26.059  15.508  -9.213  1.00  0.00     0.000 C 
BRANCH  14  15
ATOM     15  C   UNL     1      24.726  14.796  -9.526  1.00  0.00     0.000 C 
BRANCH  15  16
ATOM     16  C   UNL     1      23.584  15.792  -9.798  1.00  0.00     0.000 C 
BRANCH  16  17
ATOM     17  C   UNL     1      23.825  17.162  -9.135  1.00  0.00     0.000 C 
BRANCH  17  18
ATOM     18  C   UNL     1      22.805  17.510  -8.035  1.00  0.00     0.000 C 
BRANCH  18  19
ATOM     19  C   UNL     1      21.625  16.523  -7.999  1.00  0.00     0.000 C 
BRANCH  19  20
ATOM     20  C   UNL     1      20.261  17.223  -8.104  1.00  0.00     0.006 C 
BRANCH  20  21
ATOM     21  C   UNL     1      20.192  18.518  -7.281  1.00  0.00     0.053 C 
BRANCH  21  22
ATOM     22  C   UNL     1      19.848  18.220  -5.855  1.00  0.00     0.041 C 
ATOM     23  O   UNL     1      20.400  18.862  -4.921  1.00  0.00    -0.550 OA
ATOM     24  O   UNL     1      18.932  17.217  -5.555  1.00  0.00    -0.550 OA
ENDBRANCH  21  22
ENDBRANCH  20  21
ENDBRANCH  19  20
ENDBRANCH  18  19
ENDBRANCH  17  18
ENDBRANCH  16  17
ENDBRANCH  15  16
ENDBRANCH  14  15
ENDBRANCH  13  14
ENDBRANCH   1  13
TORSDOF 20
ENDMDL
MODEL 5
REMARK VINA RESULT:    -4.459      1.464      2.858
REMARK INTER + INTRA:         -13.619
REMARK INTER:                  -9.661
REMARK INTRA:                  -3.958
REMARK UNBOUND:                -3.946
REMARK SMILES CCCCCCCCCCCCCCCCCCCCCC(=O)[O-]
REMARK SMILES IDX 12 1 11 2 10 3 9 4 8 5 7 6 6 7 5 8 4 9 3 10 2 11 1 12 13 13
REMARK SMILES IDX 14 14 15 15 16 16 17 17 18 18 19 19 20 20 21 21 22 22 23 23
REMARK SMILES IDX 24 24
REMARK H PARENT
REMARK Flexibility Score: inf
ROOT
ATOM      1  C   UNL     1      27.153  12.825 -13.290  1.00  0.00     0.000 C 
ENDROOT
BRANCH   1   2
ATOM      2  C   UNL     1      27.411  12.705 -11.781  1.00  0.00     0.000 C 
BRANCH   2   3
ATOM      3  C   UNL     1      28.864  13.042 -11.397  1.00  0.00     0.000 C 
BRANCH   3   4
ATOM      4  C   UNL     1      29.013  14.083 -10.269  1.00  0.00    -0.000 C 
BRANCH   4   5
ATOM      5  C   UNL     1      28.011  13.934  -9.106  1.00  0.00    -0.000 C 
BRANCH   5   6
ATOM      6  C   UNL     1      27.240  15.216  -8.746  1.00  0.00    -0.000 C 
BRANCH   6   7
ATOM      7  C   UNL     1      25.770  15.170  -9.191  1.00  0.00    -0.000 C 
BRANCH   7   8
ATOM      8  C   UNL     1      25.208  13.746  -9.093  1.00  0.00    -0.000 C 
BRANCH   8   9
ATOM      9  C   UNL     1      24.130  13.508 -10.163  1.00  0.00    -0.000 C 
BRANCH   9  10
ATOM     10  C   UNL     1      22.834  14.292  -9.891  1.00  0.00    -0.000 C 
BRANCH  10  11
ATOM     11  C   UNL     1      22.474  15.335 -10.965  1.00  0.00    -0.003 C 
ATOM     12  C   UNL     1      21.251  16.174 -10.595  1.00  0.00     0.004 C 
ENDBRANCH  10  11
ENDBRANCH   9  10
ENDBRANCH   8   9
ENDBRANCH   7   8
ENDBRANCH   6   7
ENDBRANCH   5   6
ENDBRANCH   4   5
ENDBRANCH   3   4
ENDBRANCH   2   3
ENDBRANCH   1   2
BRANCH   1  13
ATOM     13  C   UNL     1      25.771  13.433 -13.567  1.00  0.00     0.000 C 
BRANCH  13  14
ATOM     14  C   UNL     1      25.832  14.934 -13.900  1.00  0.00     0.000 C 
BRANCH  14  15
ATOM     15  C   UNL     1      25.592  15.852 -12.682  1.00  0.00     0.000 C 
BRANCH  15  16
ATOM     16  C   UNL     1      26.802  16.758 -12.389  1.00  0.00     0.000 C 
BRANCH  16  17
ATOM     17  C   UNL     1      26.387  18.138 -11.844  1.00  0.00     0.000 C 
BRANCH  17  18
ATOM     18  C   UNL     1      24.952  18.182 -11.286  1.00  0.00     0.000 C 
BRANCH  18  19
ATOM     19  C   UNL     1      24.080  19.230 -12.000  1.00  0.00     0.000 C 
BRANCH  19  20
ATOM     20  C   UNL     1      22.923  18.599 -12.790  1.00  0.00     0.006 C 
BRANCH  20  21
ATOM     21  C   UNL     1      22.947  18.971 -14.280  1.00  0.00     0.053 C 
BRANCH  21  22
ATOM     22  C   UNL     1      23.866  18.062 -15.037  1.00  0.00     0.041 C 
ATOM     23  O   UNL     1      25.071  18.383 -15.215  1.00  0.00    -0.550 OA
ATOM     24  O   UNL     1      23.384  16.869 -15.565  1.00  0.00    -0.550 OA
ENDBRANCH  21  22
ENDBRANCH  20  21
ENDBRANCH  19  20
ENDBRANCH  18  19
ENDBRANCH  17  18
ENDBRANCH  16  17
ENDBRANCH  15  16
ENDBRANCH  14  15
ENDBRANCH  13  14
ENDBRANCH   1  13
TORSDOF 20
ENDMDL
MODEL 6
REMARK VINA RESULT:    -4.455      2.830      6.631
REMARK INTER + INTRA:         -13.609
REMARK INTER:                  -9.690
REMARK INTRA:                  -3.918
REMARK UNBOUND:                -3.946
REMARK SMILES CCCCCCCCCCCCCCCCCCCCCC(=O)[O-]
REMARK SMILES IDX 12 1 11 2 10 3 9 4 8 5 7 6 6 7 5 8 4 9 3 10 2 11 1 12 13 13
REMARK SMILES IDX 14 14 15 15 16 16 17 17 18 18 19 19 20 20 21 21 22 22 23 23
REMARK SMILES IDX 24 24
REMARK H PARENT
REMARK Flexibility Score: inf
ROOT
ATOM      1  C   UNL     1      25.053  17.554 -10.561  1.00  0.00     0.000 C 
ENDROOT
BRANCH   1   2
ATOM      2  C   UNL     1      25.647  18.543 -11.574  1.00  0.00     0.000 C 
BRANCH   2   3
ATOM      3  C   UNL     1      26.761  17.918 -12.435  1.00  0.00     0.000 C 
BRANCH   3   4
ATOM      4  C   UNL     1      26.356  17.595 -13.887  1.00  0.00    -0.000 C 
BRANCH   4   5
ATOM      5  C   UNL     1      26.277  16.092 -14.225  1.00  0.00    -0.000 C 
BRANCH   5   6
ATOM      6  C   UNL     1      24.855  15.506 -14.252  1.00  0.00    -0.000 C 
BRANCH   6   7
ATOM      7  C   UNL     1      23.787  16.553 -14.607  1.00  0.00    -0.000 C 
BRANCH   7   8
ATOM      8  C   UNL     1      22.889  16.856 -13.402  1.00  0.00    -0.000 C 
BRANCH   8   9
ATOM      9  C   UNL     1      22.277  18.261 -13.514  1.00  0.00    -0.000 C 
BRANCH   9  10
ATOM     10  C   UNL     1      22.956  19.125 -14.592  1.00  0.00    -0.000 C 
BRANCH  10  11
ATOM     11  C   UNL     1      23.743  20.333 -14.050  1.00  0.00    -0.003 C 
ATOM     12  C   UNL     1      24.462  21.117 -15.148  1.00  0.00     0.004 C 
ENDBRANCH  10  11
ENDBRANCH   9  10
ENDBRANCH   8   9
ENDBRANCH   7   8
ENDBRANCH   6   7
ENDBRANCH   5   6
ENDBRANCH   4   5
ENDBRANCH   3   4
ENDBRANCH   2   3
ENDBRANCH   1   2
BRANCH   1  13
ATOM     13  C   UNL     1      25.773  16.200 -10.624  1.00  0.00     0.000 C 
BRANCH  13  14
ATOM     14  C   UNL     1      25.983  15.568  -9.237  1.00  0.00     0.000 C 
BRANCH  14  15
ATOM     15  C   UNL     1      27.459  15.249  -8.916  1.00  0.00     0.000 C 
BRANCH  15  16
ATOM     16  C   UNL     1      28.386  15.508 -10.118  1.00  0.00     0.000 C 
BRANCH  16  17
ATOM     17  C   UNL     1      29.385  14.359 -10.351  1.00  0.00     0.000 C 
BRANCH  17  18
ATOM     18  C   UNL     1      28.724  13.035 -10.778  1.00  0.00     0.000 C 
BRANCH  18  19
ATOM     19  C   UNL     1      27.747  13.223 -11.953  1.00  0.00     0.000 C 
BRANCH  19  20
ATOM     20  C   UNL     1      26.351  12.651 -11.662  1.00  0.00     0.006 C 
BRANCH  20  21
ATOM     21  C   UNL     1      26.258  11.978 -10.285  1.00  0.00     0.053 C 
BRANCH  21  22
ATOM     22  C   UNL     1      24.874  12.105  -9.727  1.00  0.00     0.041 C 
ATOM     23  O   UNL     1      24.661  11.889  -8.504  1.00  0.00    -0.550 OA
ATOM     24  O   UNL     1      23.815  12.440 -10.563  1.00  0.00    -0.550 OA
ENDBRANCH  21  22
ENDBRANCH  20  21
ENDBRANCH  19  20
ENDBRANCH  18  19
ENDBRANCH  17  18
ENDBRANCH  16  17
ENDBRANCH  15  16
ENDBRANCH  14  15
ENDBRANCH  13  14
ENDBRANCH   1  13
TORSDOF 20
ENDMDL
MODEL 7
REMARK VINA RESULT:    -4.413      4.808      6.977
REMARK INTER + INTRA:         -13.518
REMARK INTER:                 -10.773
REMARK INTRA:                  -2.745
REMARK UNBOUND:                -3.946
REMARK SMILES CCCCCCCCCCCCCCCCCCCCCC(=O)[O-]
REMARK SMILES IDX 12 1 11 2 10 3 9 4 8 5 7 6 6 7 5 8 4 9 3 10 2 11 1 12 13 13
REMARK SMILES IDX 14 14 15 15 16 16 17 17 18 18 19 19 20 20 21 21 22 22 23 23
REMARK SMILES IDX 24 24
REMARK H PARENT
REMARK Flexibility Score: inf
ROOT
ATOM      1  C   UNL     1      26.612  15.254  -9.123  1.00  0.00     0.000 C 
ENDROOT
BRANCH   1   2
ATOM      2  C   UNL     1      27.940  14.496  -8.979  1.00  0.00     0.000 C 
BRANCH   2   3
ATOM      3  C   UNL     1      28.857  14.662 -10.205  1.00  0.00     0.000 C 
BRANCH   3   4
ATOM      4  C   UNL     1      29.093  13.374 -11.019  1.00  0.00    -0.000 C 
BRANCH   4   5
ATOM      5  C   UNL     1      27.813  12.635 -11.460  1.00  0.00    -0.000 C 
BRANCH   5   6
ATOM      6  C   UNL     1      27.223  13.103 -12.802  1.00  0.00    -0.000 C 
BRANCH   6   7
ATOM      7  C   UNL     1      25.812  13.693 -12.658  1.00  0.00    -0.000 C 
BRANCH   7   8
ATOM      8  C   UNL     1      25.849  15.226 -12.685  1.00  0.00    -0.000 C 
BRANCH   8   9
ATOM      9  C   UNL     1      24.434  15.806 -12.835  1.00  0.00    -0.000 C 
BRANCH   9  10
ATOM     10  C   UNL     1      24.428  17.338 -12.988  1.00  0.00    -0.000 C 
BRANCH  10  11
ATOM     11  C   UNL     1      25.716  18.038 -12.517  1.00  0.00    -0.003 C 
ATOM     12  C   UNL     1      25.467  19.061 -11.409  1.00  0.00     0.004 C 
ENDBRANCH  10  11
ENDBRANCH   9  10
ENDBRANCH   8   9
ENDBRANCH   7   8
ENDBRANCH   6   7
ENDBRANCH   5   6
ENDBRANCH   4   5
ENDBRANCH   3   4
ENDBRANCH   2   3
ENDBRANCH   1   2
BRANCH   1  13
ATOM     13  C   UNL     1      25.421  14.287  -9.114  1.00  0.00     0.000 C 
BRANCH  13  14
ATOM     14  C   UNL     1      24.063  15.008  -9.196  1.00  0.00     0.000 C 
BRANCH  14  15
ATOM     15  C   UNL     1      24.169  16.545  -9.106  1.00  0.00     0.000 C 
BRANCH  15  16
ATOM     16  C   UNL     1      22.793  17.230  -9.192  1.00  0.00     0.000 C 
BRANCH  16  17
ATOM     17  C   UNL     1      21.869  16.847  -8.019  1.00  0.00     0.000 C 
BRANCH  17  18
ATOM     18  C   UNL     1      20.456  17.450  -8.117  1.00  0.00     0.000 C 
BRANCH  18  19
ATOM     19  C   UNL     1      19.518  16.921  -7.017  1.00  0.00     0.000 C 
BRANCH  19  20
ATOM     20  C   UNL     1      19.363  17.904  -5.845  1.00  0.00     0.006 C 
BRANCH  20  21
ATOM     21  C   UNL     1      19.786  19.335  -6.209  1.00  0.00     0.053 C 
BRANCH  21  22
ATOM     22  C   UNL     1      18.585  20.193  -6.458  1.00  0.00     0.041 C 
ATOM     23  O   UNL     1      18.050  20.220  -7.599  1.00  0.00    -0.550 OA
ATOM     24  O   UNL     1      18.069  20.983  -5.436  1.00  0.00    -0.550 OA
ENDBRANCH  21  22
ENDBRANCH  20  21
ENDBRANCH  19  20
ENDBRANCH  18  19
ENDBRANCH  17  18
ENDBRANCH  16  17
ENDBRANCH  15  16
ENDBRANCH  14  15
ENDBRANCH  13  14
ENDBRANCH   1  13
TORSDOF 20
ENDMDL
MODEL 8
REMARK VINA RESULT:    -4.379      3.651      5.645
REMARK INTER + INTRA:         -13.445
REMARK INTER:                  -9.721
REMARK INTRA:                  -3.724
REMARK UNBOUND:                -3.946
REMARK SMILES CCCCCCCCCCCCCCCCCCCCCC(=O)[O-]
REMARK SMILES IDX 12 1 11 2 10 3 9 4 8 5 7 6 6 7 5 8 4 9 3 10 2 11 1 12 13 13
REMARK SMILES IDX 14 14 15 15 16 16 17 17 18 18 19 19 20 20 21 21 22 22 23 23
REMARK SMILES IDX 24 24
REMARK H PARENT
REMARK Flexibility Score: inf
ROOT
ATOM      1  C   UNL     1      26.000  17.580 -11.375  1.00  0.00     0.000 C 
ENDROOT
BRANCH   1   2
ATOM      2  C   UNL     1      26.141  17.009 -12.793  1.00  0.00     0.000 C 
BRANCH   2   3
ATOM      3  C   UNL     1      25.999  15.476 -12.835  1.00  0.00     0.000 C 
BRANCH   3   4
ATOM      4  C   UNL     1      25.654  14.818 -11.484  1.00  0.00    -0.000 C 
BRANCH   4   5
ATOM      5  C   UNL     1      25.152  13.363 -11.574  1.00  0.00    -0.000 C 
BRANCH   5   6
ATOM      6  C   UNL     1      25.019  12.637 -10.224  1.00  0.00    -0.000 C 
BRANCH   6   7
ATOM      7  C   UNL     1      25.510  13.487  -9.041  1.00  0.00    -0.000 C 
BRANCH   7   8
ATOM      8  C   UNL     1      26.454  12.683  -8.139  1.00  0.00    -0.000 C 
BRANCH   8   9
ATOM      9  C   UNL     1      27.917  12.876  -8.567  1.00  0.00    -0.000 C 
BRANCH   9  10
ATOM     10  C   UNL     1      28.242  14.331  -8.951  1.00  0.00    -0.000 C 
BRANCH  10  11
ATOM     11  C   UNL     1      29.143  14.485 -10.190  1.00  0.00    -0.003 C 
ATOM     12  C   UNL     1      29.177  13.230 -11.063  1.00  0.00     0.004 C 
ENDBRANCH  10  11
ENDBRANCH   9  10
ENDBRANCH   8   9
ENDBRANCH   7   8
ENDBRANCH   6   7
ENDBRANCH   5   6
ENDBRANCH   4   5
ENDBRANCH   3   4
ENDBRANCH   2   3
ENDBRANCH   1   2
BRANCH   1  13
ATOM     13  C   UNL     1      25.005  18.747 -11.346  1.00  0.00     0.000 C 
BRANCH  13  14
ATOM     14  C   UNL     1      24.086  18.782 -12.580  1.00  0.00     0.000 C 
BRANCH  14  15
ATOM     15  C   UNL     1      22.624  18.388 -12.278  1.00  0.00     0.000 C 
BRANCH  15  16
ATOM     16  C   UNL     1      22.430  16.861 -12.232  1.00  0.00     0.000 C 
BRANCH  16  17
ATOM     17  C   UNL     1      21.581  16.411 -11.028  1.00  0.00     0.000 C 
BRANCH  17  18
ATOM     18  C   UNL     1      22.260  15.342 -10.151  1.00  0.00     0.000 C 
BRANCH  18  19
ATOM     19  C   UNL     1      22.732  15.910  -8.800  1.00  0.00     0.000 C 
BRANCH  19  20
ATOM     20  C   UNL     1      22.504  17.424  -8.680  1.00  0.00     0.006 C 
BRANCH  20  21
ATOM     21  C   UNL     1      21.878  17.827  -7.336  1.00  0.00     0.053 C 
BRANCH  21  22
ATOM     22  C   UNL     1      20.384  17.856  -7.437  1.00  0.00     0.041 C 
ATOM     23  O   UNL     1      19.788  18.927  -7.731  1.00  0.00    -0.550 OA
ATOM     24  O   UNL     1      19.647  16.704  -7.183  1.00  0.00    -0.550 OA
ENDBRANCH  21  22
ENDBRANCH  20  21
ENDBRANCH  19  20
ENDBRANCH  18  19
ENDBRANCH  17  18
ENDBRANCH  16  17
ENDBRANCH  15  16
ENDBRANCH  14  15
ENDBRANCH  13  14
ENDBRANCH   1  13
TORSDOF 20
ENDMDL
MODEL 9
REMARK VINA RESULT:    -4.370      3.772      6.205
REMARK INTER + INTRA:         -13.426
REMARK INTER:                 -10.021
REMARK INTRA:                  -3.404
REMARK UNBOUND:                -3.946
REMARK SMILES CCCCCCCCCCCCCCCCCCCCCC(=O)[O-]
REMARK SMILES IDX 12 1 11 2 10 3 9 4 8 5 7 6 6 7 5 8 4 9 3 10 2 11 1 12 13 13
REMARK SMILES IDX 14 14 15 15 16 16 17 17 18 18 19 19 20 20 21 21 22 22 23 23
REMARK SMILES IDX 24 24
REMARK H PARENT
REMARK Flexibility Score: inf
ROOT
ATOM      1  C   UNL     1      28.499  14.721 -10.633  1.00  0.00     0.000 C 
ENDROOT
BRANCH   1   2
ATOM      2  C   UNL     1      28.735  13.250 -11.007  1.00  0.00     0.000 C 
BRANCH   2   3
ATOM      3  C   UNL     1      27.511  12.602 -11.680  1.00  0.00     0.000 C 
BRANCH   3   4
ATOM      4  C   UNL     1      27.330  12.952 -13.171  1.00  0.00    -0.000 C 
BRANCH   4   5
ATOM      5  C   UNL     1      25.892  13.322 -13.586  1.00  0.00    -0.000 C 
BRANCH   5   6
ATOM      6  C   UNL     1      25.723  14.747 -14.141  1.00  0.00    -0.000 C 
BRANCH   6   7
ATOM      7  C   UNL     1      26.424  15.809 -13.279  1.00  0.00    -0.000 C 
BRANCH   7   8
ATOM      8  C   UNL     1      25.644  17.129 -13.287  1.00  0.00    -0.000 C 
BRANCH   8   9
ATOM      9  C   UNL     1      26.326  18.174 -12.390  1.00  0.00    -0.000 C 
BRANCH   9  10
ATOM     10  C   UNL     1      25.324  18.988 -11.551  1.00  0.00    -0.000 C 
BRANCH  10  11
ATOM     11  C   UNL     1      24.088  18.200 -11.078  1.00  0.00    -0.003 C 
ATOM     12  C   UNL     1      22.803  18.624 -11.790  1.00  0.00     0.004 C 
ENDBRANCH  10  11
ENDBRANCH   9  10
ENDBRANCH   8   9
ENDBRANCH   7   8
ENDBRANCH   6   7
ENDBRANCH   5   6
ENDBRANCH   4   5
ENDBRANCH   3   4
ENDBRANCH   2   3
ENDBRANCH   1   2
BRANCH   1  13
ATOM     13  C   UNL     1      28.320  14.884  -9.118  1.00  0.00     0.000 C 
BRANCH  13  14
ATOM     14  C   UNL     1      26.842  14.899  -8.687  1.00  0.00     0.000 C 
BRANCH  14  15
ATOM     15  C   UNL     1      25.869  15.295  -9.818  1.00  0.00     0.000 C 
BRANCH  15  16
ATOM     16  C   UNL     1      24.754  14.252 -10.017  1.00  0.00     0.000 C 
BRANCH  16  17
ATOM     17  C   UNL     1      23.646  14.748 -10.967  1.00  0.00     0.000 C 
BRANCH  17  18
ATOM     18  C   UNL     1      22.252  14.817 -10.316  1.00  0.00     0.000 C 
BRANCH  18  19
ATOM     19  C   UNL     1      22.297  15.423  -8.902  1.00  0.00     0.000 C 
BRANCH  19  20
ATOM     20  C   UNL     1      21.505  16.734  -8.792  1.00  0.00     0.006 C 
BRANCH  20  21
ATOM     21  C   UNL     1      21.957  17.607  -7.612  1.00  0.00     0.053 C 
BRANCH  21  22
ATOM     22  C   UNL     1      20.793  17.959  -6.738  1.00  0.00     0.041 C 
ATOM     23  O   UNL     1      19.632  17.574  -7.042  1.00  0.00    -0.550 OA
ATOM     24  O   UNL     1      20.987  18.733  -5.599  1.00  0.00    -0.550 OA
ENDBRANCH  21  22
ENDBRANCH  20  21
ENDBRANCH  19  20
ENDBRANCH  18  19
ENDBRANCH  17  18
ENDBRANCH  16  17
ENDBRANCH  15  16
ENDBRANCH  14  15
ENDBRANCH  13  14
ENDBRANCH   1  13
TORSDOF 20
ENDMDL
