MODEL 1
REMARK VINA RESULT:    -3.164      0.000      0.000
REMARK INTER + INTRA:         -14.297
REMARK INTER:                  -8.344
REMARK INTRA:                  -5.954
REMARK UNBOUND:                -5.954
REMARK SMILES CCCCCCCCCCCCCCCCCCCCCCCCCCCCCC(=O)[O-]
REMARK SMILES IDX 16 1 17 2 18 3 19 4 20 5 21 6 22 7 23 8 24 9 25 10 26 11
REMARK SMILES IDX 27 12 28 13 29 14 30 15 31 16 32 17 15 18 14 19 13 20 12 21
REMARK SMILES IDX 11 22 10 23 9 24 8 25 7 26 6 27 5 28 4 29 3 30 2 31 1 32
REMARK H PARENT
REMARK Flexibility Score: inf
ROOT
ATOM      1  C   UNL     1      48.347  32.444  86.775  1.00  0.00     0.000 C 
ENDROOT
BRANCH   1   2
ATOM      2  C   UNL     1      47.849  32.584  88.224  1.00  0.00     0.000 C 
BRANCH   2   3
ATOM      3  C   UNL     1      48.375  31.465  89.140  1.00  0.00     0.000 C 
BRANCH   3   4
ATOM      4  C   UNL     1      47.515  31.292  90.403  1.00  0.00     0.000 C 
BRANCH   4   5
ATOM      5  C   UNL     1      46.047  31.697  90.182  1.00  0.00     0.000 C 
BRANCH   5   6
ATOM      6  C   UNL     1      45.238  31.710  91.490  1.00  0.00     0.000 C 
BRANCH   6   7
ATOM      7  C   UNL     1      44.267  30.522  91.603  1.00  0.00     0.000 C 
BRANCH   7   8
ATOM      8  C   UNL     1      44.487  29.691  92.877  1.00  0.00     0.000 C 
BRANCH   8   9
ATOM      9  C   UNL     1      44.859  28.228  92.573  1.00  0.00     0.000 C 
BRANCH   9  10
ATOM     10  C   UNL     1      46.272  28.086  91.981  1.00  0.00     0.000 C 
BRANCH  10  11
ATOM     11  C   UNL     1      46.346  27.219  90.711  1.00  0.00     0.000 C 
BRANCH  11  12
ATOM     12  C   UNL     1      46.715  28.030  89.456  1.00  0.00     0.000 C 
BRANCH  12  13
ATOM     13  C   UNL     1      45.502  28.339  88.560  1.00  0.00     0.006 C 
BRANCH  13  14
ATOM     14  C   UNL     1      45.803  29.331  87.421  1.00  0.00     0.053 C 
BRANCH  14  15
ATOM     15  C   UNL     1      46.658  28.734  86.346  1.00  0.00     0.041 C 
ATOM     16  O   UNL     1      46.141  28.032  85.436  1.00  0.00    -0.550 OA
ATOM     17  O   UNL     1      48.026  28.980  86.326  1.00  0.00    -0.550 OA
ENDBRANCH  14  15
ENDBRANCH  13  14
ENDBRANCH  12  13
ENDBRANCH  11  12
ENDBRANCH  10  11
ENDBRANCH   9  10
ENDBRANCH   8   9
ENDBRANCH   7   8
ENDBRANCH   6   7
ENDBRANCH   5   6
ENDBRANCH   4   5
ENDBRANCH   3   4
ENDBRANCH   2   3
ENDBRANCH   1   2
BRANCH   1  18
ATOM     18  C   UNL     1      49.001  33.736  86.248  1.00  0.00     0.000 C 
BRANCH  18  19
ATOM     19  C   UNL     1      49.051  34.858  87.307  1.00  0.00     0.000 C 
BRANCH  19  20
ATOM     20  C   UNL     1      50.426  35.539  87.434  1.00  0.00     0.000 C 
BRANCH  20  21
ATOM     21  C   UNL     1      51.521  34.993  86.497  1.00  0.00     0.000 C 
BRANCH  21  22
ATOM     22  C   UNL     1      52.966  35.239  86.970  1.00  0.00     0.000 C 
BRANCH  22  23
ATOM     23  C   UNL     1      53.892  34.043  86.703  1.00  0.00     0.000 C 
BRANCH  23  24
ATOM     24  C   UNL     1      53.088  32.801  86.286  1.00  0.00    -0.000 C 
BRANCH  24  25
ATOM     25  C   UNL     1      53.050  31.728  87.388  1.00  0.00    -0.000 C 
BRANCH  25  26
ATOM     26  C   UNL     1      51.775  31.804  88.246  1.00  0.00    -0.000 C 
BRANCH  26  27
ATOM     27  C   UNL     1      51.963  32.667  89.503  1.00  0.00    -0.000 C 
BRANCH  27  28
ATOM     28  C   UNL     1      51.543  31.941  90.793  1.00  0.00    -0.000 C 
BRANCH  28  29
ATOM     29  C   UNL     1      51.737  30.419  90.705  1.00  0.00    -0.000 C 
BRANCH  29  30
ATOM     30  C   UNL     1      50.700  29.644  91.537  1.00  0.00    -0.000 C 
BRANCH  30  31
ATOM     31  C   UNL     1      50.065  28.483  90.756  1.00  0.00    -0.003 C 
ATOM     32  C   UNL     1      50.493  28.454  89.288  1.00  0.00     0.004 C 
ENDBRANCH  30  31
ENDBRANCH  29  30
ENDBRANCH  28  29
ENDBRANCH  27  28
ENDBRANCH  26  27
ENDBRANCH  25  26
ENDBRANCH  24  25
ENDBRANCH  23  24
ENDBRANCH  22  23
ENDBRANCH  21  22
ENDBRANCH  20  21
ENDBRANCH  19  20
ENDBRANCH  18  19
ENDBRANCH   1  18
TORSDOF 28
ENDMDL
MODEL 2
REMARK VINA RESULT:    -3.145      2.912      6.866
REMARK INTER + INTRA:         -14.248
REMARK INTER:                  -9.129
REMARK INTRA:                  -5.119
REMARK UNBOUND:                -5.954
REMARK SMILES CCCCCCCCCCCCCCCCCCCCCCCCCCCCCC(=O)[O-]
REMARK SMILES IDX 16 1 17 2 18 3 19 4 20 5 21 6 22 7 23 8 24 9 25 10 26 11
REMARK SMILES IDX 27 12 28 13 29 14 30 15 31 16 32 17 15 18 14 19 13 20 12 21
REMARK SMILES IDX 11 22 10 23 9 24 8 25 7 26 6 27 5 28 4 29 3 30 2 31 1 32
REMARK H PARENT
REMARK Flexibility Score: inf
ROOT
ATOM      1  C   UNL     1      52.326  33.943  86.583  1.00  0.00     0.000 C 
ENDROOT
BRANCH   1   2
ATOM      2  C   UNL     1      53.802  33.567  86.361  1.00  0.00     0.000 C 
BRANCH   2   3
ATOM      3  C   UNL     1      54.680  33.873  87.587  1.00  0.00     0.000 C 
BRANCH   3   4
ATOM      4  C   UNL     1      55.150  32.596  88.302  1.00  0.00     0.000 C 
BRANCH   4   5
ATOM      5  C   UNL     1      55.202  32.755  89.832  1.00  0.00     0.000 C 
BRANCH   5   6
ATOM      6  C   UNL     1      53.924  33.394  90.399  1.00  0.00     0.000 C 
BRANCH   6   7
ATOM      7  C   UNL     1      52.875  32.352  90.825  1.00  0.00     0.000 C 
BRANCH   7   8
ATOM      8  C   UNL     1      51.640  32.341  89.910  1.00  0.00     0.000 C 
BRANCH   8   9
ATOM      9  C   UNL     1      51.648  31.163  88.918  1.00  0.00     0.000 C 
BRANCH   9  10
ATOM     10  C   UNL     1      50.508  30.163  89.177  1.00  0.00     0.000 C 
BRANCH  10  11
ATOM     11  C   UNL     1      49.899  30.242  90.589  1.00  0.00     0.000 C 
BRANCH  11  12
ATOM     12  C   UNL     1      48.383  29.976  90.600  1.00  0.00     0.000 C 
BRANCH  12  13
ATOM     13  C   UNL     1      47.544  31.267  90.573  1.00  0.00     0.006 C 
BRANCH  13  14
ATOM     14  C   UNL     1      46.084  31.055  90.133  1.00  0.00     0.053 C 
BRANCH  14  15
ATOM     15  C   UNL     1      45.132  31.030  91.289  1.00  0.00     0.041 C 
ATOM     16  O   UNL     1      45.008  32.039  92.034  1.00  0.00    -0.550 OA
ATOM     17  O   UNL     1      44.351  29.905  91.526  1.00  0.00    -0.550 OA
ENDBRANCH  14  15
ENDBRANCH  13  14
ENDBRANCH  12  13
ENDBRANCH  11  12
ENDBRANCH  10  11
ENDBRANCH   9  10
ENDBRANCH   8   9
ENDBRANCH   7   8
ENDBRANCH   6   7
ENDBRANCH   5   6
ENDBRANCH   4   5
ENDBRANCH   3   4
ENDBRANCH   2   3
ENDBRANCH   1   2
BRANCH   1  18
ATOM     18  C   UNL     1      52.160  35.139  87.540  1.00  0.00     0.000 C 
BRANCH  18  19
ATOM     19  C   UNL     1      50.737  35.735  87.512  1.00  0.00     0.000 C 
BRANCH  19  20
ATOM     20  C   UNL     1      49.811  35.100  86.457  1.00  0.00     0.000 C 
BRANCH  20  21
ATOM     21  C   UNL     1      48.526  34.455  87.011  1.00  0.00     0.000 C 
BRANCH  21  22
ATOM     22  C   UNL     1      48.728  33.100  87.716  1.00  0.00     0.000 C 
BRANCH  22  23
ATOM     23  C   UNL     1      48.043  31.938  86.980  1.00  0.00     0.000 C 
BRANCH  23  24
ATOM     24  C   UNL     1      48.252  32.043  85.461  1.00  0.00    -0.000 C 
BRANCH  24  25
ATOM     25  C   UNL     1      49.546  31.353  84.997  1.00  0.00    -0.000 C 
BRANCH  25  26
ATOM     26  C   UNL     1      50.399  32.249  84.081  1.00  0.00    -0.000 C 
BRANCH  26  27
ATOM     27  C   UNL     1      49.559  33.305  83.344  1.00  0.00    -0.000 C 
BRANCH  27  28
ATOM     28  C   UNL     1      50.371  34.086  82.295  1.00  0.00    -0.000 C 
BRANCH  28  29
ATOM     29  C   UNL     1      51.831  34.304  82.720  1.00  0.00    -0.000 C 
BRANCH  29  30
ATOM     30  C   UNL     1      52.832  33.689  81.725  1.00  0.00    -0.000 C 
BRANCH  30  31
ATOM     31  C   UNL     1      53.662  34.753  80.990  1.00  0.00    -0.003 C 
ATOM     32  C   UNL     1      54.589  35.530  81.925  1.00  0.00     0.004 C 
ENDBRANCH  30  31
ENDBRANCH  29  30
ENDBRANCH  28  29
ENDBRANCH  27  28
ENDBRANCH  26  27
ENDBRANCH  25  26
ENDBRANCH  24  25
ENDBRANCH  23  24
ENDBRANCH  22  23
ENDBRANCH  21  22
ENDBRANCH  20  21
ENDBRANCH  19  20
ENDBRANCH  18  19
ENDBRANCH   1  18
TORSDOF 28
ENDMDL
MODEL 3
REMARK VINA RESULT:    -3.129      1.981      6.796
REMARK INTER + INTRA:         -14.204
REMARK INTER:                  -8.380
REMARK INTRA:                  -5.825
REMARK UNBOUND:                -5.954
REMARK SMILES CCCCCCCCCCCCCCCCCCCCCCCCCCCCCC(=O)[O-]
REMARK SMILES IDX 16 1 17 2 18 3 19 4 20 5 21 6 22 7 23 8 24 9 25 10 26 11
REMARK SMILES IDX 27 12 28 13 29 14 30 15 31 16 32 17 15 18 14 19 13 20 12 21
REMARK SMILES IDX 11 22 10 23 9 24 8 25 7 26 6 27 5 28 4 29 3 30 2 31 1 32
REMARK H PARENT
REMARK Flexibility Score: inf
ROOT
ATOM      1  C   UNL     1      50.682  34.480  85.840  1.00  0.00     0.000 C 
ENDROOT
BRANCH   1   2
ATOM      2  C   UNL     1      52.150  34.843  86.124  1.00  0.00     0.000 C 
BRANCH   2   3
ATOM      3  C   UNL     1      52.363  35.370  87.554  1.00  0.00     0.000 C 
BRANCH   3   4
ATOM      4  C   UNL     1      53.839  35.316  87.982  1.00  0.00     0.000 C 
BRANCH   4   5
ATOM      5  C   UNL     1      54.533  34.010  87.558  1.00  0.00     0.000 C 
BRANCH   5   6
ATOM      6  C   UNL     1      54.937  33.143  88.762  1.00  0.00     0.000 C 
BRANCH   6   7
ATOM      7  C   UNL     1      54.570  33.785  90.111  1.00  0.00     0.000 C 
BRANCH   7   8
ATOM      8  C   UNL     1      53.454  33.029  90.847  1.00  0.00     0.000 C 
BRANCH   8   9
ATOM      9  C   UNL     1      52.874  31.871  90.015  1.00  0.00     0.000 C 
BRANCH   9  10
ATOM     10  C   UNL     1      51.541  32.236  89.339  1.00  0.00     0.000 C 
BRANCH  10  11
ATOM     11  C   UNL     1      51.246  31.450  88.047  1.00  0.00     0.000 C 
BRANCH  11  12
ATOM     12  C   UNL     1      52.511  30.830  87.425  1.00  0.00     0.000 C 
BRANCH  12  13
ATOM     13  C   UNL     1      52.582  31.012  85.898  1.00  0.00     0.006 C 
BRANCH  13  14
ATOM     14  C   UNL     1      51.225  30.859  85.186  1.00  0.00     0.053 C 
BRANCH  14  15
ATOM     15  C   UNL     1      51.201  31.517  83.841  1.00  0.00     0.041 C 
ATOM     16  O   UNL     1      50.210  31.370  83.078  1.00  0.00    -0.550 OA
ATOM     17  O   UNL     1      52.260  32.324  83.441  1.00  0.00    -0.550 OA
ENDBRANCH  14  15
ENDBRANCH  13  14
ENDBRANCH  12  13
ENDBRANCH  11  12
ENDBRANCH  10  11
ENDBRANCH   9  10
ENDBRANCH   8   9
ENDBRANCH   7   8
ENDBRANCH   6   7
ENDBRANCH   5   6
ENDBRANCH   4   5
ENDBRANCH   3   4
ENDBRANCH   2   3
ENDBRANCH   1   2
BRANCH   1  18
ATOM     18  C   UNL     1      49.704  35.185  86.799  1.00  0.00     0.000 C 
BRANCH  18  19
ATOM     19  C   UNL     1      48.593  34.248  87.318  1.00  0.00     0.000 C 
BRANCH  19  20
ATOM     20  C   UNL     1      48.613  32.842  86.688  1.00  0.00     0.000 C 
BRANCH  20  21
ATOM     21  C   UNL     1      47.572  31.855  87.248  1.00  0.00     0.000 C 
BRANCH  21  22
ATOM     22  C   UNL     1      47.356  31.929  88.771  1.00  0.00     0.000 C 
BRANCH  22  23
ATOM     23  C   UNL     1      46.140  31.115  89.241  1.00  0.00     0.000 C 
BRANCH  23  24
ATOM     24  C   UNL     1      45.582  31.665  90.563  1.00  0.00    -0.000 C 
BRANCH  24  25
ATOM     25  C   UNL     1      45.239  30.551  91.566  1.00  0.00    -0.000 C 
BRANCH  25  26
ATOM     26  C   UNL     1      45.422  29.143  90.972  1.00  0.00    -0.000 C 
BRANCH  26  27
ATOM     27  C   UNL     1      46.067  28.165  91.967  1.00  0.00    -0.000 C 
BRANCH  27  28
ATOM     28  C   UNL     1      47.509  27.790  91.585  1.00  0.00    -0.000 C 
BRANCH  28  29
ATOM     29  C   UNL     1      47.769  27.903  90.074  1.00  0.00    -0.000 C 
BRANCH  29  30
ATOM     30  C   UNL     1      49.033  28.722  89.754  1.00  0.00    -0.000 C 
BRANCH  30  31
ATOM     31  C   UNL     1      49.432  29.663  90.901  1.00  0.00    -0.003 C 
ATOM     32  C   UNL     1      50.786  29.306  91.516  1.00  0.00     0.004 C 
ENDBRANCH  30  31
ENDBRANCH  29  30
ENDBRANCH  28  29
ENDBRANCH  27  28
ENDBRANCH  26  27
ENDBRANCH  25  26
ENDBRANCH  24  25
ENDBRANCH  23  24
ENDBRANCH  22  23
ENDBRANCH  21  22
ENDBRANCH  20  21
ENDBRANCH  19  20
ENDBRANCH  18  19
ENDBRANCH   1  18
TORSDOF 28
ENDMDL
MODEL 4
REMARK VINA RESULT:    -3.090      2.971      6.348
REMARK INTER + INTRA:         -14.101
REMARK INTER:                  -8.471
REMARK INTRA:                  -5.630
REMARK UNBOUND:                -5.954
REMARK SMILES CCCCCCCCCCCCCCCCCCCCCCCCCCCCCC(=O)[O-]
REMARK SMILES IDX 16 1 17 2 18 3 19 4 20 5 21 6 22 7 23 8 24 9 25 10 26 11
REMARK SMILES IDX 27 12 28 13 29 14 30 15 31 16 32 17 15 18 14 19 13 20 12 21
REMARK SMILES IDX 11 22 10 23 9 24 8 25 7 26 6 27 5 28 4 29 3 30 2 31 1 32
REMARK H PARENT
REMARK Flexibility Score: inf
ROOT
ATOM      1  C   UNL     1      53.138  34.503  84.705  1.00  0.00     0.000 C 
ENDROOT
BRANCH   1   2
ATOM      2  C   UNL     1      51.789  34.585  85.441  1.00  0.00     0.000 C 
BRANCH   2   3
ATOM      3  C   UNL     1      51.898  35.306  86.797  1.00  0.00     0.000 C 
BRANCH   3   4
ATOM      4  C   UNL     1      50.526  35.522  87.454  1.00  0.00     0.000 C 
BRANCH   4   5
ATOM      5  C   UNL     1      49.368  34.957  86.613  1.00  0.00     0.000 C 
BRANCH   5   6
ATOM      6  C   UNL     1      48.594  33.850  87.348  1.00  0.00     0.000 C 
BRANCH   6   7
ATOM      7  C   UNL     1      49.299  32.484  87.280  1.00  0.00     0.000 C 
BRANCH   7   8
ATOM      8  C   UNL     1      48.690  31.550  86.222  1.00  0.00     0.000 C 
BRANCH   8   9
ATOM      9  C   UNL     1      49.689  31.184  85.110  1.00  0.00     0.000 C 
BRANCH   9  10
ATOM     10  C   UNL     1      49.577  32.108  83.884  1.00  0.00     0.000 C 
BRANCH  10  11
ATOM     11  C   UNL     1      48.222  32.827  83.751  1.00  0.00     0.000 C 
BRANCH  11  12
ATOM     12  C   UNL     1      48.281  34.040  82.805  1.00  0.00     0.000 C 
BRANCH  12  13
ATOM     13  C   UNL     1      49.710  34.576  82.602  1.00  0.00     0.006 C 
BRANCH  13  14
ATOM     14  C   UNL     1      50.046  34.923  81.140  1.00  0.00     0.053 C 
BRANCH  14  15
ATOM     15  C   UNL     1      49.750  33.797  80.198  1.00  0.00     0.041 C 
ATOM     16  O   UNL     1      50.334  32.688  80.327  1.00  0.00    -0.550 OA
ATOM     17  O   UNL     1      48.801  33.957  79.195  1.00  0.00    -0.550 OA
ENDBRANCH  14  15
ENDBRANCH  13  14
ENDBRANCH  12  13
ENDBRANCH  11  12
ENDBRANCH  10  11
ENDBRANCH   9  10
ENDBRANCH   8   9
ENDBRANCH   7   8
ENDBRANCH   6   7
ENDBRANCH   5   6
ENDBRANCH   4   5
ENDBRANCH   3   4
ENDBRANCH   2   3
ENDBRANCH   1   2
BRANCH   1  18
ATOM     18  C   UNL     1      53.308  33.183  83.929  1.00  0.00     0.000 C 
BRANCH  18  19
ATOM     19  C   UNL     1      53.195  31.937  84.833  1.00  0.00     0.000 C 
BRANCH  19  20
ATOM     20  C   UNL     1      54.298  31.837  85.903  1.00  0.00     0.000 C 
BRANCH  20  21
ATOM     21  C   UNL     1      53.811  31.934  87.362  1.00  0.00     0.000 C 
BRANCH  21  22
ATOM     22  C   UNL     1      54.475  33.043  88.199  1.00  0.00     0.000 C 
BRANCH  22  23
ATOM     23  C   UNL     1      53.605  33.500  89.380  1.00  0.00     0.000 C 
BRANCH  23  24
ATOM     24  C   UNL     1      52.283  32.717  89.430  1.00  0.00    -0.000 C 
BRANCH  24  25
ATOM     25  C   UNL     1      52.123  31.916  90.733  1.00  0.00    -0.000 C 
BRANCH  25  26
ATOM     26  C   UNL     1      51.736  30.448  90.481  1.00  0.00    -0.000 C 
BRANCH  26  27
ATOM     27  C   UNL     1      50.741  29.915  91.524  1.00  0.00    -0.000 C 
BRANCH  27  28
ATOM     28  C   UNL     1      49.550  29.175  90.888  1.00  0.00    -0.000 C 
BRANCH  28  29
ATOM     29  C   UNL     1      48.774  30.051  89.891  1.00  0.00    -0.000 C 
BRANCH  29  30
ATOM     30  C   UNL     1      48.090  31.251  90.570  1.00  0.00    -0.000 C 
BRANCH  30  31
ATOM     31  C   UNL     1      46.559  31.202  90.450  1.00  0.00    -0.003 C 
ATOM     32  C   UNL     1      46.079  31.224  88.998  1.00  0.00     0.004 C 
ENDBRANCH  30  31
ENDBRANCH  29  30
ENDBRANCH  28  29
ENDBRANCH  27  28
ENDBRANCH  26  27
ENDBRANCH  25  26
ENDBRANCH  24  25
ENDBRANCH  23  24
ENDBRANCH  22  23
ENDBRANCH  21  22
ENDBRANCH  20  21
ENDBRANCH  19  20
ENDBRANCH  18  19
ENDBRANCH   1  18
TORSDOF 28
ENDMDL
MODEL 5
REMARK VINA RESULT:    -3.076      2.881      6.064
REMARK INTER + INTRA:         -14.064
REMARK INTER:                  -7.998
REMARK INTRA:                  -6.065
REMARK UNBOUND:                -5.954
REMARK SMILES CCCCCCCCCCCCCCCCCCCCCCCCCCCCCC(=O)[O-]
REMARK SMILES IDX 16 1 17 2 18 3 19 4 20 5 21 6 22 7 23 8 24 9 25 10 26 11
REMARK SMILES IDX 27 12 28 13 29 14 30 15 31 16 32 17 15 18 14 19 13 20 12 21
REMARK SMILES IDX 11 22 10 23 9 24 8 25 7 26 6 27 5 28 4 29 3 30 2 31 1 32
REMARK H PARENT
REMARK Flexibility Score: inf
ROOT
ATOM      1  C   UNL     1      50.999  34.895  86.049  1.00  0.00     0.000 C 
ENDROOT
BRANCH   1   2
ATOM      2  C   UNL     1      49.501  34.659  85.790  1.00  0.00     0.000 C 
BRANCH   2   3
ATOM      3  C   UNL     1      48.658  34.748  87.075  1.00  0.00     0.000 C 
BRANCH   3   4
ATOM      4  C   UNL     1      48.287  33.362  87.627  1.00  0.00     0.000 C 
BRANCH   4   5
ATOM      5  C   UNL     1      48.463  32.242  86.587  1.00  0.00     0.000 C 
BRANCH   5   6
ATOM      6  C   UNL     1      49.382  31.115  87.088  1.00  0.00     0.000 C 
BRANCH   6   7
ATOM      7  C   UNL     1      50.699  31.640  87.686  1.00  0.00     0.000 C 
BRANCH   7   8
ATOM      8  C   UNL     1      51.923  30.822  87.244  1.00  0.00     0.000 C 
BRANCH   8   9
ATOM      9  C   UNL     1      51.931  30.537  85.732  1.00  0.00     0.000 C 
BRANCH   9  10
ATOM     10  C   UNL     1      52.597  31.662  84.920  1.00  0.00     0.000 C 
BRANCH  10  11
ATOM     11  C   UNL     1      51.709  32.258  83.811  1.00  0.00     0.000 C 
BRANCH  11  12
ATOM     12  C   UNL     1      50.436  31.430  83.557  1.00  0.00     0.000 C 
BRANCH  12  13
ATOM     13  C   UNL     1      49.894  31.582  82.124  1.00  0.00     0.006 C 
BRANCH  13  14
ATOM     14  C   UNL     1      50.477  32.786  81.360  1.00  0.00     0.053 C 
BRANCH  14  15
ATOM     15  C   UNL     1      49.512  33.927  81.260  1.00  0.00     0.041 C 
ATOM     16  O   UNL     1      49.087  34.496  82.300  1.00  0.00    -0.550 OA
ATOM     17  O   UNL     1      49.106  34.389  80.013  1.00  0.00    -0.550 OA
ENDBRANCH  14  15
ENDBRANCH  13  14
ENDBRANCH  12  13
ENDBRANCH  11  12
ENDBRANCH  10  11
ENDBRANCH   9  10
ENDBRANCH   8   9
ENDBRANCH   7   8
ENDBRANCH   6   7
ENDBRANCH   5   6
ENDBRANCH   4   5
ENDBRANCH   3   4
ENDBRANCH   2   3
ENDBRANCH   1   2
BRANCH   1  18
ATOM     18  C   UNL     1      51.281  35.385  87.482  1.00  0.00     0.000 C 
BRANCH  18  19
ATOM     19  C   UNL     1      52.787  35.432  87.815  1.00  0.00     0.000 C 
BRANCH  19  20
ATOM     20  C   UNL     1      53.661  34.568  86.887  1.00  0.00     0.000 C 
BRANCH  20  21
ATOM     21  C   UNL     1      54.499  33.484  87.592  1.00  0.00     0.000 C 
BRANCH  21  22
ATOM     22  C   UNL     1      54.613  33.640  89.121  1.00  0.00     0.000 C 
BRANCH  22  23
ATOM     23  C   UNL     1      54.259  32.352  89.879  1.00  0.00     0.000 C 
BRANCH  23  24
ATOM     24  C   UNL     1      52.848  32.433  90.482  1.00  0.00    -0.000 C 
BRANCH  24  25
ATOM     25  C   UNL     1      52.398  31.103  91.109  1.00  0.00    -0.000 C 
BRANCH  25  26
ATOM     26  C   UNL     1      51.143  31.257  91.987  1.00  0.00    -0.000 C 
BRANCH  26  27
ATOM     27  C   UNL     1      49.850  31.314  91.158  1.00  0.00    -0.000 C 
BRANCH  27  28
ATOM     28  C   UNL     1      49.370  29.923  90.706  1.00  0.00    -0.000 C 
BRANCH  28  29
ATOM     29  C   UNL     1      47.912  29.931  90.218  1.00  0.00    -0.000 C 
BRANCH  29  30
ATOM     30  C   UNL     1      47.163  31.213  90.622  1.00  0.00    -0.000 C 
BRANCH  30  31
ATOM     31  C   UNL     1      46.046  31.580  89.633  1.00  0.00    -0.003 C 
ATOM     32  C   UNL     1      45.892  30.555  88.508  1.00  0.00     0.004 C 
ENDBRANCH  30  31
ENDBRANCH  29  30
ENDBRANCH  28  29
ENDBRANCH  27  28
ENDBRANCH  26  27
ENDBRANCH  25  26
ENDBRANCH  24  25
ENDBRANCH  23  24
ENDBRANCH  22  23
ENDBRANCH  21  22
ENDBRANCH  20  21
ENDBRANCH  19  20
ENDBRANCH  18  19
ENDBRANCH   1  18
TORSDOF 28
ENDMDL
MODEL 6
REMARK VINA RESULT:    -3.075      2.499      4.754
REMARK INTER + INTRA:         -14.062
REMARK INTER:                  -7.406
REMARK INTRA:                  -6.655
REMARK UNBOUND:                -5.954
REMARK SMILES CCCCCCCCCCCCCCCCCCCCCCCCCCCCCC(=O)[O-]
REMARK SMILES IDX 16 1 17 2 18 3 19 4 20 5 21 6 22 7 23 8 24 9 25 10 26 11
REMARK SMILES IDX 27 12 28 13 29 14 30 15 31 16 32 17 15 18 14 19 13 20 12 21
REMARK SMILES IDX 11 22 10 23 9 24 8 25 7 26 6 27 5 28 4 29 3 30 2 31 1 32
REMARK H PARENT
REMARK Flexibility Score: inf
ROOT
ATOM      1  C   UNL     1      50.982  29.862  88.745  1.00  0.00     0.000 C 
ENDROOT
BRANCH   1   2
ATOM      2  C   UNL     1      50.105  29.039  89.703  1.00  0.00     0.000 C 
BRANCH   2   3
ATOM      3  C   UNL     1      49.416  29.910  90.769  1.00  0.00     0.000 C 
BRANCH   3   4
ATOM      4  C   UNL     1      48.685  31.114  90.155  1.00  0.00     0.000 C 
BRANCH   4   5
ATOM      5  C   UNL     1      47.259  31.289  90.708  1.00  0.00     0.000 C 
BRANCH   5   6
ATOM      6  C   UNL     1      46.234  31.595  89.603  1.00  0.00     0.000 C 
BRANCH   6   7
ATOM      7  C   UNL     1      46.773  31.302  88.192  1.00  0.00     0.000 C 
BRANCH   7   8
ATOM      8  C   UNL     1      46.118  30.070  87.547  1.00  0.00     0.000 C 
BRANCH   8   9
ATOM      9  C   UNL     1      46.831  28.757  87.919  1.00  0.00     0.000 C 
BRANCH   9  10
ATOM     10  C   UNL     1      46.018  27.899  88.904  1.00  0.00     0.000 C 
BRANCH  10  11
ATOM     11  C   UNL     1      46.854  27.250  90.023  1.00  0.00     0.000 C 
BRANCH  11  12
ATOM     12  C   UNL     1      46.423  27.705  91.429  1.00  0.00     0.000 C 
BRANCH  12  13
ATOM     13  C   UNL     1      45.078  28.454  91.434  1.00  0.00     0.006 C 
BRANCH  13  14
ATOM     14  C   UNL     1      44.809  29.248  92.726  1.00  0.00     0.053 C 
BRANCH  14  15
ATOM     15  C   UNL     1      43.825  30.359  92.526  1.00  0.00     0.041 C 
ATOM     16  O   UNL     1      42.701  30.128  92.005  1.00  0.00    -0.550 OA
ATOM     17  O   UNL     1      44.132  31.647  92.949  1.00  0.00    -0.550 OA
ENDBRANCH  14  15
ENDBRANCH  13  14
ENDBRANCH  12  13
ENDBRANCH  11  12
ENDBRANCH  10  11
ENDBRANCH   9  10
ENDBRANCH   8   9
ENDBRANCH   7   8
ENDBRANCH   6   7
ENDBRANCH   5   6
ENDBRANCH   4   5
ENDBRANCH   3   4
ENDBRANCH   2   3
ENDBRANCH   1   2
BRANCH   1  18
ATOM     18  C   UNL     1      51.071  29.236  87.340  1.00  0.00     0.000 C 
BRANCH  18  19
ATOM     19  C   UNL     1      50.921  30.275  86.209  1.00  0.00     0.000 C 
BRANCH  19  20
ATOM     20  C   UNL     1      49.460  30.594  85.841  1.00  0.00     0.000 C 
BRANCH  20  21
ATOM     21  C   UNL     1      49.274  31.471  84.588  1.00  0.00     0.000 C 
BRANCH  21  22
ATOM     22  C   UNL     1      50.532  32.233  84.132  1.00  0.00     0.000 C 
BRANCH  22  23
ATOM     23  C   UNL     1      50.253  33.711  83.819  1.00  0.00     0.000 C 
BRANCH  23  24
ATOM     24  C   UNL     1      49.003  34.209  84.562  1.00  0.00    -0.000 C 
BRANCH  24  25
ATOM     25  C   UNL     1      49.346  34.895  85.895  1.00  0.00    -0.000 C 
BRANCH  25  26
ATOM     26  C   UNL     1      48.763  34.152  87.111  1.00  0.00    -0.000 C 
BRANCH  26  27
ATOM     27  C   UNL     1      49.853  33.533  87.999  1.00  0.00    -0.000 C 
BRANCH  27  28
ATOM     28  C   UNL     1      51.272  33.754  87.443  1.00  0.00    -0.000 C 
BRANCH  28  29
ATOM     29  C   UNL     1      52.367  33.279  88.411  1.00  0.00    -0.000 C 
BRANCH  29  30
ATOM     30  C   UNL     1      53.571  32.661  87.679  1.00  0.00    -0.000 C 
BRANCH  30  31
ATOM     31  C   UNL     1      53.557  32.951  86.170  1.00  0.00    -0.003 C 
ATOM     32  C   UNL     1      54.129  31.801  85.341  1.00  0.00     0.004 C 
ENDBRANCH  30  31
ENDBRANCH  29  30
ENDBRANCH  28  29
ENDBRANCH  27  28
ENDBRANCH  26  27
ENDBRANCH  25  26
ENDBRANCH  24  25
ENDBRANCH  23  24
ENDBRANCH  22  23
ENDBRANCH  21  22
ENDBRANCH  20  21
ENDBRANCH  19  20
ENDBRANCH  18  19
ENDBRANCH   1  18
TORSDOF 28
ENDMDL
MODEL 7
REMARK VINA RESULT:    -3.063      2.462      6.008
REMARK INTER + INTRA:         -14.030
REMARK INTER:                  -7.796
REMARK INTRA:                  -6.233
REMARK UNBOUND:                -5.954
REMARK SMILES CCCCCCCCCCCCCCCCCCCCCCCCCCCCCC(=O)[O-]
REMARK SMILES IDX 16 1 17 2 18 3 19 4 20 5 21 6 22 7 23 8 24 9 25 10 26 11
REMARK SMILES IDX 27 12 28 13 29 14 30 15 31 16 32 17 15 18 14 19 13 20 12 21
REMARK SMILES IDX 11 22 10 23 9 24 8 25 7 26 6 27 5 28 4 29 3 30 2 31 1 32
REMARK H PARENT
REMARK Flexibility Score: inf
ROOT
ATOM      1  C   UNL     1      48.339  33.593  87.413  1.00  0.00     0.000 C 
ENDROOT
BRANCH   1   2
ATOM      2  C   UNL     1      48.946  35.005  87.473  1.00  0.00     0.000 C 
BRANCH   2   3
ATOM      3  C   UNL     1      50.255  35.120  86.672  1.00  0.00     0.000 C 
BRANCH   3   4
ATOM      4  C   UNL     1      51.417  35.651  87.527  1.00  0.00     0.000 C 
BRANCH   4   5
ATOM      5  C   UNL     1      52.793  35.380  86.895  1.00  0.00     0.000 C 
BRANCH   5   6
ATOM      6  C   UNL     1      53.886  35.133  87.948  1.00  0.00     0.000 C 
BRANCH   6   7
ATOM      7  C   UNL     1      54.638  33.808  87.729  1.00  0.00     0.000 C 
BRANCH   7   8
ATOM      8  C   UNL     1      54.879  33.036  89.035  1.00  0.00     0.000 C 
BRANCH   8   9
ATOM      9  C   UNL     1      53.748  33.238  90.061  1.00  0.00     0.000 C 
BRANCH   9  10
ATOM     10  C   UNL     1      52.753  32.065  90.084  1.00  0.00     0.000 C 
BRANCH  10  11
ATOM     11  C   UNL     1      51.432  32.336  89.338  1.00  0.00     0.000 C 
BRANCH  11  12
ATOM     12  C   UNL     1      50.506  31.107  89.301  1.00  0.00     0.000 C 
BRANCH  12  13
ATOM     13  C   UNL     1      49.571  31.019  90.521  1.00  0.00     0.006 C 
BRANCH  13  14
ATOM     14  C   UNL     1      48.076  31.132  90.172  1.00  0.00     0.053 C 
BRANCH  14  15
ATOM     15  C   UNL     1      47.283  29.953  90.644  1.00  0.00     0.041 C 
ATOM     16  O   UNL     1      46.097  30.101  91.043  1.00  0.00    -0.550 OA
ATOM     17  O   UNL     1      47.840  28.680  90.612  1.00  0.00    -0.550 OA
ENDBRANCH  14  15
ENDBRANCH  13  14
ENDBRANCH  12  13
ENDBRANCH  11  12
ENDBRANCH  10  11
ENDBRANCH   9  10
ENDBRANCH   8   9
ENDBRANCH   7   8
ENDBRANCH   6   7
ENDBRANCH   5   6
ENDBRANCH   4   5
ENDBRANCH   3   4
ENDBRANCH   2   3
ENDBRANCH   1   2
BRANCH   1  18
ATOM     18  C   UNL     1      49.129  32.649  86.486  1.00  0.00     0.000 C 
BRANCH  18  19
ATOM     19  C   UNL     1      48.253  32.023  85.381  1.00  0.00     0.000 C 
BRANCH  19  20
ATOM     20  C   UNL     1      48.773  32.272  83.952  1.00  0.00     0.000 C 
BRANCH  20  21
ATOM     21  C   UNL     1      48.387  33.632  83.339  1.00  0.00     0.000 C 
BRANCH  21  22
ATOM     22  C   UNL     1      49.540  34.647  83.226  1.00  0.00     0.000 C 
BRANCH  22  23
ATOM     23  C   UNL     1      50.812  34.039  82.616  1.00  0.00     0.000 C 
BRANCH  23  24
ATOM     24  C   UNL     1      52.008  34.179  83.572  1.00  0.00    -0.000 C 
BRANCH  24  25
ATOM     25  C   UNL     1      53.147  33.202  83.237  1.00  0.00    -0.000 C 
BRANCH  25  26
ATOM     26  C   UNL     1      53.558  32.337  84.442  1.00  0.00    -0.000 C 
BRANCH  26  27
ATOM     27  C   UNL     1      52.409  32.138  85.442  1.00  0.00    -0.000 C 
BRANCH  27  28
ATOM     28  C   UNL     1      52.313  30.692  85.960  1.00  0.00    -0.000 C 
BRANCH  28  29
ATOM     29  C   UNL     1      53.692  30.043  86.161  1.00  0.00    -0.000 C 
BRANCH  29  30
ATOM     30  C   UNL     1      53.957  29.666  87.629  1.00  0.00    -0.000 C 
BRANCH  30  31
ATOM     31  C   UNL     1      53.109  28.472  88.094  1.00  0.00    -0.003 C 
ATOM     32  C   UNL     1      52.919  28.436  89.611  1.00  0.00     0.004 C 
ENDBRANCH  30  31
ENDBRANCH  29  30
ENDBRANCH  28  29
ENDBRANCH  27  28
ENDBRANCH  26  27
ENDBRANCH  25  26
ENDBRANCH  24  25
ENDBRANCH  23  24
ENDBRANCH  22  23
ENDBRANCH  21  22
ENDBRANCH  20  21
ENDBRANCH  19  20
ENDBRANCH  18  19
ENDBRANCH   1  18
TORSDOF 28
ENDMDL
MODEL 8
REMARK VINA RESULT:    -3.029     12.933     16.163
REMARK INTER + INTRA:         -13.941
REMARK INTER:                  -8.255
REMARK INTRA:                  -5.687
REMARK UNBOUND:                -5.954
REMARK SMILES CCCCCCCCCCCCCCCCCCCCCCCCCCCCCC(=O)[O-]
REMARK SMILES IDX 16 1 17 2 18 3 19 4 20 5 21 6 22 7 23 8 24 9 25 10 26 11
REMARK SMILES IDX 27 12 28 13 29 14 30 15 31 16 32 17 15 18 14 19 13 20 12 21
REMARK SMILES IDX 11 22 10 23 9 24 8 25 7 26 6 27 5 28 4 29 3 30 2 31 1 32
REMARK H PARENT
REMARK Flexibility Score: inf
ROOT
ATOM      1  C   UNL     1      40.709  21.262  74.860  1.00  0.00     0.000 C 
ENDROOT
BRANCH   1   2
ATOM      2  C   UNL     1      41.084  21.926  76.196  1.00  0.00     0.000 C 
BRANCH   2   3
ATOM      3  C   UNL     1      40.112  23.052  76.590  1.00  0.00     0.000 C 
BRANCH   3   4
ATOM      4  C   UNL     1      40.688  23.963  77.687  1.00  0.00     0.000 C 
BRANCH   4   5
ATOM      5  C   UNL     1      39.986  23.776  79.044  1.00  0.00     0.000 C 
BRANCH   5   6
ATOM      6  C   UNL     1      38.582  23.167  78.899  1.00  0.00     0.000 C 
BRANCH   6   7
ATOM      7  C   UNL     1      38.429  21.833  79.651  1.00  0.00     0.000 C 
BRANCH   7   8
ATOM      8  C   UNL     1      39.769  21.280  80.162  1.00  0.00     0.000 C 
BRANCH   8   9
ATOM      9  C   UNL     1      40.267  20.078  79.338  1.00  0.00     0.000 C 
BRANCH   9  10
ATOM     10  C   UNL     1      41.802  20.009  79.259  1.00  0.00     0.000 C 
BRANCH  10  11
ATOM     11  C   UNL     1      42.528  21.198  79.916  1.00  0.00     0.000 C 
BRANCH  11  12
ATOM     12  C   UNL     1      43.422  21.969  78.928  1.00  0.00     0.000 C 
BRANCH  12  13
ATOM     13  C   UNL     1      44.365  22.968  79.623  1.00  0.00     0.006 C 
BRANCH  13  14
ATOM     14  C   UNL     1      44.987  24.007  78.671  1.00  0.00     0.053 C 
BRANCH  14  15
ATOM     15  C   UNL     1      46.443  24.234  78.937  1.00  0.00     0.041 C 
ATOM     16  O   UNL     1      47.293  24.053  78.025  1.00  0.00    -0.550 OA
ATOM     17  O   UNL     1      46.862  24.682  80.185  1.00  0.00    -0.550 OA
ENDBRANCH  14  15
ENDBRANCH  13  14
ENDBRANCH  12  13
ENDBRANCH  11  12
ENDBRANCH  10  11
ENDBRANCH   9  10
ENDBRANCH   8   9
ENDBRANCH   7   8
ENDBRANCH   6   7
ENDBRANCH   5   6
ENDBRANCH   4   5
ENDBRANCH   3   4
ENDBRANCH   2   3
ENDBRANCH   1   2
BRANCH   1  18
ATOM     18  C   UNL     1      41.496  21.844  73.670  1.00  0.00     0.000 C 
BRANCH  18  19
ATOM     19  C   UNL     1      42.990  21.456  73.693  1.00  0.00     0.000 C 
BRANCH  19  20
ATOM     20  C   UNL     1      43.950  22.660  73.669  1.00  0.00     0.000 C 
BRANCH  20  21
ATOM     21  C   UNL     1      44.650  22.971  75.006  1.00  0.00     0.000 C 
BRANCH  21  22
ATOM     22  C   UNL     1      46.188  22.890  74.972  1.00  0.00     0.000 C 
BRANCH  22  23
ATOM     23  C   UNL     1      46.715  22.058  73.793  1.00  0.00     0.000 C 
BRANCH  23  24
ATOM     24  C   UNL     1      47.283  20.713  74.274  1.00  0.00    -0.000 C 
BRANCH  24  25
ATOM     25  C   UNL     1      46.248  19.578  74.205  1.00  0.00    -0.000 C 
BRANCH  25  26
ATOM     26  C   UNL     1      46.085  18.843  75.547  1.00  0.00    -0.000 C 
BRANCH  26  27
ATOM     27  C   UNL     1      45.399  19.712  76.613  1.00  0.00    -0.000 C 
BRANCH  27  28
ATOM     28  C   UNL     1      45.856  19.371  78.043  1.00  0.00    -0.000 C 
BRANCH  28  29
ATOM     29  C   UNL     1      46.860  20.391  78.602  1.00  0.00    -0.000 C 
BRANCH  29  30
ATOM     30  C   UNL     1      48.144  19.724  79.129  1.00  0.00    -0.000 C 
BRANCH  30  31
ATOM     31  C   UNL     1      49.419  20.371  78.564  1.00  0.00    -0.003 C 
ATOM     32  C   UNL     1      49.160  21.166  77.283  1.00  0.00     0.004 C 
ENDBRANCH  30  31
ENDBRANCH  29  30
ENDBRANCH  28  29
ENDBRANCH  27  28
ENDBRANCH  26  27
ENDBRANCH  25  26
ENDBRANCH  24  25
ENDBRANCH  23  24
ENDBRANCH  22  23
ENDBRANCH  21  22
ENDBRANCH  20  21
ENDBRANCH  19  20
ENDBRANCH  18  19
ENDBRANCH   1  18
TORSDOF 28
ENDMDL
MODEL 9
REMARK VINA RESULT:    -2.889      3.178      7.513
REMARK INTER + INTRA:         -13.573
REMARK INTER:                  -7.664
REMARK INTRA:                  -5.908
REMARK UNBOUND:                -5.954
REMARK SMILES CCCCCCCCCCCCCCCCCCCCCCCCCCCCCC(=O)[O-]
REMARK SMILES IDX 16 1 17 2 18 3 19 4 20 5 21 6 22 7 23 8 24 9 25 10 26 11
REMARK SMILES IDX 27 12 28 13 29 14 30 15 31 16 32 17 15 18 14 19 13 20 12 21
REMARK SMILES IDX 11 22 10 23 9 24 8 25 7 26 6 27 5 28 4 29 3 30 2 31 1 32
REMARK H PARENT
REMARK Flexibility Score: inf
ROOT
ATOM      1  C   UNL     1      51.716  30.799  86.875  1.00  0.00     0.000 C 
ENDROOT
BRANCH   1   2
ATOM      2  C   UNL     1      52.913  31.764  86.815  1.00  0.00     0.000 C 
BRANCH   2   3
ATOM      3  C   UNL     1      52.996  32.520  85.477  1.00  0.00     0.000 C 
BRANCH   3   4
ATOM      4  C   UNL     1      53.508  33.960  85.651  1.00  0.00     0.000 C 
BRANCH   4   5
ATOM      5  C   UNL     1      53.650  34.365  87.129  1.00  0.00     0.000 C 
BRANCH   5   6
ATOM      6  C   UNL     1      52.631  35.440  87.543  1.00  0.00     0.000 C 
BRANCH   6   7
ATOM      7  C   UNL     1      51.242  34.856  87.856  1.00  0.00     0.000 C 
BRANCH   7   8
ATOM      8  C   UNL     1      50.094  35.773  87.404  1.00  0.00     0.000 C 
BRANCH   8   9
ATOM      9  C   UNL     1      49.157  35.093  86.390  1.00  0.00     0.000 C 
BRANCH   9  10
ATOM     10  C   UNL     1      49.898  34.602  85.134  1.00  0.00     0.000 C 
BRANCH  10  11
ATOM     11  C   UNL     1      49.005  34.447  83.888  1.00  0.00     0.000 C 
BRANCH  11  12
ATOM     12  C   UNL     1      49.783  34.629  82.572  1.00  0.00     0.000 C 
BRANCH  12  13
ATOM     13  C   UNL     1      51.274  34.265  82.698  1.00  0.00     0.006 C 
BRANCH  13  14
ATOM     14  C   UNL     1      52.113  34.628  81.459  1.00  0.00     0.053 C 
BRANCH  14  15
ATOM     15  C   UNL     1      53.576  34.382  81.661  1.00  0.00     0.041 C 
ATOM     16  O   UNL     1      54.247  35.124  82.426  1.00  0.00    -0.550 OA
ATOM     17  O   UNL     1      54.196  33.308  81.031  1.00  0.00    -0.550 OA
ENDBRANCH  14  15
ENDBRANCH  13  14
ENDBRANCH  12  13
ENDBRANCH  11  12
ENDBRANCH  10  11
ENDBRANCH   9  10
ENDBRANCH   8   9
ENDBRANCH   7   8
ENDBRANCH   6   7
ENDBRANCH   5   6
ENDBRANCH   4   5
ENDBRANCH   3   4
ENDBRANCH   2   3
ENDBRANCH   1   2
BRANCH   1  18
ATOM     18  C   UNL     1      50.408  31.506  87.277  1.00  0.00     0.000 C 
BRANCH  18  19
ATOM     19  C   UNL     1      49.195  31.041  86.445  1.00  0.00     0.000 C 
BRANCH  19  20
ATOM     20  C   UNL     1      47.857  31.666  86.883  1.00  0.00     0.000 C 
BRANCH  20  21
ATOM     21  C   UNL     1      47.880  32.381  88.247  1.00  0.00     0.000 C 
BRANCH  21  22
ATOM     22  C   UNL     1      46.867  31.850  89.279  1.00  0.00     0.000 C 
BRANCH  22  23
ATOM     23  C   UNL     1      47.536  31.078  90.427  1.00  0.00     0.000 C 
BRANCH  23  24
ATOM     24  C   UNL     1      47.873  29.639  90.006  1.00  0.00    -0.000 C 
BRANCH  24  25
ATOM     25  C   UNL     1      49.379  29.340  90.084  1.00  0.00    -0.000 C 
BRANCH  25  26
ATOM     26  C   UNL     1      50.086  30.146  91.189  1.00  0.00    -0.000 C 
BRANCH  26  27
ATOM     27  C   UNL     1      51.501  30.586  90.782  1.00  0.00    -0.000 C 
BRANCH  27  28
ATOM     28  C   UNL     1      51.598  32.096  90.503  1.00  0.00    -0.000 C 
BRANCH  28  29
ATOM     29  C   UNL     1      53.052  32.590  90.421  1.00  0.00    -0.000 C 
BRANCH  29  30
ATOM     30  C   UNL     1      54.071  31.446  90.574  1.00  0.00    -0.000 C 
BRANCH  30  31
ATOM     31  C   UNL     1      55.240  31.562  89.583  1.00  0.00    -0.003 C 
ATOM     32  C   UNL     1      56.125  32.779  89.853  1.00  0.00     0.004 C 
ENDBRANCH  30  31
ENDBRANCH  29  30
ENDBRANCH  28  29
ENDBRANCH  27  28
ENDBRANCH  26  27
ENDBRANCH  25  26
ENDBRANCH  24  25
ENDBRANCH  23  24
ENDBRANCH  22  23
ENDBRANCH  21  22
ENDBRANCH  20  21
ENDBRANCH  19  20
ENDBRANCH  18  19
ENDBRANCH   1  18
TORSDOF 28
ENDMDL
