MODEL 1
REMARK VINA RESULT:     7.943      0.000      0.000
REMARK INTER + INTRA:          17.267
REMARK INTER:                  18.158
REMARK INTRA:                  -0.891
REMARK UNBOUND:                -0.891
REMARK SMILES CCCCCCCCCCCCCCCCCCCCCCCC(=O)[O-]
REMARK SMILES IDX 13 1 14 2 15 3 16 4 17 5 18 6 19 7 20 8 21 9 22 10 23 11
REMARK SMILES IDX 24 12 25 13 26 14 12 15 11 16 10 17 9 18 8 19 7 20 6 21 5 22
REMARK SMILES IDX 4 23 3 24 2 25 1 26
REMARK H PARENT
REMARK Flexibility Score: inf
ROOT
ATOM      1  C   UNL     1      31.682  18.976  37.224  1.00  0.00     0.000 C 
ENDROOT
BRANCH   1   2
ATOM      2  C   UNL     1      30.959  20.043  38.069  1.00  0.00     0.000 C 
BRANCH   2   3
ATOM      3  C   UNL     1      31.517  21.473  37.937  1.00  0.00     0.000 C 
BRANCH   3   4
ATOM      4  C   UNL     1      31.742  21.930  36.480  1.00  0.00     0.000 C 
BRANCH   4   5
ATOM      5  C   UNL     1      31.934  23.454  36.355  1.00  0.00     0.000 C 
BRANCH   5   6
ATOM      6  C   UNL     1      32.353  23.886  34.940  1.00  0.00     0.000 C 
BRANCH   6   7
ATOM      7  C   UNL     1      31.536  25.075  34.414  1.00  0.00     0.000 C 
BRANCH   7   8
ATOM      8  C   UNL     1      31.572  25.125  32.879  1.00  0.00     0.000 C 
BRANCH   8   9
ATOM      9  C   UNL     1      30.375  24.409  32.233  1.00  0.00     0.000 C 
BRANCH   9  10
ATOM     10  C   UNL     1      30.204  24.773  30.747  1.00  0.00     0.006 C 
BRANCH  10  11
ATOM     11  C   UNL     1      31.295  24.148  29.867  1.00  0.00     0.053 C 
BRANCH  11  12
ATOM     12  C   UNL     1      30.798  23.869  28.482  1.00  0.00     0.041 C 
ATOM     13  O   UNL     1      31.552  23.318  27.635  1.00  0.00    -0.550 OA
ATOM     14  O   UNL     1      29.497  24.201  28.131  1.00  0.00    -0.550 OA
ENDBRANCH  11  12
ENDBRANCH  10  11
ENDBRANCH   9  10
ENDBRANCH   8   9
ENDBRANCH   7   8
ENDBRANCH   6   7
ENDBRANCH   5   6
ENDBRANCH   4   5
ENDBRANCH   3   4
ENDBRANCH   2   3
ENDBRANCH   1   2
BRANCH   1  15
ATOM     15  C   UNL     1      32.670  18.085  38.003  1.00  0.00     0.000 C 
BRANCH  15  16
ATOM     16  C   UNL     1      32.770  18.383  39.512  1.00  0.00     0.000 C 
BRANCH  16  17
ATOM     17  C   UNL     1      33.904  17.642  40.247  1.00  0.00     0.000 C 
BRANCH  17  18
ATOM     18  C   UNL     1      33.604  17.287  41.717  1.00  0.00    -0.000 C 
BRANCH  18  19
ATOM     19  C   UNL     1      34.842  17.005  42.591  1.00  0.00    -0.000 C 
BRANCH  19  20
ATOM     20  C   UNL     1      34.876  15.614  43.250  1.00  0.00    -0.000 C 
BRANCH  20  21
ATOM     21  C   UNL     1      35.898  14.668  42.599  1.00  0.00    -0.000 C 
BRANCH  21  22
ATOM     22  C   UNL     1      35.410  13.211  42.561  1.00  0.00    -0.000 C 
BRANCH  22  23
ATOM     23  C   UNL     1      34.747  12.842  41.225  1.00  0.00    -0.000 C 
BRANCH  23  24
ATOM     24  C   UNL     1      33.942  11.539  41.351  1.00  0.00    -0.000 C 
BRANCH  24  25
ATOM     25  C   UNL     1      34.012  10.678  40.080  1.00  0.00    -0.003 C 
ATOM     26  C   UNL     1      32.749   9.846  39.860  1.00  0.00     0.004 C 
ENDBRANCH  24  25
ENDBRANCH  23  24
ENDBRANCH  22  23
ENDBRANCH  21  22
ENDBRANCH  20  21
ENDBRANCH  19  20
ENDBRANCH  18  19
ENDBRANCH  17  18
ENDBRANCH  16  17
ENDBRANCH  15  16
ENDBRANCH   1  15
TORSDOF 22
ENDMDL
MODEL 2
REMARK VINA RESULT:     8.355      5.134     13.228
REMARK INTER + INTRA:          18.210
REMARK INTER:                  19.026
REMARK INTRA:                  -0.816
REMARK UNBOUND:                -0.891
REMARK SMILES CCCCCCCCCCCCCCCCCCCCCCCC(=O)[O-]
REMARK SMILES IDX 13 1 14 2 15 3 16 4 17 5 18 6 19 7 20 8 21 9 22 10 23 11
REMARK SMILES IDX 24 12 25 13 26 14 12 15 11 16 10 17 9 18 8 19 7 20 6 21 5 22
REMARK SMILES IDX 4 23 3 24 2 25 1 26
REMARK H PARENT
REMARK Flexibility Score: inf
ROOT
ATOM      1  C   UNL     1      31.033  19.388  37.000  1.00  0.00     0.000 C 
ENDROOT
BRANCH   1   2
ATOM      2  C   UNL     1      31.887  18.263  37.615  1.00  0.00     0.000 C 
BRANCH   2   3
ATOM      3  C   UNL     1      32.563  18.610  38.956  1.00  0.00     0.000 C 
BRANCH   3   4
ATOM      4  C   UNL     1      33.658  17.611  39.388  1.00  0.00     0.000 C 
BRANCH   4   5
ATOM      5  C   UNL     1      33.752  17.453  40.917  1.00  0.00     0.000 C 
BRANCH   5   6
ATOM      6  C   UNL     1      34.463  16.156  41.338  1.00  0.00     0.000 C 
BRANCH   6   7
ATOM      7  C   UNL     1      34.633  16.037  42.859  1.00  0.00     0.000 C 
BRANCH   7   8
ATOM      8  C   UNL     1      35.646  14.937  43.210  1.00  0.00     0.000 C 
BRANCH   8   9
ATOM      9  C   UNL     1      35.801  13.893  42.093  1.00  0.00     0.000 C 
BRANCH   9  10
ATOM     10  C   UNL     1      34.569  12.980  41.965  1.00  0.00     0.006 C 
BRANCH  10  11
ATOM     11  C   UNL     1      34.721  11.954  40.834  1.00  0.00     0.053 C 
BRANCH  11  12
ATOM     12  C   UNL     1      33.531  11.050  40.740  1.00  0.00     0.041 C 
ATOM     13  O   UNL     1      33.642   9.905  40.224  1.00  0.00    -0.550 OA
ATOM     14  O   UNL     1      32.304  11.463  41.240  1.00  0.00    -0.550 OA
ENDBRANCH  11  12
ENDBRANCH  10  11
ENDBRANCH   9  10
ENDBRANCH   8   9
ENDBRANCH   7   8
ENDBRANCH   6   7
ENDBRANCH   5   6
ENDBRANCH   4   5
ENDBRANCH   3   4
ENDBRANCH   2   3
ENDBRANCH   1   2
BRANCH   1  15
ATOM     15  C   UNL     1      31.069  20.728  37.762  1.00  0.00     0.000 C 
BRANCH  15  16
ATOM     16  C   UNL     1      31.418  21.959  36.903  1.00  0.00     0.000 C 
BRANCH  16  17
ATOM     17  C   UNL     1      32.224  23.052  37.631  1.00  0.00     0.000 C 
BRANCH  17  18
ATOM     18  C   UNL     1      32.639  24.249  36.753  1.00  0.00    -0.000 C 
BRANCH  18  19
ATOM     19  C   UNL     1      32.370  24.082  35.244  1.00  0.00    -0.000 C 
BRANCH  19  20
ATOM     20  C   UNL     1      31.384  25.097  34.637  1.00  0.00    -0.000 C 
BRANCH  20  21
ATOM     21  C   UNL     1      31.425  25.124  33.100  1.00  0.00    -0.000 C 
BRANCH  21  22
ATOM     22  C   UNL     1      30.021  25.125  32.474  1.00  0.00    -0.000 C 
BRANCH  22  23
ATOM     23  C   UNL     1      30.036  24.751  30.984  1.00  0.00    -0.000 C 
BRANCH  23  24
ATOM     24  C   UNL     1      31.461  24.815  30.415  1.00  0.00    -0.000 C 
BRANCH  24  25
ATOM     25  C   UNL     1      31.530  24.363  28.947  1.00  0.00    -0.003 C 
ATOM     26  C   UNL     1      30.230  23.725  28.463  1.00  0.00     0.004 C 
ENDBRANCH  24  25
ENDBRANCH  23  24
ENDBRANCH  22  23
ENDBRANCH  21  22
ENDBRANCH  20  21
ENDBRANCH  19  20
ENDBRANCH  18  19
ENDBRANCH  17  18
ENDBRANCH  16  17
ENDBRANCH  15  16
ENDBRANCH   1  15
TORSDOF 22
ENDMDL
MODEL 3
REMARK VINA RESULT:     8.516      1.982      4.123
REMARK INTER + INTRA:          18.578
REMARK INTER:                  19.482
REMARK INTRA:                  -0.905
REMARK UNBOUND:                -0.891
REMARK SMILES CCCCCCCCCCCCCCCCCCCCCCCC(=O)[O-]
REMARK SMILES IDX 13 1 14 2 15 3 16 4 17 5 18 6 19 7 20 8 21 9 22 10 23 11
REMARK SMILES IDX 24 12 25 13 26 14 12 15 11 16 10 17 9 18 8 19 7 20 6 21 5 22
REMARK SMILES IDX 4 23 3 24 2 25 1 26
REMARK H PARENT
REMARK Flexibility Score: inf
ROOT
ATOM      1  C   UNL     1      32.229  22.884  37.136  1.00  0.00     0.000 C 
ENDROOT
BRANCH   1   2
ATOM      2  C   UNL     1      32.208  24.042  36.121  1.00  0.00     0.000 C 
BRANCH   2   3
ATOM      3  C   UNL     1      31.433  23.760  34.819  1.00  0.00     0.000 C 
BRANCH   3   4
ATOM      4  C   UNL     1      31.717  24.769  33.685  1.00  0.00     0.000 C 
BRANCH   4   5
ATOM      5  C   UNL     1      30.608  24.791  32.616  1.00  0.00     0.000 C 
BRANCH   5   6
ATOM      6  C   UNL     1      31.146  25.106  31.210  1.00  0.00     0.000 C 
BRANCH   6   7
ATOM      7  C   UNL     1      30.879  23.977  30.204  1.00  0.00     0.000 C 
BRANCH   7   8
ATOM      8  C   UNL     1      30.151  24.513  28.962  1.00  0.00     0.000 C 
BRANCH   8   9
ATOM      9  C   UNL     1      30.896  24.202  27.655  1.00  0.00     0.000 C 
BRANCH   9  10
ATOM     10  C   UNL     1      32.327  23.690  27.900  1.00  0.00     0.006 C 
BRANCH  10  11
ATOM     11  C   UNL     1      33.338  24.836  28.037  1.00  0.00     0.053 C 
BRANCH  11  12
ATOM     12  C   UNL     1      34.710  24.330  28.363  1.00  0.00     0.041 C 
ATOM     13  O   UNL     1      35.398  24.892  29.257  1.00  0.00    -0.550 OA
ATOM     14  O   UNL     1      35.221  23.228  27.693  1.00  0.00    -0.550 OA
ENDBRANCH  11  12
ENDBRANCH  10  11
ENDBRANCH   9  10
ENDBRANCH   8   9
ENDBRANCH   7   8
ENDBRANCH   6   7
ENDBRANCH   5   6
ENDBRANCH   4   5
ENDBRANCH   3   4
ENDBRANCH   2   3
ENDBRANCH   1   2
BRANCH   1  15
ATOM     15  C   UNL     1      31.951  21.489  36.543  1.00  0.00     0.000 C 
BRANCH  15  16
ATOM     16  C   UNL     1      31.141  20.542  37.451  1.00  0.00     0.000 C 
BRANCH  16  17
ATOM     17  C   UNL     1      31.709  19.115  37.574  1.00  0.00     0.000 C 
BRANCH  17  18
ATOM     18  C   UNL     1      32.274  18.756  38.962  1.00  0.00    -0.000 C 
BRANCH  18  19
ATOM     19  C   UNL     1      33.377  17.678  38.965  1.00  0.00    -0.000 C 
BRANCH  19  20
ATOM     20  C   UNL     1      34.361  17.751  40.146  1.00  0.00    -0.000 C 
BRANCH  20  21
ATOM     21  C   UNL     1      33.770  17.192  41.451  1.00  0.00    -0.000 C 
BRANCH  21  22
ATOM     22  C   UNL     1      34.775  17.232  42.615  1.00  0.00    -0.000 C 
BRANCH  22  23
ATOM     23  C   UNL     1      34.785  15.931  43.434  1.00  0.00    -0.000 C 
BRANCH  23  24
ATOM     24  C   UNL     1      36.130  15.204  43.294  1.00  0.00    -0.000 C 
BRANCH  24  25
ATOM     25  C   UNL     1      35.983  13.807  42.669  1.00  0.00    -0.003 C 
ATOM     26  C   UNL     1      34.962  13.772  41.534  1.00  0.00     0.004 C 
ENDBRANCH  24  25
ENDBRANCH  23  24
ENDBRANCH  22  23
ENDBRANCH  21  22
ENDBRANCH  20  21
ENDBRANCH  19  20
ENDBRANCH  18  19
ENDBRANCH  17  18
ENDBRANCH  16  17
ENDBRANCH  15  16
ENDBRANCH   1  15
TORSDOF 22
ENDMDL
MODEL 4
REMARK VINA RESULT:     8.913      5.484     13.415
REMARK INTER + INTRA:          19.486
REMARK INTER:                  20.505
REMARK INTRA:                  -1.018
REMARK UNBOUND:                -0.891
REMARK SMILES CCCCCCCCCCCCCCCCCCCCCCCC(=O)[O-]
REMARK SMILES IDX 13 1 14 2 15 3 16 4 17 5 18 6 19 7 20 8 21 9 22 10 23 11
REMARK SMILES IDX 24 12 25 13 26 14 12 15 11 16 10 17 9 18 8 19 7 20 6 21 5 22
REMARK SMILES IDX 4 23 3 24 2 25 1 26
REMARK H PARENT
REMARK Flexibility Score: inf
ROOT
ATOM      1  C   UNL     1      31.616  22.023  37.033  1.00  0.00     0.000 C 
ENDROOT
BRANCH   1   2
ATOM      2  C   UNL     1      31.606  20.540  36.617  1.00  0.00     0.000 C 
BRANCH   2   3
ATOM      3  C   UNL     1      31.420  19.535  37.770  1.00  0.00     0.000 C 
BRANCH   3   4
ATOM      4  C   UNL     1      31.820  18.087  37.416  1.00  0.00     0.000 C 
BRANCH   4   5
ATOM      5  C   UNL     1      33.078  17.614  38.169  1.00  0.00     0.000 C 
BRANCH   5   6
ATOM      6  C   UNL     1      33.195  18.229  39.573  1.00  0.00     0.000 C 
BRANCH   6   7
ATOM      7  C   UNL     1      34.101  17.413  40.506  1.00  0.00     0.000 C 
BRANCH   7   8
ATOM      8  C   UNL     1      33.812  17.747  41.977  1.00  0.00     0.000 C 
BRANCH   8   9
ATOM      9  C   UNL     1      35.073  17.710  42.855  1.00  0.00     0.000 C 
BRANCH   9  10
ATOM     10  C   UNL     1      35.162  16.431  43.705  1.00  0.00     0.006 C 
BRANCH  10  11
ATOM     11  C   UNL     1      34.711  15.185  42.930  1.00  0.00     0.053 C 
BRANCH  11  12
ATOM     12  C   UNL     1      35.805  14.167  42.830  1.00  0.00     0.041 C 
ATOM     13  O   UNL     1      36.905  14.358  43.416  1.00  0.00    -0.550 OA
ATOM     14  O   UNL     1      35.604  13.000  42.107  1.00  0.00    -0.550 OA
ENDBRANCH  11  12
ENDBRANCH  10  11
ENDBRANCH   9  10
ENDBRANCH   8   9
ENDBRANCH   7   8
ENDBRANCH   6   7
ENDBRANCH   5   6
ENDBRANCH   4   5
ENDBRANCH   3   4
ENDBRANCH   2   3
ENDBRANCH   1   2
BRANCH   1  15
ATOM     15  C   UNL     1      32.273  22.983  36.022  1.00  0.00     0.000 C 
BRANCH  15  16
ATOM     16  C   UNL     1      31.726  24.424  36.036  1.00  0.00     0.000 C 
BRANCH  16  17
ATOM     17  C   UNL     1      30.849  24.799  34.826  1.00  0.00     0.000 C 
BRANCH  17  18
ATOM     18  C   UNL     1      31.626  25.122  33.534  1.00  0.00    -0.000 C 
BRANCH  18  19
ATOM     19  C   UNL     1      31.577  24.030  32.447  1.00  0.00    -0.000 C 
BRANCH  19  20
ATOM     20  C   UNL     1      30.285  23.996  31.611  1.00  0.00    -0.000 C 
BRANCH  20  21
ATOM     21  C   UNL     1      30.369  24.868  30.346  1.00  0.00    -0.000 C 
BRANCH  21  22
ATOM     22  C   UNL     1      31.818  25.095  29.884  1.00  0.00    -0.000 C 
BRANCH  22  23
ATOM     23  C   UNL     1      32.242  24.130  28.766  1.00  0.00    -0.000 C 
BRANCH  23  24
ATOM     24  C   UNL     1      33.675  24.424  28.300  1.00  0.00    -0.000 C 
BRANCH  24  25
ATOM     25  C   UNL     1      34.607  24.802  29.462  1.00  0.00    -0.003 C 
ATOM     26  C   UNL     1      36.064  24.423  29.199  1.00  0.00     0.004 C 
ENDBRANCH  24  25
ENDBRANCH  23  24
ENDBRANCH  22  23
ENDBRANCH  21  22
ENDBRANCH  20  21
ENDBRANCH  19  20
ENDBRANCH  18  19
ENDBRANCH  17  18
ENDBRANCH  16  17
ENDBRANCH  15  16
ENDBRANCH   1  15
TORSDOF 22
ENDMDL
MODEL 5
REMARK VINA RESULT:     9.368      1.265      2.720
REMARK INTER + INTRA:          20.526
REMARK INTER:                  21.479
REMARK INTRA:                  -0.953
REMARK UNBOUND:                -0.891
REMARK SMILES CCCCCCCCCCCCCCCCCCCCCCCC(=O)[O-]
REMARK SMILES IDX 13 1 14 2 15 3 16 4 17 5 18 6 19 7 20 8 21 9 22 10 23 11
REMARK SMILES IDX 24 12 25 13 26 14 12 15 11 16 10 17 9 18 8 19 7 20 6 21 5 22
REMARK SMILES IDX 4 23 3 24 2 25 1 26
REMARK H PARENT
REMARK Flexibility Score: inf
ROOT
ATOM      1  C   UNL     1      31.818  21.668  37.021  1.00  0.00     0.000 C 
ENDROOT
BRANCH   1   2
ATOM      2  C   UNL     1      31.688  23.147  37.432  1.00  0.00     0.000 C 
BRANCH   2   3
ATOM      3  C   UNL     1      31.508  24.139  36.266  1.00  0.00     0.000 C 
BRANCH   3   4
ATOM      4  C   UNL     1      32.606  24.045  35.184  1.00  0.00     0.000 C 
BRANCH   4   5
ATOM      5  C   UNL     1      32.176  24.666  33.842  1.00  0.00     0.000 C 
BRANCH   5   6
ATOM      6  C   UNL     1      31.217  23.763  33.049  1.00  0.00     0.000 C 
BRANCH   6   7
ATOM      7  C   UNL     1      30.137  24.555  32.297  1.00  0.00     0.000 C 
BRANCH   7   8
ATOM      8  C   UNL     1      30.694  25.123  30.983  1.00  0.00     0.000 C 
BRANCH   8   9
ATOM      9  C   UNL     1      30.375  24.236  29.769  1.00  0.00     0.000 C 
BRANCH   9  10
ATOM     10  C   UNL     1      30.365  25.026  28.449  1.00  0.00     0.006 C 
BRANCH  10  11
ATOM     11  C   UNL     1      31.328  24.435  27.411  1.00  0.00     0.053 C 
BRANCH  11  12
ATOM     12  C   UNL     1      32.448  23.680  28.059  1.00  0.00     0.041 C 
ATOM     13  O   UNL     1      32.623  22.458  27.799  1.00  0.00    -0.550 OA
ATOM     14  O   UNL     1      33.308  24.328  28.933  1.00  0.00    -0.550 OA
ENDBRANCH  11  12
ENDBRANCH  10  11
ENDBRANCH   9  10
ENDBRANCH   8   9
ENDBRANCH   7   8
ENDBRANCH   6   7
ENDBRANCH   5   6
ENDBRANCH   4   5
ENDBRANCH   3   4
ENDBRANCH   2   3
ENDBRANCH   1   2
BRANCH   1  15
ATOM     15  C   UNL     1      31.109  20.665  37.953  1.00  0.00     0.000 C 
BRANCH  15  16
ATOM     16  C   UNL     1      31.603  19.209  37.843  1.00  0.00     0.000 C 
BRANCH  16  17
ATOM     17  C   UNL     1      32.950  18.925  38.535  1.00  0.00     0.000 C 
BRANCH  17  18
ATOM     18  C   UNL     1      33.238  17.437  38.814  1.00  0.00    -0.000 C 
BRANCH  18  19
ATOM     19  C   UNL     1      34.262  17.165  39.934  1.00  0.00    -0.000 C 
BRANCH  19  20
ATOM     20  C   UNL     1      33.722  17.318  41.368  1.00  0.00    -0.000 C 
BRANCH  20  21
ATOM     21  C   UNL     1      34.834  17.309  42.430  1.00  0.00    -0.000 C 
BRANCH  21  22
ATOM     22  C   UNL     1      34.788  16.055  43.319  1.00  0.00    -0.000 C 
BRANCH  22  23
ATOM     23  C   UNL     1      35.829  15.001  42.911  1.00  0.00    -0.000 C 
BRANCH  23  24
ATOM     24  C   UNL     1      35.148  13.707  42.442  1.00  0.00    -0.000 C 
BRANCH  24  25
ATOM     25  C   UNL     1      34.980  13.649  40.915  1.00  0.00    -0.003 C 
ATOM     26  C   UNL     1      34.519  12.279  40.422  1.00  0.00     0.004 C 
ENDBRANCH  24  25
ENDBRANCH  23  24
ENDBRANCH  22  23
ENDBRANCH  21  22
ENDBRANCH  20  21
ENDBRANCH  19  20
ENDBRANCH  18  19
ENDBRANCH  17  18
ENDBRANCH  16  17
ENDBRANCH  15  16
ENDBRANCH   1  15
TORSDOF 22
ENDMDL
MODEL 6
REMARK VINA RESULT:     9.464      5.018     13.467
REMARK INTER + INTRA:          20.746
REMARK INTER:                  21.838
REMARK INTRA:                  -1.092
REMARK UNBOUND:                -0.891
REMARK SMILES CCCCCCCCCCCCCCCCCCCCCCCC(=O)[O-]
REMARK SMILES IDX 13 1 14 2 15 3 16 4 17 5 18 6 19 7 20 8 21 9 22 10 23 11
REMARK SMILES IDX 24 12 25 13 26 14 12 15 11 16 10 17 9 18 8 19 7 20 6 21 5 22
REMARK SMILES IDX 4 23 3 24 2 25 1 26
REMARK H PARENT
REMARK Flexibility Score: inf
ROOT
ATOM      1  C   UNL     1      31.585  20.817  37.096  1.00  0.00     0.000 C 
ENDROOT
BRANCH   1   2
ATOM      2  C   UNL     1      30.969  19.764  38.038  1.00  0.00     0.000 C 
BRANCH   2   3
ATOM      3  C   UNL     1      31.438  18.316  37.799  1.00  0.00     0.000 C 
BRANCH   3   4
ATOM      4  C   UNL     1      32.886  18.038  38.255  1.00  0.00     0.000 C 
BRANCH   4   5
ATOM      5  C   UNL     1      33.022  17.944  39.787  1.00  0.00     0.000 C 
BRANCH   5   6
ATOM      6  C   UNL     1      34.216  17.082  40.226  1.00  0.00     0.000 C 
BRANCH   6   7
ATOM      7  C   UNL     1      34.380  17.023  41.751  1.00  0.00     0.000 C 
BRANCH   7   8
ATOM      8  C   UNL     1      34.011  15.631  42.286  1.00  0.00     0.000 C 
BRANCH   8   9
ATOM      9  C   UNL     1      35.217  14.681  42.351  1.00  0.00     0.000 C 
BRANCH   9  10
ATOM     10  C   UNL     1      35.123  13.540  41.322  1.00  0.00     0.006 C 
BRANCH  10  11
ATOM     11  C   UNL     1      34.552  12.253  41.932  1.00  0.00     0.053 C 
BRANCH  11  12
ATOM     12  C   UNL     1      33.588  11.579  41.004  1.00  0.00     0.041 C 
ATOM     13  O   UNL     1      32.669  10.849  41.464  1.00  0.00    -0.550 OA
ATOM     14  O   UNL     1      33.693  11.772  39.634  1.00  0.00    -0.550 OA
ENDBRANCH  11  12
ENDBRANCH  10  11
ENDBRANCH   9  10
ENDBRANCH   8   9
ENDBRANCH   7   8
ENDBRANCH   6   7
ENDBRANCH   5   6
ENDBRANCH   4   5
ENDBRANCH   3   4
ENDBRANCH   2   3
ENDBRANCH   1   2
BRANCH   1  15
ATOM     15  C   UNL     1      31.433  22.279  37.561  1.00  0.00     0.000 C 
BRANCH  15  16
ATOM     16  C   UNL     1      32.248  23.309  36.754  1.00  0.00     0.000 C 
BRANCH  16  17
ATOM     17  C   UNL     1      31.495  23.954  35.574  1.00  0.00     0.000 C 
BRANCH  17  18
ATOM     18  C   UNL     1      32.264  25.071  34.842  1.00  0.00    -0.000 C 
BRANCH  18  19
ATOM     19  C   UNL     1      32.172  25.033  33.304  1.00  0.00    -0.000 C 
BRANCH  19  20
ATOM     20  C   UNL     1      30.747  25.125  32.730  1.00  0.00    -0.000 C 
BRANCH  20  21
ATOM     21  C   UNL     1      30.593  24.387  31.389  1.00  0.00    -0.000 C 
BRANCH  21  22
ATOM     22  C   UNL     1      29.595  25.080  30.447  1.00  0.00    -0.000 C 
BRANCH  22  23
ATOM     23  C   UNL     1      29.901  24.820  28.964  1.00  0.00    -0.000 C 
BRANCH  23  24
ATOM     24  C   UNL     1      31.220  24.050  28.801  1.00  0.00    -0.000 C 
BRANCH  24  25
ATOM     25  C   UNL     1      32.360  24.937  28.276  1.00  0.00    -0.003 C 
ATOM     26  C   UNL     1      33.553  24.991  29.228  1.00  0.00     0.004 C 
ENDBRANCH  24  25
ENDBRANCH  23  24
ENDBRANCH  22  23
ENDBRANCH  21  22
ENDBRANCH  20  21
ENDBRANCH  19  20
ENDBRANCH  18  19
ENDBRANCH  17  18
ENDBRANCH  16  17
ENDBRANCH  15  16
ENDBRANCH   1  15
TORSDOF 22
ENDMDL
MODEL 7
REMARK VINA RESULT:     9.539      5.248     12.874
REMARK INTER + INTRA:          20.916
REMARK INTER:                  22.262
REMARK INTRA:                  -1.346
REMARK UNBOUND:                -0.891
REMARK SMILES CCCCCCCCCCCCCCCCCCCCCCCC(=O)[O-]
REMARK SMILES IDX 13 1 14 2 15 3 16 4 17 5 18 6 19 7 20 8 21 9 22 10 23 11
REMARK SMILES IDX 24 12 25 13 26 14 12 15 11 16 10 17 9 18 8 19 7 20 6 21 5 22
REMARK SMILES IDX 4 23 3 24 2 25 1 26
REMARK H PARENT
REMARK Flexibility Score: inf
ROOT
ATOM      1  C   UNL     1      32.366  18.389  38.673  1.00  0.00     0.000 C 
ENDROOT
BRANCH   1   2
ATOM      2  C   UNL     1      33.807  18.045  39.094  1.00  0.00     0.000 C 
BRANCH   2   3
ATOM      3  C   UNL     1      33.940  16.855  40.065  1.00  0.00     0.000 C 
BRANCH   3   4
ATOM      4  C   UNL     1      33.805  17.238  41.554  1.00  0.00     0.000 C 
BRANCH   4   5
ATOM      5  C   UNL     1      35.099  16.993  42.354  1.00  0.00     0.000 C 
BRANCH   5   6
ATOM      6  C   UNL     1      34.992  15.788  43.302  1.00  0.00     0.000 C 
BRANCH   6   7
ATOM      7  C   UNL     1      35.796  14.574  42.815  1.00  0.00     0.000 C 
BRANCH   7   8
ATOM      8  C   UNL     1      34.858  13.459  42.328  1.00  0.00     0.000 C 
BRANCH   8   9
ATOM      9  C   UNL     1      35.207  12.965  40.915  1.00  0.00     0.000 C 
BRANCH   9  10
ATOM     10  C   UNL     1      34.070  13.214  39.907  1.00  0.00     0.006 C 
BRANCH  10  11
ATOM     11  C   UNL     1      33.516  11.907  39.322  1.00  0.00     0.053 C 
BRANCH  11  12
ATOM     12  C   UNL     1      33.399  10.838  40.365  1.00  0.00     0.041 C 
ATOM     13  O   UNL     1      32.431  10.843  41.173  1.00  0.00    -0.550 OA
ATOM     14  O   UNL     1      34.347   9.827  40.432  1.00  0.00    -0.550 OA
ENDBRANCH  11  12
ENDBRANCH  10  11
ENDBRANCH   9  10
ENDBRANCH   8   9
ENDBRANCH   7   8
ENDBRANCH   6   7
ENDBRANCH   5   6
ENDBRANCH   4   5
ENDBRANCH   3   4
ENDBRANCH   2   3
ENDBRANCH   1   2
BRANCH   1  15
ATOM     15  C   UNL     1      32.120  18.426  37.151  1.00  0.00     0.000 C 
BRANCH  15  16
ATOM     16  C   UNL     1      31.381  19.678  36.639  1.00  0.00     0.000 C 
BRANCH  16  17
ATOM     17  C   UNL     1      30.949  20.672  37.735  1.00  0.00     0.000 C 
BRANCH  17  18
ATOM     18  C   UNL     1      31.735  21.998  37.759  1.00  0.00    -0.000 C 
BRANCH  18  19
ATOM     19  C   UNL     1      31.934  22.669  36.385  1.00  0.00    -0.000 C 
BRANCH  19  20
ATOM     20  C   UNL     1      32.160  24.191  36.426  1.00  0.00    -0.000 C 
BRANCH  20  21
ATOM     21  C   UNL     1      32.519  24.779  35.050  1.00  0.00    -0.000 C 
BRANCH  21  22
ATOM     22  C   UNL     1      31.312  24.829  34.099  1.00  0.00    -0.000 C 
BRANCH  22  23
ATOM     23  C   UNL     1      31.681  24.463  32.653  1.00  0.00    -0.000 C 
BRANCH  23  24
ATOM     24  C   UNL     1      30.435  24.051  31.855  1.00  0.00    -0.000 C 
BRANCH  24  25
ATOM     25  C   UNL     1      30.001  25.124  30.844  1.00  0.00    -0.003 C 
ATOM     26  C   UNL     1      29.313  24.534  29.614  1.00  0.00     0.004 C 
ENDBRANCH  24  25
ENDBRANCH  23  24
ENDBRANCH  22  23
ENDBRANCH  21  22
ENDBRANCH  20  21
ENDBRANCH  19  20
ENDBRANCH  18  19
ENDBRANCH  17  18
ENDBRANCH  16  17
ENDBRANCH  15  16
ENDBRANCH   1  15
TORSDOF 22
ENDMDL
MODEL 8
REMARK VINA RESULT:     9.552      5.209     12.805
REMARK INTER + INTRA:          20.947
REMARK INTER:                  22.311
REMARK INTRA:                  -1.364
REMARK UNBOUND:                -0.891
REMARK SMILES CCCCCCCCCCCCCCCCCCCCCCCC(=O)[O-]
REMARK SMILES IDX 13 1 14 2 15 3 16 4 17 5 18 6 19 7 20 8 21 9 22 10 23 11
REMARK SMILES IDX 24 12 25 13 26 14 12 15 11 16 10 17 9 18 8 19 7 20 6 21 5 22
REMARK SMILES IDX 4 23 3 24 2 25 1 26
REMARK H PARENT
REMARK Flexibility Score: inf
ROOT
ATOM      1  C   UNL     1      31.812  18.739  37.447  1.00  0.00     0.000 C 
ENDROOT
BRANCH   1   2
ATOM      2  C   UNL     1      32.360  18.500  38.867  1.00  0.00     0.000 C 
BRANCH   2   3
ATOM      3  C   UNL     1      33.824  18.025  38.934  1.00  0.00     0.000 C 
BRANCH   3   4
ATOM      4  C   UNL     1      34.092  16.959  40.018  1.00  0.00     0.000 C 
BRANCH   4   5
ATOM      5  C   UNL     1      33.929  17.508  41.448  1.00  0.00     0.000 C 
BRANCH   5   6
ATOM      6  C   UNL     1      35.115  17.153  42.359  1.00  0.00     0.000 C 
BRANCH   6   7
ATOM      7  C   UNL     1      34.675  16.557  43.704  1.00  0.00     0.000 C 
BRANCH   7   8
ATOM      8  C   UNL     1      34.911  15.040  43.732  1.00  0.00     0.000 C 
BRANCH   8   9
ATOM      9  C   UNL     1      36.191  14.623  42.989  1.00  0.00     0.000 C 
BRANCH   9  10
ATOM     10  C   UNL     1      35.993  13.353  42.143  1.00  0.00     0.006 C 
BRANCH  10  11
ATOM     11  C   UNL     1      34.510  13.020  41.933  1.00  0.00     0.053 C 
BRANCH  11  12
ATOM     12  C   UNL     1      34.275  12.329  40.625  1.00  0.00     0.041 C 
ATOM     13  O   UNL     1      34.539  12.917  39.541  1.00  0.00    -0.550 OA
ATOM     14  O   UNL     1      33.785  11.031  40.602  1.00  0.00    -0.550 OA
ENDBRANCH  11  12
ENDBRANCH  10  11
ENDBRANCH   9  10
ENDBRANCH   8   9
ENDBRANCH   7   8
ENDBRANCH   6   7
ENDBRANCH   5   6
ENDBRANCH   4   5
ENDBRANCH   3   4
ENDBRANCH   2   3
ENDBRANCH   1   2
BRANCH   1  15
ATOM     15  C   UNL     1      31.044  20.062  37.256  1.00  0.00     0.000 C 
BRANCH  15  16
ATOM     16  C   UNL     1      31.891  21.339  37.420  1.00  0.00     0.000 C 
BRANCH  16  17
ATOM     17  C   UNL     1      31.738  22.371  36.286  1.00  0.00     0.000 C 
BRANCH  17  18
ATOM     18  C   UNL     1      32.475  23.705  36.516  1.00  0.00    -0.000 C 
BRANCH  18  19
ATOM     19  C   UNL     1      32.223  24.788  35.448  1.00  0.00    -0.000 C 
BRANCH  19  20
ATOM     20  C   UNL     1      32.416  24.328  33.991  1.00  0.00    -0.000 C 
BRANCH  20  21
ATOM     21  C   UNL     1      33.723  24.848  33.369  1.00  0.00    -0.000 C 
BRANCH  21  22
ATOM     22  C   UNL     1      34.969  24.363  34.129  1.00  0.00    -0.000 C 
BRANCH  22  23
ATOM     23  C   UNL     1      36.279  24.864  33.501  1.00  0.00    -0.000 C 
BRANCH  23  24
ATOM     24  C   UNL     1      36.559  24.149  32.170  1.00  0.00    -0.000 C 
BRANCH  24  25
ATOM     25  C   UNL     1      36.946  25.125  31.047  1.00  0.00    -0.003 C 
ATOM     26  C   UNL     1      35.954  25.112  29.885  1.00  0.00     0.004 C 
ENDBRANCH  24  25
ENDBRANCH  23  24
ENDBRANCH  22  23
ENDBRANCH  21  22
ENDBRANCH  20  21
ENDBRANCH  19  20
ENDBRANCH  18  19
ENDBRANCH  17  18
ENDBRANCH  16  17
ENDBRANCH  15  16
ENDBRANCH   1  15
TORSDOF 22
ENDMDL
MODEL 9
REMARK VINA RESULT:    10.038      5.593     12.798
REMARK INTER + INTRA:          22.058
REMARK INTER:                  23.165
REMARK INTRA:                  -1.107
REMARK UNBOUND:                -0.891
REMARK SMILES CCCCCCCCCCCCCCCCCCCCCCCC(=O)[O-]
REMARK SMILES IDX 13 1 14 2 15 3 16 4 17 5 18 6 19 7 20 8 21 9 22 10 23 11
REMARK SMILES IDX 24 12 25 13 26 14 12 15 11 16 10 17 9 18 8 19 7 20 6 21 5 22
REMARK SMILES IDX 4 23 3 24 2 25 1 26
REMARK H PARENT
REMARK Flexibility Score: inf
ROOT
ATOM      1  C   UNL     1      33.551  17.730  38.991  1.00  0.00     0.000 C 
ENDROOT
BRANCH   1   2
ATOM      2  C   UNL     1      33.481  17.901  40.520  1.00  0.00     0.000 C 
BRANCH   2   3
ATOM      3  C   UNL     1      34.602  17.197  41.311  1.00  0.00     0.000 C 
BRANCH   3   4
ATOM      4  C   UNL     1      34.876  17.813  42.699  1.00  0.00     0.000 C 
BRANCH   4   5
ATOM      5  C   UNL     1      34.916  16.759  43.822  1.00  0.00     0.000 C 
BRANCH   5   6
ATOM      6  C   UNL     1      34.765  15.323  43.294  1.00  0.00     0.000 C 
BRANCH   6   7
ATOM      7  C   UNL     1      36.114  14.614  43.103  1.00  0.00     0.000 C 
BRANCH   7   8
ATOM      8  C   UNL     1      35.925  13.264  42.395  1.00  0.00     0.000 C 
BRANCH   8   9
ATOM      9  C   UNL     1      34.874  13.322  41.274  1.00  0.00     0.000 C 
BRANCH   9  10
ATOM     10  C   UNL     1      33.929  12.108  41.291  1.00  0.00     0.006 C 
BRANCH  10  11
ATOM     11  C   UNL     1      33.600  11.609  39.877  1.00  0.00     0.053 C 
BRANCH  11  12
ATOM     12  C   UNL     1      33.410  10.123  39.844  1.00  0.00     0.041 C 
ATOM     13  O   UNL     1      32.289   9.620  40.128  1.00  0.00    -0.550 OA
ATOM     14  O   UNL     1      34.464   9.296  39.481  1.00  0.00    -0.550 OA
ENDBRANCH  11  12
ENDBRANCH  10  11
ENDBRANCH   9  10
ENDBRANCH   8   9
ENDBRANCH   7   8
ENDBRANCH   6   7
ENDBRANCH   5   6
ENDBRANCH   4   5
ENDBRANCH   3   4
ENDBRANCH   2   3
ENDBRANCH   1   2
BRANCH   1  15
ATOM     15  C   UNL     1      33.076  18.949  38.174  1.00  0.00     0.000 C 
BRANCH  15  16
ATOM     16  C   UNL     1      31.796  18.723  37.347  1.00  0.00     0.000 C 
BRANCH  16  17
ATOM     17  C   UNL     1      30.819  19.915  37.321  1.00  0.00     0.000 C 
BRANCH  17  18
ATOM     18  C   UNL     1      31.424  21.263  37.761  1.00  0.00    -0.000 C 
BRANCH  18  19
ATOM     19  C   UNL     1      31.958  22.148  36.617  1.00  0.00    -0.000 C 
BRANCH  19  20
ATOM     20  C   UNL     1      31.583  23.638  36.713  1.00  0.00    -0.000 C 
BRANCH  20  21
ATOM     21  C   UNL     1      31.803  24.396  35.393  1.00  0.00    -0.000 C 
BRANCH  21  22
ATOM     22  C   UNL     1      33.016  23.869  34.608  1.00  0.00    -0.000 C 
BRANCH  22  23
ATOM     23  C   UNL     1      33.641  24.935  33.696  1.00  0.00    -0.000 C 
BRANCH  23  24
ATOM     24  C   UNL     1      35.171  24.947  33.831  1.00  0.00    -0.000 C 
BRANCH  24  25
ATOM     25  C   UNL     1      35.870  24.190  32.690  1.00  0.00    -0.003 C 
ATOM     26  C   UNL     1      36.685  25.110  31.783  1.00  0.00     0.004 C 
ENDBRANCH  24  25
ENDBRANCH  23  24
ENDBRANCH  22  23
ENDBRANCH  21  22
ENDBRANCH  20  21
ENDBRANCH  19  20
ENDBRANCH  18  19
ENDBRANCH  17  18
ENDBRANCH  16  17
ENDBRANCH  15  16
ENDBRANCH   1  15
TORSDOF 22
ENDMDL
