MODEL 1
REMARK VINA RESULT:    -4.666      0.000      0.000
REMARK INTER + INTRA:         -15.497
REMARK INTER:                 -11.759
REMARK INTRA:                  -3.738
REMARK UNBOUND:                -3.738
REMARK SMILES CCCCCCCCCCCCCCCCCCCCCCCCCCCC(=O)[O-]
REMARK SMILES IDX 15 1 16 2 17 3 18 4 19 5 20 6 21 7 22 8 23 9 24 10 25 11
REMARK SMILES IDX 26 12 27 13 28 14 29 15 30 16 14 17 13 18 12 19 11 20 10 21
REMARK SMILES IDX 9 22 8 23 7 24 6 25 5 26 4 27 3 28 2 29 1 30
REMARK H PARENT
REMARK Flexibility Score: inf
ROOT
ATOM      1  C   UNL     1       1.057  48.069  21.765  1.00  0.00     0.000 C 
ENDROOT
BRANCH   1   2
ATOM      2  C   UNL     1       1.790  49.424  21.719  1.00  0.00     0.000 C 
BRANCH   2   3
ATOM      3  C   UNL     1       0.896  50.657  21.943  1.00  0.00     0.000 C 
BRANCH   3   4
ATOM      4  C   UNL     1       1.648  51.997  22.087  1.00  0.00     0.000 C 
BRANCH   4   5
ATOM      5  C   UNL     1       2.883  51.967  23.012  1.00  0.00     0.000 C 
BRANCH   5   6
ATOM      6  C   UNL     1       3.124  53.257  23.818  1.00  0.00     0.000 C 
BRANCH   6   7
ATOM      7  C   UNL     1       2.183  53.387  25.027  1.00  0.00     0.000 C 
BRANCH   7   8
ATOM      8  C   UNL     1       2.058  52.080  25.831  1.00  0.00     0.000 C 
BRANCH   8   9
ATOM      9  C   UNL     1       0.676  51.400  25.765  1.00  0.00     0.000 C 
BRANCH   9  10
ATOM     10  C   UNL     1       0.712  49.861  25.695  1.00  0.00     0.000 C 
BRANCH  10  11
ATOM     11  C   UNL     1       2.113  49.250  25.486  1.00  0.00     0.000 C 
BRANCH  11  12
ATOM     12  C   UNL     1       2.636  48.404  26.661  1.00  0.00     0.006 C 
BRANCH  12  13
ATOM     13  C   UNL     1       3.591  49.180  27.577  1.00  0.00     0.053 C 
BRANCH  13  14
ATOM     14  C   UNL     1       2.919  49.528  28.869  1.00  0.00     0.041 C 
ATOM     15  O   UNL     1       1.680  49.345  29.007  1.00  0.00    -0.550 OA
ATOM     16  O   UNL     1       3.658  50.064  29.916  1.00  0.00    -0.550 OA
ENDBRANCH  13  14
ENDBRANCH  12  13
ENDBRANCH  11  12
ENDBRANCH  10  11
ENDBRANCH   9  10
ENDBRANCH   8   9
ENDBRANCH   7   8
ENDBRANCH   6   7
ENDBRANCH   5   6
ENDBRANCH   4   5
ENDBRANCH   3   4
ENDBRANCH   2   3
ENDBRANCH   1   2
BRANCH   1  17
ATOM     17  C   UNL     1      -0.034  47.988  22.854  1.00  0.00     0.000 C 
BRANCH  17  18
ATOM     18  C   UNL     1      -0.489  46.547  23.126  1.00  0.00     0.000 C 
BRANCH  18  19
ATOM     19  C   UNL     1      -0.611  46.293  24.637  1.00  0.00     0.000 C 
BRANCH  19  20
ATOM     20  C   UNL     1      -2.026  46.566  25.180  1.00  0.00     0.000 C 
BRANCH  20  21
ATOM     21  C   UNL     1      -3.118  45.613  24.660  1.00  0.00     0.000 C 
BRANCH  21  22
ATOM     22  C   UNL     1      -4.481  46.303  24.487  1.00  0.00    -0.000 C 
BRANCH  22  23
ATOM     23  C   UNL     1      -4.878  47.073  25.756  1.00  0.00    -0.000 C 
BRANCH  23  24
ATOM     24  C   UNL     1      -5.529  46.161  26.815  1.00  0.00    -0.000 C 
BRANCH  24  25
ATOM     25  C   UNL     1      -7.050  45.998  26.646  1.00  0.00    -0.000 C 
BRANCH  25  26
ATOM     26  C   UNL     1      -7.466  44.548  26.351  1.00  0.00    -0.000 C 
BRANCH  26  27
ATOM     27  C   UNL     1      -8.056  44.378  24.942  1.00  0.00    -0.000 C 
BRANCH  27  28
ATOM     28  C   UNL     1      -7.132  43.578  24.008  1.00  0.00    -0.000 C 
BRANCH  28  29
ATOM     29  C   UNL     1      -6.865  44.304  22.681  1.00  0.00    -0.003 C 
ATOM     30  C   UNL     1      -7.553  45.668  22.604  1.00  0.00     0.004 C 
ENDBRANCH  28  29
ENDBRANCH  27  28
ENDBRANCH  26  27
ENDBRANCH  25  26
ENDBRANCH  24  25
ENDBRANCH  23  24
ENDBRANCH  22  23
ENDBRANCH  21  22
ENDBRANCH  20  21
ENDBRANCH  19  20
ENDBRANCH  18  19
ENDBRANCH  17  18
ENDBRANCH   1  17
TORSDOF 26
ENDMDL
MODEL 2
REMARK VINA RESULT:    -4.644      3.158      8.143
REMARK INTER + INTRA:         -15.441
REMARK INTER:                 -10.880
REMARK INTRA:                  -4.561
REMARK UNBOUND:                -3.738
REMARK SMILES CCCCCCCCCCCCCCCCCCCCCCCCCCCC(=O)[O-]
REMARK SMILES IDX 15 1 16 2 17 3 18 4 19 5 20 6 21 7 22 8 23 9 24 10 25 11
REMARK SMILES IDX 26 12 27 13 28 14 29 15 30 16 14 17 13 18 12 19 11 20 10 21
REMARK SMILES IDX 9 22 8 23 7 24 6 25 5 26 4 27 3 28 2 29 1 30
REMARK H PARENT
REMARK Flexibility Score: inf
ROOT
ATOM      1  C   UNL     1       0.782  54.243  22.433  1.00  0.00     0.000 C 
ENDROOT
BRANCH   1   2
ATOM      2  C   UNL     1       1.817  53.105  22.339  1.00  0.00     0.000 C 
BRANCH   2   3
ATOM      3  C   UNL     1       1.540  52.062  21.240  1.00  0.00     0.000 C 
BRANCH   3   4
ATOM      4  C   UNL     1       0.979  50.714  21.740  1.00  0.00     0.000 C 
BRANCH   4   5
ATOM      5  C   UNL     1       1.863  49.482  21.456  1.00  0.00     0.000 C 
BRANCH   5   6
ATOM      6  C   UNL     1       1.155  48.124  21.610  1.00  0.00     0.000 C 
BRANCH   6   7
ATOM      7  C   UNL     1       0.273  48.052  22.868  1.00  0.00     0.000 C 
BRANCH   7   8
ATOM      8  C   UNL     1      -0.414  46.685  23.039  1.00  0.00     0.000 C 
BRANCH   8   9
ATOM      9  C   UNL     1      -0.636  46.241  24.498  1.00  0.00     0.000 C 
BRANCH   9  10
ATOM     10  C   UNL     1      -1.105  47.356  25.453  1.00  0.00     0.000 C 
BRANCH  10  11
ATOM     11  C   UNL     1      -2.635  47.519  25.564  1.00  0.00     0.000 C 
BRANCH  11  12
ATOM     12  C   UNL     1      -3.426  46.200  25.632  1.00  0.00     0.006 C 
BRANCH  12  13
ATOM     13  C   UNL     1      -4.485  46.081  24.528  1.00  0.00     0.053 C 
BRANCH  13  14
ATOM     14  C   UNL     1      -5.787  45.606  25.092  1.00  0.00     0.041 C 
ATOM     15  O   UNL     1      -6.661  46.438  25.455  1.00  0.00    -0.550 OA
ATOM     16  O   UNL     1      -6.033  44.245  25.226  1.00  0.00    -0.550 OA
ENDBRANCH  13  14
ENDBRANCH  12  13
ENDBRANCH  11  12
ENDBRANCH  10  11
ENDBRANCH   9  10
ENDBRANCH   8   9
ENDBRANCH   7   8
ENDBRANCH   6   7
ENDBRANCH   5   6
ENDBRANCH   4   5
ENDBRANCH   3   4
ENDBRANCH   2   3
ENDBRANCH   1   2
BRANCH   1  17
ATOM     17  C   UNL     1      -0.365  54.129  21.406  1.00  0.00     0.000 C 
BRANCH  17  18
ATOM     18  C   UNL     1      -1.738  53.966  22.072  1.00  0.00     0.000 C 
BRANCH  18  19
ATOM     19  C   UNL     1      -1.582  53.614  23.559  1.00  0.00     0.000 C 
BRANCH  19  20
ATOM     20  C   UNL     1      -2.232  52.269  23.931  1.00  0.00     0.000 C 
BRANCH  20  21
ATOM     21  C   UNL     1      -1.252  51.184  24.414  1.00  0.00     0.000 C 
BRANCH  21  22
ATOM     22  C   UNL     1      -1.267  51.000  25.939  1.00  0.00    -0.000 C 
BRANCH  22  23
ATOM     23  C   UNL     1       0.146  50.732  26.480  1.00  0.00    -0.000 C 
BRANCH  23  24
ATOM     24  C   UNL     1       1.243  51.312  25.565  1.00  0.00    -0.000 C 
BRANCH  24  25
ATOM     25  C   UNL     1       2.277  50.273  25.097  1.00  0.00    -0.000 C 
BRANCH  25  26
ATOM     26  C   UNL     1       2.240  48.979  25.926  1.00  0.00    -0.000 C 
BRANCH  26  27
ATOM     27  C   UNL     1       3.370  48.911  26.965  1.00  0.00    -0.000 C 
BRANCH  27  28
ATOM     28  C   UNL     1       2.864  49.131  28.402  1.00  0.00    -0.000 C 
BRANCH  28  29
ATOM     29  C   UNL     1       3.620  50.256  29.126  1.00  0.00    -0.003 C 
ATOM     30  C   UNL     1       2.773  51.517  29.304  1.00  0.00     0.004 C 
ENDBRANCH  28  29
ENDBRANCH  27  28
ENDBRANCH  26  27
ENDBRANCH  25  26
ENDBRANCH  24  25
ENDBRANCH  23  24
ENDBRANCH  22  23
ENDBRANCH  21  22
ENDBRANCH  20  21
ENDBRANCH  19  20
ENDBRANCH  18  19
ENDBRANCH  17  18
ENDBRANCH   1  17
TORSDOF 26
ENDMDL
MODEL 3
REMARK VINA RESULT:    -4.613      3.088      5.345
REMARK INTER + INTRA:         -15.363
REMARK INTER:                 -10.042
REMARK INTRA:                  -5.321
REMARK UNBOUND:                -3.738
REMARK SMILES CCCCCCCCCCCCCCCCCCCCCCCCCCCC(=O)[O-]
REMARK SMILES IDX 15 1 16 2 17 3 18 4 19 5 20 6 21 7 22 8 23 9 24 10 25 11
REMARK SMILES IDX 26 12 27 13 28 14 29 15 30 16 14 17 13 18 12 19 11 20 10 21
REMARK SMILES IDX 9 22 8 23 7 24 6 25 5 26 4 27 3 28 2 29 1 30
REMARK H PARENT
REMARK Flexibility Score: inf
ROOT
ATOM      1  C   UNL     1       2.873  52.077  23.138  1.00  0.00     0.000 C 
ENDROOT
BRANCH   1   2
ATOM      2  C   UNL     1       2.803  52.025  24.676  1.00  0.00     0.000 C 
BRANCH   2   3
ATOM      3  C   UNL     1       1.412  51.701  25.254  1.00  0.00     0.000 C 
BRANCH   3   4
ATOM      4  C   UNL     1       1.175  50.216  25.601  1.00  0.00     0.000 C 
BRANCH   4   5
ATOM      5  C   UNL     1       2.427  49.316  25.551  1.00  0.00     0.000 C 
BRANCH   5   6
ATOM      6  C   UNL     1       2.697  48.507  26.833  1.00  0.00     0.000 C 
BRANCH   6   7
ATOM      7  C   UNL     1       3.924  49.014  27.609  1.00  0.00     0.000 C 
BRANCH   7   8
ATOM      8  C   UNL     1       3.551  49.695  28.938  1.00  0.00     0.000 C 
BRANCH   8   9
ATOM      9  C   UNL     1       2.779  51.022  28.801  1.00  0.00     0.000 C 
BRANCH   9  10
ATOM     10  C   UNL     1       1.544  51.153  29.712  1.00  0.00     0.000 C 
BRANCH  10  11
ATOM     11  C   UNL     1       0.204  50.769  29.053  1.00  0.00     0.000 C 
BRANCH  11  12
ATOM     12  C   UNL     1      -0.317  49.364  29.405  1.00  0.00     0.006 C 
BRANCH  12  13
ATOM     13  C   UNL     1       0.413  48.740  30.602  1.00  0.00     0.053 C 
BRANCH  13  14
ATOM     14  C   UNL     1      -0.495  47.815  31.352  1.00  0.00     0.041 C 
ATOM     15  O   UNL     1      -1.591  47.456  30.845  1.00  0.00    -0.550 OA
ATOM     16  O   UNL     1      -0.136  47.359  32.614  1.00  0.00    -0.550 OA
ENDBRANCH  13  14
ENDBRANCH  12  13
ENDBRANCH  11  12
ENDBRANCH  10  11
ENDBRANCH   9  10
ENDBRANCH   8   9
ENDBRANCH   7   8
ENDBRANCH   6   7
ENDBRANCH   5   6
ENDBRANCH   4   5
ENDBRANCH   3   4
ENDBRANCH   2   3
ENDBRANCH   1   2
BRANCH   1  17
ATOM     17  C   UNL     1       1.496  52.226  22.456  1.00  0.00     0.000 C 
BRANCH  17  18
ATOM     18  C   UNL     1       1.126  51.006  21.600  1.00  0.00     0.000 C 
BRANCH  18  19
ATOM     19  C   UNL     1       2.137  49.868  21.812  1.00  0.00     0.000 C 
BRANCH  19  20
ATOM     20  C   UNL     1       1.516  48.471  21.635  1.00  0.00     0.000 C 
BRANCH  20  21
ATOM     21  C   UNL     1       0.408  48.117  22.645  1.00  0.00     0.000 C 
BRANCH  21  22
ATOM     22  C   UNL     1      -0.124  46.686  22.472  1.00  0.00    -0.000 C 
BRANCH  22  23
ATOM     23  C   UNL     1      -0.874  46.218  23.729  1.00  0.00    -0.000 C 
BRANCH  23  24
ATOM     24  C   UNL     1      -0.485  47.031  24.981  1.00  0.00    -0.000 C 
BRANCH  24  25
ATOM     25  C   UNL     1      -1.649  47.833  25.588  1.00  0.00    -0.000 C 
BRANCH  25  26
ATOM     26  C   UNL     1      -2.896  47.850  24.689  1.00  0.00    -0.000 C 
BRANCH  26  27
ATOM     27  C   UNL     1      -3.328  49.274  24.306  1.00  0.00    -0.000 C 
BRANCH  27  28
ATOM     28  C   UNL     1      -2.131  50.218  24.100  1.00  0.00    -0.000 C 
BRANCH  28  29
ATOM     29  C   UNL     1      -2.338  51.586  24.770  1.00  0.00    -0.003 C 
ATOM     30  C   UNL     1      -1.916  52.751  23.875  1.00  0.00     0.004 C 
ENDBRANCH  28  29
ENDBRANCH  27  28
ENDBRANCH  26  27
ENDBRANCH  25  26
ENDBRANCH  24  25
ENDBRANCH  23  24
ENDBRANCH  22  23
ENDBRANCH  21  22
ENDBRANCH  20  21
ENDBRANCH  19  20
ENDBRANCH  18  19
ENDBRANCH  17  18
ENDBRANCH   1  17
TORSDOF 26
ENDMDL
MODEL 4
REMARK VINA RESULT:    -4.608      1.938      3.413
REMARK INTER + INTRA:         -15.351
REMARK INTER:                 -12.788
REMARK INTRA:                  -2.563
REMARK UNBOUND:                -3.738
REMARK SMILES CCCCCCCCCCCCCCCCCCCCCCCCCCCC(=O)[O-]
REMARK SMILES IDX 15 1 16 2 17 3 18 4 19 5 20 6 21 7 22 8 23 9 24 10 25 11
REMARK SMILES IDX 26 12 27 13 28 14 29 15 30 16 14 17 13 18 12 19 11 20 10 21
REMARK SMILES IDX 9 22 8 23 7 24 6 25 5 26 4 27 3 28 2 29 1 30
REMARK H PARENT
REMARK Flexibility Score: inf
ROOT
ATOM      1  C   UNL     1      -0.732  46.562  24.187  1.00  0.00     0.000 C 
ENDROOT
BRANCH   1   2
ATOM      2  C   UNL     1      -0.177  46.973  22.809  1.00  0.00     0.000 C 
BRANCH   2   3
ATOM      3  C   UNL     1       0.410  48.395  22.740  1.00  0.00     0.000 C 
BRANCH   3   4
ATOM      4  C   UNL     1       1.630  48.558  21.808  1.00  0.00     0.000 C 
BRANCH   4   5
ATOM      5  C   UNL     1       2.150  50.002  21.645  1.00  0.00     0.000 C 
BRANCH   5   6
ATOM      6  C   UNL     1       1.059  51.088  21.628  1.00  0.00     0.000 C 
BRANCH   6   7
ATOM      7  C   UNL     1       1.561  52.443  22.155  1.00  0.00     0.000 C 
BRANCH   7   8
ATOM      8  C   UNL     1       2.927  52.343  22.858  1.00  0.00     0.000 C 
BRANCH   8   9
ATOM      9  C   UNL     1       2.882  52.448  24.395  1.00  0.00     0.000 C 
BRANCH   9  10
ATOM     10  C   UNL     1       1.486  52.254  25.019  1.00  0.00     0.000 C 
BRANCH  10  11
ATOM     11  C   UNL     1       1.239  50.868  25.647  1.00  0.00     0.000 C 
BRANCH  11  12
ATOM     12  C   UNL     1       2.369  49.844  25.430  1.00  0.00     0.006 C 
BRANCH  12  13
ATOM     13  C   UNL     1       2.264  48.632  26.366  1.00  0.00     0.053 C 
BRANCH  13  14
ATOM     14  C   UNL     1       3.019  48.877  27.635  1.00  0.00     0.041 C 
ATOM     15  O   UNL     1       2.399  49.028  28.721  1.00  0.00    -0.550 OA
ATOM     16  O   UNL     1       4.406  48.947  27.617  1.00  0.00    -0.550 OA
ENDBRANCH  13  14
ENDBRANCH  12  13
ENDBRANCH  11  12
ENDBRANCH  10  11
ENDBRANCH   9  10
ENDBRANCH   8   9
ENDBRANCH   7   8
ENDBRANCH   6   7
ENDBRANCH   5   6
ENDBRANCH   4   5
ENDBRANCH   3   4
ENDBRANCH   2   3
ENDBRANCH   1   2
BRANCH   1  17
ATOM     17  C   UNL     1      -2.136  47.128  24.486  1.00  0.00     0.000 C 
BRANCH  17  18
ATOM     18  C   UNL     1      -3.200  46.028  24.617  1.00  0.00     0.000 C 
BRANCH  18  19
ATOM     19  C   UNL     1      -2.655  44.683  24.113  1.00  0.00     0.000 C 
BRANCH  19  20
ATOM     20  C   UNL     1      -3.762  43.652  23.831  1.00  0.00     0.000 C 
BRANCH  20  21
ATOM     21  C   UNL     1      -5.198  44.160  24.059  1.00  0.00     0.000 C 
BRANCH  21  22
ATOM     22  C   UNL     1      -6.146  43.065  24.571  1.00  0.00    -0.000 C 
BRANCH  22  23
ATOM     23  C   UNL     1      -7.328  43.671  25.345  1.00  0.00    -0.000 C 
BRANCH  23  24
ATOM     24  C   UNL     1      -6.907  44.878  26.207  1.00  0.00    -0.000 C 
BRANCH  24  25
ATOM     25  C   UNL     1      -7.911  45.230  27.318  1.00  0.00    -0.000 C 
BRANCH  25  26
ATOM     26  C   UNL     1      -8.905  46.325  26.900  1.00  0.00    -0.000 C 
BRANCH  26  27
ATOM     27  C   UNL     1      -9.606  46.977  28.102  1.00  0.00    -0.000 C 
BRANCH  27  28
ATOM     28  C   UNL     1     -10.766  47.896  27.681  1.00  0.00    -0.000 C 
BRANCH  28  29
ATOM     29  C   UNL     1     -11.214  47.652  26.232  1.00  0.00    -0.003 C 
ATOM     30  C   UNL     1     -12.654  47.146  26.136  1.00  0.00     0.004 C 
ENDBRANCH  28  29
ENDBRANCH  27  28
ENDBRANCH  26  27
ENDBRANCH  25  26
ENDBRANCH  24  25
ENDBRANCH  23  24
ENDBRANCH  22  23
ENDBRANCH  21  22
ENDBRANCH  20  21
ENDBRANCH  19  20
ENDBRANCH  18  19
ENDBRANCH  17  18
ENDBRANCH   1  17
TORSDOF 26
ENDMDL
MODEL 5
REMARK VINA RESULT:    -4.597      3.296      8.822
REMARK INTER + INTRA:         -15.323
REMARK INTER:                 -11.550
REMARK INTRA:                  -3.773
REMARK UNBOUND:                -3.738
REMARK SMILES CCCCCCCCCCCCCCCCCCCCCCCCCCCC(=O)[O-]
REMARK SMILES IDX 15 1 16 2 17 3 18 4 19 5 20 6 21 7 22 8 23 9 24 10 25 11
REMARK SMILES IDX 26 12 27 13 28 14 29 15 30 16 14 17 13 18 12 19 11 20 10 21
REMARK SMILES IDX 9 22 8 23 7 24 6 25 5 26 4 27 3 28 2 29 1 30
REMARK H PARENT
REMARK Flexibility Score: inf
ROOT
ATOM      1  C   UNL     1       3.623  53.288  23.132  1.00  0.00     0.000 C 
ENDROOT
BRANCH   1   2
ATOM      2  C   UNL     1       3.039  51.883  22.889  1.00  0.00     0.000 C 
BRANCH   2   3
ATOM      3  C   UNL     1       1.692  51.858  22.143  1.00  0.00     0.000 C 
BRANCH   3   4
ATOM      4  C   UNL     1       1.480  50.645  21.212  1.00  0.00     0.000 C 
BRANCH   4   5
ATOM      5  C   UNL     1       2.019  49.300  21.743  1.00  0.00     0.000 C 
BRANCH   5   6
ATOM      6  C   UNL     1       1.020  48.130  21.683  1.00  0.00     0.000 C 
BRANCH   6   7
ATOM      7  C   UNL     1       0.219  47.964  22.985  1.00  0.00     0.000 C 
BRANCH   7   8
ATOM      8  C   UNL     1      -0.460  46.587  23.098  1.00  0.00     0.000 C 
BRANCH   8   9
ATOM      9  C   UNL     1      -0.840  46.159  24.529  1.00  0.00     0.000 C 
BRANCH   9  10
ATOM     10  C   UNL     1      -1.732  47.157  25.292  1.00  0.00     0.000 C 
BRANCH  10  11
ATOM     11  C   UNL     1      -3.135  46.632  25.655  1.00  0.00     0.000 C 
BRANCH  11  12
ATOM     12  C   UNL     1      -3.662  45.502  24.751  1.00  0.00     0.006 C 
BRANCH  12  13
ATOM     13  C   UNL     1      -5.178  45.574  24.528  1.00  0.00     0.053 C 
BRANCH  13  14
ATOM     14  C   UNL     1      -5.679  44.317  23.888  1.00  0.00     0.041 C 
ATOM     15  O   UNL     1      -5.496  43.204  24.450  1.00  0.00    -0.550 OA
ATOM     16  O   UNL     1      -6.339  44.373  22.667  1.00  0.00    -0.550 OA
ENDBRANCH  13  14
ENDBRANCH  12  13
ENDBRANCH  11  12
ENDBRANCH  10  11
ENDBRANCH   9  10
ENDBRANCH   8   9
ENDBRANCH   7   8
ENDBRANCH   6   7
ENDBRANCH   5   6
ENDBRANCH   4   5
ENDBRANCH   3   4
ENDBRANCH   2   3
ENDBRANCH   1   2
BRANCH   1  17
ATOM     17  C   UNL     1       2.641  54.435  22.812  1.00  0.00     0.000 C 
BRANCH  17  18
ATOM     18  C   UNL     1       2.881  55.677  23.682  1.00  0.00     0.000 C 
BRANCH  18  19
ATOM     19  C   UNL     1       3.171  55.273  25.136  1.00  0.00     0.000 C 
BRANCH  19  20
ATOM     20  C   UNL     1       1.904  55.214  26.008  1.00  0.00     0.000 C 
BRANCH  20  21
ATOM     21  C   UNL     1       1.858  54.047  27.013  1.00  0.00     0.000 C 
BRANCH  21  22
ATOM     22  C   UNL     1       1.895  52.670  26.333  1.00  0.00    -0.000 C 
BRANCH  22  23
ATOM     23  C   UNL     1       0.552  52.347  25.660  1.00  0.00    -0.000 C 
BRANCH  23  24
ATOM     24  C   UNL     1       0.364  50.835  25.423  1.00  0.00    -0.000 C 
BRANCH  24  25
ATOM     25  C   UNL     1       1.677  50.033  25.453  1.00  0.00    -0.000 C 
BRANCH  25  26
ATOM     26  C   UNL     1       1.664  48.906  26.498  1.00  0.00    -0.000 C 
BRANCH  26  27
ATOM     27  C   UNL     1       3.071  48.364  26.799  1.00  0.00    -0.000 C 
BRANCH  27  28
ATOM     28  C   UNL     1       3.847  49.254  27.786  1.00  0.00    -0.000 C 
BRANCH  28  29
ATOM     29  C   UNL     1       2.930  49.916  28.827  1.00  0.00    -0.003 C 
ATOM     30  C   UNL     1       3.707  50.704  29.881  1.00  0.00     0.004 C 
ENDBRANCH  28  29
ENDBRANCH  27  28
ENDBRANCH  26  27
ENDBRANCH  25  26
ENDBRANCH  24  25
ENDBRANCH  23  24
ENDBRANCH  22  23
ENDBRANCH  21  22
ENDBRANCH  20  21
ENDBRANCH  19  20
ENDBRANCH  18  19
ENDBRANCH  17  18
ENDBRANCH   1  17
TORSDOF 26
ENDMDL
MODEL 6
REMARK VINA RESULT:    -4.546      1.417      2.214
REMARK INTER + INTRA:         -15.194
REMARK INTER:                 -11.089
REMARK INTRA:                  -4.105
REMARK UNBOUND:                -3.738
REMARK SMILES CCCCCCCCCCCCCCCCCCCCCCCCCCCC(=O)[O-]
REMARK SMILES IDX 15 1 16 2 17 3 18 4 19 5 20 6 21 7 22 8 23 9 24 10 25 11
REMARK SMILES IDX 26 12 27 13 28 14 29 15 30 16 14 17 13 18 12 19 11 20 10 21
REMARK SMILES IDX 9 22 8 23 7 24 6 25 5 26 4 27 3 28 2 29 1 30
REMARK H PARENT
REMARK Flexibility Score: inf
ROOT
ATOM      1  C   UNL     1       0.243  47.013  22.400  1.00  0.00     0.000 C 
ENDROOT
BRANCH   1   2
ATOM      2  C   UNL     1       0.604  48.508  22.480  1.00  0.00     0.000 C 
BRANCH   2   3
ATOM      3  C   UNL     1       1.973  48.881  21.881  1.00  0.00     0.000 C 
BRANCH   3   4
ATOM      4  C   UNL     1       2.243  50.395  21.749  1.00  0.00     0.000 C 
BRANCH   4   5
ATOM      5  C   UNL     1       0.986  51.287  21.676  1.00  0.00     0.000 C 
BRANCH   5   6
ATOM      6  C   UNL     1       1.195  52.744  22.126  1.00  0.00     0.000 C 
BRANCH   6   7
ATOM      7  C   UNL     1       0.168  53.194  23.180  1.00  0.00     0.000 C 
BRANCH   7   8
ATOM      8  C   UNL     1      -0.729  52.044  23.669  1.00  0.00     0.000 C 
BRANCH   8   9
ATOM      9  C   UNL     1      -0.724  51.811  25.193  1.00  0.00     0.000 C 
BRANCH   9  10
ATOM     10  C   UNL     1       0.148  50.633  25.668  1.00  0.00     0.000 C 
BRANCH  10  11
ATOM     11  C   UNL     1       1.669  50.873  25.585  1.00  0.00     0.000 C 
BRANCH  11  12
ATOM     12  C   UNL     1       2.521  49.600  25.425  1.00  0.00     0.006 C 
BRANCH  12  13
ATOM     13  C   UNL     1       2.233  48.550  26.506  1.00  0.00     0.053 C 
BRANCH  13  14
ATOM     14  C   UNL     1       2.774  48.991  27.830  1.00  0.00     0.041 C 
ATOM     15  O   UNL     1       4.016  49.128  27.993  1.00  0.00    -0.550 OA
ATOM     16  O   UNL     1       1.908  49.242  28.887  1.00  0.00    -0.550 OA
ENDBRANCH  13  14
ENDBRANCH  12  13
ENDBRANCH  11  12
ENDBRANCH  10  11
ENDBRANCH   9  10
ENDBRANCH   8   9
ENDBRANCH   7   8
ENDBRANCH   6   7
ENDBRANCH   5   6
ENDBRANCH   4   5
ENDBRANCH   3   4
ENDBRANCH   2   3
ENDBRANCH   1   2
BRANCH   1  17
ATOM     17  C   UNL     1      -0.920  46.602  23.328  1.00  0.00     0.000 C 
BRANCH  17  18
ATOM     18  C   UNL     1      -0.516  46.589  24.809  1.00  0.00     0.000 C 
BRANCH  18  19
ATOM     19  C   UNL     1      -1.396  47.552  25.621  1.00  0.00     0.000 C 
BRANCH  19  20
ATOM     20  C   UNL     1      -2.876  47.513  25.202  1.00  0.00     0.000 C 
BRANCH  20  21
ATOM     21  C   UNL     1      -3.746  46.504  25.976  1.00  0.00     0.000 C 
BRANCH  21  22
ATOM     22  C   UNL     1      -4.665  45.681  25.060  1.00  0.00    -0.000 C 
BRANCH  22  23
ATOM     23  C   UNL     1      -3.861  44.662  24.237  1.00  0.00    -0.000 C 
BRANCH  23  24
ATOM     24  C   UNL     1      -4.749  43.535  23.671  1.00  0.00    -0.000 C 
BRANCH  24  25
ATOM     25  C   UNL     1      -5.828  43.043  24.650  1.00  0.00    -0.000 C 
BRANCH  25  26
ATOM     26  C   UNL     1      -7.229  42.994  24.019  1.00  0.00    -0.000 C 
BRANCH  26  27
ATOM     27  C   UNL     1      -8.145  44.120  24.526  1.00  0.00    -0.000 C 
BRANCH  27  28
ATOM     28  C   UNL     1      -8.680  45.004  23.386  1.00  0.00    -0.000 C 
BRANCH  28  29
ATOM     29  C   UNL     1      -8.236  46.469  23.519  1.00  0.00    -0.003 C 
ATOM     30  C   UNL     1      -7.037  46.806  22.633  1.00  0.00     0.004 C 
ENDBRANCH  28  29
ENDBRANCH  27  28
ENDBRANCH  26  27
ENDBRANCH  25  26
ENDBRANCH  24  25
ENDBRANCH  23  24
ENDBRANCH  22  23
ENDBRANCH  21  22
ENDBRANCH  20  21
ENDBRANCH  19  20
ENDBRANCH  18  19
ENDBRANCH  17  18
ENDBRANCH   1  17
TORSDOF 26
ENDMDL
MODEL 7
REMARK VINA RESULT:    -4.526      3.237      9.042
REMARK INTER + INTRA:         -15.144
REMARK INTER:                 -11.473
REMARK INTRA:                  -3.671
REMARK UNBOUND:                -3.738
REMARK SMILES CCCCCCCCCCCCCCCCCCCCCCCCCCCC(=O)[O-]
REMARK SMILES IDX 15 1 16 2 17 3 18 4 19 5 20 6 21 7 22 8 23 9 24 10 25 11
REMARK SMILES IDX 26 12 27 13 28 14 29 15 30 16 14 17 13 18 12 19 11 20 10 21
REMARK SMILES IDX 9 22 8 23 7 24 6 25 5 26 4 27 3 28 2 29 1 30
REMARK H PARENT
REMARK Flexibility Score: inf
ROOT
ATOM      1  C   UNL     1       0.511  52.775  21.746  1.00  0.00     0.000 C 
ENDROOT
BRANCH   1   2
ATOM      2  C   UNL     1       0.496  51.252  21.978  1.00  0.00     0.000 C 
BRANCH   2   3
ATOM      3  C   UNL     1       1.645  50.479  21.304  1.00  0.00     0.000 C 
BRANCH   3   4
ATOM      4  C   UNL     1       1.970  49.106  21.931  1.00  0.00     0.000 C 
BRANCH   4   5
ATOM      5  C   UNL     1       0.787  48.119  22.016  1.00  0.00     0.000 C 
BRANCH   5   6
ATOM      6  C   UNL     1       0.085  48.061  23.385  1.00  0.00     0.000 C 
BRANCH   6   7
ATOM      7  C   UNL     1      -0.882  46.871  23.507  1.00  0.00     0.000 C 
BRANCH   7   8
ATOM      8  C   UNL     1      -1.560  46.791  24.887  1.00  0.00     0.000 C 
BRANCH   8   9
ATOM      9  C   UNL     1      -2.789  45.864  24.960  1.00  0.00     0.000 C 
BRANCH   9  10
ATOM     10  C   UNL     1      -2.847  44.774  23.872  1.00  0.00     0.000 C 
BRANCH  10  11
ATOM     11  C   UNL     1      -4.089  43.863  23.928  1.00  0.00     0.000 C 
BRANCH  11  12
ATOM     12  C   UNL     1      -5.437  44.603  24.001  1.00  0.00     0.006 C 
BRANCH  12  13
ATOM     13  C   UNL     1      -6.639  43.651  24.064  1.00  0.00     0.053 C 
BRANCH  13  14
ATOM     14  C   UNL     1      -7.279  43.694  25.416  1.00  0.00     0.041 C 
ATOM     15  O   UNL     1      -8.026  42.752  25.793  1.00  0.00    -0.550 OA
ATOM     16  O   UNL     1      -7.059  44.779  26.255  1.00  0.00    -0.550 OA
ENDBRANCH  13  14
ENDBRANCH  12  13
ENDBRANCH  11  12
ENDBRANCH  10  11
ENDBRANCH   9  10
ENDBRANCH   8   9
ENDBRANCH   7   8
ENDBRANCH   6   7
ENDBRANCH   5   6
ENDBRANCH   4   5
ENDBRANCH   3   4
ENDBRANCH   2   3
ENDBRANCH   1   2
BRANCH   1  17
ATOM     17  C   UNL     1       1.919  53.351  21.485  1.00  0.00     0.000 C 
BRANCH  17  18
ATOM     18  C   UNL     1       2.584  53.885  22.761  1.00  0.00     0.000 C 
BRANCH  18  19
ATOM     19  C   UNL     1       3.527  52.832  23.363  1.00  0.00     0.000 C 
BRANCH  19  20
ATOM     20  C   UNL     1       3.229  52.534  24.844  1.00  0.00     0.000 C 
BRANCH  20  21
ATOM     21  C   UNL     1       1.736  52.392  25.192  1.00  0.00     0.000 C 
BRANCH  21  22
ATOM     22  C   UNL     1       1.335  50.949  25.535  1.00  0.00    -0.000 C 
BRANCH  22  23
ATOM     23  C   UNL     1       2.555  50.014  25.513  1.00  0.00    -0.000 C 
BRANCH  23  24
ATOM     24  C   UNL     1       2.239  48.624  26.103  1.00  0.00    -0.000 C 
BRANCH  24  25
ATOM     25  C   UNL     1       2.416  48.541  27.629  1.00  0.00    -0.000 C 
BRANCH  25  26
ATOM     26  C   UNL     1       3.661  49.292  28.127  1.00  0.00    -0.000 C 
BRANCH  26  27
ATOM     27  C   UNL     1       3.374  50.154  29.367  1.00  0.00    -0.000 C 
BRANCH  27  28
ATOM     28  C   UNL     1       2.959  51.591  29.003  1.00  0.00    -0.000 C 
BRANCH  28  29
ATOM     29  C   UNL     1       1.446  51.820  29.147  1.00  0.00    -0.003 C 
ATOM     30  C   UNL     1       0.777  50.792  30.059  1.00  0.00     0.004 C 
ENDBRANCH  28  29
ENDBRANCH  27  28
ENDBRANCH  26  27
ENDBRANCH  25  26
ENDBRANCH  24  25
ENDBRANCH  23  24
ENDBRANCH  22  23
ENDBRANCH  21  22
ENDBRANCH  20  21
ENDBRANCH  19  20
ENDBRANCH  18  19
ENDBRANCH  17  18
ENDBRANCH   1  17
TORSDOF 26
ENDMDL
MODEL 8
REMARK VINA RESULT:    -4.513      2.003      4.796
REMARK INTER + INTRA:         -15.111
REMARK INTER:                 -11.648
REMARK INTRA:                  -3.463
REMARK UNBOUND:                -3.738
REMARK SMILES CCCCCCCCCCCCCCCCCCCCCCCCCCCC(=O)[O-]
REMARK SMILES IDX 15 1 16 2 17 3 18 4 19 5 20 6 21 7 22 8 23 9 24 10 25 11
REMARK SMILES IDX 26 12 27 13 28 14 29 15 30 16 14 17 13 18 12 19 11 20 10 21
REMARK SMILES IDX 9 22 8 23 7 24 6 25 5 26 4 27 3 28 2 29 1 30
REMARK H PARENT
REMARK Flexibility Score: inf
ROOT
ATOM      1  C   UNL     1      -4.008  45.846  25.120  1.00  0.00     0.000 C 
ENDROOT
BRANCH   1   2
ATOM      2  C   UNL     1      -3.189  47.110  24.793  1.00  0.00     0.000 C 
BRANCH   2   3
ATOM      3  C   UNL     1      -1.763  47.130  25.374  1.00  0.00     0.000 C 
BRANCH   3   4
ATOM      4  C   UNL     1      -0.743  46.228  24.646  1.00  0.00     0.000 C 
BRANCH   4   5
ATOM      5  C   UNL     1      -0.491  46.577  23.165  1.00  0.00     0.000 C 
BRANCH   5   6
ATOM      6  C   UNL     1      -0.031  48.023  22.906  1.00  0.00     0.000 C 
BRANCH   6   7
ATOM      7  C   UNL     1       1.019  48.122  21.787  1.00  0.00     0.000 C 
BRANCH   7   8
ATOM      8  C   UNL     1       2.046  49.244  22.028  1.00  0.00     0.000 C 
BRANCH   8   9
ATOM      9  C   UNL     1       1.454  50.663  22.131  1.00  0.00     0.000 C 
BRANCH   9  10
ATOM     10  C   UNL     1       1.895  51.463  23.372  1.00  0.00     0.000 C 
BRANCH  10  11
ATOM     11  C   UNL     1       2.485  50.616  24.517  1.00  0.00     0.000 C 
BRANCH  11  12
ATOM     12  C   UNL     1       1.457  50.097  25.540  1.00  0.00     0.006 C 
BRANCH  12  13
ATOM     13  C   UNL     1       1.808  48.706  26.085  1.00  0.00     0.053 C 
BRANCH  13  14
ATOM     14  C   UNL     1       2.596  48.817  27.353  1.00  0.00     0.041 C 
ATOM     15  O   UNL     1       3.855  48.779  27.321  1.00  0.00    -0.550 OA
ATOM     16  O   UNL     1       1.940  48.953  28.570  1.00  0.00    -0.550 OA
ENDBRANCH  13  14
ENDBRANCH  12  13
ENDBRANCH  11  12
ENDBRANCH  10  11
ENDBRANCH   9  10
ENDBRANCH   8   9
ENDBRANCH   7   8
ENDBRANCH   6   7
ENDBRANCH   5   6
ENDBRANCH   4   5
ENDBRANCH   3   4
ENDBRANCH   2   3
ENDBRANCH   1   2
BRANCH   1  17
ATOM     17  C   UNL     1      -3.944  44.761  24.024  1.00  0.00     0.000 C 
BRANCH  17  18
ATOM     18  C   UNL     1      -4.989  43.655  24.228  1.00  0.00     0.000 C 
BRANCH  18  19
ATOM     19  C   UNL     1      -6.410  44.214  24.068  1.00  0.00     0.000 C 
BRANCH  19  20
ATOM     20  C   UNL     1      -6.814  44.422  22.597  1.00  0.00     0.000 C 
BRANCH  20  21
ATOM     21  C   UNL     1      -7.457  45.786  22.284  1.00  0.00     0.000 C 
BRANCH  21  22
ATOM     22  C   UNL     1      -6.846  46.937  23.098  1.00  0.00    -0.000 C 
BRANCH  22  23
ATOM     23  C   UNL     1      -7.930  47.711  23.866  1.00  0.00    -0.000 C 
BRANCH  23  24
ATOM     24  C   UNL     1      -7.492  48.063  25.302  1.00  0.00    -0.000 C 
BRANCH  24  25
ATOM     25  C   UNL     1      -7.433  46.852  26.249  1.00  0.00    -0.000 C 
BRANCH  25  26
ATOM     26  C   UNL     1      -8.826  46.335  26.645  1.00  0.00    -0.000 C 
BRANCH  26  27
ATOM     27  C   UNL     1      -9.318  46.925  27.976  1.00  0.00    -0.000 C 
BRANCH  27  28
ATOM     28  C   UNL     1     -10.754  47.470  27.885  1.00  0.00    -0.000 C 
BRANCH  28  29
ATOM     29  C   UNL     1     -10.991  48.294  26.610  1.00  0.00    -0.003 C 
ATOM     30  C   UNL     1     -12.202  47.811  25.811  1.00  0.00     0.004 C 
ENDBRANCH  28  29
ENDBRANCH  27  28
ENDBRANCH  26  27
ENDBRANCH  25  26
ENDBRANCH  24  25
ENDBRANCH  23  24
ENDBRANCH  22  23
ENDBRANCH  21  22
ENDBRANCH  20  21
ENDBRANCH  19  20
ENDBRANCH  18  19
ENDBRANCH  17  18
ENDBRANCH   1  17
TORSDOF 26
ENDMDL
MODEL 9
REMARK VINA RESULT:    -4.505      3.417      8.840
REMARK INTER + INTRA:         -15.091
REMARK INTER:                 -11.248
REMARK INTRA:                  -3.843
REMARK UNBOUND:                -3.738
REMARK SMILES CCCCCCCCCCCCCCCCCCCCCCCCCCCC(=O)[O-]
REMARK SMILES IDX 15 1 16 2 17 3 18 4 19 5 20 6 21 7 22 8 23 9 24 10 25 11
REMARK SMILES IDX 26 12 27 13 28 14 29 15 30 16 14 17 13 18 12 19 11 20 10 21
REMARK SMILES IDX 9 22 8 23 7 24 6 25 5 26 4 27 3 28 2 29 1 30
REMARK H PARENT
REMARK Flexibility Score: inf
ROOT
ATOM      1  C   UNL     1       1.959  50.710  22.843  1.00  0.00     0.000 C 
ENDROOT
BRANCH   1   2
ATOM      2  C   UNL     1       1.563  50.054  21.507  1.00  0.00     0.000 C 
BRANCH   2   3
ATOM      3  C   UNL     1       1.002  48.624  21.624  1.00  0.00     0.000 C 
BRANCH   3   4
ATOM      4  C   UNL     1       0.584  48.197  23.047  1.00  0.00     0.000 C 
BRANCH   4   5
ATOM      5  C   UNL     1      -0.451  47.055  23.118  1.00  0.00     0.000 C 
BRANCH   5   6
ATOM      6  C   UNL     1      -0.496  46.301  24.459  1.00  0.00     0.000 C 
BRANCH   6   7
ATOM      7  C   UNL     1      -1.740  46.647  25.295  1.00  0.00     0.000 C 
BRANCH   7   8
ATOM      8  C   UNL     1      -3.020  45.972  24.771  1.00  0.00     0.000 C 
BRANCH   8   9
ATOM      9  C   UNL     1      -4.229  46.910  24.588  1.00  0.00     0.000 C 
BRANCH   9  10
ATOM     10  C   UNL     1      -5.467  46.257  23.945  1.00  0.00     0.000 C 
BRANCH  10  11
ATOM     11  C   UNL     1      -5.673  44.769  24.290  1.00  0.00     0.000 C 
BRANCH  11  12
ATOM     12  C   UNL     1      -6.846  44.088  23.562  1.00  0.00     0.006 C 
BRANCH  12  13
ATOM     13  C   UNL     1      -8.139  44.081  24.389  1.00  0.00     0.053 C 
BRANCH  13  14
ATOM     14  C   UNL     1      -7.926  43.386  25.698  1.00  0.00     0.041 C 
ATOM     15  O   UNL     1      -7.981  42.129  25.763  1.00  0.00    -0.550 OA
ATOM     16  O   UNL     1      -7.677  44.127  26.846  1.00  0.00    -0.550 OA
ENDBRANCH  13  14
ENDBRANCH  12  13
ENDBRANCH  11  12
ENDBRANCH  10  11
ENDBRANCH   9  10
ENDBRANCH   8   9
ENDBRANCH   7   8
ENDBRANCH   6   7
ENDBRANCH   5   6
ENDBRANCH   4   5
ENDBRANCH   3   4
ENDBRANCH   2   3
ENDBRANCH   1   2
BRANCH   1  17
ATOM     17  C   UNL     1       2.851  51.960  22.684  1.00  0.00     0.000 C 
BRANCH  17  18
ATOM     18  C   UNL     1       2.347  53.153  23.509  1.00  0.00     0.000 C 
BRANCH  18  19
ATOM     19  C   UNL     1       1.845  54.276  22.589  1.00  0.00     0.000 C 
BRANCH  19  20
ATOM     20  C   UNL     1       1.375  53.764  21.216  1.00  0.00     0.000 C 
BRANCH  20  21
ATOM     21  C   UNL     1      -0.101  54.053  20.883  1.00  0.00     0.000 C 
BRANCH  21  22
ATOM     22  C   UNL     1      -1.017  53.982  22.114  1.00  0.00    -0.000 C 
BRANCH  22  23
ATOM     23  C   UNL     1      -1.515  52.548  22.354  1.00  0.00    -0.000 C 
BRANCH  23  24
ATOM     24  C   UNL     1      -1.265  52.076  23.801  1.00  0.00    -0.000 C 
BRANCH  24  25
ATOM     25  C   UNL     1      -1.847  50.685  24.110  1.00  0.00    -0.000 C 
BRANCH  25  26
ATOM     26  C   UNL     1      -1.325  50.100  25.432  1.00  0.00    -0.000 C 
BRANCH  26  27
ATOM     27  C   UNL     1       0.048  50.667  25.828  1.00  0.00    -0.000 C 
BRANCH  27  28
ATOM     28  C   UNL     1       0.893  49.660  26.627  1.00  0.00    -0.000 C 
BRANCH  28  29
ATOM     29  C   UNL     1       2.314  49.506  26.063  1.00  0.00    -0.003 C 
ATOM     30  C   UNL     1       3.259  48.794  27.030  1.00  0.00     0.004 C 
ENDBRANCH  28  29
ENDBRANCH  27  28
ENDBRANCH  26  27
ENDBRANCH  25  26
ENDBRANCH  24  25
ENDBRANCH  23  24
ENDBRANCH  22  23
ENDBRANCH  21  22
ENDBRANCH  20  21
ENDBRANCH  19  20
ENDBRANCH  18  19
ENDBRANCH  17  18
ENDBRANCH   1  17
TORSDOF 26
ENDMDL
