MODEL 1
REMARK VINA RESULT:    -4.848      0.000      0.000
REMARK INTER + INTRA:         -12.109
REMARK INTER:                  -9.099
REMARK INTRA:                  -3.010
REMARK UNBOUND:                -3.010
REMARK SMILES CCCCCCCCC=CCCCCCCCC(=O)[O-]
REMARK SMILES IDX 10 1 9 2 11 3 12 4 13 5 14 6 15 7 16 8 17 9 18 10 19 11
REMARK SMILES IDX 20 12 8 13 7 14 6 15 5 16 4 17 3 18 2 19 1 20
REMARK H PARENT
REMARK Flexibility Score: inf
ROOT
ATOM      1  C   UNL     1      -5.187  68.141 -20.067  1.00  0.00    -0.031 C 
ATOM      2  C   UNL     1      -4.031  68.826 -20.055  1.00  0.00    -0.031 C 
ENDROOT
BRANCH   1   3
ATOM      3  C   UNL     1      -6.421  68.700 -20.717  1.00  0.00     0.027 C 
BRANCH   3   4
ATOM      4  C   UNL     1      -7.381  67.565 -21.107  1.00  0.00     0.004 C 
BRANCH   4   5
ATOM      5  C   UNL     1      -7.123  66.267 -20.318  1.00  0.00     0.000 C 
BRANCH   5   6
ATOM      6  C   UNL     1      -6.843  65.024 -21.188  1.00  0.00     0.000 C 
BRANCH   6   7
ATOM      7  C   UNL     1      -5.391  64.502 -21.138  1.00  0.00     0.000 C 
BRANCH   7   8
ATOM      8  C   UNL     1      -4.739  64.519 -19.740  1.00  0.00     0.006 C 
BRANCH   8   9
ATOM      9  C   UNL     1      -3.203  64.590 -19.756  1.00  0.00     0.053 C 
BRANCH   9  10
ATOM     10  C   UNL     1      -2.579  63.271 -19.421  1.00  0.00     0.041 C 
ATOM     11  O   UNL     1      -3.302  62.302 -19.062  1.00  0.00    -0.550 OA
ATOM     12  O   UNL     1      -1.197  63.121 -19.467  1.00  0.00    -0.550 OA
ENDBRANCH   9  10
ENDBRANCH   8   9
ENDBRANCH   7   8
ENDBRANCH   6   7
ENDBRANCH   5   6
ENDBRANCH   4   5
ENDBRANCH   3   4
ENDBRANCH   1   3
BRANCH   2  13
ATOM     13  C   UNL     1      -2.794  68.275 -19.400  1.00  0.00     0.027 C 
BRANCH  13  14
ATOM     14  C   UNL     1      -1.602  69.238 -19.531  1.00  0.00     0.004 C 
BRANCH  14  15
ATOM     15  C   UNL     1      -0.819  69.109 -20.854  1.00  0.00     0.000 C 
BRANCH  15  16
ATOM     16  C   UNL     1      -0.846  67.713 -21.503  1.00  0.00     0.000 C 
BRANCH  16  17
ATOM     17  C   UNL     1      -1.643  67.673 -22.819  1.00  0.00    -0.000 C 
BRANCH  17  18
ATOM     18  C   UNL     1      -2.767  66.614 -22.795  1.00  0.00    -0.000 C 
BRANCH  18  19
ATOM     19  C   UNL     1      -4.080  67.084 -23.448  1.00  0.00    -0.003 C 
ATOM     20  C   UNL     1      -4.114  68.587 -23.725  1.00  0.00     0.004 C 
ENDBRANCH  18  19
ENDBRANCH  17  18
ENDBRANCH  16  17
ENDBRANCH  15  16
ENDBRANCH  14  15
ENDBRANCH  13  14
ENDBRANCH   2  13
TORSDOF 15
ENDMDL
MODEL 2
REMARK VINA RESULT:    -4.841      1.532      4.013
REMARK INTER + INTRA:         -12.096
REMARK INTER:                  -9.400
REMARK INTRA:                  -2.697
REMARK UNBOUND:                -3.010
REMARK SMILES CCCCCCCCC=CCCCCCCCC(=O)[O-]
REMARK SMILES IDX 10 1 9 2 11 3 12 4 13 5 14 6 15 7 16 8 17 9 18 10 19 11
REMARK SMILES IDX 20 12 8 13 7 14 6 15 5 16 4 17 3 18 2 19 1 20
REMARK H PARENT
REMARK Flexibility Score: inf
ROOT
ATOM      1  C   UNL     1      -2.810  68.586 -19.212  1.00  0.00    -0.031 C 
ATOM      2  C   UNL     1      -3.866  68.755 -20.026  1.00  0.00    -0.031 C 
ENDROOT
BRANCH   1   3
ATOM      3  C   UNL     1      -1.500  69.275 -19.475  1.00  0.00     0.027 C 
BRANCH   3   4
ATOM      4  C   UNL     1      -1.111  69.139 -20.955  1.00  0.00     0.004 C 
BRANCH   4   5
ATOM      5  C   UNL     1      -0.327  67.847 -21.250  1.00  0.00     0.000 C 
BRANCH   5   6
ATOM      6  C   UNL     1      -1.182  66.673 -21.772  1.00  0.00     0.000 C 
BRANCH   6   7
ATOM      7  C   UNL     1      -1.500  65.579 -20.729  1.00  0.00     0.000 C 
BRANCH   7   8
ATOM      8  C   UNL     1      -2.996  65.231 -20.585  1.00  0.00     0.006 C 
BRANCH   8   9
ATOM      9  C   UNL     1      -3.319  64.294 -19.410  1.00  0.00     0.053 C 
BRANCH   9  10
ATOM     10  C   UNL     1      -4.703  63.730 -19.509  1.00  0.00     0.041 C 
ATOM     11  O   UNL     1      -4.923  62.533 -19.180  1.00  0.00    -0.550 OA
ATOM     12  O   UNL     1      -5.742  64.512 -20.002  1.00  0.00    -0.550 OA
ENDBRANCH   9  10
ENDBRANCH   8   9
ENDBRANCH   7   8
ENDBRANCH   6   7
ENDBRANCH   5   6
ENDBRANCH   4   5
ENDBRANCH   3   4
ENDBRANCH   1   3
BRANCH   2  13
ATOM     13  C   UNL     1      -5.177  68.063 -19.772  1.00  0.00     0.027 C 
BRANCH  13  14
ATOM     14  C   UNL     1      -6.314  68.671 -20.610  1.00  0.00     0.004 C 
BRANCH  14  15
ATOM     15  C   UNL     1      -6.098  68.586 -22.136  1.00  0.00     0.000 C 
BRANCH  15  16
ATOM     16  C   UNL     1      -5.728  67.192 -22.674  1.00  0.00     0.000 C 
BRANCH  16  17
ATOM     17  C   UNL     1      -4.361  67.160 -23.382  1.00  0.00    -0.000 C 
BRANCH  17  18
ATOM     18  C   UNL     1      -3.814  68.576 -23.668  1.00  0.00    -0.000 C 
BRANCH  18  19
ATOM     19  C   UNL     1      -2.779  68.625 -24.807  1.00  0.00    -0.003 C 
ATOM     20  C   UNL     1      -2.633  67.297 -25.550  1.00  0.00     0.004 C 
ENDBRANCH  18  19
ENDBRANCH  17  18
ENDBRANCH  16  17
ENDBRANCH  15  16
ENDBRANCH  14  15
ENDBRANCH  13  14
ENDBRANCH   2  13
TORSDOF 15
ENDMDL
MODEL 3
REMARK VINA RESULT:    -4.796      3.156      5.975
REMARK INTER + INTRA:         -12.011
REMARK INTER:                  -9.096
REMARK INTRA:                  -2.916
REMARK UNBOUND:                -3.010
REMARK SMILES CCCCCCCCC=CCCCCCCCC(=O)[O-]
REMARK SMILES IDX 10 1 9 2 11 3 12 4 13 5 14 6 15 7 16 8 17 9 18 10 19 11
REMARK SMILES IDX 20 12 8 13 7 14 6 15 5 16 4 17 3 18 2 19 1 20
REMARK H PARENT
REMARK Flexibility Score: inf
ROOT
ATOM      1  C   UNL     1      -3.934  68.111 -19.438  1.00  0.00    -0.031 C 
ATOM      2  C   UNL     1      -4.590  68.600 -20.504  1.00  0.00    -0.031 C 
ENDROOT
BRANCH   1   3
ATOM      3  C   UNL     1      -2.433  68.111 -19.374  1.00  0.00     0.027 C 
BRANCH   3   4
ATOM      4  C   UNL     1      -1.839  68.523 -20.730  1.00  0.00     0.004 C 
BRANCH   4   5
ATOM      5  C   UNL     1      -1.164  67.352 -21.468  1.00  0.00     0.000 C 
BRANCH   5   6
ATOM      6  C   UNL     1      -2.099  66.535 -22.383  1.00  0.00     0.000 C 
BRANCH   6   7
ATOM      7  C   UNL     1      -2.455  67.209 -23.726  1.00  0.00     0.000 C 
BRANCH   7   8
ATOM      8  C   UNL     1      -3.966  67.382 -23.989  1.00  0.00     0.006 C 
BRANCH   8   9
ATOM      9  C   UNL     1      -4.422  68.843 -24.129  1.00  0.00     0.053 C 
BRANCH   9  10
ATOM     10  C   UNL     1      -5.746  68.952 -24.820  1.00  0.00     0.041 C 
ATOM     11  O   UNL     1      -5.810  69.388 -26.001  1.00  0.00    -0.550 OA
ATOM     12  O   UNL     1      -6.914  68.608 -24.146  1.00  0.00    -0.550 OA
ENDBRANCH   9  10
ENDBRANCH   8   9
ENDBRANCH   7   8
ENDBRANCH   6   7
ENDBRANCH   5   6
ENDBRANCH   4   5
ENDBRANCH   3   4
ENDBRANCH   1   3
BRANCH   2  13
ATOM     13  C   UNL     1      -6.093  68.598 -20.577  1.00  0.00     0.027 C 
BRANCH  13  14
ATOM     14  C   UNL     1      -6.675  67.201 -20.307  1.00  0.00     0.004 C 
BRANCH  14  15
ATOM     15  C   UNL     1      -6.694  66.269 -21.537  1.00  0.00     0.000 C 
BRANCH  15  16
ATOM     16  C   UNL     1      -5.536  65.258 -21.617  1.00  0.00     0.000 C 
BRANCH  16  17
ATOM     17  C   UNL     1      -5.226  64.586 -20.267  1.00  0.00    -0.000 C 
BRANCH  17  18
ATOM     18  C   UNL     1      -3.781  64.044 -20.197  1.00  0.00    -0.000 C 
BRANCH  18  19
ATOM     19  C   UNL     1      -3.039  64.416 -18.899  1.00  0.00    -0.003 C 
ATOM     20  C   UNL     1      -2.423  63.211 -18.188  1.00  0.00     0.004 C 
ENDBRANCH  18  19
ENDBRANCH  17  18
ENDBRANCH  16  17
ENDBRANCH  15  16
ENDBRANCH  14  15
ENDBRANCH  13  14
ENDBRANCH   2  13
TORSDOF 15
ENDMDL
MODEL 4
REMARK VINA RESULT:    -4.704      1.562      3.638
REMARK INTER + INTRA:         -11.840
REMARK INTER:                  -9.252
REMARK INTRA:                  -2.588
REMARK UNBOUND:                -3.010
REMARK SMILES CCCCCCCCC=CCCCCCCCC(=O)[O-]
REMARK SMILES IDX 10 1 9 2 11 3 12 4 13 5 14 6 15 7 16 8 17 9 18 10 19 11
REMARK SMILES IDX 20 12 8 13 7 14 6 15 5 16 4 17 3 18 2 19 1 20
REMARK H PARENT
REMARK Flexibility Score: inf
ROOT
ATOM      1  C   UNL     1      -6.113  68.505 -23.346  1.00  0.00    -0.031 C 
ATOM      2  C   UNL     1      -5.766  68.836 -24.601  1.00  0.00    -0.031 C 
ENDROOT
BRANCH   1   3
ATOM      3  C   UNL     1      -7.539  68.204 -22.981  1.00  0.00     0.027 C 
BRANCH   3   4
ATOM      4  C   UNL     1      -7.911  68.897 -21.661  1.00  0.00     0.004 C 
BRANCH   4   5
ATOM      5  C   UNL     1      -6.845  68.708 -20.566  1.00  0.00     0.000 C 
BRANCH   5   6
ATOM      6  C   UNL     1      -7.220  67.699 -19.461  1.00  0.00     0.000 C 
BRANCH   6   7
ATOM      7  C   UNL     1      -6.412  66.384 -19.471  1.00  0.00     0.000 C 
BRANCH   7   8
ATOM      8  C   UNL     1      -6.682  65.462 -20.678  1.00  0.00     0.006 C 
BRANCH   8   9
ATOM      9  C   UNL     1      -5.487  65.297 -21.631  1.00  0.00     0.053 C 
BRANCH   9  10
ATOM     10  C   UNL     1      -4.486  64.313 -21.109  1.00  0.00     0.041 C 
ATOM     11  O   UNL     1      -3.420  64.719 -20.573  1.00  0.00    -0.550 OA
ATOM     12  O   UNL     1      -4.712  62.947 -21.248  1.00  0.00    -0.550 OA
ENDBRANCH   9  10
ENDBRANCH   8   9
ENDBRANCH   7   8
ENDBRANCH   6   7
ENDBRANCH   5   6
ENDBRANCH   4   5
ENDBRANCH   3   4
ENDBRANCH   1   3
BRANCH   2  13
ATOM     13  C   UNL     1      -4.340  69.145 -24.971  1.00  0.00     0.027 C 
BRANCH  13  14
ATOM     14  C   UNL     1      -3.606  67.901 -25.497  1.00  0.00     0.004 C 
BRANCH  14  15
ATOM     15  C   UNL     1      -2.383  67.478 -24.655  1.00  0.00     0.000 C 
BRANCH  15  16
ATOM     16  C   UNL     1      -2.706  66.916 -23.258  1.00  0.00     0.000 C 
BRANCH  16  17
ATOM     17  C   UNL     1      -2.166  67.794 -22.115  1.00  0.00    -0.000 C 
BRANCH  17  18
ATOM     18  C   UNL     1      -3.283  68.269 -21.160  1.00  0.00    -0.000 C 
BRANCH  18  19
ATOM     19  C   UNL     1      -2.818  68.461 -19.704  1.00  0.00    -0.003 C 
ATOM     20  C   UNL     1      -1.598  69.372 -19.573  1.00  0.00     0.004 C 
ENDBRANCH  18  19
ENDBRANCH  17  18
ENDBRANCH  16  17
ENDBRANCH  15  16
ENDBRANCH  14  15
ENDBRANCH  13  14
ENDBRANCH   2  13
TORSDOF 15
ENDMDL
MODEL 5
REMARK VINA RESULT:    -4.687      2.876      5.313
REMARK INTER + INTRA:         -11.807
REMARK INTER:                  -9.303
REMARK INTRA:                  -2.504
REMARK UNBOUND:                -3.010
REMARK SMILES CCCCCCCCC=CCCCCCCCC(=O)[O-]
REMARK SMILES IDX 10 1 9 2 11 3 12 4 13 5 14 6 15 7 16 8 17 9 18 10 19 11
REMARK SMILES IDX 20 12 8 13 7 14 6 15 5 16 4 17 3 18 2 19 1 20
REMARK H PARENT
REMARK Flexibility Score: inf
ROOT
ATOM      1  C   UNL     1      -2.346  68.510 -23.679  1.00  0.00    -0.031 C 
ATOM      2  C   UNL     1      -2.399  67.186 -23.452  1.00  0.00    -0.031 C 
ENDROOT
BRANCH   1   3
ATOM      3  C   UNL     1      -2.857  69.107 -24.960  1.00  0.00     0.027 C 
BRANCH   3   4
ATOM      4  C   UNL     1      -3.708  68.082 -25.725  1.00  0.00     0.004 C 
BRANCH   4   5
ATOM      5  C   UNL     1      -5.134  68.587 -26.015  1.00  0.00     0.000 C 
BRANCH   5   6
ATOM      6  C   UNL     1      -5.905  69.100 -24.781  1.00  0.00     0.000 C 
BRANCH   6   7
ATOM      7  C   UNL     1      -6.007  68.100 -23.609  1.00  0.00     0.000 C 
BRANCH   7   8
ATOM      8  C   UNL     1      -6.183  68.743 -22.217  1.00  0.00     0.006 C 
BRANCH   8   9
ATOM      9  C   UNL     1      -6.407  67.736 -21.077  1.00  0.00     0.053 C 
BRANCH   9  10
ATOM     10  C   UNL     1      -7.862  67.548 -20.775  1.00  0.00     0.041 C 
ATOM     11  O   UNL     1      -8.734  68.095 -21.502  1.00  0.00    -0.550 OA
ATOM     12  O   UNL     1      -8.254  66.802 -19.668  1.00  0.00    -0.550 OA
ENDBRANCH   9  10
ENDBRANCH   8   9
ENDBRANCH   7   8
ENDBRANCH   6   7
ENDBRANCH   5   6
ENDBRANCH   4   5
ENDBRANCH   3   4
ENDBRANCH   1   3
BRANCH   2  13
ATOM     13  C   UNL     1      -1.883  66.582 -22.175  1.00  0.00     0.027 C 
BRANCH  13  14
ATOM     14  C   UNL     1      -3.029  66.161 -21.240  1.00  0.00     0.004 C 
BRANCH  14  15
ATOM     15  C   UNL     1      -2.757  66.417 -19.742  1.00  0.00     0.000 C 
BRANCH  15  16
ATOM     16  C   UNL     1      -3.307  67.745 -19.189  1.00  0.00     0.000 C 
BRANCH  16  17
ATOM     17  C   UNL     1      -2.831  68.973 -19.984  1.00  0.00    -0.000 C 
BRANCH  17  18
ATOM     18  C   UNL     1      -1.411  69.424 -19.577  1.00  0.00    -0.000 C 
BRANCH  18  19
ATOM     19  C   UNL     1      -0.477  69.694 -20.771  1.00  0.00    -0.003 C 
ATOM     20  C   UNL     1       0.778  68.821 -20.768  1.00  0.00     0.004 C 
ENDBRANCH  18  19
ENDBRANCH  17  18
ENDBRANCH  16  17
ENDBRANCH  15  16
ENDBRANCH  14  15
ENDBRANCH  13  14
ENDBRANCH   2  13
TORSDOF 15
ENDMDL
MODEL 6
REMARK VINA RESULT:    -4.686      1.019      1.781
REMARK INTER + INTRA:         -11.805
REMARK INTER:                  -9.262
REMARK INTRA:                  -2.543
REMARK UNBOUND:                -3.010
REMARK SMILES CCCCCCCCC=CCCCCCCCC(=O)[O-]
REMARK SMILES IDX 10 1 9 2 11 3 12 4 13 5 14 6 15 7 16 8 17 9 18 10 19 11
REMARK SMILES IDX 20 12 8 13 7 14 6 15 5 16 4 17 3 18 2 19 1 20
REMARK H PARENT
REMARK Flexibility Score: inf
ROOT
ATOM      1  C   UNL     1      -3.944  68.841 -20.075  1.00  0.00    -0.031 C 
ATOM      2  C   UNL     1      -2.757  68.352 -19.679  1.00  0.00    -0.031 C 
ENDROOT
BRANCH   1   3
ATOM      3  C   UNL     1      -5.229  68.129 -19.762  1.00  0.00     0.027 C 
BRANCH   3   4
ATOM      4  C   UNL     1      -6.289  68.444 -20.829  1.00  0.00     0.004 C 
BRANCH   4   5
ATOM      5  C   UNL     1      -6.814  67.182 -21.540  1.00  0.00     0.000 C 
BRANCH   5   6
ATOM      6  C   UNL     1      -5.725  66.178 -21.970  1.00  0.00     0.000 C 
BRANCH   6   7
ATOM      7  C   UNL     1      -5.679  64.870 -21.151  1.00  0.00     0.000 C 
BRANCH   7   8
ATOM      8  C   UNL     1      -4.270  64.274 -20.952  1.00  0.00     0.006 C 
BRANCH   8   9
ATOM      9  C   UNL     1      -3.540  64.778 -19.697  1.00  0.00     0.053 C 
BRANCH   9  10
ATOM     10  C   UNL     1      -3.098  63.650 -18.817  1.00  0.00     0.041 C 
ATOM     11  O   UNL     1      -2.028  63.032 -19.069  1.00  0.00    -0.550 OA
ATOM     12  O   UNL     1      -3.886  63.254 -17.740  1.00  0.00    -0.550 OA
ENDBRANCH   9  10
ENDBRANCH   8   9
ENDBRANCH   7   8
ENDBRANCH   6   7
ENDBRANCH   5   6
ENDBRANCH   4   5
ENDBRANCH   3   4
ENDBRANCH   1   3
BRANCH   2  13
ATOM     13  C   UNL     1      -1.466  69.057 -19.995  1.00  0.00     0.027 C 
BRANCH  13  14
ATOM     14  C   UNL     1      -0.782  68.465 -21.238  1.00  0.00     0.004 C 
BRANCH  14  15
ATOM     15  C   UNL     1      -1.151  66.996 -21.531  1.00  0.00     0.000 C 
BRANCH  15  16
ATOM     16  C   UNL     1      -2.082  66.778 -22.738  1.00  0.00     0.000 C 
BRANCH  16  17
ATOM     17  C   UNL     1      -2.276  68.047 -23.588  1.00  0.00    -0.000 C 
BRANCH  17  18
ATOM     18  C   UNL     1      -3.759  68.466 -23.691  1.00  0.00    -0.000 C 
BRANCH  18  19
ATOM     19  C   UNL     1      -4.146  69.054 -25.061  1.00  0.00    -0.003 C 
ATOM     20  C   UNL     1      -5.656  69.188 -25.259  1.00  0.00     0.004 C 
ENDBRANCH  18  19
ENDBRANCH  17  18
ENDBRANCH  16  17
ENDBRANCH  15  16
ENDBRANCH  14  15
ENDBRANCH  13  14
ENDBRANCH   2  13
TORSDOF 15
ENDMDL
MODEL 7
REMARK VINA RESULT:    -4.643      2.471      4.698
REMARK INTER + INTRA:         -11.725
REMARK INTER:                  -9.337
REMARK INTRA:                  -2.388
REMARK UNBOUND:                -3.010
REMARK SMILES CCCCCCCCC=CCCCCCCCC(=O)[O-]
REMARK SMILES IDX 10 1 9 2 11 3 12 4 13 5 14 6 15 7 16 8 17 9 18 10 19 11
REMARK SMILES IDX 20 12 8 13 7 14 6 15 5 16 4 17 3 18 2 19 1 20
REMARK H PARENT
REMARK Flexibility Score: inf
ROOT
ATOM      1  C   UNL     1      -6.181  65.672 -20.608  1.00  0.00    -0.031 C 
ATOM      2  C   UNL     1      -6.792  66.130 -19.503  1.00  0.00    -0.031 C 
ENDROOT
BRANCH   1   3
ATOM      3  C   UNL     1      -5.737  64.241 -20.722  1.00  0.00     0.027 C 
BRANCH   3   4
ATOM      4  C   UNL     1      -4.225  64.169 -20.988  1.00  0.00     0.004 C 
BRANCH   4   5
ATOM      5  C   UNL     1      -3.389  64.779 -19.848  1.00  0.00     0.000 C 
BRANCH   5   6
ATOM      6  C   UNL     1      -2.671  66.099 -20.203  1.00  0.00     0.000 C 
BRANCH   6   7
ATOM      7  C   UNL     1      -2.674  67.167 -19.089  1.00  0.00     0.000 C 
BRANCH   7   8
ATOM      8  C   UNL     1      -2.832  68.621 -19.579  1.00  0.00     0.006 C 
BRANCH   8   9
ATOM      9  C   UNL     1      -1.542  69.456 -19.517  1.00  0.00     0.053 C 
BRANCH   9  10
ATOM     10  C   UNL     1      -0.670  69.226 -20.713  1.00  0.00     0.041 C 
ATOM     11  O   UNL     1      -1.186  68.945 -21.828  1.00  0.00    -0.550 OA
ATOM     12  O   UNL     1       0.715  69.284 -20.588  1.00  0.00    -0.550 OA
ENDBRANCH   9  10
ENDBRANCH   8   9
ENDBRANCH   7   8
ENDBRANCH   6   7
ENDBRANCH   5   6
ENDBRANCH   4   5
ENDBRANCH   3   4
ENDBRANCH   1   3
BRANCH   2  13
ATOM     13  C   UNL     1      -7.233  67.563 -19.380  1.00  0.00     0.027 C 
BRANCH  13  14
ATOM     14  C   UNL     1      -6.385  68.499 -20.257  1.00  0.00     0.004 C 
BRANCH  14  15
ATOM     15  C   UNL     1      -7.049  68.899 -21.592  1.00  0.00     0.000 C 
BRANCH  15  16
ATOM     16  C   UNL     1      -6.199  68.652 -22.852  1.00  0.00     0.000 C 
BRANCH  16  17
ATOM     17  C   UNL     1      -4.721  68.359 -22.535  1.00  0.00    -0.000 C 
BRANCH  17  18
ATOM     18  C   UNL     1      -4.136  67.247 -23.433  1.00  0.00    -0.000 C 
BRANCH  18  19
ATOM     19  C   UNL     1      -3.222  67.770 -24.557  1.00  0.00    -0.003 C 
ATOM     20  C   UNL     1      -3.910  67.825 -25.921  1.00  0.00     0.004 C 
ENDBRANCH  18  19
ENDBRANCH  17  18
ENDBRANCH  16  17
ENDBRANCH  15  16
ENDBRANCH  14  15
ENDBRANCH  13  14
ENDBRANCH   2  13
TORSDOF 15
ENDMDL
MODEL 8
REMARK VINA RESULT:    -4.607      2.369      5.394
REMARK INTER + INTRA:         -11.658
REMARK INTER:                  -9.366
REMARK INTRA:                  -2.292
REMARK UNBOUND:                -3.010
REMARK SMILES CCCCCCCCC=CCCCCCCCC(=O)[O-]
REMARK SMILES IDX 10 1 9 2 11 3 12 4 13 5 14 6 15 7 16 8 17 9 18 10 19 11
REMARK SMILES IDX 20 12 8 13 7 14 6 15 5 16 4 17 3 18 2 19 1 20
REMARK H PARENT
REMARK Flexibility Score: inf
ROOT
ATOM      1  C   UNL     1      -5.779  68.965 -24.599  1.00  0.00    -0.031 C 
ATOM      2  C   UNL     1      -5.981  68.468 -23.367  1.00  0.00    -0.031 C 
ENDROOT
BRANCH   1   3
ATOM      3  C   UNL     1      -4.396  69.106 -25.170  1.00  0.00     0.027 C 
BRANCH   3   4
ATOM      4  C   UNL     1      -4.053  67.893 -26.048  1.00  0.00     0.004 C 
BRANCH   4   5
ATOM      5  C   UNL     1      -2.875  67.069 -25.495  1.00  0.00     0.000 C 
BRANCH   5   6
ATOM      6  C   UNL     1      -2.299  67.577 -24.157  1.00  0.00     0.000 C 
BRANCH   6   7
ATOM      7  C   UNL     1      -2.467  66.613 -22.962  1.00  0.00     0.000 C 
BRANCH   7   8
ATOM      8  C   UNL     1      -1.947  67.149 -21.613  1.00  0.00     0.006 C 
BRANCH   8   9
ATOM      9  C   UNL     1      -2.631  68.441 -21.137  1.00  0.00     0.053 C 
BRANCH   9  10
ATOM     10  C   UNL     1      -2.290  68.763 -19.715  1.00  0.00     0.041 C 
ATOM     11  O   UNL     1      -1.370  69.585 -19.455  1.00  0.00    -0.550 OA
ATOM     12  O   UNL     1      -2.960  68.127 -18.674  1.00  0.00    -0.550 OA
ENDBRANCH   9  10
ENDBRANCH   8   9
ENDBRANCH   7   8
ENDBRANCH   6   7
ENDBRANCH   5   6
ENDBRANCH   4   5
ENDBRANCH   3   4
ENDBRANCH   1   3
BRANCH   2  13
ATOM     13  C   UNL     1      -7.363  68.331 -22.788  1.00  0.00     0.027 C 
BRANCH  13  14
ATOM     14  C   UNL     1      -7.458  68.956 -21.386  1.00  0.00     0.004 C 
BRANCH  14  15
ATOM     15  C   UNL     1      -6.316  68.555 -20.429  1.00  0.00     0.000 C 
BRANCH  15  16
ATOM     16  C   UNL     1      -6.699  67.544 -19.332  1.00  0.00     0.000 C 
BRANCH  16  17
ATOM     17  C   UNL     1      -6.486  66.080 -19.758  1.00  0.00    -0.000 C 
BRANCH  17  18
ATOM     18  C   UNL     1      -5.361  65.930 -20.805  1.00  0.00    -0.000 C 
BRANCH  18  19
ATOM     19  C   UNL     1      -4.642  64.569 -20.755  1.00  0.00    -0.003 C 
ATOM     20  C   UNL     1      -5.564  63.386 -21.049  1.00  0.00     0.004 C 
ENDBRANCH  18  19
ENDBRANCH  17  18
ENDBRANCH  16  17
ENDBRANCH  15  16
ENDBRANCH  14  15
ENDBRANCH  13  14
ENDBRANCH   2  13
TORSDOF 15
ENDMDL
MODEL 9
REMARK VINA RESULT:    -4.524      1.363      4.502
REMARK INTER + INTRA:         -11.502
REMARK INTER:                  -8.804
REMARK INTRA:                  -2.697
REMARK UNBOUND:                -3.010
REMARK SMILES CCCCCCCCC=CCCCCCCCC(=O)[O-]
REMARK SMILES IDX 10 1 9 2 11 3 12 4 13 5 14 6 15 7 16 8 17 9 18 10 19 11
REMARK SMILES IDX 20 12 8 13 7 14 6 15 5 16 4 17 3 18 2 19 1 20
REMARK H PARENT
REMARK Flexibility Score: inf
ROOT
ATOM      1  C   UNL     1      -1.039  67.802 -21.998  1.00  0.00    -0.031 C 
ATOM      2  C   UNL     1      -2.023  68.207 -22.820  1.00  0.00    -0.031 C 
ENDROOT
BRANCH   1   3
ATOM      3  C   UNL     1      -0.691  68.570 -20.755  1.00  0.00     0.027 C 
BRANCH   3   4
ATOM      4  C   UNL     1      -1.962  69.130 -20.098  1.00  0.00     0.004 C 
BRANCH   4   5
ATOM      5  C   UNL     1      -2.632  68.126 -19.142  1.00  0.00     0.000 C 
BRANCH   5   6
ATOM      6  C   UNL     1      -3.782  67.306 -19.762  1.00  0.00     0.000 C 
BRANCH   6   7
ATOM      7  C   UNL     1      -3.443  65.833 -20.076  1.00  0.00     0.000 C 
BRANCH   7   8
ATOM      8  C   UNL     1      -4.191  65.233 -21.284  1.00  0.00     0.006 C 
BRANCH   8   9
ATOM      9  C   UNL     1      -5.238  64.169 -20.918  1.00  0.00     0.053 C 
BRANCH   9  10
ATOM     10  C   UNL     1      -4.690  62.781 -21.039  1.00  0.00     0.041 C 
ATOM     11  O   UNL     1      -5.210  61.963 -21.845  1.00  0.00    -0.550 OA
ATOM     12  O   UNL     1      -3.628  62.377 -20.235  1.00  0.00    -0.550 OA
ENDBRANCH   9  10
ENDBRANCH   8   9
ENDBRANCH   7   8
ENDBRANCH   6   7
ENDBRANCH   5   6
ENDBRANCH   4   5
ENDBRANCH   3   4
ENDBRANCH   1   3
BRANCH   2  13
ATOM     13  C   UNL     1      -2.372  67.447 -24.070  1.00  0.00     0.027 C 
BRANCH  13  14
ATOM     14  C   UNL     1      -3.881  67.486 -24.359  1.00  0.00     0.004 C 
BRANCH  14  15
ATOM     15  C   UNL     1      -4.687  68.409 -23.420  1.00  0.00     0.000 C 
BRANCH  15  16
ATOM     16  C   UNL     1      -6.040  67.848 -22.946  1.00  0.00     0.000 C 
BRANCH  16  17
ATOM     17  C   UNL     1      -6.571  68.542 -21.678  1.00  0.00    -0.000 C 
BRANCH  17  18
ATOM     18  C   UNL     1      -7.977  68.043 -21.278  1.00  0.00    -0.000 C 
BRANCH  18  19
ATOM     19  C   UNL     1      -7.963  66.748 -20.444  1.00  0.00    -0.003 C 
ATOM     20  C   UNL     1      -7.473  66.956 -19.011  1.00  0.00     0.004 C 
ENDBRANCH  18  19
ENDBRANCH  17  18
ENDBRANCH  16  17
ENDBRANCH  15  16
ENDBRANCH  14  15
ENDBRANCH  13  14
ENDBRANCH   2  13
TORSDOF 15
ENDMDL
