MODEL 1
REMARK VINA RESULT:    -4.920      0.000      0.000
REMARK INTER + INTRA:          -9.513
REMARK INTER:                  -8.372
REMARK INTRA:                  -1.141
REMARK UNBOUND:                -1.141
REMARK SMILES CCCCCCCCCCCCCC(=O)[O-]
REMARK SMILES IDX 8 1 9 2 10 3 11 4 12 5 13 6 14 7 15 8 16 9 7 10 6 11 5 12
REMARK SMILES IDX 4 13 3 14 2 15 1 16
REMARK H PARENT
REMARK Flexibility Score: inf
ROOT
ATOM      1  C   UNL     1      17.257   9.590  49.390  1.00  0.00     0.000 C 
ENDROOT
BRANCH   1   2
ATOM      2  C   UNL     1      18.158  10.327  50.392  1.00  0.00     0.000 C 
BRANCH   2   3
ATOM      3  C   UNL     1      19.642  10.317  49.984  1.00  0.00     0.000 C 
BRANCH   3   4
ATOM      4  C   UNL     1      20.252   8.916  49.768  1.00  0.00     0.000 C 
BRANCH   4   5
ATOM      5  C   UNL     1      19.926   7.884  50.865  1.00  0.00     0.006 C 
BRANCH   5   6
ATOM      6  C   UNL     1      20.567   8.184  52.229  1.00  0.00     0.053 C 
BRANCH   6   7
ATOM      7  C   UNL     1      19.537   8.447  53.284  1.00  0.00     0.041 C 
ATOM      8  O   UNL     1      19.869   8.977  54.377  1.00  0.00    -0.550 OA
ATOM      9  O   UNL     1      18.204   8.136  53.047  1.00  0.00    -0.550 OA
ENDBRANCH   6   7
ENDBRANCH   5   6
ENDBRANCH   4   5
ENDBRANCH   3   4
ENDBRANCH   2   3
ENDBRANCH   1   2
BRANCH   1  10
ATOM     10  C   UNL     1      16.558   8.396  50.056  1.00  0.00     0.000 C 
BRANCH  10  11
ATOM     11  C   UNL     1      16.943   7.048  49.422  1.00  0.00    -0.000 C 
BRANCH  11  12
ATOM     12  C   UNL     1      15.766   6.084  49.172  1.00  0.00    -0.000 C 
BRANCH  12  13
ATOM     13  C   UNL     1      14.396   6.760  48.965  1.00  0.00    -0.000 C 
BRANCH  13  14
ATOM     14  C   UNL     1      14.047   7.081  47.500  1.00  0.00    -0.000 C 
BRANCH  14  15
ATOM     15  C   UNL     1      14.674   8.394  47.012  1.00  0.00    -0.003 C 
ATOM     16  C   UNL     1      15.830   8.129  46.051  1.00  0.00     0.004 C 
ENDBRANCH  14  15
ENDBRANCH  13  14
ENDBRANCH  12  13
ENDBRANCH  11  12
ENDBRANCH  10  11
ENDBRANCH   1  10
TORSDOF 12
ENDMDL
MODEL 2
REMARK VINA RESULT:    -4.809      3.674      4.385
REMARK INTER + INTRA:          -9.324
REMARK INTER:                  -8.575
REMARK INTRA:                  -0.749
REMARK UNBOUND:                -1.141
REMARK SMILES CCCCCCCCCCCCCC(=O)[O-]
REMARK SMILES IDX 8 1 9 2 10 3 11 4 12 5 13 6 14 7 15 8 16 9 7 10 6 11 5 12
REMARK SMILES IDX 4 13 3 14 2 15 1 16
REMARK H PARENT
REMARK Flexibility Score: inf
ROOT
ATOM      1  C   UNL     1      18.047  10.024  49.573  1.00  0.00     0.000 C 
ENDROOT
BRANCH   1   2
ATOM      2  C   UNL     1      19.391  10.221  50.289  1.00  0.00     0.000 C 
BRANCH   2   3
ATOM      3  C   UNL     1      20.560  10.454  49.316  1.00  0.00     0.000 C 
BRANCH   3   4
ATOM      4  C   UNL     1      21.522  11.594  49.709  1.00  0.00     0.000 C 
BRANCH   4   5
ATOM      5  C   UNL     1      22.253  12.269  48.532  1.00  0.00     0.006 C 
BRANCH   5   6
ATOM      6  C   UNL     1      22.891  13.624  48.875  1.00  0.00     0.053 C 
BRANCH   6   7
ATOM      7  C   UNL     1      24.286  13.468  49.398  1.00  0.00     0.041 C 
ATOM      8  O   UNL     1      24.566  13.815  50.576  1.00  0.00    -0.550 OA
ATOM      9  O   UNL     1      25.271  12.908  48.594  1.00  0.00    -0.550 OA
ENDBRANCH   6   7
ENDBRANCH   5   6
ENDBRANCH   4   5
ENDBRANCH   3   4
ENDBRANCH   2   3
ENDBRANCH   1   2
BRANCH   1  10
ATOM     10  C   UNL     1      17.239   8.892  50.225  1.00  0.00     0.000 C 
BRANCH  10  11
ATOM     11  C   UNL     1      17.646   7.498  49.718  1.00  0.00    -0.000 C 
BRANCH  11  12
ATOM     12  C   UNL     1      16.473   6.538  49.431  1.00  0.00    -0.000 C 
BRANCH  12  13
ATOM     13  C   UNL     1      15.092   7.212  49.300  1.00  0.00    -0.000 C 
BRANCH  13  14
ATOM     14  C   UNL     1      14.427   7.061  47.920  1.00  0.00    -0.000 C 
BRANCH  14  15
ATOM     15  C   UNL     1      14.708   8.249  46.990  1.00  0.00    -0.003 C 
ATOM     16  C   UNL     1      15.976   8.020  46.172  1.00  0.00     0.004 C 
ENDBRANCH  14  15
ENDBRANCH  13  14
ENDBRANCH  12  13
ENDBRANCH  11  12
ENDBRANCH  10  11
ENDBRANCH   1  10
TORSDOF 12
ENDMDL
MODEL 3
REMARK VINA RESULT:    -4.341      4.168      7.554
REMARK INTER + INTRA:          -8.528
REMARK INTER:                  -8.006
REMARK INTRA:                  -0.522
REMARK UNBOUND:                -1.141
REMARK SMILES CCCCCCCCCCCCCC(=O)[O-]
REMARK SMILES IDX 8 1 9 2 10 3 11 4 12 5 13 6 14 7 15 8 16 9 7 10 6 11 5 12
REMARK SMILES IDX 4 13 3 14 2 15 1 16
REMARK H PARENT
REMARK Flexibility Score: inf
ROOT
ATOM      1  C   UNL     1      19.726   8.862  49.488  1.00  0.00     0.000 C 
ENDROOT
BRANCH   1   2
ATOM      2  C   UNL     1      19.030   8.254  50.713  1.00  0.00     0.000 C 
BRANCH   2   3
ATOM      3  C   UNL     1      17.510   8.491  50.719  1.00  0.00     0.000 C 
BRANCH   3   4
ATOM      4  C   UNL     1      16.659   7.303  50.224  1.00  0.00     0.000 C 
BRANCH   4   5
ATOM      5  C   UNL     1      15.599   7.653  49.162  1.00  0.00     0.006 C 
BRANCH   5   6
ATOM      6  C   UNL     1      16.134   8.477  47.980  1.00  0.00     0.053 C 
BRANCH   6   7
ATOM      7  C   UNL     1      15.381   8.195  46.717  1.00  0.00     0.041 C 
ATOM      8  O   UNL     1      15.997   8.053  45.628  1.00  0.00    -0.550 OA
ATOM      9  O   UNL     1      13.999   8.056  46.747  1.00  0.00    -0.550 OA
ENDBRANCH   6   7
ENDBRANCH   5   6
ENDBRANCH   4   5
ENDBRANCH   3   4
ENDBRANCH   2   3
ENDBRANCH   1   2
BRANCH   1  10
ATOM     10  C   UNL     1      19.962  10.368  49.682  1.00  0.00     0.000 C 
BRANCH  10  11
ATOM     11  C   UNL     1      21.237  10.868  48.982  1.00  0.00    -0.000 C 
BRANCH  11  12
ATOM     12  C   UNL     1      21.891  12.109  49.624  1.00  0.00    -0.000 C 
BRANCH  12  13
ATOM     13  C   UNL     1      22.611  13.053  48.642  1.00  0.00    -0.000 C 
BRANCH  13  14
ATOM     14  C   UNL     1      24.143  13.097  48.790  1.00  0.00    -0.000 C 
BRANCH  14  15
ATOM     15  C   UNL     1      24.845  13.675  47.554  1.00  0.00    -0.003 C 
ATOM     16  C   UNL     1      25.090  12.595  46.504  1.00  0.00     0.004 C 
ENDBRANCH  14  15
ENDBRANCH  13  14
ENDBRANCH  12  13
ENDBRANCH  11  12
ENDBRANCH  10  11
ENDBRANCH   1  10
TORSDOF 12
ENDMDL
MODEL 4
REMARK VINA RESULT:    -4.317      3.984      7.723
REMARK INTER + INTRA:          -8.487
REMARK INTER:                  -7.939
REMARK INTRA:                  -0.547
REMARK UNBOUND:                -1.141
REMARK SMILES CCCCCCCCCCCCCC(=O)[O-]
REMARK SMILES IDX 8 1 9 2 10 3 11 4 12 5 13 6 14 7 15 8 16 9 7 10 6 11 5 12
REMARK SMILES IDX 4 13 3 14 2 15 1 16
REMARK H PARENT
REMARK Flexibility Score: inf
ROOT
ATOM      1  C   UNL     1      20.212   9.305  50.266  1.00  0.00     0.000 C 
ENDROOT
BRANCH   1   2
ATOM      2  C   UNL     1      19.044   9.613  51.214  1.00  0.00     0.000 C 
BRANCH   2   3
ATOM      3  C   UNL     1      17.670   9.494  50.530  1.00  0.00     0.000 C 
BRANCH   3   4
ATOM      4  C   UNL     1      17.403   8.147  49.827  1.00  0.00     0.000 C 
BRANCH   4   5
ATOM      5  C   UNL     1      15.917   7.758  49.700  1.00  0.00     0.006 C 
BRANCH   5   6
ATOM      6  C   UNL     1      15.605   6.824  48.521  1.00  0.00     0.053 C 
BRANCH   6   7
ATOM      7  C   UNL     1      15.347   7.586  47.258  1.00  0.00     0.041 C 
ATOM      8  O   UNL     1      14.193   8.021  47.004  1.00  0.00    -0.550 OA
ATOM      9  O   UNL     1      16.388   7.844  46.376  1.00  0.00    -0.550 OA
ENDBRANCH   6   7
ENDBRANCH   5   6
ENDBRANCH   4   5
ENDBRANCH   3   4
ENDBRANCH   2   3
ENDBRANCH   1   2
BRANCH   1  10
ATOM     10  C   UNL     1      20.433  10.458  49.276  1.00  0.00     0.000 C 
BRANCH  10  11
ATOM     11  C   UNL     1      21.502  11.458  49.752  1.00  0.00    -0.000 C 
BRANCH  11  12
ATOM     12  C   UNL     1      22.182  12.270  48.631  1.00  0.00    -0.000 C 
BRANCH  12  13
ATOM     13  C   UNL     1      23.090  13.419  49.112  1.00  0.00    -0.000 C 
BRANCH  13  14
ATOM     14  C   UNL     1      22.809  13.911  50.543  1.00  0.00    -0.000 C 
BRANCH  14  15
ATOM     15  C   UNL     1      24.003  13.713  51.487  1.00  0.00    -0.003 C 
ATOM     16  C   UNL     1      25.210  14.524  51.025  1.00  0.00     0.004 C 
ENDBRANCH  14  15
ENDBRANCH  13  14
ENDBRANCH  12  13
ENDBRANCH  11  12
ENDBRANCH  10  11
ENDBRANCH   1  10
TORSDOF 12
ENDMDL
MODEL 5
REMARK VINA RESULT:    -4.205      8.787     10.652
REMARK INTER + INTRA:          -8.296
REMARK INTER:                  -6.630
REMARK INTRA:                  -1.666
REMARK UNBOUND:                -1.141
REMARK SMILES CCCCCCCCCCCCCC(=O)[O-]
REMARK SMILES IDX 8 1 9 2 10 3 11 4 12 5 13 6 14 7 15 8 16 9 7 10 6 11 5 12
REMARK SMILES IDX 4 13 3 14 2 15 1 16
REMARK H PARENT
REMARK Flexibility Score: inf
ROOT
ATOM      1  C   UNL     1      24.753   0.854  48.960  1.00  0.00     0.000 C 
ENDROOT
BRANCH   1   2
ATOM      2  C   UNL     1      24.097  -0.482  48.582  1.00  0.00     0.000 C 
BRANCH   2   3
ATOM      3  C   UNL     1      22.871  -0.311  47.669  1.00  0.00     0.000 C 
BRANCH   3   4
ATOM      4  C   UNL     1      21.785   0.644  48.203  1.00  0.00     0.000 C 
BRANCH   4   5
ATOM      5  C   UNL     1      20.519   0.751  47.330  1.00  0.00     0.006 C 
BRANCH   5   6
ATOM      6  C   UNL     1      19.285   0.045  47.913  1.00  0.00     0.053 C 
BRANCH   6   7
ATOM      7  C   UNL     1      18.188  -0.086  46.903  1.00  0.00     0.041 C 
ATOM      8  O   UNL     1      17.074   0.468  47.099  1.00  0.00    -0.550 OA
ATOM      9  O   UNL     1      18.405  -0.794  45.728  1.00  0.00    -0.550 OA
ENDBRANCH   6   7
ENDBRANCH   5   6
ENDBRANCH   4   5
ENDBRANCH   3   4
ENDBRANCH   2   3
ENDBRANCH   1   2
BRANCH   1  10
ATOM     10  C   UNL     1      26.071   1.054  48.197  1.00  0.00     0.000 C 
BRANCH  10  11
ATOM     11  C   UNL     1      26.195   2.456  47.575  1.00  0.00    -0.000 C 
BRANCH  11  12
ATOM     12  C   UNL     1      24.877   3.254  47.495  1.00  0.00    -0.000 C 
BRANCH  12  13
ATOM     13  C   UNL     1      24.378   3.553  46.068  1.00  0.00    -0.000 C 
BRANCH  13  14
ATOM     14  C   UNL     1      22.910   3.172  45.802  1.00  0.00    -0.000 C 
BRANCH  14  15
ATOM     15  C   UNL     1      22.760   2.112  44.702  1.00  0.00    -0.003 C 
ATOM     16  C   UNL     1      24.046   1.308  44.533  1.00  0.00     0.004 C 
ENDBRANCH  14  15
ENDBRANCH  13  14
ENDBRANCH  12  13
ENDBRANCH  11  12
ENDBRANCH  10  11
ENDBRANCH   1  10
TORSDOF 12
ENDMDL
MODEL 6
REMARK VINA RESULT:    -4.174      7.965      8.968
REMARK INTER + INTRA:          -8.243
REMARK INTER:                  -7.460
REMARK INTRA:                  -0.783
REMARK UNBOUND:                -1.141
REMARK SMILES CCCCCCCCCCCCCC(=O)[O-]
REMARK SMILES IDX 8 1 9 2 10 3 11 4 12 5 13 6 14 7 15 8 16 9 7 10 6 11 5 12
REMARK SMILES IDX 4 13 3 14 2 15 1 16
REMARK H PARENT
REMARK Flexibility Score: inf
ROOT
ATOM      1  C   UNL     1      16.289   1.005  47.344  1.00  0.00     0.000 C 
ENDROOT
BRANCH   1   2
ATOM      2  C   UNL     1      16.219  -0.523  47.487  1.00  0.00     0.000 C 
BRANCH   2   3
ATOM      3  C   UNL     1      17.500  -1.228  47.008  1.00  0.00     0.000 C 
BRANCH   3   4
ATOM      4  C   UNL     1      18.752  -0.969  47.870  1.00  0.00     0.000 C 
BRANCH   4   5
ATOM      5  C   UNL     1      19.926  -0.293  47.134  1.00  0.00     0.006 C 
BRANCH   5   6
ATOM      6  C   UNL     1      20.661   0.774  47.959  1.00  0.00     0.053 C 
BRANCH   6   7
ATOM      7  C   UNL     1      22.142   0.728  47.740  1.00  0.00     0.041 C 
ATOM      8  O   UNL     1      22.906   0.303  48.647  1.00  0.00    -0.550 OA
ATOM      9  O   UNL     1      22.677   1.123  46.520  1.00  0.00    -0.550 OA
ENDBRANCH   6   7
ENDBRANCH   5   6
ENDBRANCH   4   5
ENDBRANCH   3   4
ENDBRANCH   2   3
ENDBRANCH   1   2
BRANCH   1  10
ATOM     10  C   UNL     1      15.319   1.692  48.316  1.00  0.00     0.000 C 
BRANCH  10  11
ATOM     11  C   UNL     1      14.114   0.808  48.683  1.00  0.00    -0.000 C 
BRANCH  11  12
ATOM     12  C   UNL     1      12.819   1.112  47.903  1.00  0.00    -0.000 C 
BRANCH  12  13
ATOM     13  C   UNL     1      12.800   0.616  46.443  1.00  0.00    -0.000 C 
BRANCH  13  14
ATOM     14  C   UNL     1      12.831   1.728  45.380  1.00  0.00    -0.000 C 
BRANCH  14  15
ATOM     15  C   UNL     1      11.838   1.487  44.235  1.00  0.00    -0.003 C 
ATOM     16  C   UNL     1      12.555   1.001  42.979  1.00  0.00     0.004 C 
ENDBRANCH  14  15
ENDBRANCH  13  14
ENDBRANCH  12  13
ENDBRANCH  11  12
ENDBRANCH  10  11
ENDBRANCH   1  10
TORSDOF 12
ENDMDL
MODEL 7
REMARK VINA RESULT:    -4.164      8.712     11.438
REMARK INTER + INTRA:          -8.227
REMARK INTER:                  -7.360
REMARK INTRA:                  -0.866
REMARK UNBOUND:                -1.141
REMARK SMILES CCCCCCCCCCCCCC(=O)[O-]
REMARK SMILES IDX 8 1 9 2 10 3 11 4 12 5 13 6 14 7 15 8 16 9 7 10 6 11 5 12
REMARK SMILES IDX 4 13 3 14 2 15 1 16
REMARK H PARENT
REMARK Flexibility Score: inf
ROOT
ATOM      1  C   UNL     1      19.403   0.142  47.878  1.00  0.00     0.000 C 
ENDROOT
BRANCH   1   2
ATOM      2  C   UNL     1      19.124  -1.173  47.136  1.00  0.00     0.000 C 
BRANCH   2   3
ATOM      3  C   UNL     1      17.866  -1.895  47.649  1.00  0.00     0.000 C 
BRANCH   3   4
ATOM      4  C   UNL     1      16.786  -2.166  46.581  1.00  0.00     0.000 C 
BRANCH   4   5
ATOM      5  C   UNL     1      15.375  -1.655  46.932  1.00  0.00     0.006 C 
BRANCH   5   6
ATOM      6  C   UNL     1      15.330  -0.681  48.118  1.00  0.00     0.053 C 
BRANCH   6   7
ATOM      7  C   UNL     1      15.237   0.744  47.667  1.00  0.00     0.041 C 
ATOM      8  O   UNL     1      16.162   1.257  46.984  1.00  0.00    -0.550 OA
ATOM      9  O   UNL     1      14.111   1.498  47.975  1.00  0.00    -0.550 OA
ENDBRANCH   6   7
ENDBRANCH   5   6
ENDBRANCH   4   5
ENDBRANCH   3   4
ENDBRANCH   2   3
ENDBRANCH   1   2
BRANCH   1  10
ATOM     10  C   UNL     1      20.844   0.614  47.637  1.00  0.00     0.000 C 
BRANCH  10  11
ATOM     11  C   UNL     1      21.731  -0.473  47.006  1.00  0.00    -0.000 C 
BRANCH  11  12
ATOM     12  C   UNL     1      23.212  -0.440  47.436  1.00  0.00    -0.000 C 
BRANCH  12  13
ATOM     13  C   UNL     1      23.565   0.633  48.486  1.00  0.00    -0.000 C 
BRANCH  13  14
ATOM     14  C   UNL     1      24.758   0.282  49.394  1.00  0.00    -0.000 C 
BRANCH  14  15
ATOM     15  C   UNL     1      24.855  -1.219  49.697  1.00  0.00    -0.003 C 
ATOM     16  C   UNL     1      26.186  -1.792  49.219  1.00  0.00     0.004 C 
ENDBRANCH  14  15
ENDBRANCH  13  14
ENDBRANCH  12  13
ENDBRANCH  11  12
ENDBRANCH  10  11
ENDBRANCH   1  10
TORSDOF 12
ENDMDL
MODEL 8
REMARK VINA RESULT:    -4.135     10.474     12.168
REMARK INTER + INTRA:          -8.177
REMARK INTER:                  -6.160
REMARK INTRA:                  -2.017
REMARK UNBOUND:                -1.141
REMARK SMILES CCCCCCCCCCCCCC(=O)[O-]
REMARK SMILES IDX 8 1 9 2 10 3 11 4 12 5 13 6 14 7 15 8 16 9 7 10 6 11 5 12
REMARK SMILES IDX 4 13 3 14 2 15 1 16
REMARK H PARENT
REMARK Flexibility Score: inf
ROOT
ATOM      1  C   UNL     1      27.798  -1.431  47.304  1.00  0.00     0.000 C 
ENDROOT
BRANCH   1   2
ATOM      2  C   UNL     1      27.549   0.050  46.985  1.00  0.00     0.000 C 
BRANCH   2   3
ATOM      3  C   UNL     1      27.952   0.987  48.137  1.00  0.00     0.000 C 
BRANCH   3   4
ATOM      4  C   UNL     1      27.405   2.426  48.033  1.00  0.00     0.000 C 
BRANCH   4   5
ATOM      5  C   UNL     1      26.320   2.639  46.960  1.00  0.00     0.006 C 
BRANCH   5   6
ATOM      6  C   UNL     1      25.031   3.292  47.482  1.00  0.00     0.053 C 
BRANCH   6   7
ATOM      7  C   UNL     1      24.300   4.025  46.400  1.00  0.00     0.041 C 
ATOM      8  O   UNL     1      24.550   5.238  46.173  1.00  0.00    -0.550 OA
ATOM      9  O   UNL     1      23.362   3.360  45.621  1.00  0.00    -0.550 OA
ENDBRANCH   6   7
ENDBRANCH   5   6
ENDBRANCH   4   5
ENDBRANCH   3   4
ENDBRANCH   2   3
ENDBRANCH   1   2
BRANCH   1  10
ATOM     10  C   UNL     1      27.903  -1.656  48.819  1.00  0.00     0.000 C 
BRANCH  10  11
ATOM     11  C   UNL     1      26.940  -2.743  49.329  1.00  0.00    -0.000 C 
BRANCH  11  12
ATOM     12  C   UNL     1      25.443  -2.383  49.242  1.00  0.00    -0.000 C 
BRANCH  12  13
ATOM     13  C   UNL     1      25.056  -1.031  49.874  1.00  0.00    -0.000 C 
BRANCH  13  14
ATOM     14  C   UNL     1      24.349  -0.050  48.921  1.00  0.00    -0.000 C 
BRANCH  14  15
ATOM     15  C   UNL     1      23.576  -0.759  47.801  1.00  0.00    -0.003 C 
ATOM     16  C   UNL     1      23.883  -0.138  46.441  1.00  0.00     0.004 C 
ENDBRANCH  14  15
ENDBRANCH  13  14
ENDBRANCH  12  13
ENDBRANCH  11  12
ENDBRANCH  10  11
ENDBRANCH   1  10
TORSDOF 12
ENDMDL
MODEL 9
REMARK VINA RESULT:    -4.099      8.420     10.699
REMARK INTER + INTRA:          -8.115
REMARK INTER:                  -7.223
REMARK INTRA:                  -0.892
REMARK UNBOUND:                -1.141
REMARK SMILES CCCCCCCCCCCCCC(=O)[O-]
REMARK SMILES IDX 8 1 9 2 10 3 11 4 12 5 13 6 14 7 15 8 16 9 7 10 6 11 5 12
REMARK SMILES IDX 4 13 3 14 2 15 1 16
REMARK H PARENT
REMARK Flexibility Score: inf
ROOT
ATOM      1  C   UNL     1      18.811  -1.616  46.445  1.00  0.00     0.000 C 
ENDROOT
BRANCH   1   2
ATOM      2  C   UNL     1      17.841  -1.606  47.635  1.00  0.00     0.000 C 
BRANCH   2   3
ATOM      3  C   UNL     1      16.446  -1.069  47.267  1.00  0.00     0.000 C 
BRANCH   3   4
ATOM      4  C   UNL     1      16.103   0.317  47.851  1.00  0.00     0.000 C 
BRANCH   4   5
ATOM      5  C   UNL     1      14.635   0.501  48.282  1.00  0.00     0.006 C 
BRANCH   5   6
ATOM      6  C   UNL     1      13.872   1.575  47.492  1.00  0.00     0.053 C 
BRANCH   6   7
ATOM      7  C   UNL     1      13.088   0.985  46.362  1.00  0.00     0.041 C 
ATOM      8  O   UNL     1      12.732  -0.223  46.397  1.00  0.00    -0.550 OA
ATOM      9  O   UNL     1      12.720   1.778  45.282  1.00  0.00    -0.550 OA
ENDBRANCH   6   7
ENDBRANCH   5   6
ENDBRANCH   4   5
ENDBRANCH   3   4
ENDBRANCH   2   3
ENDBRANCH   1   2
BRANCH   1  10
ATOM     10  C   UNL     1      20.084  -0.819  46.768  1.00  0.00     0.000 C 
BRANCH  10  11
ATOM     11  C   UNL     1      19.871   0.222  47.880  1.00  0.00    -0.000 C 
BRANCH  11  12
ATOM     12  C   UNL     1      21.133   1.008  48.289  1.00  0.00    -0.000 C 
BRANCH  12  13
ATOM     13  C   UNL     1      22.466   0.417  47.785  1.00  0.00    -0.000 C 
BRANCH  13  14
ATOM     14  C   UNL     1      23.298   1.361  46.899  1.00  0.00    -0.000 C 
BRANCH  14  15
ATOM     15  C   UNL     1      22.435   2.361  46.118  1.00  0.00    -0.003 C 
ATOM     16  C   UNL     1      22.653   2.219  44.614  1.00  0.00     0.004 C 
ENDBRANCH  14  15
ENDBRANCH  13  14
ENDBRANCH  12  13
ENDBRANCH  11  12
ENDBRANCH  10  11
ENDBRANCH   1  10
TORSDOF 12
ENDMDL
