MODEL 1
REMARK VINA RESULT:    -6.355      0.000      0.000
REMARK INTER + INTRA:          -7.738
REMARK INTER:                  -7.470
REMARK INTRA:                  -0.269
REMARK UNBOUND:                -0.269
REMARK SMILES O=c1cc(-c2ccc(O)c(O)c2)oc2cc(O)cc(O)c12
REMARK SMILES IDX 4 1 3 2 2 3 1 4 21 5 19 6 18 7 16 8 15 9 14 10 13 11 5 12
REMARK SMILES IDX 6 13 7 14 8 15 12 16 10 17 9 18 11 20 20 22 17 24
REMARK H PARENT 9 19 11 21 20 23 17 25
REMARK Flexibility Score: inf
ROOT
ATOM      1  C   UNL     1       8.789  -7.583  -9.083  1.00  0.00     0.138 A 
ATOM      2  C   UNL     1       7.805  -7.615 -10.081  1.00  0.00     0.100 A 
ATOM      3  C   UNL     1       8.157  -7.963 -11.387  1.00  0.00     0.197 A 
ATOM      4  O   UNL     1       7.266  -7.923 -12.274  1.00  0.00    -0.289 OA
ATOM      5  C   UNL     1       9.497  -8.310 -11.685  1.00  0.00     0.107 A 
ATOM      6  C   UNL     1       9.962  -8.720 -12.970  1.00  0.00     0.134 A 
ATOM      7  C   UNL     1      11.333  -8.927 -13.174  1.00  0.00     0.093 A 
ATOM      8  C   UNL     1      12.244  -8.798 -12.127  1.00  0.00     0.123 A 
ATOM      9  C   UNL     1      11.793  -8.450 -10.853  1.00  0.00     0.094 A 
ATOM     10  C   UNL     1      10.437  -8.203 -10.626  1.00  0.00     0.146 A 
ATOM     11  O   UNL     1      10.049  -7.860  -9.402  1.00  0.00    -0.456 OA
ENDROOT
BRANCH   1  12
ATOM     12  C   UNL     1       8.469  -7.221  -7.680  1.00  0.00     0.021 A 
ATOM     13  C   UNL     1       7.821  -8.122  -6.813  1.00  0.00     0.016 A 
ATOM     14  C   UNL     1       7.542  -7.760  -5.492  1.00  0.00     0.051 A 
ATOM     15  C   UNL     1       7.910  -6.496  -5.014  1.00  0.00     0.157 A 
ATOM     16  C   UNL     1       8.847  -5.959  -7.186  1.00  0.00     0.062 A 
ATOM     17  C   UNL     1       8.565  -5.595  -5.861  1.00  0.00     0.158 A 
BRANCH  15  18
ATOM     18  O   UNL     1       7.632  -6.131  -3.698  1.00  0.00    -0.504 OA
ATOM     19  H   UNL     1       6.701  -5.854  -3.410  1.00  0.00     0.293 HD
ENDBRANCH  15  18
BRANCH  17  20
ATOM     20  O   UNL     1       8.934  -4.340  -5.381  1.00  0.00    -0.504 OA
ATOM     21  H   UNL     1       9.645  -3.784  -5.841  1.00  0.00     0.293 HD
ENDBRANCH  17  20
ENDBRANCH   1  12
BRANCH   6  22
ATOM     22  O   UNL     1       9.126  -8.962 -14.065  1.00  0.00    -0.507 OA
ATOM     23  H   UNL     1       9.229  -8.538 -14.973  1.00  0.00     0.293 HD
ENDBRANCH   6  22
BRANCH   8  24
ATOM     24  O   UNL     1      13.598  -9.026 -12.362  1.00  0.00    -0.508 OA
ATOM     25  H   UNL     1      14.312  -8.419 -11.978  1.00  0.00     0.293 HD
ENDBRANCH   8  24
TORSDOF 5
ENDMDL
MODEL 2
REMARK VINA RESULT:    -6.342      2.449      6.862
REMARK INTER + INTRA:          -7.723
REMARK INTER:                  -7.405
REMARK INTRA:                  -0.317
REMARK UNBOUND:                -0.269
REMARK SMILES O=c1cc(-c2ccc(O)c(O)c2)oc2cc(O)cc(O)c12
REMARK SMILES IDX 4 1 3 2 2 3 1 4 21 5 19 6 18 7 16 8 15 9 14 10 13 11 5 12
REMARK SMILES IDX 6 13 7 14 8 15 12 16 10 17 9 18 11 20 20 22 17 24
REMARK H PARENT 9 19 11 21 20 23 17 25
REMARK Flexibility Score: inf
ROOT
ATOM      1  C   UNL     1      10.870  -6.810  -9.232  1.00  0.00     0.138 A 
ATOM      2  C   UNL     1      10.016  -7.910  -9.392  1.00  0.00     0.100 A 
ATOM      3  C   UNL     1       8.955  -8.096  -8.504  1.00  0.00     0.197 A 
ATOM      4  O   UNL     1       8.244  -9.125  -8.635  1.00  0.00    -0.289 OA
ATOM      5  C   UNL     1       8.732  -7.156  -7.469  1.00  0.00     0.107 A 
ATOM      6  C   UNL     1       7.659  -7.222  -6.531  1.00  0.00     0.134 A 
ATOM      7  C   UNL     1       7.605  -6.299  -5.478  1.00  0.00     0.093 A 
ATOM      8  C   UNL     1       8.549  -5.280  -5.365  1.00  0.00     0.123 A 
ATOM      9  C   UNL     1       9.573  -5.174  -6.308  1.00  0.00     0.094 A 
ATOM     10  C   UNL     1       9.673  -6.100  -7.349  1.00  0.00     0.146 A 
ATOM     11  O   UNL     1      10.670  -5.973  -8.219  1.00  0.00    -0.456 OA
ENDROOT
BRANCH   1  12
ATOM     12  C   UNL     1      12.012  -6.564 -10.148  1.00  0.00     0.021 A 
ATOM     13  C   UNL     1      12.363  -7.483 -11.155  1.00  0.00     0.016 A 
ATOM     14  C   UNL     1      13.437  -7.221 -12.011  1.00  0.00     0.051 A 
ATOM     15  C   UNL     1      14.172  -6.036 -11.879  1.00  0.00     0.157 A 
ATOM     16  C   UNL     1      12.747  -5.370 -10.032  1.00  0.00     0.062 A 
ATOM     17  C   UNL     1      13.826  -5.109 -10.890  1.00  0.00     0.158 A 
BRANCH  15  18
ATOM     18  O   UNL     1      15.244  -5.773 -12.730  1.00  0.00    -0.504 OA
ATOM     19  H   UNL     1      15.232  -6.058 -13.702  1.00  0.00     0.293 HD
ENDBRANCH  15  18
BRANCH  17  20
ATOM     20  O   UNL     1      14.557  -3.929 -10.764  1.00  0.00    -0.504 OA
ATOM     21  H   UNL     1      14.609  -3.254 -11.518  1.00  0.00     0.293 HD
ENDBRANCH  17  20
ENDBRANCH   1  12
BRANCH   6  22
ATOM     22  O   UNL     1       6.613  -8.149  -6.602  1.00  0.00    -0.507 OA
ATOM     23  H   UNL     1       6.591  -9.030  -6.113  1.00  0.00     0.293 HD
ENDBRANCH   6  22
BRANCH   8  24
ATOM     24  O   UNL     1       8.456  -4.371  -4.313  1.00  0.00    -0.508 OA
ATOM     25  H   UNL     1       7.975  -4.604  -3.453  1.00  0.00     0.293 HD
ENDBRANCH   8  24
TORSDOF 5
ENDMDL
MODEL 3
REMARK VINA RESULT:    -6.270     14.833     17.699
REMARK INTER + INTRA:          -7.639
REMARK INTER:                  -7.368
REMARK INTRA:                  -0.270
REMARK UNBOUND:                -0.269
REMARK SMILES O=c1cc(-c2ccc(O)c(O)c2)oc2cc(O)cc(O)c12
REMARK SMILES IDX 4 1 3 2 2 3 1 4 21 5 19 6 18 7 16 8 15 9 14 10 13 11 5 12
REMARK SMILES IDX 6 13 7 14 8 15 12 16 10 17 9 18 11 20 20 22 17 24
REMARK H PARENT 9 19 11 21 20 23 17 25
REMARK Flexibility Score: inf
ROOT
ATOM      1  C   UNL     1      20.769   0.422 -17.505  1.00  0.00     0.138 A 
ATOM      2  C   UNL     1      19.539   0.547 -16.845  1.00  0.00     0.100 A 
ATOM      3  C   UNL     1      19.512   0.923 -15.501  1.00  0.00     0.197 A 
ATOM      4  O   UNL     1      18.398   0.966 -14.918  1.00  0.00    -0.289 OA
ATOM      5  C   UNL     1      20.723   1.207 -14.825  1.00  0.00     0.107 A 
ATOM      6  C   UNL     1      20.813   1.639 -13.468  1.00  0.00     0.134 A 
ATOM      7  C   UNL     1      22.073   1.777 -12.871  1.00  0.00     0.093 A 
ATOM      8  C   UNL     1      23.243   1.559 -13.597  1.00  0.00     0.123 A 
ATOM      9  C   UNL     1      23.166   1.188 -14.940  1.00  0.00     0.094 A 
ATOM     10  C   UNL     1      21.925   1.008 -15.555  1.00  0.00     0.146 A 
ATOM     11  O   UNL     1      21.894   0.642 -16.832  1.00  0.00    -0.456 OA
ENDROOT
BRANCH   1  12
ATOM     12  C   UNL     1      20.857   0.026 -18.933  1.00  0.00     0.021 A 
ATOM     13  C   UNL     1      20.472  -1.256 -19.369  1.00  0.00     0.016 A 
ATOM     14  C   UNL     1      20.554  -1.599 -20.722  1.00  0.00     0.051 A 
ATOM     15  C   UNL     1      21.016  -0.667 -21.660  1.00  0.00     0.157 A 
ATOM     16  C   UNL     1      21.306   0.960 -19.884  1.00  0.00     0.062 A 
ATOM     17  C   UNL     1      21.390   0.614 -21.241  1.00  0.00     0.158 A 
BRANCH  15  18
ATOM     18  O   UNL     1      21.100  -1.007 -23.009  1.00  0.00    -0.504 OA
ATOM     19  H   UNL     1      21.270  -1.961 -23.306  1.00  0.00     0.293 HD
ENDBRANCH  15  18
BRANCH  17  20
ATOM     20  O   UNL     1      21.845   1.541 -22.178  1.00  0.00    -0.504 OA
ATOM     21  H   UNL     1      21.692   2.536 -22.058  1.00  0.00     0.293 HD
ENDBRANCH  17  20
ENDBRANCH   1  12
BRANCH   6  22
ATOM     22  O   UNL     1      19.708   1.967 -12.676  1.00  0.00    -0.507 OA
ATOM     23  H   UNL     1      18.779   2.139 -13.027  1.00  0.00     0.293 HD
ENDBRANCH   6  22
BRANCH   8  24
ATOM     24  O   UNL     1      24.478   1.720 -12.974  1.00  0.00    -0.508 OA
ATOM     25  H   UNL     1      25.171   0.981 -12.972  1.00  0.00     0.293 HD
ENDBRANCH   8  24
TORSDOF 5
ENDMDL
MODEL 4
REMARK VINA RESULT:    -6.201      4.079      7.129
REMARK INTER + INTRA:          -7.558
REMARK INTER:                  -7.290
REMARK INTRA:                  -0.268
REMARK UNBOUND:                -0.269
REMARK SMILES O=c1cc(-c2ccc(O)c(O)c2)oc2cc(O)cc(O)c12
REMARK SMILES IDX 4 1 3 2 2 3 1 4 21 5 19 6 18 7 16 8 15 9 14 10 13 11 5 12
REMARK SMILES IDX 6 13 7 14 8 15 12 16 10 17 9 18 11 20 20 22 17 24
REMARK H PARENT 9 19 11 21 20 23 17 25
REMARK Flexibility Score: inf
ROOT
ATOM      1  C   UNL     1      12.683  -5.363 -10.590  1.00  0.00     0.138 A 
ATOM      2  C   UNL     1      11.657  -4.665 -11.243  1.00  0.00     0.100 A 
ATOM      3  C   UNL     1      10.333  -4.847 -10.840  1.00  0.00     0.197 A 
ATOM      4  O   UNL     1       9.429  -4.256 -11.484  1.00  0.00    -0.289 OA
ATOM      5  C   UNL     1      10.040  -5.709  -9.756  1.00  0.00     0.107 A 
ATOM      6  C   UNL     1       8.733  -5.939  -9.232  1.00  0.00     0.134 A 
ATOM      7  C   UNL     1       8.550  -6.903  -8.232  1.00  0.00     0.093 A 
ATOM      8  C   UNL     1       9.632  -7.599  -7.695  1.00  0.00     0.123 A 
ATOM      9  C   UNL     1      10.922  -7.343  -8.163  1.00  0.00     0.094 A 
ATOM     10  C   UNL     1      11.133  -6.413  -9.184  1.00  0.00     0.146 A 
ATOM     11  O   UNL     1      12.375  -6.207  -9.611  1.00  0.00    -0.456 OA
ENDROOT
BRANCH   1  12
ATOM     12  C   UNL     1      14.107  -5.207 -10.977  1.00  0.00     0.021 A 
ATOM     13  C   UNL     1      14.601  -5.706 -12.198  1.00  0.00     0.016 A 
ATOM     14  C   UNL     1      15.945  -5.536 -12.542  1.00  0.00     0.051 A 
ATOM     15  C   UNL     1      16.815  -4.860 -11.677  1.00  0.00     0.157 A 
ATOM     16  C   UNL     1      14.986  -4.517 -10.122  1.00  0.00     0.062 A 
ATOM     17  C   UNL     1      16.335  -4.349 -10.467  1.00  0.00     0.158 A 
BRANCH  15  18
ATOM     18  O   UNL     1      18.156  -4.690 -12.017  1.00  0.00    -0.504 OA
ATOM     19  H   UNL     1      18.803  -5.470 -12.028  1.00  0.00     0.293 HD
ENDBRANCH  15  18
BRANCH  17  20
ATOM     20  O   UNL     1      17.203  -3.672  -9.610  1.00  0.00    -0.504 OA
ATOM     21  H   UNL     1      18.104  -3.335  -9.927  1.00  0.00     0.293 HD
ENDBRANCH  17  20
ENDBRANCH   1  12
BRANCH   6  22
ATOM     22  O   UNL     1       7.593  -5.236  -9.637  1.00  0.00    -0.507 OA
ATOM     23  H   UNL     1       6.760  -5.659 -10.014  1.00  0.00     0.293 HD
ENDBRANCH   6  22
BRANCH   8  24
ATOM     24  O   UNL     1       9.415  -8.539  -6.691  1.00  0.00    -0.508 OA
ATOM     25  H   UNL     1       8.588  -8.509  -6.107  1.00  0.00     0.293 HD
ENDBRANCH   8  24
TORSDOF 5
ENDMDL
MODEL 5
REMARK VINA RESULT:    -6.173     13.966     17.622
REMARK INTER + INTRA:          -7.524
REMARK INTER:                  -7.261
REMARK INTRA:                  -0.263
REMARK UNBOUND:                -0.269
REMARK SMILES O=c1cc(-c2ccc(O)c(O)c2)oc2cc(O)cc(O)c12
REMARK SMILES IDX 4 1 3 2 2 3 1 4 21 5 19 6 18 7 16 8 15 9 14 10 13 11 5 12
REMARK SMILES IDX 6 13 7 14 8 15 12 16 10 17 9 18 11 20 20 22 17 24
REMARK H PARENT 9 19 11 21 20 23 17 25
REMARK Flexibility Score: inf
ROOT
ATOM      1  C   UNL     1      20.965   0.543 -17.574  1.00  0.00     0.138 A 
ATOM      2  C   UNL     1      22.140   0.875 -16.885  1.00  0.00     0.100 A 
ATOM      3  C   UNL     1      22.068   1.272 -15.549  1.00  0.00     0.197 A 
ATOM      4  O   UNL     1      23.130   1.624 -14.975  1.00  0.00    -0.289 OA
ATOM      5  C   UNL     1      20.815   1.306 -14.891  1.00  0.00     0.107 A 
ATOM      6  C   UNL     1      20.625   1.655 -13.521  1.00  0.00     0.134 A 
ATOM      7  C   UNL     1      19.325   1.765 -13.010  1.00  0.00     0.093 A 
ATOM      8  C   UNL     1      18.214   1.481 -13.802  1.00  0.00     0.123 A 
ATOM      9  C   UNL     1      18.389   1.087 -15.129  1.00  0.00     0.094 A 
ATOM     10  C   UNL     1      19.672   1.001 -15.677  1.00  0.00     0.146 A 
ATOM     11  O   UNL     1      19.796   0.635 -16.949  1.00  0.00    -0.456 OA
ENDROOT
BRANCH   1  12
ATOM     12  C   UNL     1      20.984   0.113 -18.995  1.00  0.00     0.021 A 
ATOM     13  C   UNL     1      20.544  -1.166 -19.386  1.00  0.00     0.016 A 
ATOM     14  C   UNL     1      20.563  -1.540 -20.733  1.00  0.00     0.051 A 
ATOM     15  C   UNL     1      21.016  -0.644 -21.709  1.00  0.00     0.157 A 
ATOM     16  C   UNL     1      21.424   1.011 -19.984  1.00  0.00     0.062 A 
ATOM     17  C   UNL     1      21.445   0.634 -21.334  1.00  0.00     0.158 A 
BRANCH  15  18
ATOM     18  O   UNL     1      21.037  -1.015 -23.052  1.00  0.00    -0.504 OA
ATOM     19  H   UNL     1      21.298  -0.360 -23.780  1.00  0.00     0.293 HD
ENDBRANCH  15  18
BRANCH  17  20
ATOM     20  O   UNL     1      21.890   1.526 -22.309  1.00  0.00    -0.504 OA
ATOM     21  H   UNL     1      21.242   2.036 -22.897  1.00  0.00     0.293 HD
ENDBRANCH  17  20
ENDBRANCH   1  12
BRANCH   6  22
ATOM     22  O   UNL     1      21.671   1.876 -12.619  1.00  0.00    -0.507 OA
ATOM     23  H   UNL     1      21.930   2.776 -12.247  1.00  0.00     0.293 HD
ENDBRANCH   6  22
BRANCH   8  24
ATOM     24  O   UNL     1      16.936   1.587 -13.256  1.00  0.00    -0.508 OA
ATOM     25  H   UNL     1      16.382   2.429 -13.364  1.00  0.00     0.293 HD
ENDBRANCH   8  24
TORSDOF 5
ENDMDL
MODEL 6
REMARK VINA RESULT:    -6.171     10.949     14.521
REMARK INTER + INTRA:          -7.522
REMARK INTER:                  -7.258
REMARK INTRA:                  -0.264
REMARK UNBOUND:                -0.269
REMARK SMILES O=c1cc(-c2ccc(O)c(O)c2)oc2cc(O)cc(O)c12
REMARK SMILES IDX 4 1 3 2 2 3 1 4 21 5 19 6 18 7 16 8 15 9 14 10 13 11 5 12
REMARK SMILES IDX 6 13 7 14 8 15 12 16 10 17 9 18 11 20 20 22 17 24
REMARK H PARENT 9 19 11 21 20 23 17 25
REMARK Flexibility Score: inf
ROOT
ATOM      1  C   UNL     1      18.453  -1.059 -16.804  1.00  0.00     0.138 A 
ATOM      2  C   UNL     1      17.715  -0.188 -15.990  1.00  0.00     0.100 A 
ATOM      3  C   UNL     1      16.938  -0.705 -14.952  1.00  0.00     0.197 A 
ATOM      4  O   UNL     1      16.238   0.094 -14.279  1.00  0.00    -0.289 OA
ATOM      5  C   UNL     1      16.926  -2.100 -14.710  1.00  0.00     0.107 A 
ATOM      6  C   UNL     1      16.204  -2.734 -13.655  1.00  0.00     0.134 A 
ATOM      7  C   UNL     1      16.174  -4.133 -13.584  1.00  0.00     0.093 A 
ATOM      8  C   UNL     1      16.888  -4.916 -14.490  1.00  0.00     0.123 A 
ATOM      9  C   UNL     1      17.641  -4.304 -15.493  1.00  0.00     0.094 A 
ATOM     10  C   UNL     1      17.663  -2.912 -15.611  1.00  0.00     0.146 A 
ATOM     11  O   UNL     1      18.382  -2.369 -16.588  1.00  0.00    -0.456 OA
ENDROOT
BRANCH   1  12
ATOM     12  C   UNL     1      19.297  -0.564 -17.920  1.00  0.00     0.021 A 
ATOM     13  C   UNL     1      18.932  -0.760 -19.266  1.00  0.00     0.016 A 
ATOM     14  C   UNL     1      19.740  -0.273 -20.298  1.00  0.00     0.051 A 
ATOM     15  C   UNL     1      20.920   0.421 -20.003  1.00  0.00     0.157 A 
ATOM     16  C   UNL     1      20.477   0.147 -17.634  1.00  0.00     0.062 A 
ATOM     17  C   UNL     1      21.288   0.632 -18.670  1.00  0.00     0.158 A 
BRANCH  15  18
ATOM     18  O   UNL     1      21.728   0.906 -21.030  1.00  0.00    -0.504 OA
ATOM     19  H   UNL     1      22.478   0.349 -21.422  1.00  0.00     0.293 HD
ENDBRANCH  15  18
BRANCH  17  20
ATOM     20  O   UNL     1      22.461   1.328 -18.380  1.00  0.00    -0.504 OA
ATOM     21  H   UNL     1      23.373   0.942 -18.595  1.00  0.00     0.293 HD
ENDBRANCH  17  20
ENDBRANCH   1  12
BRANCH   6  22
ATOM     22  O   UNL     1      15.526  -2.044 -12.646  1.00  0.00    -0.507 OA
ATOM     23  H   UNL     1      15.939  -1.740 -11.778  1.00  0.00     0.293 HD
ENDBRANCH   6  22
BRANCH   8  24
ATOM     24  O   UNL     1      16.847  -6.304 -14.380  1.00  0.00    -0.508 OA
ATOM     25  H   UNL     1      16.146  -6.771 -13.816  1.00  0.00     0.293 HD
ENDBRANCH   8  24
TORSDOF 5
ENDMDL
MODEL 7
REMARK VINA RESULT:    -6.125      2.889      3.899
REMARK INTER + INTRA:          -7.468
REMARK INTER:                  -7.161
REMARK INTRA:                  -0.307
REMARK UNBOUND:                -0.269
REMARK SMILES O=c1cc(-c2ccc(O)c(O)c2)oc2cc(O)cc(O)c12
REMARK SMILES IDX 4 1 3 2 2 3 1 4 21 5 19 6 18 7 16 8 15 9 14 10 13 11 5 12
REMARK SMILES IDX 6 13 7 14 8 15 12 16 10 17 9 18 11 20 20 22 17 24
REMARK H PARENT 9 19 11 21 20 23 17 25
REMARK Flexibility Score: inf
ROOT
ATOM      1  C   UNL     1      11.477  -6.882  -9.639  1.00  0.00     0.138 A 
ATOM      2  C   UNL     1      11.515  -7.797 -10.700  1.00  0.00     0.100 A 
ATOM      3  C   UNL     1      12.505  -7.680 -11.678  1.00  0.00     0.197 A 
ATOM      4  O   UNL     1      12.477  -8.477 -12.651  1.00  0.00    -0.289 OA
ATOM      5  C   UNL     1      13.480  -6.660 -11.573  1.00  0.00     0.107 A 
ATOM      6  C   UNL     1      14.559  -6.470 -12.487  1.00  0.00     0.134 A 
ATOM      7  C   UNL     1      15.395  -5.355 -12.346  1.00  0.00     0.093 A 
ATOM      8  C   UNL     1      15.228  -4.458 -11.292  1.00  0.00     0.123 A 
ATOM      9  C   UNL     1      14.209  -4.663 -10.361  1.00  0.00     0.094 A 
ATOM     10  C   UNL     1      13.338  -5.747 -10.494  1.00  0.00     0.146 A 
ATOM     11  O   UNL     1      12.372  -5.900  -9.594  1.00  0.00    -0.456 OA
ENDROOT
BRANCH   1  12
ATOM     12  C   UNL     1      10.448  -6.961  -8.573  1.00  0.00     0.021 A 
ATOM     13  C   UNL     1       9.886  -8.190  -8.176  1.00  0.00     0.016 A 
ATOM     14  C   UNL     1       8.926  -8.236  -7.161  1.00  0.00     0.051 A 
ATOM     15  C   UNL     1       8.515  -7.059  -6.523  1.00  0.00     0.157 A 
ATOM     16  C   UNL     1      10.039  -5.786  -7.917  1.00  0.00     0.062 A 
ATOM     17  C   UNL     1       9.074  -5.833  -6.900  1.00  0.00     0.158 A 
BRANCH  15  18
ATOM     18  O   UNL     1       7.557  -7.102  -5.512  1.00  0.00    -0.504 OA
ATOM     19  H   UNL     1       7.301  -7.973  -5.061  1.00  0.00     0.293 HD
ENDBRANCH  15  18
BRANCH  17  20
ATOM     20  O   UNL     1       8.666  -4.663  -6.260  1.00  0.00    -0.504 OA
ATOM     21  H   UNL     1       7.790  -4.210  -6.491  1.00  0.00     0.293 HD
ENDBRANCH  17  20
ENDBRANCH   1  12
BRANCH   6  22
ATOM     22  O   UNL     1      14.867  -7.354 -13.527  1.00  0.00    -0.507 OA
ATOM     23  H   UNL     1      15.731  -7.353 -14.046  1.00  0.00     0.293 HD
ENDBRANCH   6  22
BRANCH   8  24
ATOM     24  O   UNL     1      16.088  -3.368 -11.175  1.00  0.00    -0.508 OA
ATOM     25  H   UNL     1      16.504  -3.114 -10.287  1.00  0.00     0.293 HD
ENDBRANCH   8  24
TORSDOF 5
ENDMDL
MODEL 8
REMARK VINA RESULT:    -5.945     11.961     14.303
REMARK INTER + INTRA:          -7.256
REMARK INTER:                  -6.993
REMARK INTRA:                  -0.263
REMARK UNBOUND:                -0.269
REMARK SMILES O=c1cc(-c2ccc(O)c(O)c2)oc2cc(O)cc(O)c12
REMARK SMILES IDX 4 1 3 2 2 3 1 4 21 5 19 6 18 7 16 8 15 9 14 10 13 11 5 12
REMARK SMILES IDX 6 13 7 14 8 15 12 16 10 17 9 18 11 20 20 22 17 24
REMARK H PARENT 9 19 11 21 20 23 17 25
REMARK Flexibility Score: inf
ROOT
ATOM      1  C   UNL     1      18.533  -0.462 -16.296  1.00  0.00     0.138 A 
ATOM      2  C   UNL     1      19.552   0.387 -15.845  1.00  0.00     0.100 A 
ATOM      3  C   UNL     1      20.553   0.795 -16.728  1.00  0.00     0.197 A 
ATOM      4  O   UNL     1      21.489   1.506 -16.280  1.00  0.00    -0.289 OA
ATOM      5  C   UNL     1      20.513   0.374 -18.079  1.00  0.00     0.107 A 
ATOM      6  C   UNL     1      21.455   0.760 -19.078  1.00  0.00     0.134 A 
ATOM      7  C   UNL     1      21.380   0.188 -20.355  1.00  0.00     0.093 A 
ATOM      8  C   UNL     1      20.364  -0.707 -20.685  1.00  0.00     0.123 A 
ATOM      9  C   UNL     1      19.405  -1.051 -19.731  1.00  0.00     0.094 A 
ATOM     10  C   UNL     1      19.473  -0.524 -18.439  1.00  0.00     0.146 A 
ATOM     11  O   UNL     1      18.548  -0.886 -17.555  1.00  0.00    -0.456 OA
ENDROOT
BRANCH   1  12
ATOM     12  C   UNL     1      17.444  -0.925 -15.399  1.00  0.00     0.021 A 
ATOM     13  C   UNL     1      17.411  -2.240 -14.895  1.00  0.00     0.016 A 
ATOM     14  C   UNL     1      16.380  -2.647 -14.044  1.00  0.00     0.051 A 
ATOM     15  C   UNL     1      15.369  -1.748 -13.679  1.00  0.00     0.157 A 
ATOM     16  C   UNL     1      16.433  -0.026 -15.016  1.00  0.00     0.062 A 
ATOM     17  C   UNL     1      15.397  -0.436 -14.164  1.00  0.00     0.158 A 
BRANCH  15  18
ATOM     18  O   UNL     1      14.339  -2.151 -12.831  1.00  0.00    -0.504 OA
ATOM     19  H   UNL     1      14.418  -2.072 -11.824  1.00  0.00     0.293 HD
ENDBRANCH  15  18
BRANCH  17  20
ATOM     20  O   UNL     1      14.392   0.457 -13.795  1.00  0.00    -0.504 OA
ATOM     21  H   UNL     1      14.554   1.457 -13.771  1.00  0.00     0.293 HD
ENDBRANCH  17  20
ENDBRANCH   1  12
BRANCH   6  22
ATOM     22  O   UNL     1      22.460   1.713 -18.880  1.00  0.00    -0.507 OA
ATOM     23  H   UNL     1      23.435   1.501 -18.738  1.00  0.00     0.293 HD
ENDBRANCH   6  22
BRANCH   8  24
ATOM     24  O   UNL     1      20.312  -1.245 -21.969  1.00  0.00    -0.508 OA
ATOM     25  H   UNL     1      20.255  -0.654 -22.790  1.00  0.00     0.293 HD
ENDBRANCH   8  24
TORSDOF 5
ENDMDL
MODEL 9
REMARK VINA RESULT:    -5.809      3.125      6.920
REMARK INTER + INTRA:          -7.097
REMARK INTER:                  -6.791
REMARK INTRA:                  -0.306
REMARK UNBOUND:                -0.269
REMARK SMILES O=c1cc(-c2ccc(O)c(O)c2)oc2cc(O)cc(O)c12
REMARK SMILES IDX 4 1 3 2 2 3 1 4 21 5 19 6 18 7 16 8 15 9 14 10 13 11 5 12
REMARK SMILES IDX 6 13 7 14 8 15 12 16 10 17 9 18 11 20 20 22 17 24
REMARK H PARENT 9 19 11 21 20 23 17 25
REMARK Flexibility Score: inf
ROOT
ATOM      1  C   UNL     1      12.125  -6.173 -10.637  1.00  0.00     0.138 A 
ATOM      2  C   UNL     1      11.738  -6.116  -9.291  1.00  0.00     0.100 A 
ATOM      3  C   UNL     1      10.453  -6.521  -8.924  1.00  0.00     0.197 A 
ATOM      4  O   UNL     1      10.114  -6.400  -7.719  1.00  0.00    -0.289 OA
ATOM      5  C   UNL     1       9.563  -7.014  -9.908  1.00  0.00     0.107 A 
ATOM      6  C   UNL     1       8.245  -7.493  -9.644  1.00  0.00     0.134 A 
ATOM      7  C   UNL     1       7.413  -7.849 -10.714  1.00  0.00     0.093 A 
ATOM      8  C   UNL     1       7.871  -7.801 -12.029  1.00  0.00     0.123 A 
ATOM      9  C   UNL     1       9.177  -7.386 -12.295  1.00  0.00     0.094 A 
ATOM     10  C   UNL     1      10.019  -6.991 -11.253  1.00  0.00     0.146 A 
ATOM     11  O   UNL     1      11.251  -6.589 -11.549  1.00  0.00    -0.456 OA
ENDROOT
BRANCH   1  12
ATOM     12  C   UNL     1      13.478  -5.756 -11.083  1.00  0.00     0.021 A 
ATOM     13  C   UNL     1      14.214  -4.774 -10.392  1.00  0.00     0.016 A 
ATOM     14  C   UNL     1      15.491  -4.408 -10.827  1.00  0.00     0.051 A 
ATOM     15  C   UNL     1      16.055  -5.020 -11.953  1.00  0.00     0.157 A 
ATOM     16  C   UNL     1      14.059  -6.374 -12.205  1.00  0.00     0.062 A 
ATOM     17  C   UNL     1      15.339  -6.005 -12.642  1.00  0.00     0.158 A 
BRANCH  15  18
ATOM     18  O   UNL     1      17.328  -4.656 -12.390  1.00  0.00    -0.504 OA
ATOM     19  H   UNL     1      17.590  -3.684 -12.508  1.00  0.00     0.293 HD
ENDBRANCH  15  18
BRANCH  17  20
ATOM     20  O   UNL     1      15.906  -6.615 -13.760  1.00  0.00    -0.504 OA
ATOM     21  H   UNL     1      15.334  -7.060 -14.469  1.00  0.00     0.293 HD
ENDBRANCH  17  20
ENDBRANCH   1  12
BRANCH   6  22
ATOM     22  O   UNL     1       7.717  -7.661  -8.360  1.00  0.00    -0.507 OA
ATOM     23  H   UNL     1       8.105  -7.262  -7.520  1.00  0.00     0.293 HD
ENDBRANCH   6  22
BRANCH   8  24
ATOM     24  O   UNL     1       7.021  -8.177 -13.067  1.00  0.00    -0.508 OA
ATOM     25  H   UNL     1       6.573  -7.489 -13.661  1.00  0.00     0.293 HD
ENDBRANCH   8  24
TORSDOF 5
ENDMDL
