MODEL 1
REMARK VINA RESULT:    28.416      0.000      0.000
REMARK INTER + INTRA:          33.974
REMARK INTER:                  34.230
REMARK INTRA:                  -0.256
REMARK UNBOUND:                -0.256
REMARK SMILES O=c1c(O)c(-c2ccc(O)c(O)c2)oc2cc(O)cc(O)c12
REMARK SMILES IDX 5 1 3 2 2 3 1 4 22 5 20 6 19 7 17 8 16 9 15 10 14 11 6 12
REMARK SMILES IDX 7 13 8 14 9 15 13 16 11 17 10 18 12 20 4 22 21 24 18 26
REMARK H PARENT 10 19 12 21 4 23 21 25 18 27
REMARK Flexibility Score: inf
ROOT
ATOM      1  C   UNL     1       9.261   1.481   9.126  1.00  0.00     0.180 A 
ATOM      2  C   UNL     1      10.062   0.403   8.709  1.00  0.00     0.208 A 
ATOM      3  C   UNL     1      11.138   0.650   7.842  1.00  0.00     0.238 A 
ATOM      4  O   UNL     1      11.817  -0.327   7.429  1.00  0.00    -0.285 OA
ATOM      5  C   UNL     1      11.411   1.971   7.416  1.00  0.00     0.111 A 
ATOM      6  C   UNL     1      12.500   2.343   6.570  1.00  0.00     0.134 A 
ATOM      7  C   UNL     1      12.597   3.660   6.106  1.00  0.00     0.093 A 
ATOM      8  C   UNL     1      11.682   4.635   6.511  1.00  0.00     0.123 A 
ATOM      9  C   UNL     1      10.650   4.296   7.384  1.00  0.00     0.094 A 
ATOM     10  C   UNL     1      10.506   2.982   7.834  1.00  0.00     0.146 A 
ATOM     11  O   UNL     1       9.503   2.699   8.657  1.00  0.00    -0.452 OA
ENDROOT
BRANCH   1  12
ATOM     12  C   UNL     1       8.125   1.304  10.059  1.00  0.00     0.025 A 
ATOM     13  C   UNL     1       8.379   1.054  11.417  1.00  0.00     0.016 A 
ATOM     14  C   UNL     1       7.323   0.864  12.311  1.00  0.00     0.051 A 
ATOM     15  C   UNL     1       6.000   0.906  11.862  1.00  0.00     0.157 A 
ATOM     16  C   UNL     1       6.795   1.325   9.605  1.00  0.00     0.062 A 
ATOM     17  C   UNL     1       5.733   1.133  10.501  1.00  0.00     0.158 A 
BRANCH  15  18
ATOM     18  O   UNL     1       4.966   0.715  12.778  1.00  0.00    -0.504 OA
ATOM     19  H   UNL     1       4.847   1.311  13.588  1.00  0.00     0.293 HD
ENDBRANCH  15  18
BRANCH  17  20
ATOM     20  O   UNL     1       4.416   1.162  10.044  1.00  0.00    -0.504 OA
ATOM     21  H   UNL     1       4.118   1.808   9.322  1.00  0.00     0.293 HD
ENDBRANCH  17  20
ENDBRANCH   1  12
BRANCH   2  22
ATOM     22  O   UNL     1       9.761  -0.897   9.124  1.00  0.00    -0.502 OA
ATOM     23  H   UNL     1      10.222  -1.712   8.738  1.00  0.00     0.293 HD
ENDBRANCH   2  22
BRANCH   6  24
ATOM     24  O   UNL     1      13.519   1.468   6.181  1.00  0.00    -0.507 OA
ATOM     25  H   UNL     1      13.608   1.064   5.262  1.00  0.00     0.293 HD
ENDBRANCH   6  24
BRANCH   8  26
ATOM     26  O   UNL     1      11.795   5.948   6.058  1.00  0.00    -0.508 OA
ATOM     27  H   UNL     1      10.978   6.530   5.912  1.00  0.00     0.293 HD
ENDBRANCH   8  26
TORSDOF 6
ENDMDL
MODEL 2
REMARK VINA RESULT:    29.359      1.213      2.840
REMARK INTER + INTRA:          35.111
REMARK INTER:                  35.336
REMARK INTRA:                  -0.226
REMARK UNBOUND:                -0.256
REMARK SMILES O=c1c(O)c(-c2ccc(O)c(O)c2)oc2cc(O)cc(O)c12
REMARK SMILES IDX 5 1 3 2 2 3 1 4 22 5 20 6 19 7 17 8 16 9 15 10 14 11 6 12
REMARK SMILES IDX 7 13 8 14 9 15 13 16 11 17 10 18 12 20 4 22 21 24 18 26
REMARK H PARENT 10 19 12 21 4 23 21 25 18 27
REMARK Flexibility Score: inf
ROOT
ATOM      1  C   UNL     1       9.297   2.185   8.977  1.00  0.00     0.180 A 
ATOM      2  C   UNL     1       9.343   3.510   8.509  1.00  0.00     0.208 A 
ATOM      3  C   UNL     1      10.382   3.892   7.647  1.00  0.00     0.238 A 
ATOM      4  O   UNL     1      10.448   5.093   7.275  1.00  0.00    -0.285 OA
ATOM      5  C   UNL     1      11.353   2.942   7.250  1.00  0.00     0.111 A 
ATOM      6  C   UNL     1      12.428   3.209   6.348  1.00  0.00     0.134 A 
ATOM      7  C   UNL     1      13.405   2.230   6.128  1.00  0.00     0.093 A 
ATOM      8  C   UNL     1      13.311   0.972   6.727  1.00  0.00     0.123 A 
ATOM      9  C   UNL     1      12.234   0.681   7.562  1.00  0.00     0.094 A 
ATOM     10  C   UNL     1      11.263   1.649   7.829  1.00  0.00     0.146 A 
ATOM     11  O   UNL     1      10.259   1.335   8.639  1.00  0.00    -0.452 OA
ENDROOT
BRANCH   1  12
ATOM     12  C   UNL     1       8.218   1.700   9.868  1.00  0.00     0.025 A 
ATOM     13  C   UNL     1       8.530   1.303  11.178  1.00  0.00     0.016 A 
ATOM     14  C   UNL     1       7.531   0.823  12.029  1.00  0.00     0.051 A 
ATOM     15  C   UNL     1       6.211   0.720  11.581  1.00  0.00     0.157 A 
ATOM     16  C   UNL     1       6.893   1.576   9.413  1.00  0.00     0.062 A 
ATOM     17  C   UNL     1       5.889   1.094  10.266  1.00  0.00     0.158 A 
BRANCH  15  18
ATOM     18  O   UNL     1       5.234   0.239  12.454  1.00  0.00    -0.504 OA
ATOM     19  H   UNL     1       5.167   0.557  13.413  1.00  0.00     0.293 HD
ENDBRANCH  15  18
BRANCH  17  20
ATOM     20  O   UNL     1       4.577   0.980   9.809  1.00  0.00    -0.504 OA
ATOM     21  H   UNL     1       4.361   0.553   8.915  1.00  0.00     0.293 HD
ENDBRANCH  17  20
ENDBRANCH   1  12
BRANCH   2  22
ATOM     22  O   UNL     1       8.386   4.437   8.932  1.00  0.00    -0.502 OA
ATOM     23  H   UNL     1       7.416   4.387   8.644  1.00  0.00     0.293 HD
ENDBRANCH   2  22
BRANCH   6  24
ATOM     24  O   UNL     1      12.564   4.400   5.628  1.00  0.00    -0.507 OA
ATOM     25  H   UNL     1      11.797   4.985   5.336  1.00  0.00     0.293 HD
ENDBRANCH   6  24
BRANCH   8  26
ATOM     26  O   UNL     1      14.279  -0.003   6.491  1.00  0.00    -0.508 OA
ATOM     27  H   UNL     1      15.147  -0.024   7.012  1.00  0.00     0.293 HD
ENDBRANCH   8  26
TORSDOF 6
ENDMDL
MODEL 3
REMARK VINA RESULT:    30.819      4.701      8.127
REMARK INTER + INTRA:          36.869
REMARK INTER:                  37.143
REMARK INTRA:                  -0.274
REMARK UNBOUND:                -0.256
REMARK SMILES O=c1c(O)c(-c2ccc(O)c(O)c2)oc2cc(O)cc(O)c12
REMARK SMILES IDX 5 1 3 2 2 3 1 4 22 5 20 6 19 7 17 8 16 9 15 10 14 11 6 12
REMARK SMILES IDX 7 13 8 14 9 15 13 16 11 17 10 18 12 20 4 22 21 24 18 26
REMARK H PARENT 10 19 12 21 4 23 21 25 18 27
REMARK Flexibility Score: inf
ROOT
ATOM      1  C   UNL     1      14.807   3.648   9.152  1.00  0.00     0.180 A 
ATOM      2  C   UNL     1      14.026   4.745   8.749  1.00  0.00     0.208 A 
ATOM      3  C   UNL     1      12.946   4.530   7.879  1.00  0.00     0.238 A 
ATOM      4  O   UNL     1      12.284   5.524   7.479  1.00  0.00    -0.285 OA
ATOM      5  C   UNL     1      12.649   3.219   7.434  1.00  0.00     0.111 A 
ATOM      6  C   UNL     1      11.554   2.879   6.583  1.00  0.00     0.134 A 
ATOM      7  C   UNL     1      11.434   1.570   6.102  1.00  0.00     0.093 A 
ATOM      8  C   UNL     1      12.331   0.573   6.493  1.00  0.00     0.123 A 
ATOM      9  C   UNL     1      13.368   0.882   7.372  1.00  0.00     0.094 A 
ATOM     10  C   UNL     1      13.536   2.187   7.839  1.00  0.00     0.146 A 
ATOM     11  O   UNL     1      14.544   2.441   8.666  1.00  0.00    -0.452 OA
ENDROOT
BRANCH   1  12
ATOM     12  C   UNL     1      15.945   3.792  10.087  1.00  0.00     0.025 A 
ATOM     13  C   UNL     1      15.695   3.982  11.456  1.00  0.00     0.016 A 
ATOM     14  C   UNL     1      16.753   4.140  12.354  1.00  0.00     0.051 A 
ATOM     15  C   UNL     1      18.075   4.125  11.898  1.00  0.00     0.157 A 
ATOM     16  C   UNL     1      17.274   3.798   9.629  1.00  0.00     0.062 A 
ATOM     17  C   UNL     1      18.338   3.958  10.528  1.00  0.00     0.158 A 
BRANCH  15  18
ATOM     18  O   UNL     1      19.111   4.284  12.818  1.00  0.00    -0.504 OA
ATOM     19  H   UNL     1      20.069   4.045  12.595  1.00  0.00     0.293 HD
ENDBRANCH  15  18
BRANCH  17  20
ATOM     20  O   UNL     1      19.653   3.957  10.065  1.00  0.00    -0.504 OA
ATOM     21  H   UNL     1      20.364   4.546  10.483  1.00  0.00     0.293 HD
ENDBRANCH  17  20
ENDBRANCH   1  12
BRANCH   2  22
ATOM     22  O   UNL     1      14.349   6.034   9.182  1.00  0.00    -0.502 OA
ATOM     23  H   UNL     1      14.089   6.864   8.663  1.00  0.00     0.293 HD
ENDBRANCH   2  22
BRANCH   6  24
ATOM     24  O   UNL     1      10.551   3.777   6.206  1.00  0.00    -0.507 OA
ATOM     25  H   UNL     1      10.017   3.716   5.353  1.00  0.00     0.293 HD
ENDBRANCH   6  24
BRANCH   8  26
ATOM     26  O   UNL     1      12.195  -0.731   6.023  1.00  0.00    -0.508 OA
ATOM     27  H   UNL     1      12.130  -1.519   6.657  1.00  0.00     0.293 HD
ENDBRANCH   8  26
TORSDOF 6
ENDMDL
