MODEL 1
REMARK VINA RESULT:    -3.453      0.000      0.000
REMARK INTER + INTRA:         -13.293
REMARK INTER:                  -8.703
REMARK INTRA:                  -4.591
REMARK UNBOUND:                -4.591
REMARK SMILES CCCCCCCCCCCCCCCCCCCCCCCCCCCC(=O)[O-]
REMARK SMILES IDX 15 1 16 2 17 3 18 4 19 5 20 6 21 7 22 8 23 9 24 10 25 11
REMARK SMILES IDX 26 12 27 13 28 14 29 15 30 16 14 17 13 18 12 19 11 20 10 21
REMARK SMILES IDX 9 22 8 23 7 24 6 25 5 26 4 27 3 28 2 29 1 30
REMARK H PARENT
REMARK Flexibility Score: inf
ROOT
ATOM      1  C   UNL     1      27.453  61.679  82.382  1.00  0.00     0.000 C 
ENDROOT
BRANCH   1   2
ATOM      2  C   UNL     1      27.864  60.317  82.980  1.00  0.00     0.000 C 
BRANCH   2   3
ATOM      3  C   UNL     1      26.839  59.196  82.723  1.00  0.00     0.000 C 
BRANCH   3   4
ATOM      4  C   UNL     1      27.413  57.930  82.062  1.00  0.00     0.000 C 
BRANCH   4   5
ATOM      5  C   UNL     1      27.761  58.074  80.568  1.00  0.00     0.000 C 
BRANCH   5   6
ATOM      6  C   UNL     1      29.199  57.633  80.244  1.00  0.00     0.000 C 
BRANCH   6   7
ATOM      7  C   UNL     1      30.239  58.733  80.529  1.00  0.00     0.000 C 
BRANCH   7   8
ATOM      8  C   UNL     1      31.223  58.412  81.671  1.00  0.00     0.000 C 
BRANCH   8   9
ATOM      9  C   UNL     1      31.020  57.001  82.252  1.00  0.00     0.000 C 
BRANCH   9  10
ATOM     10  C   UNL     1      30.624  57.020  83.740  1.00  0.00     0.000 C 
BRANCH  10  11
ATOM     11  C   UNL     1      30.457  58.422  84.360  1.00  0.00     0.000 C 
BRANCH  11  12
ATOM     12  C   UNL     1      30.184  58.441  85.878  1.00  0.00     0.006 C 
BRANCH  12  13
ATOM     13  C   UNL     1      28.725  58.145  86.264  1.00  0.00     0.053 C 
BRANCH  13  14
ATOM     14  C   UNL     1      28.256  59.015  87.389  1.00  0.00     0.041 C 
ATOM     15  O   UNL     1      27.743  58.499  88.418  1.00  0.00    -0.550 OA
ATOM     16  O   UNL     1      28.408  60.394  87.314  1.00  0.00    -0.550 OA
ENDBRANCH  13  14
ENDBRANCH  12  13
ENDBRANCH  11  12
ENDBRANCH  10  11
ENDBRANCH   9  10
ENDBRANCH   8   9
ENDBRANCH   7   8
ENDBRANCH   6   7
ENDBRANCH   5   6
ENDBRANCH   4   5
ENDBRANCH   3   4
ENDBRANCH   2   3
ENDBRANCH   1   2
BRANCH   1  17
ATOM     17  C   UNL     1      26.052  61.643  81.746  1.00  0.00     0.000 C 
BRANCH  17  18
ATOM     18  C   UNL     1      26.044  62.199  80.313  1.00  0.00     0.000 C 
BRANCH  18  19
ATOM     19  C   UNL     1      26.521  61.167  79.276  1.00  0.00     0.000 C 
BRANCH  19  20
ATOM     20  C   UNL     1      27.994  61.386  78.870  1.00  0.00     0.000 C 
BRANCH  20  21
ATOM     21  C   UNL     1      28.294  61.026  77.406  1.00  0.00     0.000 C 
BRANCH  21  22
ATOM     22  C   UNL     1      28.278  59.511  77.144  1.00  0.00    -0.000 C 
BRANCH  22  23
ATOM     23  C   UNL     1      27.383  59.138  75.942  1.00  0.00    -0.000 C 
BRANCH  23  24
ATOM     24  C   UNL     1      26.070  59.940  75.879  1.00  0.00    -0.000 C 
BRANCH  24  25
ATOM     25  C   UNL     1      25.802  60.541  74.493  1.00  0.00    -0.000 C 
BRANCH  25  26
ATOM     26  C   UNL     1      25.700  62.071  74.564  1.00  0.00    -0.000 C 
BRANCH  26  27
ATOM     27  C   UNL     1      25.248  62.578  75.945  1.00  0.00    -0.000 C 
BRANCH  27  28
ATOM     28  C   UNL     1      25.755  63.983  76.319  1.00  0.00    -0.000 C 
BRANCH  28  29
ATOM     29  C   UNL     1      26.309  64.757  75.115  1.00  0.00    -0.003 C 
ATOM     30  C   UNL     1      26.457  66.240  75.439  1.00  0.00     0.004 C 
ENDBRANCH  28  29
ENDBRANCH  27  28
ENDBRANCH  26  27
ENDBRANCH  25  26
ENDBRANCH  24  25
ENDBRANCH  23  24
ENDBRANCH  22  23
ENDBRANCH  21  22
ENDBRANCH  20  21
ENDBRANCH  19  20
ENDBRANCH  18  19
ENDBRANCH  17  18
ENDBRANCH   1  17
TORSDOF 26
ENDMDL
MODEL 2
REMARK VINA RESULT:    -3.451      1.863      3.548
REMARK INTER + INTRA:         -13.288
REMARK INTER:                  -8.245
REMARK INTRA:                  -5.043
REMARK UNBOUND:                -4.591
REMARK SMILES CCCCCCCCCCCCCCCCCCCCCCCCCCCC(=O)[O-]
REMARK SMILES IDX 15 1 16 2 17 3 18 4 19 5 20 6 21 7 22 8 23 9 24 10 25 11
REMARK SMILES IDX 26 12 27 13 28 14 29 15 30 16 14 17 13 18 12 19 11 20 10 21
REMARK SMILES IDX 9 22 8 23 7 24 6 25 5 26 4 27 3 28 2 29 1 30
REMARK H PARENT
REMARK Flexibility Score: inf
ROOT
ATOM      1  C   UNL     1      27.660  61.397  81.971  1.00  0.00     0.000 C 
ENDROOT
BRANCH   1   2
ATOM      2  C   UNL     1      27.086  61.381  83.404  1.00  0.00     0.000 C 
BRANCH   2   3
ATOM      3  C   UNL     1      26.647  59.982  83.877  1.00  0.00     0.000 C 
BRANCH   3   4
ATOM      4  C   UNL     1      26.720  58.881  82.802  1.00  0.00     0.000 C 
BRANCH   4   5
ATOM      5  C   UNL     1      27.617  57.680  83.160  1.00  0.00     0.000 C 
BRANCH   5   6
ATOM      6  C   UNL     1      28.630  57.341  82.052  1.00  0.00     0.000 C 
BRANCH   6   7
ATOM      7  C   UNL     1      29.858  58.272  82.061  1.00  0.00     0.000 C 
BRANCH   7   8
ATOM      8  C   UNL     1      30.293  58.755  83.459  1.00  0.00     0.000 C 
BRANCH   8   9
ATOM      9  C   UNL     1      31.135  57.710  84.213  1.00  0.00     0.000 C 
BRANCH   9  10
ATOM     10  C   UNL     1      30.954  57.787  85.740  1.00  0.00     0.000 C 
BRANCH  10  11
ATOM     11  C   UNL     1      29.703  57.072  86.293  1.00  0.00     0.000 C 
BRANCH  11  12
ATOM     12  C   UNL     1      28.559  58.003  86.740  1.00  0.00     0.006 C 
BRANCH  12  13
ATOM     13  C   UNL     1      28.926  59.496  86.764  1.00  0.00     0.053 C 
BRANCH  13  14
ATOM     14  C   UNL     1      27.834  60.332  87.355  1.00  0.00     0.041 C 
ATOM     15  O   UNL     1      28.055  61.533  87.668  1.00  0.00    -0.550 OA
ATOM     16  O   UNL     1      26.566  59.796  87.538  1.00  0.00    -0.550 OA
ENDBRANCH  13  14
ENDBRANCH  12  13
ENDBRANCH  11  12
ENDBRANCH  10  11
ENDBRANCH   9  10
ENDBRANCH   8   9
ENDBRANCH   7   8
ENDBRANCH   6   7
ENDBRANCH   5   6
ENDBRANCH   4   5
ENDBRANCH   3   4
ENDBRANCH   2   3
ENDBRANCH   1   2
BRANCH   1  17
ATOM     17  C   UNL     1      26.784  62.205  80.997  1.00  0.00     0.000 C 
BRANCH  17  18
ATOM     18  C   UNL     1      25.291  62.135  81.354  1.00  0.00     0.000 C 
BRANCH  18  19
ATOM     19  C   UNL     1      24.402  61.862  80.129  1.00  0.00     0.000 C 
BRANCH  19  20
ATOM     20  C   UNL     1      24.718  62.814  78.956  1.00  0.00     0.000 C 
BRANCH  20  21
ATOM     21  C   UNL     1      25.001  62.092  77.630  1.00  0.00     0.000 C 
BRANCH  21  22
ATOM     22  C   UNL     1      26.487  62.121  77.234  1.00  0.00    -0.000 C 
BRANCH  22  23
ATOM     23  C   UNL     1      27.033  60.711  76.919  1.00  0.00    -0.000 C 
BRANCH  23  24
ATOM     24  C   UNL     1      26.386  59.597  77.761  1.00  0.00    -0.000 C 
BRANCH  24  25
ATOM     25  C   UNL     1      27.200  59.243  79.014  1.00  0.00    -0.000 C 
BRANCH  25  26
ATOM     26  C   UNL     1      28.701  59.462  78.777  1.00  0.00    -0.000 C 
BRANCH  26  27
ATOM     27  C   UNL     1      29.456  58.156  78.471  1.00  0.00    -0.000 C 
BRANCH  27  28
ATOM     28  C   UNL     1      29.585  57.817  76.974  1.00  0.00    -0.000 C 
BRANCH  28  29
ATOM     29  C   UNL     1      30.196  58.961  76.153  1.00  0.00    -0.003 C 
ATOM     30  C   UNL     1      29.589  59.018  74.756  1.00  0.00     0.004 C 
ENDBRANCH  28  29
ENDBRANCH  27  28
ENDBRANCH  26  27
ENDBRANCH  25  26
ENDBRANCH  24  25
ENDBRANCH  23  24
ENDBRANCH  22  23
ENDBRANCH  21  22
ENDBRANCH  20  21
ENDBRANCH  19  20
ENDBRANCH  18  19
ENDBRANCH  17  18
ENDBRANCH   1  17
TORSDOF 26
ENDMDL
MODEL 3
REMARK VINA RESULT:    -3.312      1.994      3.814
REMARK INTER + INTRA:         -12.936
REMARK INTER:                  -8.688
REMARK INTRA:                  -4.248
REMARK UNBOUND:                -4.591
REMARK SMILES CCCCCCCCCCCCCCCCCCCCCCCCCCCC(=O)[O-]
REMARK SMILES IDX 15 1 16 2 17 3 18 4 19 5 20 6 21 7 22 8 23 9 24 10 25 11
REMARK SMILES IDX 26 12 27 13 28 14 29 15 30 16 14 17 13 18 12 19 11 20 10 21
REMARK SMILES IDX 9 22 8 23 7 24 6 25 5 26 4 27 3 28 2 29 1 30
REMARK H PARENT
REMARK Flexibility Score: inf
ROOT
ATOM      1  C   UNL     1      28.012  60.055  83.263  1.00  0.00     0.000 C 
ENDROOT
BRANCH   1   2
ATOM      2  C   UNL     1      27.237  58.902  82.591  1.00  0.00     0.000 C 
BRANCH   2   3
ATOM      3  C   UNL     1      27.511  58.772  81.080  1.00  0.00     0.000 C 
BRANCH   3   4
ATOM      4  C   UNL     1      28.015  57.389  80.628  1.00  0.00     0.000 C 
BRANCH   4   5
ATOM      5  C   UNL     1      29.504  57.335  80.235  1.00  0.00     0.000 C 
BRANCH   5   6
ATOM      6  C   UNL     1      30.207  58.697  80.372  1.00  0.00     0.000 C 
BRANCH   6   7
ATOM      7  C   UNL     1      31.148  58.764  81.590  1.00  0.00     0.000 C 
BRANCH   7   8
ATOM      8  C   UNL     1      31.494  57.398  82.215  1.00  0.00     0.000 C 
BRANCH   8   9
ATOM      9  C   UNL     1      31.320  57.383  83.745  1.00  0.00     0.000 C 
BRANCH   9  10
ATOM     10  C   UNL     1      29.922  56.908  84.182  1.00  0.00     0.000 C 
BRANCH  10  11
ATOM     11  C   UNL     1      29.636  57.004  85.695  1.00  0.00     0.000 C 
BRANCH  11  12
ATOM     12  C   UNL     1      28.404  57.848  86.078  1.00  0.00     0.006 C 
BRANCH  12  13
ATOM     13  C   UNL     1      28.693  58.970  87.088  1.00  0.00     0.053 C 
BRANCH  13  14
ATOM     14  C   UNL     1      27.536  59.911  87.227  1.00  0.00     0.041 C 
ATOM     15  O   UNL     1      27.695  61.144  87.025  1.00  0.00    -0.550 OA
ATOM     16  O   UNL     1      26.277  59.423  87.553  1.00  0.00    -0.550 OA
ENDBRANCH  13  14
ENDBRANCH  12  13
ENDBRANCH  11  12
ENDBRANCH  10  11
ENDBRANCH   9  10
ENDBRANCH   8   9
ENDBRANCH   7   8
ENDBRANCH   6   7
ENDBRANCH   5   6
ENDBRANCH   4   5
ENDBRANCH   3   4
ENDBRANCH   2   3
ENDBRANCH   1   2
BRANCH   1  17
ATOM     17  C   UNL     1      27.246  61.389  83.206  1.00  0.00     0.000 C 
BRANCH  17  18
ATOM     18  C   UNL     1      25.939  61.349  84.013  1.00  0.00     0.000 C 
BRANCH  18  19
ATOM     19  C   UNL     1      24.724  61.819  83.194  1.00  0.00     0.000 C 
BRANCH  19  20
ATOM     20  C   UNL     1      24.874  61.499  81.692  1.00  0.00     0.000 C 
BRANCH  20  21
ATOM     21  C   UNL     1      24.745  62.730  80.780  1.00  0.00     0.000 C 
BRANCH  21  22
ATOM     22  C   UNL     1      25.194  62.459  79.335  1.00  0.00    -0.000 C 
BRANCH  22  23
ATOM     23  C   UNL     1      26.584  61.790  79.274  1.00  0.00    -0.000 C 
BRANCH  23  24
ATOM     24  C   UNL     1      27.148  61.671  77.846  1.00  0.00    -0.000 C 
BRANCH  24  25
ATOM     25  C   UNL     1      28.458  60.872  77.785  1.00  0.00    -0.000 C 
BRANCH  25  26
ATOM     26  C   UNL     1      28.189  59.395  77.462  1.00  0.00    -0.000 C 
BRANCH  26  27
ATOM     27  C   UNL     1      28.883  58.928  76.169  1.00  0.00    -0.000 C 
BRANCH  27  28
ATOM     28  C   UNL     1      30.385  58.621  76.313  1.00  0.00    -0.000 C 
BRANCH  28  29
ATOM     29  C   UNL     1      31.026  58.148  75.001  1.00  0.00    -0.003 C 
ATOM     30  C   UNL     1      30.442  58.895  73.806  1.00  0.00     0.004 C 
ENDBRANCH  28  29
ENDBRANCH  27  28
ENDBRANCH  26  27
ENDBRANCH  25  26
ENDBRANCH  24  25
ENDBRANCH  23  24
ENDBRANCH  22  23
ENDBRANCH  21  22
ENDBRANCH  20  21
ENDBRANCH  19  20
ENDBRANCH  18  19
ENDBRANCH  17  18
ENDBRANCH   1  17
TORSDOF 26
ENDMDL
MODEL 4
REMARK VINA RESULT:    -3.263      1.951      3.521
REMARK INTER + INTRA:         -12.814
REMARK INTER:                  -9.091
REMARK INTRA:                  -3.723
REMARK UNBOUND:                -4.591
REMARK SMILES CCCCCCCCCCCCCCCCCCCCCCCCCCCC(=O)[O-]
REMARK SMILES IDX 15 1 16 2 17 3 18 4 19 5 20 6 21 7 22 8 23 9 24 10 25 11
REMARK SMILES IDX 26 12 27 13 28 14 29 15 30 16 14 17 13 18 12 19 11 20 10 21
REMARK SMILES IDX 9 22 8 23 7 24 6 25 5 26 4 27 3 28 2 29 1 30
REMARK H PARENT
REMARK Flexibility Score: inf
ROOT
ATOM      1  C   UNL     1      27.376  61.629  78.467  1.00  0.00     0.000 C 
ENDROOT
BRANCH   1   2
ATOM      2  C   UNL     1      26.050  60.842  78.506  1.00  0.00     0.000 C 
BRANCH   2   3
ATOM      3  C   UNL     1      24.924  61.568  79.266  1.00  0.00     0.000 C 
BRANCH   3   4
ATOM      4  C   UNL     1      25.397  62.477  80.415  1.00  0.00     0.000 C 
BRANCH   4   5
ATOM      5  C   UNL     1      24.610  62.327  81.732  1.00  0.00     0.000 C 
BRANCH   5   6
ATOM      6  C   UNL     1      25.449  61.700  82.860  1.00  0.00     0.000 C 
BRANCH   6   7
ATOM      7  C   UNL     1      26.825  61.206  82.376  1.00  0.00     0.000 C 
BRANCH   7   8
ATOM      8  C   UNL     1      26.915  59.688  82.124  1.00  0.00     0.000 C 
BRANCH   8   9
ATOM      9  C   UNL     1      27.484  58.918  83.330  1.00  0.00     0.000 C 
BRANCH   9  10
ATOM     10  C   UNL     1      26.396  58.489  84.332  1.00  0.00     0.000 C 
BRANCH  10  11
ATOM     11  C   UNL     1      26.895  58.196  85.762  1.00  0.00     0.000 C 
BRANCH  11  12
ATOM     12  C   UNL     1      28.175  58.948  86.178  1.00  0.00     0.006 C 
BRANCH  12  13
ATOM     13  C   UNL     1      28.021  59.815  87.438  1.00  0.00     0.053 C 
BRANCH  13  14
ATOM     14  C   UNL     1      27.783  61.255  87.103  1.00  0.00     0.041 C 
ATOM     15  O   UNL     1      27.293  61.572  85.986  1.00  0.00    -0.550 OA
ATOM     16  O   UNL     1      28.077  62.245  88.032  1.00  0.00    -0.550 OA
ENDBRANCH  13  14
ENDBRANCH  12  13
ENDBRANCH  11  12
ENDBRANCH  10  11
ENDBRANCH   9  10
ENDBRANCH   8   9
ENDBRANCH   7   8
ENDBRANCH   6   7
ENDBRANCH   5   6
ENDBRANCH   4   5
ENDBRANCH   3   4
ENDBRANCH   2   3
ENDBRANCH   1   2
BRANCH   1  17
ATOM     17  C   UNL     1      28.583  60.769  78.883  1.00  0.00     0.000 C 
BRANCH  17  18
ATOM     18  C   UNL     1      28.304  59.264  78.748  1.00  0.00     0.000 C 
BRANCH  18  19
ATOM     19  C   UNL     1      29.511  58.486  78.198  1.00  0.00     0.000 C 
BRANCH  19  20
ATOM     20  C   UNL     1      29.316  58.075  76.722  1.00  0.00     0.000 C 
BRANCH  20  21
ATOM     21  C   UNL     1      29.190  59.266  75.759  1.00  0.00     0.000 C 
BRANCH  21  22
ATOM     22  C   UNL     1      28.036  59.109  74.755  1.00  0.00    -0.000 C 
BRANCH  22  23
ATOM     23  C   UNL     1      26.668  58.974  75.457  1.00  0.00    -0.000 C 
BRANCH  23  24
ATOM     24  C   UNL     1      25.629  60.007  74.987  1.00  0.00    -0.000 C 
BRANCH  24  25
ATOM     25  C   UNL     1      26.212  61.421  74.842  1.00  0.00    -0.000 C 
BRANCH  25  26
ATOM     26  C   UNL     1      25.176  62.487  75.224  1.00  0.00    -0.000 C 
BRANCH  26  27
ATOM     27  C   UNL     1      25.800  63.700  75.938  1.00  0.00    -0.000 C 
BRANCH  27  28
ATOM     28  C   UNL     1      25.378  65.071  75.379  1.00  0.00    -0.000 C 
BRANCH  28  29
ATOM     29  C   UNL     1      26.550  66.055  75.260  1.00  0.00    -0.003 C 
ATOM     30  C   UNL     1      26.196  67.405  75.875  1.00  0.00     0.004 C 
ENDBRANCH  28  29
ENDBRANCH  27  28
ENDBRANCH  26  27
ENDBRANCH  25  26
ENDBRANCH  24  25
ENDBRANCH  23  24
ENDBRANCH  22  23
ENDBRANCH  21  22
ENDBRANCH  20  21
ENDBRANCH  19  20
ENDBRANCH  18  19
ENDBRANCH  17  18
ENDBRANCH   1  17
TORSDOF 26
ENDMDL
MODEL 5
REMARK VINA RESULT:    -3.246      2.322      3.694
REMARK INTER + INTRA:         -12.770
REMARK INTER:                  -7.972
REMARK INTRA:                  -4.798
REMARK UNBOUND:                -4.591
REMARK SMILES CCCCCCCCCCCCCCCCCCCCCCCCCCCC(=O)[O-]
REMARK SMILES IDX 15 1 16 2 17 3 18 4 19 5 20 6 21 7 22 8 23 9 24 10 25 11
REMARK SMILES IDX 26 12 27 13 28 14 29 15 30 16 14 17 13 18 12 19 11 20 10 21
REMARK SMILES IDX 9 22 8 23 7 24 6 25 5 26 4 27 3 28 2 29 1 30
REMARK H PARENT
REMARK Flexibility Score: inf
ROOT
ATOM      1  C   UNL     1      26.900  61.381  83.890  1.00  0.00     0.000 C 
ENDROOT
BRANCH   1   2
ATOM      2  C   UNL     1      27.510  59.995  83.590  1.00  0.00     0.000 C 
BRANCH   2   3
ATOM      3  C   UNL     1      26.555  58.823  83.886  1.00  0.00     0.000 C 
BRANCH   3   4
ATOM      4  C   UNL     1      26.741  57.589  82.984  1.00  0.00     0.000 C 
BRANCH   4   5
ATOM      5  C   UNL     1      26.500  57.838  81.482  1.00  0.00     0.000 C 
BRANCH   5   6
ATOM      6  C   UNL     1      27.622  57.267  80.596  1.00  0.00     0.000 C 
BRANCH   6   7
ATOM      7  C   UNL     1      28.943  57.064  81.362  1.00  0.00     0.000 C 
BRANCH   7   8
ATOM      8  C   UNL     1      29.996  58.166  81.138  1.00  0.00     0.000 C 
BRANCH   8   9
ATOM      9  C   UNL     1      30.613  58.675  82.454  1.00  0.00     0.000 C 
BRANCH   9  10
ATOM     10  C   UNL     1      30.406  57.699  83.627  1.00  0.00     0.000 C 
BRANCH  10  11
ATOM     11  C   UNL     1      30.602  58.306  85.032  1.00  0.00     0.000 C 
BRANCH  11  12
ATOM     12  C   UNL     1      29.471  58.011  86.038  1.00  0.00     0.006 C 
BRANCH  12  13
ATOM     13  C   UNL     1      28.943  59.249  86.780  1.00  0.00     0.053 C 
BRANCH  13  14
ATOM     14  C   UNL     1      27.713  58.942  87.578  1.00  0.00     0.041 C 
ATOM     15  O   UNL     1      26.632  59.539  87.330  1.00  0.00    -0.550 OA
ATOM     16  O   UNL     1      27.753  57.977  88.577  1.00  0.00    -0.550 OA
ENDBRANCH  13  14
ENDBRANCH  12  13
ENDBRANCH  11  12
ENDBRANCH  10  11
ENDBRANCH   9  10
ENDBRANCH   8   9
ENDBRANCH   7   8
ENDBRANCH   6   7
ENDBRANCH   5   6
ENDBRANCH   4   5
ENDBRANCH   3   4
ENDBRANCH   2   3
ENDBRANCH   1   2
BRANCH   1  17
ATOM     17  C   UNL     1      25.372  61.325  84.058  1.00  0.00     0.000 C 
BRANCH  17  18
ATOM     18  C   UNL     1      24.628  61.987  82.887  1.00  0.00     0.000 C 
BRANCH  18  19
ATOM     19  C   UNL     1      24.846  61.248  81.555  1.00  0.00     0.000 C 
BRANCH  19  20
ATOM     20  C   UNL     1      25.385  62.182  80.451  1.00  0.00     0.000 C 
BRANCH  20  21
ATOM     21  C   UNL     1      26.919  62.262  80.401  1.00  0.00     0.000 C 
BRANCH  21  22
ATOM     22  C   UNL     1      27.579  60.930  80.006  1.00  0.00    -0.000 C 
BRANCH  22  23
ATOM     23  C   UNL     1      28.605  61.104  78.866  1.00  0.00    -0.000 C 
BRANCH  23  24
ATOM     24  C   UNL     1      28.096  60.614  77.498  1.00  0.00    -0.000 C 
BRANCH  24  25
ATOM     25  C   UNL     1      27.955  59.087  77.423  1.00  0.00    -0.000 C 
BRANCH  25  26
ATOM     26  C   UNL     1      29.330  58.405  77.409  1.00  0.00    -0.000 C 
BRANCH  26  27
ATOM     27  C   UNL     1      30.194  58.824  76.205  1.00  0.00    -0.000 C 
BRANCH  27  28
ATOM     28  C   UNL     1      30.035  57.940  74.954  1.00  0.00    -0.000 C 
BRANCH  28  29
ATOM     29  C   UNL     1      30.875  58.430  73.766  1.00  0.00    -0.003 C 
ATOM     30  C   UNL     1      30.168  58.154  72.444  1.00  0.00     0.004 C 
ENDBRANCH  28  29
ENDBRANCH  27  28
ENDBRANCH  26  27
ENDBRANCH  25  26
ENDBRANCH  24  25
ENDBRANCH  23  24
ENDBRANCH  22  23
ENDBRANCH  21  22
ENDBRANCH  20  21
ENDBRANCH  19  20
ENDBRANCH  18  19
ENDBRANCH  17  18
ENDBRANCH   1  17
TORSDOF 26
ENDMDL
MODEL 6
REMARK VINA RESULT:    -3.225      3.384      8.886
REMARK INTER + INTRA:         -12.716
REMARK INTER:                  -7.776
REMARK INTRA:                  -4.941
REMARK UNBOUND:                -4.591
REMARK SMILES CCCCCCCCCCCCCCCCCCCCCCCCCCCC(=O)[O-]
REMARK SMILES IDX 15 1 16 2 17 3 18 4 19 5 20 6 21 7 22 8 23 9 24 10 25 11
REMARK SMILES IDX 26 12 27 13 28 14 29 15 30 16 14 17 13 18 12 19 11 20 10 21
REMARK SMILES IDX 9 22 8 23 7 24 6 25 5 26 4 27 3 28 2 29 1 30
REMARK H PARENT
REMARK Flexibility Score: inf
ROOT
ATOM      1  C   UNL     1      30.193  58.777  83.150  1.00  0.00     0.000 C 
ENDROOT
BRANCH   1   2
ATOM      2  C   UNL     1      30.781  58.339  81.793  1.00  0.00     0.000 C 
BRANCH   2   3
ATOM      3  C   UNL     1      29.869  57.377  81.008  1.00  0.00     0.000 C 
BRANCH   3   4
ATOM      4  C   UNL     1      29.322  57.937  79.682  1.00  0.00     0.000 C 
BRANCH   4   5
ATOM      5  C   UNL     1      29.021  59.449  79.688  1.00  0.00     0.000 C 
BRANCH   5   6
ATOM      6  C   UNL     1      27.634  59.778  80.269  1.00  0.00     0.000 C 
BRANCH   6   7
ATOM      7  C   UNL     1      27.707  60.703  81.499  1.00  0.00     0.000 C 
BRANCH   7   8
ATOM      8  C   UNL     1      26.923  62.023  81.363  1.00  0.00     0.000 C 
BRANCH   8   9
ATOM      9  C   UNL     1      25.440  61.876  81.747  1.00  0.00     0.000 C 
BRANCH   9  10
ATOM     10  C   UNL     1      24.492  62.553  80.740  1.00  0.00     0.000 C 
BRANCH  10  11
ATOM     11  C   UNL     1      24.970  62.540  79.273  1.00  0.00     0.000 C 
BRANCH  11  12
ATOM     12  C   UNL     1      24.421  61.383  78.414  1.00  0.00     0.006 C 
BRANCH  12  13
ATOM     13  C   UNL     1      25.342  60.958  77.259  1.00  0.00     0.053 C 
BRANCH  13  14
ATOM     14  C   UNL     1      26.435  61.953  77.018  1.00  0.00     0.041 C 
ATOM     15  O   UNL     1      27.601  61.726  77.436  1.00  0.00    -0.550 OA
ATOM     16  O   UNL     1      26.172  63.119  76.309  1.00  0.00    -0.550 OA
ENDBRANCH  13  14
ENDBRANCH  12  13
ENDBRANCH  11  12
ENDBRANCH  10  11
ENDBRANCH   9  10
ENDBRANCH   8   9
ENDBRANCH   7   8
ENDBRANCH   6   7
ENDBRANCH   5   6
ENDBRANCH   4   5
ENDBRANCH   3   4
ENDBRANCH   2   3
ENDBRANCH   1   2
BRANCH   1  17
ATOM     17  C   UNL     1      30.409  57.724  84.252  1.00  0.00     0.000 C 
BRANCH  17  18
ATOM     18  C   UNL     1      30.340  58.329  85.663  1.00  0.00     0.000 C 
BRANCH  18  19
ATOM     19  C   UNL     1      29.832  57.326  86.712  1.00  0.00     0.000 C 
BRANCH  19  20
ATOM     20  C   UNL     1      28.382  56.875  86.435  1.00  0.00     0.000 C 
BRANCH  20  21
ATOM     21  C   UNL     1      27.440  57.042  87.638  1.00  0.00     0.000 C 
BRANCH  21  22
ATOM     22  C   UNL     1      27.764  58.281  88.489  1.00  0.00    -0.000 C 
BRANCH  22  23
ATOM     23  C   UNL     1      26.992  59.530  88.015  1.00  0.00    -0.000 C 
BRANCH  23  24
ATOM     24  C   UNL     1      27.874  60.562  87.290  1.00  0.00    -0.000 C 
BRANCH  24  25
ATOM     25  C   UNL     1      27.255  61.063  85.977  1.00  0.00    -0.000 C 
BRANCH  25  26
ATOM     26  C   UNL     1      27.161  59.931  84.943  1.00  0.00    -0.000 C 
BRANCH  26  27
ATOM     27  C   UNL     1      25.714  59.477  84.682  1.00  0.00    -0.000 C 
BRANCH  27  28
ATOM     28  C   UNL     1      25.561  58.001  84.270  1.00  0.00    -0.000 C 
BRANCH  28  29
ATOM     29  C   UNL     1      26.683  57.523  83.338  1.00  0.00    -0.003 C 
ATOM     30  C   UNL     1      26.135  57.161  81.962  1.00  0.00     0.004 C 
ENDBRANCH  28  29
ENDBRANCH  27  28
ENDBRANCH  26  27
ENDBRANCH  25  26
ENDBRANCH  24  25
ENDBRANCH  23  24
ENDBRANCH  22  23
ENDBRANCH  21  22
ENDBRANCH  20  21
ENDBRANCH  19  20
ENDBRANCH  18  19
ENDBRANCH  17  18
ENDBRANCH   1  17
TORSDOF 26
ENDMDL
MODEL 7
REMARK VINA RESULT:    -3.223      2.360      4.667
REMARK INTER + INTRA:         -12.713
REMARK INTER:                  -7.617
REMARK INTRA:                  -5.095
REMARK UNBOUND:                -4.591
REMARK SMILES CCCCCCCCCCCCCCCCCCCCCCCCCCCC(=O)[O-]
REMARK SMILES IDX 15 1 16 2 17 3 18 4 19 5 20 6 21 7 22 8 23 9 24 10 25 11
REMARK SMILES IDX 26 12 27 13 28 14 29 15 30 16 14 17 13 18 12 19 11 20 10 21
REMARK SMILES IDX 9 22 8 23 7 24 6 25 5 26 4 27 3 28 2 29 1 30
REMARK H PARENT
REMARK Flexibility Score: inf
ROOT
ATOM      1  C   UNL     1      26.906  61.583  81.897  1.00  0.00     0.000 C 
ENDROOT
BRANCH   1   2
ATOM      2  C   UNL     1      27.631  61.299  83.230  1.00  0.00     0.000 C 
BRANCH   2   3
ATOM      3  C   UNL     1      27.110  60.048  83.961  1.00  0.00     0.000 C 
BRANCH   3   4
ATOM      4  C   UNL     1      26.529  60.310  85.364  1.00  0.00     0.000 C 
BRANCH   4   5
ATOM      5  C   UNL     1      27.317  61.324  86.216  1.00  0.00     0.000 C 
BRANCH   5   6
ATOM      6  C   UNL     1      28.062  60.666  87.390  1.00  0.00     0.000 C 
BRANCH   6   7
ATOM      7  C   UNL     1      27.243  59.550  88.067  1.00  0.00     0.000 C 
BRANCH   7   8
ATOM      8  C   UNL     1      27.962  58.190  88.166  1.00  0.00     0.000 C 
BRANCH   8   9
ATOM      9  C   UNL     1      27.489  57.189  87.097  1.00  0.00     0.000 C 
BRANCH   9  10
ATOM     10  C   UNL     1      28.489  57.039  85.936  1.00  0.00     0.000 C 
BRANCH  10  11
ATOM     11  C   UNL     1      29.897  57.612  86.200  1.00  0.00     0.000 C 
BRANCH  11  12
ATOM     12  C   UNL     1      30.525  58.382  85.021  1.00  0.00     0.006 C 
BRANCH  12  13
ATOM     13  C   UNL     1      30.100  57.875  83.633  1.00  0.00     0.053 C 
BRANCH  13  14
ATOM     14  C   UNL     1      31.275  57.665  82.729  1.00  0.00     0.041 C 
ATOM     15  O   UNL     1      31.177  57.907  81.497  1.00  0.00    -0.550 OA
ATOM     16  O   UNL     1      32.486  57.227  83.250  1.00  0.00    -0.550 OA
ENDBRANCH  13  14
ENDBRANCH  12  13
ENDBRANCH  11  12
ENDBRANCH  10  11
ENDBRANCH   9  10
ENDBRANCH   8   9
ENDBRANCH   7   8
ENDBRANCH   6   7
ENDBRANCH   5   6
ENDBRANCH   4   5
ENDBRANCH   3   4
ENDBRANCH   2   3
ENDBRANCH   1   2
BRANCH   1  17
ATOM     17  C   UNL     1      25.383  61.716  82.074  1.00  0.00     0.000 C 
BRANCH  17  18
ATOM     18  C   UNL     1      24.624  60.479  81.568  1.00  0.00     0.000 C 
BRANCH  18  19
ATOM     19  C   UNL     1      24.867  60.205  80.075  1.00  0.00     0.000 C 
BRANCH  19  20
ATOM     20  C   UNL     1      25.401  58.779  79.823  1.00  0.00     0.000 C 
BRANCH  20  21
ATOM     21  C   UNL     1      26.094  58.152  81.043  1.00  0.00     0.000 C 
BRANCH  21  22
ATOM     22  C   UNL     1      27.580  57.843  80.799  1.00  0.00    -0.000 C 
BRANCH  22  23
ATOM     23  C   UNL     1      27.883  57.584  79.307  1.00  0.00    -0.000 C 
BRANCH  23  24
ATOM     24  C   UNL     1      29.007  58.472  78.743  1.00  0.00    -0.000 C 
BRANCH  24  25
ATOM     25  C   UNL     1      29.062  59.858  79.401  1.00  0.00    -0.000 C 
BRANCH  25  26
ATOM     26  C   UNL     1      28.273  60.890  78.583  1.00  0.00    -0.000 C 
BRANCH  26  27
ATOM     27  C   UNL     1      27.979  60.418  77.147  1.00  0.00    -0.000 C 
BRANCH  27  28
ATOM     28  C   UNL     1      26.515  60.582  76.698  1.00  0.00    -0.000 C 
BRANCH  28  29
ATOM     29  C   UNL     1      26.171  62.024  76.298  1.00  0.00    -0.003 C 
ATOM     30  C   UNL     1      25.378  62.723  77.397  1.00  0.00     0.004 C 
ENDBRANCH  28  29
ENDBRANCH  27  28
ENDBRANCH  26  27
ENDBRANCH  25  26
ENDBRANCH  24  25
ENDBRANCH  23  24
ENDBRANCH  22  23
ENDBRANCH  21  22
ENDBRANCH  20  21
ENDBRANCH  19  20
ENDBRANCH  18  19
ENDBRANCH  17  18
ENDBRANCH   1  17
TORSDOF 26
ENDMDL
MODEL 8
REMARK VINA RESULT:    -3.208      2.085      4.767
REMARK INTER + INTRA:         -12.675
REMARK INTER:                  -9.153
REMARK INTRA:                  -3.522
REMARK UNBOUND:                -4.591
REMARK SMILES CCCCCCCCCCCCCCCCCCCCCCCCCCCC(=O)[O-]
REMARK SMILES IDX 15 1 16 2 17 3 18 4 19 5 20 6 21 7 22 8 23 9 24 10 25 11
REMARK SMILES IDX 26 12 27 13 28 14 29 15 30 16 14 17 13 18 12 19 11 20 10 21
REMARK SMILES IDX 9 22 8 23 7 24 6 25 5 26 4 27 3 28 2 29 1 30
REMARK H PARENT
REMARK Flexibility Score: inf
ROOT
ATOM      1  C   UNL     1      28.937  57.534  82.274  1.00  0.00     0.000 C 
ENDROOT
BRANCH   1   2
ATOM      2  C   UNL     1      29.136  57.299  83.787  1.00  0.00     0.000 C 
BRANCH   2   3
ATOM      3  C   UNL     1      30.171  58.244  84.426  1.00  0.00     0.000 C 
BRANCH   3   4
ATOM      4  C   UNL     1      30.328  58.098  85.952  1.00  0.00     0.000 C 
BRANCH   4   5
ATOM      5  C   UNL     1      29.038  58.324  86.763  1.00  0.00     0.000 C 
BRANCH   5   6
ATOM      6  C   UNL     1      28.589  59.796  86.774  1.00  0.00     0.000 C 
BRANCH   6   7
ATOM      7  C   UNL     1      27.409  60.054  87.730  1.00  0.00     0.000 C 
BRANCH   7   8
ATOM      8  C   UNL     1      26.368  58.920  87.793  1.00  0.00     0.000 C 
BRANCH   8   9
ATOM      9  C   UNL     1      25.374  58.960  86.618  1.00  0.00     0.000 C 
BRANCH   9  10
ATOM     10  C   UNL     1      25.620  57.841  85.590  1.00  0.00     0.000 C 
BRANCH  10  11
ATOM     11  C   UNL     1      25.631  58.291  84.114  1.00  0.00     0.000 C 
BRANCH  11  12
ATOM     12  C   UNL     1      26.170  59.714  83.866  1.00  0.00     0.006 C 
BRANCH  12  13
ATOM     13  C   UNL     1      26.152  60.152  82.392  1.00  0.00     0.053 C 
BRANCH  13  14
ATOM     14  C   UNL     1      26.711  61.529  82.210  1.00  0.00     0.041 C 
ATOM     15  O   UNL     1      26.138  62.348  81.443  1.00  0.00    -0.550 OA
ATOM     16  O   UNL     1      27.848  61.918  82.906  1.00  0.00    -0.550 OA
ENDBRANCH  13  14
ENDBRANCH  12  13
ENDBRANCH  11  12
ENDBRANCH  10  11
ENDBRANCH   9  10
ENDBRANCH   8   9
ENDBRANCH   7   8
ENDBRANCH   6   7
ENDBRANCH   5   6
ENDBRANCH   4   5
ENDBRANCH   3   4
ENDBRANCH   2   3
ENDBRANCH   1   2
BRANCH   1  17
ATOM     17  C   UNL     1      29.703  58.768  81.766  1.00  0.00     0.000 C 
BRANCH  17  18
ATOM     18  C   UNL     1      29.744  58.842  80.231  1.00  0.00     0.000 C 
BRANCH  18  19
ATOM     19  C   UNL     1      28.456  59.430  79.632  1.00  0.00     0.000 C 
BRANCH  19  20
ATOM     20  C   UNL     1      28.725  60.713  78.816  1.00  0.00     0.000 C 
BRANCH  20  21
ATOM     21  C   UNL     1      27.448  61.417  78.330  1.00  0.00     0.000 C 
BRANCH  21  22
ATOM     22  C   UNL     1      26.375  60.438  77.826  1.00  0.00    -0.000 C 
BRANCH  22  23
ATOM     23  C   UNL     1      25.051  61.153  77.481  1.00  0.00    -0.000 C 
BRANCH  23  24
ATOM     24  C   UNL     1      24.977  62.599  78.005  1.00  0.00    -0.000 C 
BRANCH  24  25
ATOM     25  C   UNL     1      24.763  63.631  76.889  1.00  0.00    -0.000 C 
BRANCH  25  26
ATOM     26  C   UNL     1      25.989  63.711  75.968  1.00  0.00    -0.000 C 
BRANCH  26  27
ATOM     27  C   UNL     1      25.633  64.134  74.532  1.00  0.00    -0.000 C 
BRANCH  27  28
ATOM     28  C   UNL     1      25.765  65.643  74.248  1.00  0.00    -0.000 C 
BRANCH  28  29
ATOM     29  C   UNL     1      26.682  66.360  75.249  1.00  0.00    -0.003 C 
ATOM     30  C   UNL     1      25.936  67.478  75.970  1.00  0.00     0.004 C 
ENDBRANCH  28  29
ENDBRANCH  27  28
ENDBRANCH  26  27
ENDBRANCH  25  26
ENDBRANCH  24  25
ENDBRANCH  23  24
ENDBRANCH  22  23
ENDBRANCH  21  22
ENDBRANCH  20  21
ENDBRANCH  19  20
ENDBRANCH  18  19
ENDBRANCH  17  18
ENDBRANCH   1  17
TORSDOF 26
ENDMDL
MODEL 9
REMARK VINA RESULT:    -3.183      3.716      8.510
REMARK INTER + INTRA:         -12.612
REMARK INTER:                  -7.705
REMARK INTRA:                  -4.907
REMARK UNBOUND:                -4.591
REMARK SMILES CCCCCCCCCCCCCCCCCCCCCCCCCCCC(=O)[O-]
REMARK SMILES IDX 15 1 16 2 17 3 18 4 19 5 20 6 21 7 22 8 23 9 24 10 25 11
REMARK SMILES IDX 26 12 27 13 28 14 29 15 30 16 14 17 13 18 12 19 11 20 10 21
REMARK SMILES IDX 9 22 8 23 7 24 6 25 5 26 4 27 3 28 2 29 1 30
REMARK H PARENT
REMARK Flexibility Score: inf
ROOT
ATOM      1  C   UNL     1      24.771  59.596  81.119  1.00  0.00     0.000 C 
ENDROOT
BRANCH   1   2
ATOM      2  C   UNL     1      25.459  58.617  80.144  1.00  0.00     0.000 C 
BRANCH   2   3
ATOM      3  C   UNL     1      24.984  58.764  78.686  1.00  0.00     0.000 C 
BRANCH   3   4
ATOM      4  C   UNL     1      25.442  57.640  77.738  1.00  0.00     0.000 C 
BRANCH   4   5
ATOM      5  C   UNL     1      26.152  58.118  76.456  1.00  0.00     0.000 C 
BRANCH   5   6
ATOM      6  C   UNL     1      25.600  59.455  75.932  1.00  0.00     0.000 C 
BRANCH   6   7
ATOM      7  C   UNL     1      26.687  60.539  75.800  1.00  0.00     0.000 C 
BRANCH   7   8
ATOM      8  C   UNL     1      26.455  61.795  76.663  1.00  0.00     0.000 C 
BRANCH   8   9
ATOM      9  C   UNL     1      27.106  61.690  78.053  1.00  0.00     0.000 C 
BRANCH   9  10
ATOM     10  C   UNL     1      28.516  61.073  78.007  1.00  0.00     0.000 C 
BRANCH  10  11
ATOM     11  C   UNL     1      28.673  59.731  78.751  1.00  0.00     0.000 C 
BRANCH  11  12
ATOM     12  C   UNL     1      29.505  58.664  78.013  1.00  0.00     0.006 C 
BRANCH  12  13
ATOM     13  C   UNL     1      30.061  59.119  76.654  1.00  0.00     0.053 C 
BRANCH  13  14
ATOM     14  C   UNL     1      29.921  58.057  75.607  1.00  0.00     0.041 C 
ATOM     15  O   UNL     1      30.537  56.965  75.728  1.00  0.00    -0.550 OA
ATOM     16  O   UNL     1      29.091  58.262  74.512  1.00  0.00    -0.550 OA
ENDBRANCH  13  14
ENDBRANCH  12  13
ENDBRANCH  11  12
ENDBRANCH  10  11
ENDBRANCH   9  10
ENDBRANCH   8   9
ENDBRANCH   7   8
ENDBRANCH   6   7
ENDBRANCH   5   6
ENDBRANCH   4   5
ENDBRANCH   3   4
ENDBRANCH   2   3
ENDBRANCH   1   2
BRANCH   1  17
ATOM     17  C   UNL     1      24.820  61.052  80.622  1.00  0.00     0.000 C 
BRANCH  17  18
ATOM     18  C   UNL     1      25.590  61.973  81.582  1.00  0.00     0.000 C 
BRANCH  18  19
ATOM     19  C   UNL     1      27.101  61.689  81.591  1.00  0.00     0.000 C 
BRANCH  19  20
ATOM     20  C   UNL     1      27.638  61.433  83.015  1.00  0.00     0.000 C 
BRANCH  20  21
ATOM     21  C   UNL     1      27.341  60.021  83.545  1.00  0.00     0.000 C 
BRANCH  21  22
ATOM     22  C   UNL     1      28.093  58.920  82.779  1.00  0.00    -0.000 C 
BRANCH  22  23
ATOM     23  C   UNL     1      29.622  59.127  82.815  1.00  0.00    -0.000 C 
BRANCH  23  24
ATOM     24  C   UNL     1      30.390  57.947  83.436  1.00  0.00    -0.000 C 
BRANCH  24  25
ATOM     25  C   UNL     1      30.551  58.071  84.958  1.00  0.00    -0.000 C 
BRANCH  25  26
ATOM     26  C   UNL     1      29.524  57.199  85.695  1.00  0.00    -0.000 C 
BRANCH  26  27
ATOM     27  C   UNL     1      28.752  57.971  86.779  1.00  0.00    -0.000 C 
BRANCH  27  28
ATOM     28  C   UNL     1      28.930  59.501  86.738  1.00  0.00    -0.000 C 
BRANCH  28  29
ATOM     29  C   UNL     1      27.759  60.256  87.382  1.00  0.00    -0.003 C 
ATOM     30  C   UNL     1      28.069  61.744  87.507  1.00  0.00     0.004 C 
ENDBRANCH  28  29
ENDBRANCH  27  28
ENDBRANCH  26  27
ENDBRANCH  25  26
ENDBRANCH  24  25
ENDBRANCH  23  24
ENDBRANCH  22  23
ENDBRANCH  21  22
ENDBRANCH  20  21
ENDBRANCH  19  20
ENDBRANCH  18  19
ENDBRANCH  17  18
ENDBRANCH   1  17
TORSDOF 26
ENDMDL
