MODEL 1
REMARK VINA RESULT:    92.460      0.000      0.000
REMARK INTER + INTRA:         103.534
REMARK INTER:                 100.568
REMARK INTRA:                   2.966
REMARK UNBOUND:                 2.966
REMARK SMILES C[C@@H]1[C@H]2C3=CC[C@H]4[C@]5(C)CC[C@H](O)C(C)(C)[C@@H]5CC[C@]4(C)[C@]3(C)CC[C@]2(C(=O)[O-])CC[C@@H]1C
REMARK SMILES IDX 26 1 30 2 25 3 3 4 31 5 24 6 4 7 2 8 32 9 22 10 5 11 1 12
REMARK SMILES IDX 33 13 23 14 20 15 6 16 7 17 19 18 21 19 8 20 18 21 17 22
REMARK SMILES IDX 10 23 9 24 14 25 11 26 12 27 15 28 16 29 27 30 28 31 29 32
REMARK SMILES IDX 13 33
REMARK H PARENT 13 34
REMARK Flexibility Score: inf
ROOT
ATOM      1  C   UNL     1      -4.163  43.459  -0.667  1.00  0.00     0.017 C 
ATOM      2  C   UNL     1      -3.182  42.342  -1.109  1.00  0.00     0.014 C 
ATOM      3  C   UNL     1      -3.656  44.857  -1.108  1.00  0.00     0.014 C 
ATOM      4  C   UNL     1      -5.500  43.217  -1.455  1.00  0.00     0.030 C 
ATOM      5  C   UNL     1      -3.749  40.938  -0.785  1.00  0.00     0.004 C 
ATOM      6  C   UNL     1      -4.635  46.027  -0.767  1.00  0.00     0.013 C 
ATOM      7  C   UNL     1      -6.401  44.469  -1.598  1.00  0.00    -0.063 C 
ATOM      8  C   UNL     1      -6.166  41.849  -1.117  1.00  0.00    -0.003 C 
ATOM      9  C   UNL     1      -5.158  40.672  -1.386  1.00  0.00    -0.011 C 
ATOM     10  C   UNL     1      -6.187  45.680  -0.665  1.00  0.00    -0.006 C 
ATOM     11  C   UNL     1      -6.996  44.627  -2.807  1.00  0.00    -0.027 C 
ATOM     12  C   UNL     1      -7.514  41.624  -1.825  1.00  0.00     0.008 C 
ATOM     13  C   UNL     1      -5.032  40.276  -2.875  1.00  0.00     0.008 C 
ATOM     14  C   UNL     1      -6.513  45.261   0.814  1.00  0.00     0.017 C 
ATOM     15  C   UNL     1      -7.148  46.931  -1.065  1.00  0.00    -0.020 C 
ATOM     16  C   UNL     1      -7.641  45.881  -3.304  1.00  0.00     0.032 C 
ATOM     17  C   UNL     1      -7.135  47.167  -2.602  1.00  0.00     0.006 C 
ATOM     18  C   UNL     1      -6.607  48.215  -0.409  1.00  0.00     0.008 C 
ATOM     19  C   UNL     1      -8.625  46.677  -0.599  1.00  0.00     0.012 C 
ATOM     20  C   UNL     1      -7.802  48.540  -3.152  1.00  0.00    -0.025 C 
ATOM     21  C   UNL     1      -7.448  49.458  -0.641  1.00  0.00     0.005 C 
ATOM     22  C   UNL     1      -8.171  49.625  -2.021  1.00  0.00     0.003 C 
ATOM     23  C   UNL     1      -6.812  49.176  -4.192  1.00  0.00     0.010 C 
ATOM     24  C   UNL     1      -9.117  48.207  -3.941  1.00  0.00     0.012 C 
ATOM     25  C   UNL     1      -8.077  51.150  -2.503  1.00  0.00    -0.006 C 
ATOM     26  C   UNL     1      -5.879  50.212  -3.560  1.00  0.00     0.033 C 
ATOM     27  C   UNL     1      -6.634  51.465  -3.059  1.00  0.00     0.120 C 
ATOM     28  C   UNL     1      -9.124  51.477  -3.608  1.00  0.00     0.014 C 
ATOM     29  C   UNL     1      -8.471  52.124  -1.342  1.00  0.00     0.014 C 
ENDROOT
BRANCH   1  30
ATOM     30  C   UNL     1      -4.182  43.409   0.863  1.00  0.00     0.048 C 
ATOM     31  O   UNL     1      -4.832  44.236   1.554  1.00  0.00    -0.550 OA
ATOM     32  O   UNL     1      -3.558  42.356   1.524  1.00  0.00    -0.550 OA
ENDBRANCH   1  30
BRANCH  27  33
ATOM     33  O   UNL     1      -5.826  52.087  -2.088  1.00  0.00    -0.393 OA
ATOM     34  H   UNL     1      -4.886  51.830  -2.276  1.00  0.00     0.210 HD
ENDBRANCH  27  33
TORSDOF 2
ENDMDL
