MODEL 1
REMARK VINA RESULT:    -2.631      0.000      0.000
REMARK INTER + INTRA:         -12.659
REMARK INTER:                  -6.629
REMARK INTRA:                  -6.030
REMARK UNBOUND:                -6.030
REMARK SMILES CCCCCCCCCCCCCCCCCCCCCCCCCCCC(=O)[O-]
REMARK SMILES IDX 15 1 16 2 17 3 18 4 19 5 20 6 21 7 22 8 23 9 24 10 25 11
REMARK SMILES IDX 26 12 27 13 28 14 29 15 30 16 14 17 13 18 12 19 11 20 10 21
REMARK SMILES IDX 9 22 8 23 7 24 6 25 5 26 4 27 3 28 2 29 1 30
REMARK H PARENT
REMARK Flexibility Score: inf
ROOT
ATOM      1  C   UNL     1      19.000 -10.433 188.314  1.00  0.00     0.000 C 
ENDROOT
BRANCH   1   2
ATOM      2  C   UNL     1      19.752 -11.590 187.644  1.00  0.00     0.000 C 
BRANCH   2   3
ATOM      3  C   UNL     1      18.813 -12.621 186.996  1.00  0.00     0.000 C 
BRANCH   3   4
ATOM      4  C   UNL     1      17.372 -12.099 186.840  1.00  0.00     0.000 C 
BRANCH   4   5
ATOM      5  C   UNL     1      16.818 -12.149 185.403  1.00  0.00     0.000 C 
BRANCH   5   6
ATOM      6  C   UNL     1      15.530 -11.324 185.229  1.00  0.00     0.000 C 
BRANCH   6   7
ATOM      7  C   UNL     1      15.124 -10.600 186.529  1.00  0.00     0.000 C 
BRANCH   7   8
ATOM      8  C   UNL     1      13.611 -10.624 186.807  1.00  0.00     0.000 C 
BRANCH   8   9
ATOM      9  C   UNL     1      13.266 -11.115 188.220  1.00  0.00     0.000 C 
BRANCH   9  10
ATOM     10  C   UNL     1      14.378 -12.018 188.773  1.00  0.00     0.000 C 
BRANCH  10  11
ATOM     11  C   UNL     1      14.010 -13.511 188.725  1.00  0.00     0.000 C 
BRANCH  11  12
ATOM     12  C   UNL     1      14.542 -14.270 187.494  1.00  0.00     0.006 C 
BRANCH  12  13
ATOM     13  C   UNL     1      15.250 -15.598 187.842  1.00  0.00     0.053 C 
BRANCH  13  14
ATOM     14  C   UNL     1      16.567 -15.733 187.137  1.00  0.00     0.041 C 
ATOM     15  O   UNL     1      16.631 -15.684 185.880  1.00  0.00    -0.550 OA
ATOM     16  O   UNL     1      17.734 -15.912 187.873  1.00  0.00    -0.550 OA
ENDBRANCH  13  14
ENDBRANCH  12  13
ENDBRANCH  11  12
ENDBRANCH  10  11
ENDBRANCH   9  10
ENDBRANCH   8   9
ENDBRANCH   7   8
ENDBRANCH   6   7
ENDBRANCH   5   6
ENDBRANCH   4   5
ENDBRANCH   3   4
ENDBRANCH   2   3
ENDBRANCH   1   2
BRANCH   1  17
ATOM     17  C   UNL     1      19.437  -9.055 187.788  1.00  0.00     0.000 C 
BRANCH  17  18
ATOM     18  C   UNL     1      19.796  -9.104 186.296  1.00  0.00     0.000 C 
BRANCH  18  19
ATOM     19  C   UNL     1      18.565  -8.878 185.386  1.00  0.00     0.000 C 
BRANCH  19  20
ATOM     20  C   UNL     1      17.517  -7.938 186.012  1.00  0.00     0.000 C 
BRANCH  20  21
ATOM     21  C   UNL     1      17.356  -6.594 185.272  1.00  0.00     0.000 C 
BRANCH  21  22
ATOM     22  C   UNL     1      17.769  -5.357 186.092  1.00  0.00    -0.000 C 
BRANCH  22  23
ATOM     23  C   UNL     1      19.270  -5.327 186.410  1.00  0.00    -0.000 C 
BRANCH  23  24
ATOM     24  C   UNL     1      19.501  -5.354 187.927  1.00  0.00    -0.000 C 
BRANCH  24  25
ATOM     25  C   UNL     1      18.171  -5.348 188.692  1.00  0.00    -0.000 C 
BRANCH  25  26
ATOM     26  C   UNL     1      18.161  -6.321 189.886  1.00  0.00    -0.000 C 
BRANCH  26  27
ATOM     27  C   UNL     1      16.774  -6.850 190.290  1.00  0.00    -0.000 C 
BRANCH  27  28
ATOM     28  C   UNL     1      16.271  -7.978 189.372  1.00  0.00    -0.000 C 
BRANCH  28  29
ATOM     29  C   UNL     1      14.844  -7.729 188.859  1.00  0.00    -0.003 C 
ATOM     30  C   UNL     1      14.719  -6.434 188.055  1.00  0.00     0.004 C 
ENDBRANCH  28  29
ENDBRANCH  27  28
ENDBRANCH  26  27
ENDBRANCH  25  26
ENDBRANCH  24  25
ENDBRANCH  23  24
ENDBRANCH  22  23
ENDBRANCH  21  22
ENDBRANCH  20  21
ENDBRANCH  19  20
ENDBRANCH  18  19
ENDBRANCH  17  18
ENDBRANCH   1  17
TORSDOF 26
ENDMDL
MODEL 2
REMARK VINA RESULT:    -2.622     13.454     17.316
REMARK INTER + INTRA:         -12.638
REMARK INTER:                  -7.132
REMARK INTRA:                  -5.506
REMARK UNBOUND:                -6.030
REMARK SMILES CCCCCCCCCCCCCCCCCCCCCCCCCCCC(=O)[O-]
REMARK SMILES IDX 15 1 16 2 17 3 18 4 19 5 20 6 21 7 22 8 23 9 24 10 25 11
REMARK SMILES IDX 26 12 27 13 28 14 29 15 30 16 14 17 13 18 12 19 11 20 10 21
REMARK SMILES IDX 9 22 8 23 7 24 6 25 5 26 4 27 3 28 2 29 1 30
REMARK H PARENT
REMARK Flexibility Score: inf
ROOT
ATOM      1  C   UNL     1      11.523   0.542 199.702  1.00  0.00     0.000 C 
ENDROOT
BRANCH   1   2
ATOM      2  C   UNL     1      10.161   0.671 200.397  1.00  0.00     0.000 C 
BRANCH   2   3
ATOM      3  C   UNL     1       9.648  -0.664 200.963  1.00  0.00     0.000 C 
BRANCH   3   4
ATOM      4  C   UNL     1      10.733  -1.757 200.989  1.00  0.00     0.000 C 
BRANCH   4   5
ATOM      5  C   UNL     1      11.096  -2.272 202.395  1.00  0.00     0.000 C 
BRANCH   5   6
ATOM      6  C   UNL     1      11.602  -1.159 203.329  1.00  0.00     0.000 C 
BRANCH   6   7
ATOM      7  C   UNL     1      13.111  -1.290 203.624  1.00  0.00     0.000 C 
BRANCH   7   8
ATOM      8  C   UNL     1      13.674  -2.698 203.368  1.00  0.00     0.000 C 
BRANCH   8   9
ATOM      9  C   UNL     1      14.811  -2.714 202.336  1.00  0.00     0.000 C 
BRANCH   9  10
ATOM     10  C   UNL     1      14.595  -1.634 201.267  1.00  0.00     0.000 C 
BRANCH  10  11
ATOM     11  C   UNL     1      14.257  -2.223 199.887  1.00  0.00     0.000 C 
BRANCH  11  12
ATOM     12  C   UNL     1      13.752  -3.678 199.911  1.00  0.00     0.006 C 
BRANCH  12  13
ATOM     13  C   UNL     1      12.658  -3.973 198.862  1.00  0.00     0.053 C 
BRANCH  13  14
ATOM     14  C   UNL     1      12.842  -5.317 198.221  1.00  0.00     0.041 C 
ATOM     15  O   UNL     1      13.637  -6.160 198.716  1.00  0.00    -0.550 OA
ATOM     16  O   UNL     1      12.130  -5.644 197.073  1.00  0.00    -0.550 OA
ENDBRANCH  13  14
ENDBRANCH  12  13
ENDBRANCH  11  12
ENDBRANCH  10  11
ENDBRANCH   9  10
ENDBRANCH   8   9
ENDBRANCH   7   8
ENDBRANCH   6   7
ENDBRANCH   5   6
ENDBRANCH   4   5
ENDBRANCH   3   4
ENDBRANCH   2   3
ENDBRANCH   1   2
BRANCH   1  17
ATOM     17  C   UNL     1      12.612   1.407 200.359  1.00  0.00     0.000 C 
BRANCH  17  18
ATOM     18  C   UNL     1      12.080   2.149 201.593  1.00  0.00     0.000 C 
BRANCH  18  19
ATOM     19  C   UNL     1      13.161   2.328 202.686  1.00  0.00     0.000 C 
BRANCH  19  20
ATOM     20  C   UNL     1      14.546   1.810 202.253  1.00  0.00     0.000 C 
BRANCH  20  21
ATOM     21  C   UNL     1      15.612   1.860 203.367  1.00  0.00     0.000 C 
BRANCH  21  22
ATOM     22  C   UNL     1      16.340   0.526 203.618  1.00  0.00    -0.000 C 
BRANCH  22  23
ATOM     23  C   UNL     1      17.650   0.404 202.827  1.00  0.00    -0.000 C 
BRANCH  23  24
ATOM     24  C   UNL     1      18.752  -0.210 203.699  1.00  0.00    -0.000 C 
BRANCH  24  25
ATOM     25  C   UNL     1      19.114  -1.624 203.223  1.00  0.00    -0.000 C 
BRANCH  25  26
ATOM     26  C   UNL     1      18.472  -1.984 201.870  1.00  0.00    -0.000 C 
BRANCH  26  27
ATOM     27  C   UNL     1      18.427  -3.487 201.544  1.00  0.00    -0.000 C 
BRANCH  27  28
ATOM     28  C   UNL     1      17.705  -3.793 200.221  1.00  0.00    -0.000 C 
BRANCH  28  29
ATOM     29  C   UNL     1      16.973  -5.143 200.246  1.00  0.00    -0.003 C 
ATOM     30  C   UNL     1      17.379  -6.018 201.433  1.00  0.00     0.004 C 
ENDBRANCH  28  29
ENDBRANCH  27  28
ENDBRANCH  26  27
ENDBRANCH  25  26
ENDBRANCH  24  25
ENDBRANCH  23  24
ENDBRANCH  22  23
ENDBRANCH  21  22
ENDBRANCH  20  21
ENDBRANCH  19  20
ENDBRANCH  18  19
ENDBRANCH  17  18
ENDBRANCH   1  17
TORSDOF 26
ENDMDL
MODEL 3
REMARK VINA RESULT:    -2.558     14.278     18.305
REMARK INTER + INTRA:         -12.476
REMARK INTER:                  -7.522
REMARK INTRA:                  -4.954
REMARK UNBOUND:                -6.030
REMARK SMILES CCCCCCCCCCCCCCCCCCCCCCCCCCCC(=O)[O-]
REMARK SMILES IDX 15 1 16 2 17 3 18 4 19 5 20 6 21 7 22 8 23 9 24 10 25 11
REMARK SMILES IDX 26 12 27 13 28 14 29 15 30 16 14 17 13 18 12 19 11 20 10 21
REMARK SMILES IDX 9 22 8 23 7 24 6 25 5 26 4 27 3 28 2 29 1 30
REMARK H PARENT
REMARK Flexibility Score: inf
ROOT
ATOM      1  C   UNL     1      11.951  -1.930 203.881  1.00  0.00     0.000 C 
ENDROOT
BRANCH   1   2
ATOM      2  C   UNL     1      13.379  -1.412 204.093  1.00  0.00     0.000 C 
BRANCH   2   3
ATOM      3  C   UNL     1      14.399  -2.057 203.140  1.00  0.00     0.000 C 
BRANCH   3   4
ATOM      4  C   UNL     1      15.624  -1.160 202.882  1.00  0.00     0.000 C 
BRANCH   4   5
ATOM      5  C   UNL     1      15.751   0.049 203.828  1.00  0.00     0.000 C 
BRANCH   5   6
ATOM      6  C   UNL     1      16.205   1.330 203.105  1.00  0.00     0.000 C 
BRANCH   6   7
ATOM      7  C   UNL     1      15.021   2.087 202.468  1.00  0.00     0.000 C 
BRANCH   7   8
ATOM      8  C   UNL     1      15.240   2.451 200.989  1.00  0.00     0.000 C 
BRANCH   8   9
ATOM      9  C   UNL     1      14.096   1.984 200.079  1.00  0.00     0.000 C 
BRANCH   9  10
ATOM     10  C   UNL     1      14.109   0.456 199.923  1.00  0.00     0.000 C 
BRANCH  10  11
ATOM     11  C   UNL     1      15.410  -0.065 199.290  1.00  0.00     0.000 C 
BRANCH  11  12
ATOM     12  C   UNL     1      15.457  -1.590 199.069  1.00  0.00     0.006 C 
BRANCH  12  13
ATOM     13  C   UNL     1      16.726  -2.261 199.638  1.00  0.00     0.053 C 
BRANCH  13  14
ATOM     14  C   UNL     1      16.562  -3.746 199.774  1.00  0.00     0.041 C 
ATOM     15  O   UNL     1      17.284  -4.535 199.107  1.00  0.00    -0.550 OA
ATOM     16  O   UNL     1      15.609  -4.263 200.643  1.00  0.00    -0.550 OA
ENDBRANCH  13  14
ENDBRANCH  12  13
ENDBRANCH  11  12
ENDBRANCH  10  11
ENDBRANCH   9  10
ENDBRANCH   8   9
ENDBRANCH   7   8
ENDBRANCH   6   7
ENDBRANCH   5   6
ENDBRANCH   4   5
ENDBRANCH   3   4
ENDBRANCH   2   3
ENDBRANCH   1   2
BRANCH   1  17
ATOM     17  C   UNL     1      11.110  -1.007 202.982  1.00  0.00     0.000 C 
BRANCH  17  18
ATOM     18  C   UNL     1      11.891   0.248 202.567  1.00  0.00     0.000 C 
BRANCH  18  19
ATOM     19  C   UNL     1      10.960   1.416 202.166  1.00  0.00     0.000 C 
BRANCH  19  20
ATOM     20  C   UNL     1       9.496   1.192 202.588  1.00  0.00     0.000 C 
BRANCH  20  21
ATOM     21  C   UNL     1       8.615   2.455 202.499  1.00  0.00     0.000 C 
BRANCH  21  22
ATOM     22  C   UNL     1       7.315   2.276 201.691  1.00  0.00    -0.000 C 
BRANCH  22  23
ATOM     23  C   UNL     1       7.571   1.830 200.245  1.00  0.00    -0.000 C 
BRANCH  23  24
ATOM     24  C   UNL     1       6.571   0.743 199.830  1.00  0.00    -0.000 C 
BRANCH  24  25
ATOM     25  C   UNL     1       7.283  -0.587 199.548  1.00  0.00    -0.000 C 
BRANCH  25  26
ATOM     26  C   UNL     1       8.805  -0.429 199.380  1.00  0.00    -0.000 C 
BRANCH  26  27
ATOM     27  C   UNL     1       9.649  -1.608 199.898  1.00  0.00    -0.000 C 
BRANCH  27  28
ATOM     28  C   UNL     1      11.017  -1.717 199.203  1.00  0.00    -0.000 C 
BRANCH  28  29
ATOM     29  C   UNL     1      11.976  -2.669 199.935  1.00  0.00    -0.003 C 
ATOM     30  C   UNL     1      12.436  -3.837 199.061  1.00  0.00     0.004 C 
ENDBRANCH  28  29
ENDBRANCH  27  28
ENDBRANCH  26  27
ENDBRANCH  25  26
ENDBRANCH  24  25
ENDBRANCH  23  24
ENDBRANCH  22  23
ENDBRANCH  21  22
ENDBRANCH  20  21
ENDBRANCH  19  20
ENDBRANCH  18  19
ENDBRANCH  17  18
ENDBRANCH   1  17
TORSDOF 26
ENDMDL
MODEL 4
REMARK VINA RESULT:    -2.495     14.064     17.851
REMARK INTER + INTRA:         -12.318
REMARK INTER:                  -7.188
REMARK INTRA:                  -5.131
REMARK UNBOUND:                -6.030
REMARK SMILES CCCCCCCCCCCCCCCCCCCCCCCCCCCC(=O)[O-]
REMARK SMILES IDX 15 1 16 2 17 3 18 4 19 5 20 6 21 7 22 8 23 9 24 10 25 11
REMARK SMILES IDX 26 12 27 13 28 14 29 15 30 16 14 17 13 18 12 19 11 20 10 21
REMARK SMILES IDX 9 22 8 23 7 24 6 25 5 26 4 27 3 28 2 29 1 30
REMARK H PARENT
REMARK Flexibility Score: inf
ROOT
ATOM      1  C   UNL     1      15.392  -2.696 201.668  1.00  0.00     0.000 C 
ENDROOT
BRANCH   1   2
ATOM      2  C   UNL     1      16.458  -2.188 202.648  1.00  0.00     0.000 C 
BRANCH   2   3
ATOM      3  C   UNL     1      17.230  -0.970 202.115  1.00  0.00     0.000 C 
BRANCH   3   4
ATOM      4  C   UNL     1      17.397   0.139 203.171  1.00  0.00     0.000 C 
BRANCH   4   5
ATOM      5  C   UNL     1      16.079   0.662 203.773  1.00  0.00     0.000 C 
BRANCH   5   6
ATOM      6  C   UNL     1      15.382   1.701 202.876  1.00  0.00     0.000 C 
BRANCH   6   7
ATOM      7  C   UNL     1      13.939   1.286 202.521  1.00  0.00     0.000 C 
BRANCH   7   8
ATOM      8  C   UNL     1      13.626   1.351 201.016  1.00  0.00     0.000 C 
BRANCH   8   9
ATOM      9  C   UNL     1      14.574   0.494 200.166  1.00  0.00     0.000 C 
BRANCH   9  10
ATOM     10  C   UNL     1      13.847  -0.075 198.940  1.00  0.00     0.000 C 
BRANCH  10  11
ATOM     11  C   UNL     1      12.949  -1.276 199.286  1.00  0.00     0.000 C 
BRANCH  11  12
ATOM     12  C   UNL     1      13.165  -2.520 198.403  1.00  0.00     0.006 C 
BRANCH  12  13
ATOM     13  C   UNL     1      12.778  -3.846 199.095  1.00  0.00     0.053 C 
BRANCH  13  14
ATOM     14  C   UNL     1      13.136  -5.040 198.259  1.00  0.00     0.041 C 
ATOM     15  O   UNL     1      12.465  -6.104 198.340  1.00  0.00    -0.550 OA
ATOM     16  O   UNL     1      14.214  -4.978 197.384  1.00  0.00    -0.550 OA
ENDBRANCH  13  14
ENDBRANCH  12  13
ENDBRANCH  11  12
ENDBRANCH  10  11
ENDBRANCH   9  10
ENDBRANCH   8   9
ENDBRANCH   7   8
ENDBRANCH   6   7
ENDBRANCH   5   6
ENDBRANCH   4   5
ENDBRANCH   3   4
ENDBRANCH   2   3
ENDBRANCH   1   2
BRANCH   1  17
ATOM     17  C   UNL     1      14.051  -3.005 202.355  1.00  0.00     0.000 C 
BRANCH  17  18
ATOM     18  C   UNL     1      13.924  -2.283 203.704  1.00  0.00     0.000 C 
BRANCH  18  19
ATOM     19  C   UNL     1      12.475  -1.825 203.994  1.00  0.00     0.000 C 
BRANCH  19  20
ATOM     20  C   UNL     1      11.611  -1.721 202.724  1.00  0.00     0.000 C 
BRANCH  20  21
ATOM     21  C   UNL     1      10.753  -0.441 202.650  1.00  0.00     0.000 C 
BRANCH  21  22
ATOM     22  C   UNL     1      10.191  -0.125 201.250  1.00  0.00    -0.000 C 
BRANCH  22  23
ATOM     23  C   UNL     1       9.475  -1.323 200.612  1.00  0.00    -0.000 C 
BRANCH  23  24
ATOM     24  C   UNL     1       9.296  -1.105 199.104  1.00  0.00    -0.000 C 
BRANCH  24  25
ATOM     25  C   UNL     1       8.561   0.211 198.817  1.00  0.00    -0.000 C 
BRANCH  25  26
ATOM     26  C   UNL     1       7.104   0.206 199.316  1.00  0.00    -0.000 C 
BRANCH  26  27
ATOM     27  C   UNL     1       6.553   1.576 199.751  1.00  0.00    -0.000 C 
BRANCH  27  28
ATOM     28  C   UNL     1       7.008   1.984 201.162  1.00  0.00    -0.000 C 
BRANCH  28  29
ATOM     29  C   UNL     1       7.876   3.252 201.159  1.00  0.00    -0.003 C 
ATOM     30  C   UNL     1       9.024   3.191 202.168  1.00  0.00     0.004 C 
ENDBRANCH  28  29
ENDBRANCH  27  28
ENDBRANCH  26  27
ENDBRANCH  25  26
ENDBRANCH  24  25
ENDBRANCH  23  24
ENDBRANCH  22  23
ENDBRANCH  21  22
ENDBRANCH  20  21
ENDBRANCH  19  20
ENDBRANCH  18  19
ENDBRANCH  17  18
ENDBRANCH   1  17
TORSDOF 26
ENDMDL
MODEL 5
REMARK VINA RESULT:    -2.476     15.714     18.289
REMARK INTER + INTRA:         -12.269
REMARK INTER:                  -6.644
REMARK INTRA:                  -5.624
REMARK UNBOUND:                -6.030
REMARK SMILES CCCCCCCCCCCCCCCCCCCCCCCCCCCC(=O)[O-]
REMARK SMILES IDX 15 1 16 2 17 3 18 4 19 5 20 6 21 7 22 8 23 9 24 10 25 11
REMARK SMILES IDX 26 12 27 13 28 14 29 15 30 16 14 17 13 18 12 19 11 20 10 21
REMARK SMILES IDX 9 22 8 23 7 24 6 25 5 26 4 27 3 28 2 29 1 30
REMARK H PARENT
REMARK Flexibility Score: inf
ROOT
ATOM      1  C   UNL     1      13.855  -1.703 203.518  1.00  0.00     0.000 C 
ENDROOT
BRANCH   1   2
ATOM      2  C   UNL     1      13.094  -2.412 202.390  1.00  0.00     0.000 C 
BRANCH   2   3
ATOM      3  C   UNL     1      11.570  -2.237 202.493  1.00  0.00     0.000 C 
BRANCH   3   4
ATOM      4  C   UNL     1      11.166  -0.974 203.277  1.00  0.00     0.000 C 
BRANCH   4   5
ATOM      5  C   UNL     1      10.458   0.108 202.440  1.00  0.00     0.000 C 
BRANCH   5   6
ATOM      6  C   UNL     1      11.343   1.340 202.180  1.00  0.00     0.000 C 
BRANCH   6   7
ATOM      7  C   UNL     1      11.657   1.522 200.680  1.00  0.00     0.000 C 
BRANCH   7   8
ATOM      8  C   UNL     1      12.692   0.523 200.135  1.00  0.00     0.000 C 
BRANCH   8   9
ATOM      9  C   UNL     1      12.237  -0.171 198.845  1.00  0.00     0.000 C 
BRANCH   9  10
ATOM     10  C   UNL     1      11.093  -1.156 199.126  1.00  0.00     0.000 C 
BRANCH  10  11
ATOM     11  C   UNL     1       9.885  -0.943 198.198  1.00  0.00     0.000 C 
BRANCH  11  12
ATOM     12  C   UNL     1       8.885   0.128 198.674  1.00  0.00     0.006 C 
BRANCH  12  13
ATOM     13  C   UNL     1       7.918  -0.368 199.771  1.00  0.00     0.053 C 
BRANCH  13  14
ATOM     14  C   UNL     1       7.091   0.749 200.337  1.00  0.00     0.041 C 
ATOM     15  O   UNL     1       7.602   1.592 201.122  1.00  0.00    -0.550 OA
ATOM     16  O   UNL     1       5.748   0.861 199.994  1.00  0.00    -0.550 OA
ENDBRANCH  13  14
ENDBRANCH  12  13
ENDBRANCH  11  12
ENDBRANCH  10  11
ENDBRANCH   9  10
ENDBRANCH   8   9
ENDBRANCH   7   8
ENDBRANCH   6   7
ENDBRANCH   5   6
ENDBRANCH   4   5
ENDBRANCH   3   4
ENDBRANCH   2   3
ENDBRANCH   1   2
BRANCH   1  17
ATOM     17  C   UNL     1      15.067  -0.905 203.007  1.00  0.00     0.000 C 
BRANCH  17  18
ATOM     18  C   UNL     1      14.836   0.610 203.113  1.00  0.00     0.000 C 
BRANCH  18  19
ATOM     19  C   UNL     1      16.161   1.405 203.180  1.00  0.00     0.000 C 
BRANCH  19  20
ATOM     20  C   UNL     1      17.333   0.577 203.742  1.00  0.00     0.000 C 
BRANCH  20  21
ATOM     21  C   UNL     1      18.652   0.743 202.960  1.00  0.00     0.000 C 
BRANCH  21  22
ATOM     22  C   UNL     1      19.696  -0.359 203.223  1.00  0.00    -0.000 C 
BRANCH  22  23
ATOM     23  C   UNL     1      19.530  -1.569 202.294  1.00  0.00    -0.000 C 
BRANCH  23  24
ATOM     24  C   UNL     1      18.668  -2.648 202.962  1.00  0.00    -0.000 C 
BRANCH  24  25
ATOM     25  C   UNL     1      17.729  -3.316 201.948  1.00  0.00    -0.000 C 
BRANCH  25  26
ATOM     26  C   UNL     1      17.621  -2.534 200.626  1.00  0.00    -0.000 C 
BRANCH  26  27
ATOM     27  C   UNL     1      16.230  -2.547 199.967  1.00  0.00    -0.000 C 
BRANCH  27  28
ATOM     28  C   UNL     1      15.842  -1.188 199.359  1.00  0.00    -0.000 C 
BRANCH  28  29
ATOM     29  C   UNL     1      16.730  -0.040 199.865  1.00  0.00    -0.003 C 
ATOM     30  C   UNL     1      16.311   1.323 199.313  1.00  0.00     0.004 C 
ENDBRANCH  28  29
ENDBRANCH  27  28
ENDBRANCH  26  27
ENDBRANCH  25  26
ENDBRANCH  24  25
ENDBRANCH  23  24
ENDBRANCH  22  23
ENDBRANCH  21  22
ENDBRANCH  20  21
ENDBRANCH  19  20
ENDBRANCH  18  19
ENDBRANCH  17  18
ENDBRANCH   1  17
TORSDOF 26
ENDMDL
MODEL 6
REMARK VINA RESULT:    -2.475     14.645     17.927
REMARK INTER + INTRA:         -12.268
REMARK INTER:                  -7.002
REMARK INTRA:                  -5.266
REMARK UNBOUND:                -6.030
REMARK SMILES CCCCCCCCCCCCCCCCCCCCCCCCCCCC(=O)[O-]
REMARK SMILES IDX 15 1 16 2 17 3 18 4 19 5 20 6 21 7 22 8 23 9 24 10 25 11
REMARK SMILES IDX 26 12 27 13 28 14 29 15 30 16 14 17 13 18 12 19 11 20 10 21
REMARK SMILES IDX 9 22 8 23 7 24 6 25 5 26 4 27 3 28 2 29 1 30
REMARK H PARENT
REMARK Flexibility Score: inf
ROOT
ATOM      1  C   UNL     1      11.728  -2.269 203.330  1.00  0.00     0.000 C 
ENDROOT
BRANCH   1   2
ATOM      2  C   UNL     1      13.218  -2.225 203.691  1.00  0.00     0.000 C 
BRANCH   2   3
ATOM      3  C   UNL     1      13.716  -0.806 204.012  1.00  0.00     0.000 C 
BRANCH   3   4
ATOM      4  C   UNL     1      15.159  -0.558 203.535  1.00  0.00     0.000 C 
BRANCH   4   5
ATOM      5  C   UNL     1      15.602   0.917 203.553  1.00  0.00     0.000 C 
BRANCH   5   6
ATOM      6  C   UNL     1      17.037   1.118 203.034  1.00  0.00     0.000 C 
BRANCH   6   7
ATOM      7  C   UNL     1      17.822  -0.210 202.968  1.00  0.00     0.000 C 
BRANCH   7   8
ATOM      8  C   UNL     1      18.459  -0.487 201.596  1.00  0.00     0.000 C 
BRANCH   8   9
ATOM      9  C   UNL     1      17.453  -1.001 200.557  1.00  0.00     0.000 C 
BRANCH   9  10
ATOM     10  C   UNL     1      17.228  -2.511 200.713  1.00  0.00     0.000 C 
BRANCH  10  11
ATOM     11  C   UNL     1      15.774  -2.861 201.077  1.00  0.00     0.000 C 
BRANCH  11  12
ATOM     12  C   UNL     1      15.513  -4.358 201.330  1.00  0.00     0.006 C 
BRANCH  12  13
ATOM     13  C   UNL     1      16.515  -5.292 200.617  1.00  0.00     0.053 C 
BRANCH  13  14
ATOM     14  C   UNL     1      17.180  -6.237 201.575  1.00  0.00     0.041 C 
ATOM     15  O   UNL     1      16.733  -7.403 201.741  1.00  0.00    -0.550 OA
ATOM     16  O   UNL     1      18.302  -5.828 202.287  1.00  0.00    -0.550 OA
ENDBRANCH  13  14
ENDBRANCH  12  13
ENDBRANCH  11  12
ENDBRANCH  10  11
ENDBRANCH   9  10
ENDBRANCH   8   9
ENDBRANCH   7   8
ENDBRANCH   6   7
ENDBRANCH   5   6
ENDBRANCH   4   5
ENDBRANCH   3   4
ENDBRANCH   2   3
ENDBRANCH   1   2
BRANCH   1  17
ATOM     17  C   UNL     1      11.416  -1.559 202.001  1.00  0.00     0.000 C 
BRANCH  17  18
ATOM     18  C   UNL     1      12.085  -2.262 200.811  1.00  0.00     0.000 C 
BRANCH  18  19
ATOM     19  C   UNL     1      12.667  -1.260 199.786  1.00  0.00     0.000 C 
BRANCH  19  20
ATOM     20  C   UNL     1      13.478  -0.127 200.443  1.00  0.00     0.000 C 
BRANCH  20  21
ATOM     21  C   UNL     1      13.073   1.287 199.979  1.00  0.00     0.000 C 
BRANCH  21  22
ATOM     22  C   UNL     1      13.072   2.352 201.092  1.00  0.00    -0.000 C 
BRANCH  22  23
ATOM     23  C   UNL     1      12.163   1.980 202.271  1.00  0.00    -0.000 C 
BRANCH  23  24
ATOM     24  C   UNL     1      11.253   3.158 202.644  1.00  0.00    -0.000 C 
BRANCH  24  25
ATOM     25  C   UNL     1       9.819   2.685 202.922  1.00  0.00    -0.000 C 
BRANCH  25  26
ATOM     26  C   UNL     1       9.572   1.230 202.482  1.00  0.00    -0.000 C 
BRANCH  26  27
ATOM     27  C   UNL     1       8.638   1.060 201.271  1.00  0.00    -0.000 C 
BRANCH  27  28
ATOM     28  C   UNL     1       9.382   1.128 199.926  1.00  0.00    -0.000 C 
BRANCH  28  29
ATOM     29  C   UNL     1       9.210  -0.150 199.091  1.00  0.00    -0.003 C 
ATOM     30  C   UNL     1       8.442  -1.246 199.832  1.00  0.00     0.004 C 
ENDBRANCH  28  29
ENDBRANCH  27  28
ENDBRANCH  26  27
ENDBRANCH  25  26
ENDBRANCH  24  25
ENDBRANCH  23  24
ENDBRANCH  22  23
ENDBRANCH  21  22
ENDBRANCH  20  21
ENDBRANCH  19  20
ENDBRANCH  18  19
ENDBRANCH  17  18
ENDBRANCH   1  17
TORSDOF 26
ENDMDL
MODEL 7
REMARK VINA RESULT:    -2.470      3.121      5.234
REMARK INTER + INTRA:         -12.254
REMARK INTER:                  -7.407
REMARK INTRA:                  -4.846
REMARK UNBOUND:                -6.030
REMARK SMILES CCCCCCCCCCCCCCCCCCCCCCCCCCCC(=O)[O-]
REMARK SMILES IDX 15 1 16 2 17 3 18 4 19 5 20 6 21 7 22 8 23 9 24 10 25 11
REMARK SMILES IDX 26 12 27 13 28 14 29 15 30 16 14 17 13 18 12 19 11 20 10 21
REMARK SMILES IDX 9 22 8 23 7 24 6 25 5 26 4 27 3 28 2 29 1 30
REMARK H PARENT
REMARK Flexibility Score: inf
ROOT
ATOM      1  C   UNL     1      18.391 -12.476 186.717  1.00  0.00     0.000 C 
ENDROOT
BRANCH   1   2
ATOM      2  C   UNL     1      18.252 -13.998 186.848  1.00  0.00     0.000 C 
BRANCH   2   3
ATOM      3  C   UNL     1      16.824 -14.441 187.204  1.00  0.00     0.000 C 
BRANCH   3   4
ATOM      4  C   UNL     1      15.971 -14.758 185.961  1.00  0.00     0.000 C 
BRANCH   4   5
ATOM      5  C   UNL     1      15.448 -13.523 185.203  1.00  0.00     0.000 C 
BRANCH   5   6
ATOM      6  C   UNL     1      13.987 -13.183 185.547  1.00  0.00     0.000 C 
BRANCH   6   7
ATOM      7  C   UNL     1      13.883 -12.209 186.739  1.00  0.00     0.000 C 
BRANCH   7   8
ATOM      8  C   UNL     1      15.009 -11.161 186.785  1.00  0.00     0.000 C 
BRANCH   8   9
ATOM      9  C   UNL     1      15.488 -10.855 188.211  1.00  0.00     0.000 C 
BRANCH   9  10
ATOM     10  C   UNL     1      14.930  -9.511 188.700  1.00  0.00     0.000 C 
BRANCH  10  11
ATOM     11  C   UNL     1      15.858  -8.328 188.374  1.00  0.00     0.000 C 
BRANCH  11  12
ATOM     12  C   UNL     1      16.807  -7.917 189.515  1.00  0.00     0.006 C 
BRANCH  12  13
ATOM     13  C   UNL     1      17.850  -6.856 189.103  1.00  0.00     0.053 C 
BRANCH  13  14
ATOM     14  C   UNL     1      19.004  -6.801 190.060  1.00  0.00     0.041 C 
ATOM     15  O   UNL     1      19.596  -5.712 190.290  1.00  0.00    -0.550 OA
ATOM     16  O   UNL     1      19.427  -7.957 190.705  1.00  0.00    -0.550 OA
ENDBRANCH  13  14
ENDBRANCH  12  13
ENDBRANCH  11  12
ENDBRANCH  10  11
ENDBRANCH   9  10
ENDBRANCH   8   9
ENDBRANCH   7   8
ENDBRANCH   6   7
ENDBRANCH   5   6
ENDBRANCH   4   5
ENDBRANCH   3   4
ENDBRANCH   2   3
ENDBRANCH   1   2
BRANCH   1  17
ATOM     17  C   UNL     1      19.519 -11.903 187.592  1.00  0.00     0.000 C 
BRANCH  17  18
ATOM     18  C   UNL     1      19.162 -10.515 188.143  1.00  0.00     0.000 C 
BRANCH  18  19
ATOM     19  C   UNL     1      20.084  -9.404 187.587  1.00  0.00     0.000 C 
BRANCH  19  20
ATOM     20  C   UNL     1      19.784  -9.052 186.117  1.00  0.00     0.000 C 
BRANCH  20  21
ATOM     21  C   UNL     1      18.281  -9.025 185.771  1.00  0.00     0.000 C 
BRANCH  21  22
ATOM     22  C   UNL     1      17.729  -7.632 185.414  1.00  0.00    -0.000 C 
BRANCH  22  23
ATOM     23  C   UNL     1      16.794  -7.656 184.198  1.00  0.00    -0.000 C 
BRANCH  23  24
ATOM     24  C   UNL     1      15.932  -8.925 184.203  1.00  0.00    -0.000 C 
BRANCH  24  25
ATOM     25  C   UNL     1      14.454  -8.594 183.960  1.00  0.00    -0.000 C 
BRANCH  25  26
ATOM     26  C   UNL     1      13.734  -8.096 185.227  1.00  0.00    -0.000 C 
BRANCH  26  27
ATOM     27  C   UNL     1      12.247  -8.482 185.332  1.00  0.00    -0.000 C 
BRANCH  27  28
ATOM     28  C   UNL     1      11.886  -9.117 186.685  1.00  0.00    -0.000 C 
BRANCH  28  29
ATOM     29  C   UNL     1      10.774  -8.352 187.418  1.00  0.00    -0.003 C 
ATOM     30  C   UNL     1      10.610  -6.916 186.918  1.00  0.00     0.004 C 
ENDBRANCH  28  29
ENDBRANCH  27  28
ENDBRANCH  26  27
ENDBRANCH  25  26
ENDBRANCH  24  25
ENDBRANCH  23  24
ENDBRANCH  22  23
ENDBRANCH  21  22
ENDBRANCH  20  21
ENDBRANCH  19  20
ENDBRANCH  18  19
ENDBRANCH  17  18
ENDBRANCH   1  17
TORSDOF 26
ENDMDL
MODEL 8
REMARK VINA RESULT:    -2.442     13.724     16.875
REMARK INTER + INTRA:         -12.185
REMARK INTER:                  -6.349
REMARK INTRA:                  -5.836
REMARK UNBOUND:                -6.030
REMARK SMILES CCCCCCCCCCCCCCCCCCCCCCCCCCCC(=O)[O-]
REMARK SMILES IDX 15 1 16 2 17 3 18 4 19 5 20 6 21 7 22 8 23 9 24 10 25 11
REMARK SMILES IDX 26 12 27 13 28 14 29 15 30 16 14 17 13 18 12 19 11 20 10 21
REMARK SMILES IDX 9 22 8 23 7 24 6 25 5 26 4 27 3 28 2 29 1 30
REMARK H PARENT
REMARK Flexibility Score: inf
ROOT
ATOM      1  C   UNL     1      13.541   0.379 200.358  1.00  0.00     0.000 C 
ENDROOT
BRANCH   1   2
ATOM      2  C   UNL     1      12.283  -0.283 199.781  1.00  0.00     0.000 C 
BRANCH   2   3
ATOM      3  C   UNL     1      12.416  -1.810 199.650  1.00  0.00     0.000 C 
BRANCH   3   4
ATOM      4  C   UNL     1      11.507  -2.574 200.631  1.00  0.00     0.000 C 
BRANCH   4   5
ATOM      5  C   UNL     1      10.776  -1.689 201.658  1.00  0.00     0.000 C 
BRANCH   5   6
ATOM      6  C   UNL     1      11.221  -1.958 203.106  1.00  0.00     0.000 C 
BRANCH   6   7
ATOM      7  C   UNL     1      12.576  -1.294 203.430  1.00  0.00     0.000 C 
BRANCH   7   8
ATOM      8  C   UNL     1      13.718  -2.296 203.669  1.00  0.00     0.000 C 
BRANCH   8   9
ATOM      9  C   UNL     1      14.733  -2.338 202.519  1.00  0.00     0.000 C 
BRANCH   9  10
ATOM     10  C   UNL     1      14.804  -3.742 201.901  1.00  0.00     0.000 C 
BRANCH  10  11
ATOM     11  C   UNL     1      15.655  -3.785 200.620  1.00  0.00     0.000 C 
BRANCH  11  12
ATOM     12  C   UNL     1      17.174  -3.669 200.848  1.00  0.00     0.006 C 
BRANCH  12  13
ATOM     13  C   UNL     1      17.798  -4.912 201.519  1.00  0.00     0.053 C 
BRANCH  13  14
ATOM     14  C   UNL     1      17.392  -6.184 200.833  1.00  0.00     0.041 C 
ATOM     15  O   UNL     1      17.844  -6.469 199.692  1.00  0.00    -0.550 OA
ATOM     16  O   UNL     1      16.514  -7.061 201.458  1.00  0.00    -0.550 OA
ENDBRANCH  13  14
ENDBRANCH  12  13
ENDBRANCH  11  12
ENDBRANCH  10  11
ENDBRANCH   9  10
ENDBRANCH   8   9
ENDBRANCH   7   8
ENDBRANCH   6   7
ENDBRANCH   5   6
ENDBRANCH   4   5
ENDBRANCH   3   4
ENDBRANCH   2   3
ENDBRANCH   1   2
BRANCH   1  17
ATOM     17  C   UNL     1      13.614   1.885 200.051  1.00  0.00     0.000 C 
BRANCH  17  18
ATOM     18  C   UNL     1      14.247   2.671 201.209  1.00  0.00     0.000 C 
BRANCH  18  19
ATOM     19  C   UNL     1      14.378   1.821 202.495  1.00  0.00     0.000 C 
BRANCH  19  20
ATOM     20  C   UNL     1      15.816   1.782 203.047  1.00  0.00     0.000 C 
BRANCH  20  21
ATOM     21  C   UNL     1      16.137   0.524 203.879  1.00  0.00     0.000 C 
BRANCH  21  22
ATOM     22  C   UNL     1      17.481  -0.147 203.536  1.00  0.00    -0.000 C 
BRANCH  22  23
ATOM     23  C   UNL     1      18.436   0.787 202.780  1.00  0.00    -0.000 C 
BRANCH  23  24
ATOM     24  C   UNL     1      18.869   0.155 201.451  1.00  0.00    -0.000 C 
BRANCH  24  25
ATOM     25  C   UNL     1      18.073   0.735 200.274  1.00  0.00    -0.000 C 
BRANCH  25  26
ATOM     26  C   UNL     1      16.942  -0.196 199.798  1.00  0.00    -0.000 C 
BRANCH  26  27
ATOM     27  C   UNL     1      16.816  -0.349 198.272  1.00  0.00    -0.000 C 
BRANCH  27  28
ATOM     28  C   UNL     1      15.723  -1.349 197.858  1.00  0.00    -0.000 C 
BRANCH  28  29
ATOM     29  C   UNL     1      14.691  -0.733 196.900  1.00  0.00    -0.003 C 
ATOM     30  C   UNL     1      14.867   0.777 196.728  1.00  0.00     0.004 C 
ENDBRANCH  28  29
ENDBRANCH  27  28
ENDBRANCH  26  27
ENDBRANCH  25  26
ENDBRANCH  24  25
ENDBRANCH  23  24
ENDBRANCH  22  23
ENDBRANCH  21  22
ENDBRANCH  20  21
ENDBRANCH  19  20
ENDBRANCH  18  19
ENDBRANCH  17  18
ENDBRANCH   1  17
TORSDOF 26
ENDMDL
MODEL 9
REMARK VINA RESULT:    -2.434     14.842     18.820
REMARK INTER + INTRA:         -12.164
REMARK INTER:                  -7.278
REMARK INTRA:                  -4.886
REMARK UNBOUND:                -6.030
REMARK SMILES CCCCCCCCCCCCCCCCCCCCCCCCCCCC(=O)[O-]
REMARK SMILES IDX 15 1 16 2 17 3 18 4 19 5 20 6 21 7 22 8 23 9 24 10 25 11
REMARK SMILES IDX 26 12 27 13 28 14 29 15 30 16 14 17 13 18 12 19 11 20 10 21
REMARK SMILES IDX 9 22 8 23 7 24 6 25 5 26 4 27 3 28 2 29 1 30
REMARK H PARENT
REMARK Flexibility Score: inf
ROOT
ATOM      1  C   UNL     1      14.925   0.087 200.952  1.00  0.00     0.000 C 
ENDROOT
BRANCH   1   2
ATOM      2  C   UNL     1      14.101   1.380 200.894  1.00  0.00     0.000 C 
BRANCH   2   3
ATOM      3  C   UNL     1      14.916   2.628 201.276  1.00  0.00     0.000 C 
BRANCH   3   4
ATOM      4  C   UNL     1      14.575   3.155 202.682  1.00  0.00     0.000 C 
BRANCH   4   5
ATOM      5  C   UNL     1      13.160   2.804 203.179  1.00  0.00     0.000 C 
BRANCH   5   6
ATOM      6  C   UNL     1      12.393   4.025 203.717  1.00  0.00     0.000 C 
BRANCH   6   7
ATOM      7  C   UNL     1      10.868   3.879 203.537  1.00  0.00     0.000 C 
BRANCH   7   8
ATOM      8  C   UNL     1      10.465   2.901 202.420  1.00  0.00     0.000 C 
BRANCH   8   9
ATOM      9  C   UNL     1       9.229   2.062 202.771  1.00  0.00     0.000 C 
BRANCH   9  10
ATOM     10  C   UNL     1       7.945   2.747 202.284  1.00  0.00     0.000 C 
BRANCH  10  11
ATOM     11  C   UNL     1       7.198   1.924 201.220  1.00  0.00     0.000 C 
BRANCH  11  12
ATOM     12  C   UNL     1       7.959   0.685 200.710  1.00  0.00     0.006 C 
BRANCH  12  13
ATOM     13  C   UNL     1       8.197   0.687 199.184  1.00  0.00     0.053 C 
BRANCH  13  14
ATOM     14  C   UNL     1       8.177  -0.699 198.611  1.00  0.00     0.041 C 
ATOM     15  O   UNL     1       7.111  -1.371 198.593  1.00  0.00    -0.550 OA
ATOM     16  O   UNL     1       9.342  -1.252 198.091  1.00  0.00    -0.550 OA
ENDBRANCH  13  14
ENDBRANCH  12  13
ENDBRANCH  11  12
ENDBRANCH  10  11
ENDBRANCH   9  10
ENDBRANCH   8   9
ENDBRANCH   7   8
ENDBRANCH   6   7
ENDBRANCH   5   6
ENDBRANCH   4   5
ENDBRANCH   3   4
ENDBRANCH   2   3
ENDBRANCH   1   2
BRANCH   1  17
ATOM     17  C   UNL     1      15.022  -0.493 202.373  1.00  0.00     0.000 C 
BRANCH  17  18
ATOM     18  C   UNL     1      15.306  -2.002 202.353  1.00  0.00     0.000 C 
BRANCH  18  19
ATOM     19  C   UNL     1      14.158  -2.827 202.982  1.00  0.00     0.000 C 
BRANCH  19  20
ATOM     20  C   UNL     1      13.353  -2.036 204.031  1.00  0.00     0.000 C 
BRANCH  20  21
ATOM     21  C   UNL     1      11.848  -1.919 203.713  1.00  0.00     0.000 C 
BRANCH  21  22
ATOM     22  C   UNL     1      11.446  -0.627 202.979  1.00  0.00    -0.000 C 
BRANCH  22  23
ATOM     23  C   UNL     1      11.237  -0.838 201.473  1.00  0.00    -0.000 C 
BRANCH  23  24
ATOM     24  C   UNL     1      10.748  -2.264 201.190  1.00  0.00    -0.000 C 
BRANCH  24  25
ATOM     25  C   UNL     1      11.757  -3.037 200.330  1.00  0.00    -0.000 C 
BRANCH  25  26
ATOM     26  C   UNL     1      12.548  -2.128 199.370  1.00  0.00    -0.000 C 
BRANCH  26  27
ATOM     27  C   UNL     1      13.840  -2.741 198.801  1.00  0.00    -0.000 C 
BRANCH  27  28
ATOM     28  C   UNL     1      13.888  -4.272 198.938  1.00  0.00    -0.000 C 
BRANCH  28  29
ATOM     29  C   UNL     1      14.980  -4.743 199.911  1.00  0.00    -0.003 C 
ATOM     30  C   UNL     1      15.719  -5.988 199.418  1.00  0.00     0.004 C 
ENDBRANCH  28  29
ENDBRANCH  27  28
ENDBRANCH  26  27
ENDBRANCH  25  26
ENDBRANCH  24  25
ENDBRANCH  23  24
ENDBRANCH  22  23
ENDBRANCH  21  22
ENDBRANCH  20  21
ENDBRANCH  19  20
ENDBRANCH  18  19
ENDBRANCH  17  18
ENDBRANCH   1  17
TORSDOF 26
ENDMDL
