MODEL 1
REMARK VINA RESULT:    -2.815      0.000      0.000
REMARK INTER + INTRA:          -7.493
REMARK INTER:                  -6.436
REMARK INTRA:                  -1.057
REMARK UNBOUND:                -1.057
REMARK SMILES CCCCCCCCCCCCCCCCCCCCCCCC(=O)[O-]
REMARK SMILES IDX 13 1 14 2 15 3 16 4 17 5 18 6 19 7 20 8 21 9 22 10 23 11
REMARK SMILES IDX 24 12 25 13 26 14 12 15 11 16 10 17 9 18 8 19 7 20 6 21 5 22
REMARK SMILES IDX 4 23 3 24 2 25 1 26
REMARK H PARENT
REMARK Flexibility Score: inf
ROOT
ATOM      1  C   UNL     1      -1.172 -50.519   3.584  1.00  0.00     0.000 C 
ENDROOT
BRANCH   1   2
ATOM      2  C   UNL     1      -1.718 -50.459   2.146  1.00  0.00     0.000 C 
BRANCH   2   3
ATOM      3  C   UNL     1      -1.154 -51.566   1.244  1.00  0.00     0.000 C 
BRANCH   3   4
ATOM      4  C   UNL     1      -1.653 -51.400  -0.200  1.00  0.00     0.000 C 
BRANCH   4   5
ATOM      5  C   UNL     1      -3.043 -52.018  -0.421  1.00  0.00     0.000 C 
BRANCH   5   6
ATOM      6  C   UNL     1      -4.175 -51.133   0.128  1.00  0.00     0.000 C 
BRANCH   6   7
ATOM      7  C   UNL     1      -5.167 -51.919   1.002  1.00  0.00     0.000 C 
BRANCH   7   8
ATOM      8  C   UNL     1      -6.528 -52.125   0.319  1.00  0.00     0.000 C 
BRANCH   8   9
ATOM      9  C   UNL     1      -7.574 -51.147   0.867  1.00  0.00     0.000 C 
BRANCH   9  10
ATOM     10  C   UNL     1      -8.306 -51.748   2.076  1.00  0.00     0.006 C 
BRANCH  10  11
ATOM     11  C   UNL     1      -7.528 -51.550   3.384  1.00  0.00     0.053 C 
BRANCH  11  12
ATOM     12  C   UNL     1      -8.214 -50.580   4.299  1.00  0.00     0.041 C 
ATOM     13  O   UNL     1      -8.907 -49.641   3.823  1.00  0.00    -0.550 OA
ATOM     14  O   UNL     1      -8.096 -50.719   5.677  1.00  0.00    -0.550 OA
ENDBRANCH  11  12
ENDBRANCH  10  11
ENDBRANCH   9  10
ENDBRANCH   8   9
ENDBRANCH   7   8
ENDBRANCH   6   7
ENDBRANCH   5   6
ENDBRANCH   4   5
ENDBRANCH   3   4
ENDBRANCH   2   3
ENDBRANCH   1   2
BRANCH   1  15
ATOM     15  C   UNL     1      -1.292 -51.895   4.271  1.00  0.00     0.000 C 
BRANCH  15  16
ATOM     16  C   UNL     1      -0.363 -52.107   5.483  1.00  0.00     0.000 C 
BRANCH  16  17
ATOM     17  C   UNL     1      -1.065 -52.057   6.852  1.00  0.00     0.000 C 
BRANCH  17  18
ATOM     18  C   UNL     1      -2.364 -51.232   6.825  1.00  0.00    -0.000 C 
BRANCH  18  19
ATOM     19  C   UNL     1      -3.466 -51.833   7.713  1.00  0.00    -0.000 C 
BRANCH  19  20
ATOM     20  C   UNL     1      -3.142 -51.716   9.213  1.00  0.00    -0.000 C 
BRANCH  20  21
ATOM     21  C   UNL     1      -4.406 -51.697  10.089  1.00  0.00    -0.000 C 
BRANCH  21  22
ATOM     22  C   UNL     1      -5.294 -50.472   9.823  1.00  0.00    -0.000 C 
BRANCH  22  23
ATOM     23  C   UNL     1      -6.780 -50.863   9.822  1.00  0.00    -0.000 C 
BRANCH  23  24
ATOM     24  C   UNL     1      -7.628 -49.970   8.902  1.00  0.00    -0.000 C 
BRANCH  24  25
ATOM     25  C   UNL     1      -8.964 -49.565   9.539  1.00  0.00    -0.003 C 
ATOM     26  C   UNL     1      -9.017 -48.062   9.796  1.00  0.00     0.004 C 
ENDBRANCH  24  25
ENDBRANCH  23  24
ENDBRANCH  22  23
ENDBRANCH  21  22
ENDBRANCH  20  21
ENDBRANCH  19  20
ENDBRANCH  18  19
ENDBRANCH  17  18
ENDBRANCH  16  17
ENDBRANCH  15  16
ENDBRANCH   1  15
TORSDOF 22
ENDMDL
MODEL 2
REMARK VINA RESULT:    -1.570      1.889      7.039
REMARK INTER + INTRA:          -4.646
REMARK INTER:                  -2.469
REMARK INTRA:                  -2.177
REMARK UNBOUND:                -1.057
REMARK SMILES CCCCCCCCCCCCCCCCCCCCCCCC(=O)[O-]
REMARK SMILES IDX 13 1 14 2 15 3 16 4 17 5 18 6 19 7 20 8 21 9 22 10 23 11
REMARK SMILES IDX 24 12 25 13 26 14 12 15 11 16 10 17 9 18 8 19 7 20 6 21 5 22
REMARK SMILES IDX 4 23 3 24 2 25 1 26
REMARK H PARENT
REMARK Flexibility Score: inf
ROOT
ATOM      1  C   UNL     1      -3.619 -51.882   1.547  1.00  0.00     0.000 C 
ENDROOT
BRANCH   1   2
ATOM      2  C   UNL     1      -2.809 -52.093   2.839  1.00  0.00     0.000 C 
BRANCH   2   3
ATOM      3  C   UNL     1      -1.919 -50.892   3.190  1.00  0.00     0.000 C 
BRANCH   3   4
ATOM      4  C   UNL     1      -0.912 -51.263   4.289  1.00  0.00     0.000 C 
BRANCH   4   5
ATOM      5  C   UNL     1      -1.535 -52.125   5.398  1.00  0.00     0.000 C 
BRANCH   5   6
ATOM      6  C   UNL     1      -1.250 -51.571   6.805  1.00  0.00     0.000 C 
BRANCH   6   7
ATOM      7  C   UNL     1      -2.230 -52.109   7.861  1.00  0.00     0.000 C 
BRANCH   7   8
ATOM      8  C   UNL     1      -2.682 -51.029   8.858  1.00  0.00     0.000 C 
BRANCH   8   9
ATOM      9  C   UNL     1      -3.416 -51.653  10.050  1.00  0.00     0.000 C 
BRANCH   9  10
ATOM     10  C   UNL     1      -4.863 -52.009   9.678  1.00  0.00     0.006 C 
BRANCH  10  11
ATOM     11  C   UNL     1      -5.591 -50.845   8.992  1.00  0.00     0.053 C 
BRANCH  11  12
ATOM     12  C   UNL     1      -7.044 -50.803   9.359  1.00  0.00     0.041 C 
ATOM     13  O   UNL     1      -7.765 -49.840   8.983  1.00  0.00    -0.550 OA
ATOM     14  O   UNL     1      -7.604 -51.833  10.105  1.00  0.00    -0.550 OA
ENDBRANCH  11  12
ENDBRANCH  10  11
ENDBRANCH   9  10
ENDBRANCH   8   9
ENDBRANCH   7   8
ENDBRANCH   6   7
ENDBRANCH   5   6
ENDBRANCH   4   5
ENDBRANCH   3   4
ENDBRANCH   2   3
ENDBRANCH   1   2
BRANCH   1  15
ATOM     15  C   UNL     1      -3.605 -50.442   0.995  1.00  0.00     0.000 C 
BRANCH  15  16
ATOM     16  C   UNL     1      -4.323 -50.249  -0.356  1.00  0.00     0.000 C 
BRANCH  16  17
ATOM     17  C   UNL     1      -5.364 -51.331  -0.696  1.00  0.00     0.000 C 
BRANCH  17  18
ATOM     18  C   UNL     1      -6.807 -50.878  -0.414  1.00  0.00    -0.000 C 
BRANCH  18  19
ATOM     19  C   UNL     1      -7.850 -51.924  -0.839  1.00  0.00    -0.000 C 
BRANCH  19  20
ATOM     20  C   UNL     1      -9.068 -51.957   0.101  1.00  0.00    -0.000 C 
BRANCH  20  21
ATOM     21  C   UNL     1      -8.668 -52.124   1.576  1.00  0.00    -0.000 C 
BRANCH  21  22
ATOM     22  C   UNL     1      -8.955 -50.868   2.414  1.00  0.00    -0.000 C 
BRANCH  22  23
ATOM     23  C   UNL     1      -8.574 -51.093   3.885  1.00  0.00    -0.000 C 
BRANCH  23  24
ATOM     24  C   UNL     1      -7.159 -51.670   4.051  1.00  0.00    -0.000 C 
BRANCH  24  25
ATOM     25  C   UNL     1      -6.700 -51.700   5.515  1.00  0.00    -0.003 C 
ATOM     26  C   UNL     1      -5.237 -52.125   5.623  1.00  0.00     0.004 C 
ENDBRANCH  24  25
ENDBRANCH  23  24
ENDBRANCH  22  23
ENDBRANCH  21  22
ENDBRANCH  20  21
ENDBRANCH  19  20
ENDBRANCH  18  19
ENDBRANCH  17  18
ENDBRANCH  16  17
ENDBRANCH  15  16
ENDBRANCH   1  15
TORSDOF 22
ENDMDL
MODEL 3
REMARK VINA RESULT:    -1.159      3.600      5.707
REMARK INTER + INTRA:          -3.707
REMARK INTER:                  -3.551
REMARK INTRA:                  -0.156
REMARK UNBOUND:                -1.057
REMARK SMILES CCCCCCCCCCCCCCCCCCCCCCCC(=O)[O-]
REMARK SMILES IDX 13 1 14 2 15 3 16 4 17 5 18 6 19 7 20 8 21 9 22 10 23 11
REMARK SMILES IDX 24 12 25 13 26 14 12 15 11 16 10 17 9 18 8 19 7 20 6 21 5 22
REMARK SMILES IDX 4 23 3 24 2 25 1 26
REMARK H PARENT
REMARK Flexibility Score: inf
ROOT
ATOM      1  C   UNL     1      -6.296 -51.555   2.628  1.00  0.00     0.000 C 
ENDROOT
BRANCH   1   2
ATOM      2  C   UNL     1      -7.613 -51.641   3.421  1.00  0.00     0.000 C 
BRANCH   2   3
ATOM      3  C   UNL     1      -8.848 -51.315   2.568  1.00  0.00     0.000 C 
BRANCH   3   4
ATOM      4  C   UNL     1      -8.438 -50.934   1.138  1.00  0.00     0.000 C 
BRANCH   4   5
ATOM      5  C   UNL     1      -7.696 -52.067   0.411  1.00  0.00     0.000 C 
BRANCH   5   6
ATOM      6  C   UNL     1      -6.973 -51.580  -0.857  1.00  0.00     0.000 C 
BRANCH   6   7
ATOM      7  C   UNL     1      -5.539 -52.125  -0.964  1.00  0.00     0.000 C 
BRANCH   7   8
ATOM      8  C   UNL     1      -4.473 -51.030  -0.795  1.00  0.00     0.000 C 
BRANCH   8   9
ATOM      9  C   UNL     1      -3.207 -51.591  -0.136  1.00  0.00     0.000 C 
BRANCH   9  10
ATOM     10  C   UNL     1      -2.036 -51.611  -1.129  1.00  0.00     0.006 C 
BRANCH  10  11
ATOM     11  C   UNL     1      -0.711 -52.001  -0.459  1.00  0.00     0.053 C 
BRANCH  11  12
ATOM     12  C   UNL     1       0.427 -52.002  -1.434  1.00  0.00     0.041 C 
ATOM     13  O   UNL     1       1.615 -52.092  -1.021  1.00  0.00    -0.550 OA
ATOM     14  O   UNL     1       0.177 -51.915  -2.798  1.00  0.00    -0.550 OA
ENDBRANCH  11  12
ENDBRANCH  10  11
ENDBRANCH   9  10
ENDBRANCH   8   9
ENDBRANCH   7   8
ENDBRANCH   6   7
ENDBRANCH   5   6
ENDBRANCH   4   5
ENDBRANCH   3   4
ENDBRANCH   2   3
ENDBRANCH   1   2
BRANCH   1  15
ATOM     15  C   UNL     1      -5.019 -51.806   3.456  1.00  0.00     0.000 C 
BRANCH  15  16
ATOM     16  C   UNL     1      -3.693 -51.581   2.701  1.00  0.00     0.000 C 
BRANCH  16  17
ATOM     17  C   UNL     1      -2.424 -51.834   3.535  1.00  0.00     0.000 C 
BRANCH  17  18
ATOM     18  C   UNL     1      -2.716 -51.955   5.041  1.00  0.00    -0.000 C 
BRANCH  18  19
ATOM     19  C   UNL     1      -2.617 -50.607   5.774  1.00  0.00    -0.000 C 
BRANCH  19  20
ATOM     20  C   UNL     1      -2.780 -50.753   7.297  1.00  0.00    -0.000 C 
BRANCH  20  21
ATOM     21  C   UNL     1      -3.629 -51.975   7.685  1.00  0.00    -0.000 C 
BRANCH  21  22
ATOM     22  C   UNL     1      -3.795 -52.123   9.206  1.00  0.00    -0.000 C 
BRANCH  22  23
ATOM     23  C   UNL     1      -4.932 -51.229   9.723  1.00  0.00    -0.000 C 
BRANCH  23  24
ATOM     24  C   UNL     1      -5.940 -50.855   8.624  1.00  0.00    -0.000 C 
BRANCH  24  25
ATOM     25  C   UNL     1      -6.907 -51.999   8.292  1.00  0.00    -0.003 C 
ATOM     26  C   UNL     1      -8.259 -51.790   8.969  1.00  0.00     0.004 C 
ENDBRANCH  24  25
ENDBRANCH  23  24
ENDBRANCH  22  23
ENDBRANCH  21  22
ENDBRANCH  20  21
ENDBRANCH  19  20
ENDBRANCH  18  19
ENDBRANCH  17  18
ENDBRANCH  16  17
ENDBRANCH  15  16
ENDBRANCH   1  15
TORSDOF 22
ENDMDL
MODEL 4
REMARK VINA RESULT:    -0.895      2.197      5.753
REMARK INTER + INTRA:          -3.102
REMARK INTER:                  -2.025
REMARK INTRA:                  -1.078
REMARK UNBOUND:                -1.057
REMARK SMILES CCCCCCCCCCCCCCCCCCCCCCCC(=O)[O-]
REMARK SMILES IDX 13 1 14 2 15 3 16 4 17 5 18 6 19 7 20 8 21 9 22 10 23 11
REMARK SMILES IDX 24 12 25 13 26 14 12 15 11 16 10 17 9 18 8 19 7 20 6 21 5 22
REMARK SMILES IDX 4 23 3 24 2 25 1 26
REMARK H PARENT
REMARK Flexibility Score: inf
ROOT
ATOM      1  C   UNL     1      -1.693 -50.966   8.965  1.00  0.00     0.000 C 
ENDROOT
BRANCH   1   2
ATOM      2  C   UNL     1      -1.406 -52.076   7.938  1.00  0.00     0.000 C 
BRANCH   2   3
ATOM      3  C   UNL     1      -2.439 -52.125   6.803  1.00  0.00     0.000 C 
BRANCH   3   4
ATOM      4  C   UNL     1      -1.912 -51.399   5.556  1.00  0.00     0.000 C 
BRANCH   4   5
ATOM      5  C   UNL     1      -2.560 -51.904   4.258  1.00  0.00     0.000 C 
BRANCH   5   6
ATOM      6  C   UNL     1      -1.553 -52.016   3.100  1.00  0.00     0.000 C 
BRANCH   6   7
ATOM      7  C   UNL     1      -1.807 -50.978   1.994  1.00  0.00     0.000 C 
BRANCH   7   8
ATOM      8  C   UNL     1      -0.962 -51.232   0.735  1.00  0.00     0.000 C 
BRANCH   8   9
ATOM      9  C   UNL     1      -1.848 -51.621  -0.454  1.00  0.00     0.000 C 
BRANCH   9  10
ATOM     10  C   UNL     1      -3.199 -50.892  -0.392  1.00  0.00     0.006 C 
BRANCH  10  11
ATOM     11  C   UNL     1      -4.383 -51.865  -0.318  1.00  0.00     0.053 C 
BRANCH  11  12
ATOM     12  C   UNL     1      -5.621 -51.284  -0.932  1.00  0.00     0.041 C 
ATOM     13  O   UNL     1      -5.749 -50.035  -1.040  1.00  0.00    -0.550 OA
ATOM     14  O   UNL     1      -6.629 -52.123  -1.393  1.00  0.00    -0.550 OA
ENDBRANCH  11  12
ENDBRANCH  10  11
ENDBRANCH   9  10
ENDBRANCH   8   9
ENDBRANCH   7   8
ENDBRANCH   6   7
ENDBRANCH   5   6
ENDBRANCH   4   5
ENDBRANCH   3   4
ENDBRANCH   2   3
ENDBRANCH   1   2
BRANCH   1  15
ATOM     15  C   UNL     1      -2.756 -51.318  10.027  1.00  0.00     0.000 C 
BRANCH  15  16
ATOM     16  C   UNL     1      -4.040 -51.973   9.479  1.00  0.00     0.000 C 
BRANCH  16  17
ATOM     17  C   UNL     1      -5.346 -51.462  10.112  1.00  0.00     0.000 C 
BRANCH  17  18
ATOM     18  C   UNL     1      -6.593 -51.840   9.292  1.00  0.00    -0.000 C 
BRANCH  18  19
ATOM     19  C   UNL     1      -7.312 -50.613   8.708  1.00  0.00    -0.000 C 
BRANCH  19  20
ATOM     20  C   UNL     1      -8.375 -50.995   7.664  1.00  0.00    -0.000 C 
BRANCH  20  21
ATOM     21  C   UNL     1      -7.812 -51.895   6.552  1.00  0.00    -0.000 C 
BRANCH  21  22
ATOM     22  C   UNL     1      -8.730 -51.963   5.322  1.00  0.00    -0.000 C 
BRANCH  22  23
ATOM     23  C   UNL     1      -8.272 -50.971   4.242  1.00  0.00    -0.000 C 
BRANCH  23  24
ATOM     24  C   UNL     1      -7.288 -51.596   3.240  1.00  0.00    -0.000 C 
BRANCH  24  25
ATOM     25  C   UNL     1      -7.820 -51.582   1.800  1.00  0.00    -0.003 C 
ATOM     26  C   UNL     1      -8.880 -50.499   1.617  1.00  0.00     0.004 C 
ENDBRANCH  24  25
ENDBRANCH  23  24
ENDBRANCH  22  23
ENDBRANCH  21  22
ENDBRANCH  20  21
ENDBRANCH  19  20
ENDBRANCH  18  19
ENDBRANCH  17  18
ENDBRANCH  16  17
ENDBRANCH  15  16
ENDBRANCH   1  15
TORSDOF 22
ENDMDL
MODEL 5
REMARK VINA RESULT:    -0.828      1.610      3.250
REMARK INTER + INTRA:          -2.950
REMARK INTER:                  -1.979
REMARK INTRA:                  -0.971
REMARK UNBOUND:                -1.057
REMARK SMILES CCCCCCCCCCCCCCCCCCCCCCCC(=O)[O-]
REMARK SMILES IDX 13 1 14 2 15 3 16 4 17 5 18 6 19 7 20 8 21 9 22 10 23 11
REMARK SMILES IDX 24 12 25 13 26 14 12 15 11 16 10 17 9 18 8 19 7 20 6 21 5 22
REMARK SMILES IDX 4 23 3 24 2 25 1 26
REMARK H PARENT
REMARK Flexibility Score: inf
ROOT
ATOM      1  C   UNL     1      -1.114 -50.272   5.344  1.00  0.00     0.000 C 
ENDROOT
BRANCH   1   2
ATOM      2  C   UNL     1      -1.746 -51.553   4.770  1.00  0.00     0.000 C 
BRANCH   2   3
ATOM      3  C   UNL     1      -2.502 -51.311   3.455  1.00  0.00     0.000 C 
BRANCH   3   4
ATOM      4  C   UNL     1      -1.867 -52.110   2.307  1.00  0.00     0.000 C 
BRANCH   4   5
ATOM      5  C   UNL     1      -0.953 -51.250   1.420  1.00  0.00     0.000 C 
BRANCH   5   6
ATOM      6  C   UNL     1      -1.691 -50.673   0.199  1.00  0.00     0.000 C 
BRANCH   6   7
ATOM      7  C   UNL     1      -2.506 -51.737  -0.556  1.00  0.00     0.000 C 
BRANCH   7   8
ATOM      8  C   UNL     1      -3.801 -52.124   0.178  1.00  0.00     0.000 C 
BRANCH   8   9
ATOM      9  C   UNL     1      -4.861 -51.026   0.040  1.00  0.00     0.000 C 
BRANCH   9  10
ATOM     10  C   UNL     1      -6.265 -51.634  -0.098  1.00  0.00     0.006 C 
BRANCH  10  11
ATOM     11  C   UNL     1      -6.945 -51.845   1.261  1.00  0.00     0.053 C 
BRANCH  11  12
ATOM     12  C   UNL     1      -8.437 -51.750   1.159  1.00  0.00     0.041 C 
ATOM     13  O   UNL     1      -9.125 -51.458   2.174  1.00  0.00    -0.550 OA
ATOM     14  O   UNL     1      -9.068 -51.973  -0.059  1.00  0.00    -0.550 OA
ENDBRANCH  11  12
ENDBRANCH  10  11
ENDBRANCH   9  10
ENDBRANCH   8   9
ENDBRANCH   7   8
ENDBRANCH   6   7
ENDBRANCH   5   6
ENDBRANCH   4   5
ENDBRANCH   3   4
ENDBRANCH   2   3
ENDBRANCH   1   2
BRANCH   1  15
ATOM     15  C   UNL     1      -0.849 -50.299   6.863  1.00  0.00     0.000 C 
BRANCH  15  16
ATOM     16  C   UNL     1      -2.094 -50.532   7.743  1.00  0.00     0.000 C 
BRANCH  16  17
ATOM     17  C   UNL     1      -2.225 -51.955   8.315  1.00  0.00     0.000 C 
BRANCH  17  18
ATOM     18  C   UNL     1      -3.459 -52.123   9.218  1.00  0.00    -0.000 C 
BRANCH  18  19
ATOM     19  C   UNL     1      -4.563 -51.098   8.909  1.00  0.00    -0.000 C 
BRANCH  19  20
ATOM     20  C   UNL     1      -5.510 -50.876  10.101  1.00  0.00    -0.000 C 
BRANCH  20  21
ATOM     21  C   UNL     1      -6.984 -50.776   9.673  1.00  0.00    -0.000 C 
BRANCH  21  22
ATOM     22  C   UNL     1      -7.561 -52.125   9.217  1.00  0.00    -0.000 C 
BRANCH  22  23
ATOM     23  C   UNL     1      -8.282 -51.984   7.867  1.00  0.00    -0.000 C 
BRANCH  23  24
ATOM     24  C   UNL     1      -7.416 -51.296   6.800  1.00  0.00    -0.000 C 
BRANCH  24  25
ATOM     25  C   UNL     1      -7.855 -51.639   5.370  1.00  0.00    -0.003 C 
ATOM     26  C   UNL     1      -6.664 -52.071   4.518  1.00  0.00     0.004 C 
ENDBRANCH  24  25
ENDBRANCH  23  24
ENDBRANCH  22  23
ENDBRANCH  21  22
ENDBRANCH  20  21
ENDBRANCH  19  20
ENDBRANCH  18  19
ENDBRANCH  17  18
ENDBRANCH  16  17
ENDBRANCH  15  16
ENDBRANCH   1  15
TORSDOF 22
ENDMDL
MODEL 6
REMARK VINA RESULT:     0.064      1.467      3.360
REMARK INTER + INTRA:          -0.912
REMARK INTER:                  -2.667
REMARK INTRA:                   1.756
REMARK UNBOUND:                -1.057
REMARK SMILES CCCCCCCCCCCCCCCCCCCCCCCC(=O)[O-]
REMARK SMILES IDX 13 1 14 2 15 3 16 4 17 5 18 6 19 7 20 8 21 9 22 10 23 11
REMARK SMILES IDX 24 12 25 13 26 14 12 15 11 16 10 17 9 18 8 19 7 20 6 21 5 22
REMARK SMILES IDX 4 23 3 24 2 25 1 26
REMARK H PARENT
REMARK Flexibility Score: inf
ROOT
ATOM      1  C   UNL     1      -3.424 -50.612   2.417  1.00  0.00     0.000 C 
ENDROOT
BRANCH   1   2
ATOM      2  C   UNL     1      -2.046 -50.862   1.779  1.00  0.00     0.000 C 
BRANCH   2   3
ATOM      3  C   UNL     1      -2.060 -50.721   0.250  1.00  0.00     0.000 C 
BRANCH   3   4
ATOM      4  C   UNL     1      -2.941 -51.805  -0.389  1.00  0.00     0.000 C 
BRANCH   4   5
ATOM      5  C   UNL     1      -4.194 -52.118   0.443  1.00  0.00     0.000 C 
BRANCH   5   6
ATOM      6  C   UNL     1      -5.415 -51.290   0.004  1.00  0.00     0.000 C 
BRANCH   6   7
ATOM      7  C   UNL     1      -6.706 -52.125  -0.048  1.00  0.00     0.000 C 
BRANCH   7   8
ATOM      8  C   UNL     1      -7.931 -51.300  -0.474  1.00  0.00     0.000 C 
BRANCH   8   9
ATOM      9  C   UNL     1      -8.956 -51.208   0.662  1.00  0.00     0.000 C 
BRANCH   9  10
ATOM     10  C   UNL     1      -8.259 -50.978   2.011  1.00  0.00     0.006 C 
BRANCH  10  11
ATOM     11  C   UNL     1      -9.104 -51.468   3.195  1.00  0.00     0.053 C 
BRANCH  11  12
ATOM     12  C   UNL     1      -8.503 -51.074   4.510  1.00  0.00     0.041 C 
ATOM     13  O   UNL     1      -7.852 -50.000   4.614  1.00  0.00    -0.550 OA
ATOM     14  O   UNL     1      -8.672 -51.888   5.624  1.00  0.00    -0.550 OA
ENDBRANCH  11  12
ENDBRANCH  10  11
ENDBRANCH   9  10
ENDBRANCH   8   9
ENDBRANCH   7   8
ENDBRANCH   6   7
ENDBRANCH   5   6
ENDBRANCH   4   5
ENDBRANCH   3   4
ENDBRANCH   2   3
ENDBRANCH   1   2
BRANCH   1  15
ATOM     15  C   UNL     1      -3.916 -51.726   3.364  1.00  0.00     0.000 C 
BRANCH  15  16
ATOM     16  C   UNL     1      -4.116 -51.300   4.832  1.00  0.00     0.000 C 
BRANCH  16  17
ATOM     17  C   UNL     1      -5.409 -51.820   5.486  1.00  0.00     0.000 C 
BRANCH  17  18
ATOM     18  C   UNL     1      -5.238 -52.125   6.984  1.00  0.00    -0.000 C 
BRANCH  18  19
ATOM     19  C   UNL     1      -6.499 -51.802   7.802  1.00  0.00    -0.000 C 
BRANCH  19  20
ATOM     20  C   UNL     1      -6.387 -50.463   8.552  1.00  0.00    -0.000 C 
BRANCH  20  21
ATOM     21  C   UNL     1      -5.403 -50.530   9.732  1.00  0.00    -0.000 C 
BRANCH  21  22
ATOM     22  C   UNL     1      -4.679 -51.882   9.826  1.00  0.00    -0.000 C 
BRANCH  22  23
ATOM     23  C   UNL     1      -3.159 -51.698   9.704  1.00  0.00    -0.000 C 
BRANCH  23  24
ATOM     24  C   UNL     1      -2.632 -52.023   8.297  1.00  0.00    -0.000 C 
BRANCH  24  25
ATOM     25  C   UNL     1      -1.610 -50.995   7.795  1.00  0.00    -0.003 C 
ATOM     26  C   UNL     1      -1.330 -51.180   6.306  1.00  0.00     0.004 C 
ENDBRANCH  24  25
ENDBRANCH  23  24
ENDBRANCH  22  23
ENDBRANCH  21  22
ENDBRANCH  20  21
ENDBRANCH  19  20
ENDBRANCH  18  19
ENDBRANCH  17  18
ENDBRANCH  16  17
ENDBRANCH  15  16
ENDBRANCH   1  15
TORSDOF 22
ENDMDL
