MODEL 1
REMARK VINA RESULT:    -2.680      0.000      0.000
REMARK INTER + INTRA:          -8.702
REMARK INTER:                  -7.066
REMARK INTRA:                  -1.635
REMARK UNBOUND:                -1.635
REMARK SMILES CCCCCCCCCCCCCCCCCCCCCCCCCCCCCC(=O)[O-]
REMARK SMILES IDX 16 1 17 2 18 3 19 4 20 5 21 6 22 7 23 8 24 9 25 10 26 11
REMARK SMILES IDX 27 12 28 13 29 14 30 15 31 16 32 17 15 18 14 19 13 20 12 21
REMARK SMILES IDX 11 22 10 23 9 24 8 25 7 26 6 27 5 28 4 29 3 30 2 31 1 32
REMARK H PARENT
REMARK Flexibility Score: inf
ROOT
ATOM      1  C   UNL     1      -9.280  -4.147  -6.357  1.00  0.00     0.000 C 
ENDROOT
BRANCH   1   2
ATOM      2  C   UNL     1     -10.004  -4.745  -7.575  1.00  0.00     0.000 C 
BRANCH   2   3
ATOM      3  C   UNL     1     -10.097  -6.284  -7.558  1.00  0.00     0.000 C 
BRANCH   3   4
ATOM      4  C   UNL     1     -10.870  -6.839  -8.767  1.00  0.00     0.000 C 
BRANCH   4   5
ATOM      5  C   UNL     1      -9.937  -7.449  -9.826  1.00  0.00     0.000 C 
BRANCH   5   6
ATOM      6  C   UNL     1      -8.611  -6.677  -9.948  1.00  0.00     0.000 C 
BRANCH   6   7
ATOM      7  C   UNL     1      -7.383  -7.548  -9.630  1.00  0.00     0.000 C 
BRANCH   7   8
ATOM      8  C   UNL     1      -6.083  -6.762  -9.364  1.00  0.00     0.000 C 
BRANCH   8   9
ATOM      9  C   UNL     1      -6.221  -5.572  -8.393  1.00  0.00     0.000 C 
BRANCH   9  10
ATOM     10  C   UNL     1      -6.365  -5.951  -6.907  1.00  0.00     0.000 C 
BRANCH  10  11
ATOM     11  C   UNL     1      -5.208  -6.828  -6.399  1.00  0.00     0.000 C 
BRANCH  11  12
ATOM     12  C   UNL     1      -4.044  -5.994  -5.839  1.00  0.00     0.000 C 
BRANCH  12  13
ATOM     13  C   UNL     1      -4.265  -4.481  -6.013  1.00  0.00     0.006 C 
BRANCH  13  14
ATOM     14  C   UNL     1      -3.008  -3.670  -5.670  1.00  0.00     0.053 C 
BRANCH  14  15
ATOM     15  C   UNL     1      -3.288  -2.200  -5.607  1.00  0.00     0.041 C 
ATOM     16  O   UNL     1      -3.468  -1.637  -4.496  1.00  0.00    -0.550 OA
ATOM     17  O   UNL     1      -3.319  -1.446  -6.775  1.00  0.00    -0.550 OA
ENDBRANCH  14  15
ENDBRANCH  13  14
ENDBRANCH  12  13
ENDBRANCH  11  12
ENDBRANCH  10  11
ENDBRANCH   9  10
ENDBRANCH   8   9
ENDBRANCH   7   8
ENDBRANCH   6   7
ENDBRANCH   5   6
ENDBRANCH   4   5
ENDBRANCH   3   4
ENDBRANCH   2   3
ENDBRANCH   1   2
BRANCH   1  18
ATOM     18  C   UNL     1     -10.050  -2.978  -5.721  1.00  0.00     0.000 C 
BRANCH  18  19
ATOM     19  C   UNL     1     -11.124  -3.430  -4.712  1.00  0.00     0.000 C 
BRANCH  19  20
ATOM     20  C   UNL     1     -10.602  -4.238  -3.509  1.00  0.00     0.000 C 
BRANCH  20  21
ATOM     21  C   UNL     1     -11.118  -3.711  -2.158  1.00  0.00     0.000 C 
BRANCH  21  22
ATOM     22  C   UNL     1     -10.005  -3.588  -1.106  1.00  0.00     0.000 C 
BRANCH  22  23
ATOM     23  C   UNL     1      -8.605  -3.487  -1.742  1.00  0.00     0.000 C 
BRANCH  23  24
ATOM     24  C   UNL     1      -8.486  -2.315  -2.729  1.00  0.00    -0.000 C 
BRANCH  24  25
ATOM     25  C   UNL     1      -7.363  -1.339  -2.353  1.00  0.00    -0.000 C 
BRANCH  25  26
ATOM     26  C   UNL     1      -7.647  -0.672  -1.002  1.00  0.00    -0.000 C 
BRANCH  26  27
ATOM     27  C   UNL     1      -7.381   0.839  -1.064  1.00  0.00    -0.000 C 
BRANCH  27  28
ATOM     28  C   UNL     1      -8.653   1.674  -0.848  1.00  0.00    -0.000 C 
BRANCH  28  29
ATOM     29  C   UNL     1      -8.356   3.163  -0.618  1.00  0.00    -0.000 C 
BRANCH  29  30
ATOM     30  C   UNL     1      -9.230   4.040  -1.527  1.00  0.00    -0.000 C 
BRANCH  30  31
ATOM     31  C   UNL     1      -8.701   5.477  -1.651  1.00  0.00    -0.003 C 
ATOM     32  C   UNL     1      -9.371   6.441  -0.671  1.00  0.00     0.004 C 
ENDBRANCH  30  31
ENDBRANCH  29  30
ENDBRANCH  28  29
ENDBRANCH  27  28
ENDBRANCH  26  27
ENDBRANCH  25  26
ENDBRANCH  24  25
ENDBRANCH  23  24
ENDBRANCH  22  23
ENDBRANCH  21  22
ENDBRANCH  20  21
ENDBRANCH  19  20
ENDBRANCH  18  19
ENDBRANCH   1  18
TORSDOF 28
ENDMDL
MODEL 2
REMARK VINA RESULT:    -2.381      1.539      2.172
REMARK INTER + INTRA:          -7.914
REMARK INTER:                  -6.531
REMARK INTRA:                  -1.382
REMARK UNBOUND:                -1.635
REMARK SMILES CCCCCCCCCCCCCCCCCCCCCCCCCCCCCC(=O)[O-]
REMARK SMILES IDX 16 1 17 2 18 3 19 4 20 5 21 6 22 7 23 8 24 9 25 10 26 11
REMARK SMILES IDX 27 12 28 13 29 14 30 15 31 16 32 17 15 18 14 19 13 20 12 21
REMARK SMILES IDX 11 22 10 23 9 24 8 25 7 26 6 27 5 28 4 29 3 30 2 31 1 32
REMARK H PARENT
REMARK Flexibility Score: inf
ROOT
ATOM      1  C   UNL     1      -9.271  -5.559  -6.460  1.00  0.00     0.000 C 
ENDROOT
BRANCH   1   2
ATOM      2  C   UNL     1     -10.697  -5.643  -7.029  1.00  0.00     0.000 C 
BRANCH   2   3
ATOM      3  C   UNL     1     -10.772  -6.235  -8.451  1.00  0.00     0.000 C 
BRANCH   3   4
ATOM      4  C   UNL     1     -11.098  -5.170  -9.513  1.00  0.00     0.000 C 
BRANCH   4   5
ATOM      5  C   UNL     1     -10.723  -3.752  -9.052  1.00  0.00     0.000 C 
BRANCH   5   6
ATOM      6  C   UNL     1      -9.935  -2.979 -10.125  1.00  0.00     0.000 C 
BRANCH   6   7
ATOM      7  C   UNL     1      -8.448  -2.814  -9.769  1.00  0.00     0.000 C 
BRANCH   7   8
ATOM      8  C   UNL     1      -7.596  -4.087  -9.938  1.00  0.00     0.000 C 
BRANCH   8   9
ATOM      9  C   UNL     1      -7.260  -4.834  -8.631  1.00  0.00     0.000 C 
BRANCH   9  10
ATOM     10  C   UNL     1      -5.979  -5.687  -8.674  1.00  0.00     0.000 C 
BRANCH  10  11
ATOM     11  C   UNL     1      -6.141  -7.048  -7.976  1.00  0.00     0.000 C 
BRANCH  11  12
ATOM     12  C   UNL     1      -5.657  -7.018  -6.517  1.00  0.00     0.000 C 
BRANCH  12  13
ATOM     13  C   UNL     1      -4.208  -6.515  -6.386  1.00  0.00     0.006 C 
BRANCH  13  14
ATOM     14  C   UNL     1      -4.085  -5.368  -5.373  1.00  0.00     0.053 C 
BRANCH  14  15
ATOM     15  C   UNL     1      -2.854  -4.546  -5.605  1.00  0.00     0.041 C 
ATOM     16  O   UNL     1      -2.947  -3.302  -5.772  1.00  0.00    -0.550 OA
ATOM     17  O   UNL     1      -1.602  -5.150  -5.604  1.00  0.00    -0.550 OA
ENDBRANCH  14  15
ENDBRANCH  13  14
ENDBRANCH  12  13
ENDBRANCH  11  12
ENDBRANCH  10  11
ENDBRANCH   9  10
ENDBRANCH   8   9
ENDBRANCH   7   8
ENDBRANCH   6   7
ENDBRANCH   5   6
ENDBRANCH   4   5
ENDBRANCH   3   4
ENDBRANCH   2   3
ENDBRANCH   1   2
BRANCH   1  18
ATOM     18  C   UNL     1      -9.087  -4.387  -5.481  1.00  0.00     0.000 C 
BRANCH  18  19
ATOM     19  C   UNL     1      -9.258  -4.791  -4.004  1.00  0.00     0.000 C 
BRANCH  19  20
ATOM     20  C   UNL     1     -10.709  -4.804  -3.487  1.00  0.00     0.000 C 
BRANCH  20  21
ATOM     21  C   UNL     1     -11.119  -3.486  -2.806  1.00  0.00     0.000 C 
BRANCH  21  22
ATOM     22  C   UNL     1     -11.125  -3.589  -1.272  1.00  0.00     0.000 C 
BRANCH  22  23
ATOM     23  C   UNL     1      -9.784  -3.152  -0.651  1.00  0.00     0.000 C 
BRANCH  23  24
ATOM     24  C   UNL     1      -8.575  -3.545  -1.514  1.00  0.00    -0.000 C 
BRANCH  24  25
ATOM     25  C   UNL     1      -7.908  -2.333  -2.180  1.00  0.00    -0.000 C 
BRANCH  25  26
ATOM     26  C   UNL     1      -7.905  -1.123  -1.239  1.00  0.00    -0.000 C 
BRANCH  26  27
ATOM     27  C   UNL     1      -7.032   0.010  -1.797  1.00  0.00    -0.000 C 
BRANCH  27  28
ATOM     28  C   UNL     1      -7.144   1.304  -0.976  1.00  0.00    -0.000 C 
BRANCH  28  29
ATOM     29  C   UNL     1      -8.593   1.646  -0.600  1.00  0.00    -0.000 C 
BRANCH  29  30
ATOM     30  C   UNL     1      -9.052   2.928  -1.309  1.00  0.00    -0.000 C 
BRANCH  30  31
ATOM     31  C   UNL     1      -8.479   4.200  -0.665  1.00  0.00    -0.003 C 
ATOM     32  C   UNL     1      -9.051   5.481  -1.273  1.00  0.00     0.004 C 
ENDBRANCH  30  31
ENDBRANCH  29  30
ENDBRANCH  28  29
ENDBRANCH  27  28
ENDBRANCH  26  27
ENDBRANCH  25  26
ENDBRANCH  24  25
ENDBRANCH  23  24
ENDBRANCH  22  23
ENDBRANCH  21  22
ENDBRANCH  20  21
ENDBRANCH  19  20
ENDBRANCH  18  19
ENDBRANCH   1  18
TORSDOF 28
ENDMDL
MODEL 3
REMARK VINA RESULT:    -1.966      1.910      3.115
REMARK INTER + INTRA:          -6.820
REMARK INTER:                  -4.925
REMARK INTRA:                  -1.895
REMARK UNBOUND:                -1.635
REMARK SMILES CCCCCCCCCCCCCCCCCCCCCCCCCCCCCC(=O)[O-]
REMARK SMILES IDX 16 1 17 2 18 3 19 4 20 5 21 6 22 7 23 8 24 9 25 10 26 11
REMARK SMILES IDX 27 12 28 13 29 14 30 15 31 16 32 17 15 18 14 19 13 20 12 21
REMARK SMILES IDX 11 22 10 23 9 24 8 25 7 26 6 27 5 28 4 29 3 30 2 31 1 32
REMARK H PARENT
REMARK Flexibility Score: inf
ROOT
ATOM      1  C   UNL     1      -7.710  -5.427  -5.138  1.00  0.00     0.000 C 
ENDROOT
BRANCH   1   2
ATOM      2  C   UNL     1      -8.649  -6.216  -6.065  1.00  0.00     0.000 C 
BRANCH   2   3
ATOM      3  C   UNL     1     -10.122  -6.221  -5.609  1.00  0.00     0.000 C 
BRANCH   3   4
ATOM      4  C   UNL     1     -11.081  -5.746  -6.715  1.00  0.00     0.000 C 
BRANCH   4   5
ATOM      5  C   UNL     1     -10.767  -6.390  -8.075  1.00  0.00     0.000 C 
BRANCH   5   6
ATOM      6  C   UNL     1     -10.894  -5.389  -9.238  1.00  0.00     0.000 C 
BRANCH   6   7
ATOM      7  C   UNL     1     -10.413  -3.976  -8.863  1.00  0.00     0.000 C 
BRANCH   7   8
ATOM      8  C   UNL     1      -9.371  -3.371  -9.825  1.00  0.00     0.000 C 
BRANCH   8   9
ATOM      9  C   UNL     1      -7.921  -3.853  -9.614  1.00  0.00     0.000 C 
BRANCH   9  10
ATOM     10  C   UNL     1      -7.780  -5.293  -9.088  1.00  0.00     0.000 C 
BRANCH  10  11
ATOM     11  C   UNL     1      -7.168  -6.251 -10.125  1.00  0.00     0.000 C 
BRANCH  11  12
ATOM     12  C   UNL     1      -6.260  -7.310  -9.478  1.00  0.00     0.000 C 
BRANCH  12  13
ATOM     13  C   UNL     1      -6.114  -7.115  -7.958  1.00  0.00     0.006 C 
BRANCH  13  14
ATOM     14  C   UNL     1      -4.942  -6.190  -7.604  1.00  0.00     0.053 C 
BRANCH  14  15
ATOM     15  C   UNL     1      -4.437  -6.432  -6.215  1.00  0.00     0.041 C 
ATOM     16  O   UNL     1      -4.801  -7.454  -5.578  1.00  0.00    -0.550 OA
ATOM     17  O   UNL     1      -3.537  -5.544  -5.636  1.00  0.00    -0.550 OA
ENDBRANCH  14  15
ENDBRANCH  13  14
ENDBRANCH  12  13
ENDBRANCH  11  12
ENDBRANCH  10  11
ENDBRANCH   9  10
ENDBRANCH   8   9
ENDBRANCH   7   8
ENDBRANCH   6   7
ENDBRANCH   5   6
ENDBRANCH   4   5
ENDBRANCH   3   4
ENDBRANCH   2   3
ENDBRANCH   1   2
BRANCH   1  18
ATOM     18  C   UNL     1      -8.464  -4.646  -4.049  1.00  0.00     0.000 C 
BRANCH  18  19
ATOM     19  C   UNL     1      -8.588  -3.140  -4.352  1.00  0.00     0.000 C 
BRANCH  19  20
ATOM     20  C   UNL     1      -9.748  -2.749  -5.288  1.00  0.00     0.000 C 
BRANCH  20  21
ATOM     21  C   UNL     1     -11.125  -2.821  -4.606  1.00  0.00     0.000 C 
BRANCH  21  22
ATOM     22  C   UNL     1     -11.103  -3.653  -3.314  1.00  0.00     0.000 C 
BRANCH  22  23
ATOM     23  C   UNL     1     -10.976  -2.776  -2.054  1.00  0.00     0.000 C 
BRANCH  23  24
ATOM     24  C   UNL     1      -9.876  -3.266  -1.099  1.00  0.00    -0.000 C 
BRANCH  24  25
ATOM     25  C   UNL     1      -9.091  -2.111  -0.462  1.00  0.00    -0.000 C 
BRANCH  25  26
ATOM     26  C   UNL     1      -7.645  -2.086  -0.971  1.00  0.00    -0.000 C 
BRANCH  26  27
ATOM     27  C   UNL     1      -7.434  -0.949  -1.983  1.00  0.00    -0.000 C 
BRANCH  27  28
ATOM     28  C   UNL     1      -7.219   0.414  -1.305  1.00  0.00    -0.000 C 
BRANCH  28  29
ATOM     29  C   UNL     1      -8.538   1.117  -0.952  1.00  0.00    -0.000 C 
BRANCH  29  30
ATOM     30  C   UNL     1      -8.291   2.590  -0.593  1.00  0.00    -0.000 C 
BRANCH  30  31
ATOM     31  C   UNL     1      -9.147   3.555  -1.428  1.00  0.00    -0.003 C 
ATOM     32  C   UNL     1      -8.806   5.023  -1.170  1.00  0.00     0.004 C 
ENDBRANCH  30  31
ENDBRANCH  29  30
ENDBRANCH  28  29
ENDBRANCH  27  28
ENDBRANCH  26  27
ENDBRANCH  25  26
ENDBRANCH  24  25
ENDBRANCH  23  24
ENDBRANCH  22  23
ENDBRANCH  21  22
ENDBRANCH  20  21
ENDBRANCH  19  20
ENDBRANCH  18  19
ENDBRANCH   1  18
TORSDOF 28
ENDMDL
MODEL 4
REMARK VINA RESULT:    -1.786      2.795      8.689
REMARK INTER + INTRA:          -6.346
REMARK INTER:                  -4.321
REMARK INTRA:                  -2.025
REMARK UNBOUND:                -1.635
REMARK SMILES CCCCCCCCCCCCCCCCCCCCCCCCCCCCCC(=O)[O-]
REMARK SMILES IDX 16 1 17 2 18 3 19 4 20 5 21 6 22 7 23 8 24 9 25 10 26 11
REMARK SMILES IDX 27 12 28 13 29 14 30 15 31 16 32 17 15 18 14 19 13 20 12 21
REMARK SMILES IDX 11 22 10 23 9 24 8 25 7 26 6 27 5 28 4 29 3 30 2 31 1 32
REMARK H PARENT
REMARK Flexibility Score: inf
ROOT
ATOM      1  C   UNL     1     -10.140  -4.748  -6.379  1.00  0.00     0.000 C 
ENDROOT
BRANCH   1   2
ATOM      2  C   UNL     1     -10.709  -5.788  -5.400  1.00  0.00     0.000 C 
BRANCH   2   3
ATOM      3  C   UNL     1     -10.805  -5.292  -3.943  1.00  0.00     0.000 C 
BRANCH   3   4
ATOM      4  C   UNL     1     -10.895  -3.758  -3.850  1.00  0.00     0.000 C 
BRANCH   4   5
ATOM      5  C   UNL     1     -10.902  -3.261  -2.395  1.00  0.00     0.000 C 
BRANCH   5   6
ATOM      6  C   UNL     1      -9.805  -3.928  -1.546  1.00  0.00     0.000 C 
BRANCH   6   7
ATOM      7  C   UNL     1      -8.474  -3.156  -1.579  1.00  0.00     0.000 C 
BRANCH   7   8
ATOM      8  C   UNL     1      -8.253  -2.298  -2.841  1.00  0.00     0.000 C 
BRANCH   8   9
ATOM      9  C   UNL     1      -7.343  -1.068  -2.651  1.00  0.00     0.000 C 
BRANCH   9  10
ATOM     10  C   UNL     1      -7.312  -0.491  -1.223  1.00  0.00     0.000 C 
BRANCH  10  11
ATOM     11  C   UNL     1      -8.498   0.443  -0.929  1.00  0.00     0.000 C 
BRANCH  11  12
ATOM     12  C   UNL     1      -8.053   1.776  -0.307  1.00  0.00     0.000 C 
BRANCH  12  13
ATOM     13  C   UNL     1      -8.371   2.983  -1.208  1.00  0.00     0.006 C 
BRANCH  13  14
ATOM     14  C   UNL     1      -8.837   4.201  -0.398  1.00  0.00     0.053 C 
BRANCH  14  15
ATOM     15  C   UNL     1      -8.828   5.455  -1.217  1.00  0.00     0.041 C 
ATOM     16  O   UNL     1      -8.384   5.439  -2.394  1.00  0.00    -0.550 OA
ATOM     17  O   UNL     1      -9.339   6.635  -0.690  1.00  0.00    -0.550 OA
ENDBRANCH  14  15
ENDBRANCH  13  14
ENDBRANCH  12  13
ENDBRANCH  11  12
ENDBRANCH  10  11
ENDBRANCH   9  10
ENDBRANCH   8   9
ENDBRANCH   7   8
ENDBRANCH   6   7
ENDBRANCH   5   6
ENDBRANCH   4   5
ENDBRANCH   3   4
ENDBRANCH   2   3
ENDBRANCH   1   2
BRANCH   1  18
ATOM     18  C   UNL     1     -10.630  -4.956  -7.822  1.00  0.00     0.000 C 
BRANCH  18  19
ATOM     19  C   UNL     1     -11.125  -3.660  -8.493  1.00  0.00     0.000 C 
BRANCH  19  20
ATOM     20  C   UNL     1     -10.332  -3.216  -9.737  1.00  0.00     0.000 C 
BRANCH  20  21
ATOM     21  C   UNL     1      -9.203  -4.191 -10.113  1.00  0.00     0.000 C 
BRANCH  21  22
ATOM     22  C   UNL     1      -7.814  -3.535 -10.064  1.00  0.00     0.000 C 
BRANCH  22  23
ATOM     23  C   UNL     1      -6.676  -4.574 -10.051  1.00  0.00     0.000 C 
BRANCH  23  24
ATOM     24  C   UNL     1      -7.137  -5.953  -9.554  1.00  0.00    -0.000 C 
BRANCH  24  25
ATOM     25  C   UNL     1      -7.030  -6.097  -8.030  1.00  0.00    -0.000 C 
BRANCH  25  26
ATOM     26  C   UNL     1      -5.898  -7.058  -7.648  1.00  0.00    -0.000 C 
BRANCH  26  27
ATOM     27  C   UNL     1      -5.778  -7.195  -6.123  1.00  0.00    -0.000 C 
BRANCH  27  28
ATOM     28  C   UNL     1      -5.745  -5.835  -5.408  1.00  0.00    -0.000 C 
BRANCH  28  29
ATOM     29  C   UNL     1      -4.878  -4.799  -6.138  1.00  0.00    -0.000 C 
BRANCH  29  30
ATOM     30  C   UNL     1      -3.394  -4.991  -5.793  1.00  0.00    -0.000 C 
BRANCH  30  31
ATOM     31  C   UNL     1      -2.712  -3.683  -5.366  1.00  0.00    -0.003 C 
ATOM     32  C   UNL     1      -3.270  -2.459  -6.092  1.00  0.00     0.004 C 
ENDBRANCH  30  31
ENDBRANCH  29  30
ENDBRANCH  28  29
ENDBRANCH  27  28
ENDBRANCH  26  27
ENDBRANCH  25  26
ENDBRANCH  24  25
ENDBRANCH  23  24
ENDBRANCH  22  23
ENDBRANCH  21  22
ENDBRANCH  20  21
ENDBRANCH  19  20
ENDBRANCH  18  19
ENDBRANCH   1  18
TORSDOF 28
ENDMDL
MODEL 5
REMARK VINA RESULT:    -1.143      3.541     10.092
REMARK INTER + INTRA:          -4.650
REMARK INTER:                  -2.527
REMARK INTRA:                  -2.123
REMARK UNBOUND:                -1.635
REMARK SMILES CCCCCCCCCCCCCCCCCCCCCCCCCCCCCC(=O)[O-]
REMARK SMILES IDX 16 1 17 2 18 3 19 4 20 5 21 6 22 7 23 8 24 9 25 10 26 11
REMARK SMILES IDX 27 12 28 13 29 14 30 15 31 16 32 17 15 18 14 19 13 20 12 21
REMARK SMILES IDX 11 22 10 23 9 24 8 25 7 26 6 27 5 28 4 29 3 30 2 31 1 32
REMARK H PARENT
REMARK Flexibility Score: inf
ROOT
ATOM      1  C   UNL     1     -11.083  -3.020  -4.005  1.00  0.00     0.000 C 
ENDROOT
BRANCH   1   2
ATOM      2  C   UNL     1     -10.397  -4.228  -3.345  1.00  0.00     0.000 C 
BRANCH   2   3
ATOM      3  C   UNL     1      -8.923  -3.983  -2.965  1.00  0.00     0.000 C 
BRANCH   3   4
ATOM      4  C   UNL     1      -8.740  -3.722  -1.459  1.00  0.00     0.000 C 
BRANCH   4   5
ATOM      5  C   UNL     1      -8.605  -2.225  -1.138  1.00  0.00     0.000 C 
BRANCH   5   6
ATOM      6  C   UNL     1      -7.743  -1.482  -2.176  1.00  0.00     0.000 C 
BRANCH   6   7
ATOM      7  C   UNL     1      -7.218  -0.132  -1.658  1.00  0.00     0.000 C 
BRANCH   7   8
ATOM      8  C   UNL     1      -8.085   0.524  -0.565  1.00  0.00     0.000 C 
BRANCH   8   9
ATOM      9  C   UNL     1      -8.977   1.688  -1.042  1.00  0.00     0.000 C 
BRANCH   9  10
ATOM     10  C   UNL     1      -8.297   3.069  -1.063  1.00  0.00     0.000 C 
BRANCH  10  11
ATOM     11  C   UNL     1      -9.264   4.206  -1.436  1.00  0.00     0.000 C 
BRANCH  11  12
ATOM     12  C   UNL     1      -8.587   5.586  -1.394  1.00  0.00     0.000 C 
BRANCH  12  13
ATOM     13  C   UNL     1      -9.535   6.694  -0.902  1.00  0.00     0.006 C 
BRANCH  13  14
ATOM     14  C   UNL     1      -9.020   7.370   0.376  1.00  0.00     0.053 C 
BRANCH  14  15
ATOM     15  C   UNL     1      -9.236   8.852   0.353  1.00  0.00     0.041 C 
ATOM     16  O   UNL     1      -9.121   9.491  -0.725  1.00  0.00    -0.550 OA
ATOM     17  O   UNL     1      -9.595   9.523   1.516  1.00  0.00    -0.550 OA
ENDBRANCH  14  15
ENDBRANCH  13  14
ENDBRANCH  12  13
ENDBRANCH  11  12
ENDBRANCH  10  11
ENDBRANCH   9  10
ENDBRANCH   8   9
ENDBRANCH   7   8
ENDBRANCH   6   7
ENDBRANCH   5   6
ENDBRANCH   4   5
ENDBRANCH   3   4
ENDBRANCH   2   3
ENDBRANCH   1   2
BRANCH   1  18
ATOM     18  C   UNL     1     -11.023  -3.066  -5.541  1.00  0.00     0.000 C 
BRANCH  18  19
ATOM     19  C   UNL     1     -10.658  -4.457  -6.097  1.00  0.00     0.000 C 
BRANCH  19  20
ATOM     20  C   UNL     1     -10.302  -4.496  -7.596  1.00  0.00     0.000 C 
BRANCH  20  21
ATOM     21  C   UNL     1     -10.351  -5.915  -8.190  1.00  0.00     0.000 C 
BRANCH  21  22
ATOM     22  C   UNL     1      -9.271  -6.148  -9.258  1.00  0.00     0.000 C 
BRANCH  22  23
ATOM     23  C   UNL     1      -8.461  -4.872  -9.560  1.00  0.00     0.000 C 
BRANCH  23  24
ATOM     24  C   UNL     1      -6.945  -5.120  -9.566  1.00  0.00    -0.000 C 
BRANCH  24  25
ATOM     25  C   UNL     1      -6.587  -6.594  -9.328  1.00  0.00    -0.000 C 
BRANCH  25  26
ATOM     26  C   UNL     1      -5.520  -6.728  -8.235  1.00  0.00    -0.000 C 
BRANCH  26  27
ATOM     27  C   UNL     1      -6.159  -7.048  -6.875  1.00  0.00    -0.000 C 
BRANCH  27  28
ATOM     28  C   UNL     1      -5.382  -6.439  -5.698  1.00  0.00    -0.000 C 
BRANCH  28  29
ATOM     29  C   UNL     1      -4.698  -5.113  -6.059  1.00  0.00    -0.000 C 
BRANCH  29  30
ATOM     30  C   UNL     1      -3.210  -5.147  -5.682  1.00  0.00    -0.000 C 
BRANCH  30  31
ATOM     31  C   UNL     1      -2.613  -3.744  -5.496  1.00  0.00    -0.003 C 
ATOM     32  C   UNL     1      -3.582  -2.631  -5.899  1.00  0.00     0.004 C 
ENDBRANCH  30  31
ENDBRANCH  29  30
ENDBRANCH  28  29
ENDBRANCH  27  28
ENDBRANCH  26  27
ENDBRANCH  25  26
ENDBRANCH  24  25
ENDBRANCH  23  24
ENDBRANCH  22  23
ENDBRANCH  21  22
ENDBRANCH  20  21
ENDBRANCH  19  20
ENDBRANCH  18  19
ENDBRANCH   1  18
TORSDOF 28
ENDMDL
MODEL 6
REMARK VINA RESULT:    -1.077      2.439      5.453
REMARK INTER + INTRA:          -4.474
REMARK INTER:                  -3.017
REMARK INTRA:                  -1.458
REMARK UNBOUND:                -1.635
REMARK SMILES CCCCCCCCCCCCCCCCCCCCCCCCCCCCCC(=O)[O-]
REMARK SMILES IDX 16 1 17 2 18 3 19 4 20 5 21 6 22 7 23 8 24 9 25 10 26 11
REMARK SMILES IDX 27 12 28 13 29 14 30 15 31 16 32 17 15 18 14 19 13 20 12 21
REMARK SMILES IDX 11 22 10 23 9 24 8 25 7 26 6 27 5 28 4 29 3 30 2 31 1 32
REMARK H PARENT
REMARK Flexibility Score: inf
ROOT
ATOM      1  C   UNL     1      -8.850  -3.326  -1.621  1.00  0.00     0.000 C 
ENDROOT
BRANCH   1   2
ATOM      2  C   UNL     1     -10.221  -3.319  -2.316  1.00  0.00     0.000 C 
BRANCH   2   3
ATOM      3  C   UNL     1     -10.163  -3.628  -3.825  1.00  0.00     0.000 C 
BRANCH   3   4
ATOM      4  C   UNL     1     -10.889  -4.936  -4.185  1.00  0.00     0.000 C 
BRANCH   4   5
ATOM      5  C   UNL     1     -10.068  -5.815  -5.142  1.00  0.00     0.000 C 
BRANCH   5   6
ATOM      6  C   UNL     1     -10.733  -5.952  -6.523  1.00  0.00     0.000 C 
BRANCH   6   7
ATOM      7  C   UNL     1     -10.210  -4.923  -7.541  1.00  0.00     0.000 C 
BRANCH   7   8
ATOM      8  C   UNL     1      -9.758  -5.518  -8.889  1.00  0.00     0.000 C 
BRANCH   8   9
ATOM      9  C   UNL     1      -8.438  -4.950  -9.450  1.00  0.00     0.000 C 
BRANCH   9  10
ATOM     10  C   UNL     1      -7.175  -5.756  -9.094  1.00  0.00     0.000 C 
BRANCH  10  11
ATOM     11  C   UNL     1      -6.369  -5.128  -7.945  1.00  0.00     0.000 C 
BRANCH  11  12
ATOM     12  C   UNL     1      -5.807  -6.184  -6.979  1.00  0.00     0.000 C 
BRANCH  12  13
ATOM     13  C   UNL     1      -4.705  -5.621  -6.064  1.00  0.00     0.006 C 
BRANCH  13  14
ATOM     14  C   UNL     1      -4.647  -4.088  -6.106  1.00  0.00     0.053 C 
BRANCH  14  15
ATOM     15  C   UNL     1      -3.335  -3.563  -5.610  1.00  0.00     0.041 C 
ATOM     16  O   UNL     1      -2.316  -4.302  -5.611  1.00  0.00    -0.550 OA
ATOM     17  O   UNL     1      -3.229  -2.247  -5.176  1.00  0.00    -0.550 OA
ENDBRANCH  14  15
ENDBRANCH  13  14
ENDBRANCH  12  13
ENDBRANCH  11  12
ENDBRANCH  10  11
ENDBRANCH   9  10
ENDBRANCH   8   9
ENDBRANCH   7   8
ENDBRANCH   6   7
ENDBRANCH   5   6
ENDBRANCH   4   5
ENDBRANCH   3   4
ENDBRANCH   2   3
ENDBRANCH   1   2
BRANCH   1  18
ATOM     18  C   UNL     1      -8.486  -1.964  -1.004  1.00  0.00     0.000 C 
BRANCH  18  19
ATOM     19  C   UNL     1      -7.703  -1.048  -1.964  1.00  0.00     0.000 C 
BRANCH  19  20
ATOM     20  C   UNL     1      -7.346   0.343  -1.406  1.00  0.00     0.000 C 
BRANCH  20  21
ATOM     21  C   UNL     1      -8.557   1.086  -0.816  1.00  0.00     0.000 C 
BRANCH  21  22
ATOM     22  C   UNL     1      -8.251   2.557  -0.495  1.00  0.00     0.000 C 
BRANCH  22  23
ATOM     23  C   UNL     1      -9.070   3.530  -1.365  1.00  0.00     0.000 C 
BRANCH  23  24
ATOM     24  C   UNL     1      -8.524   4.965  -1.326  1.00  0.00    -0.000 C 
BRANCH  24  25
ATOM     25  C   UNL     1      -9.568   5.981  -0.845  1.00  0.00    -0.000 C 
BRANCH  25  26
ATOM     26  C   UNL     1      -8.893   7.251  -0.313  1.00  0.00    -0.000 C 
BRANCH  26  27
ATOM     27  C   UNL     1      -9.771   7.945   0.739  1.00  0.00    -0.000 C 
BRANCH  27  28
ATOM     28  C   UNL     1      -9.198   9.298   1.189  1.00  0.00    -0.000 C 
BRANCH  28  29
ATOM     29  C   UNL     1     -10.072   9.993   2.243  1.00  0.00    -0.000 C 
BRANCH  29  30
ATOM     30  C   UNL     1     -10.379   9.043   3.410  1.00  0.00    -0.000 C 
BRANCH  30  31
ATOM     31  C   UNL     1     -10.888   9.782   4.657  1.00  0.00    -0.003 C 
ATOM     32  C   UNL     1     -10.827   8.922   5.920  1.00  0.00     0.004 C 
ENDBRANCH  30  31
ENDBRANCH  29  30
ENDBRANCH  28  29
ENDBRANCH  27  28
ENDBRANCH  26  27
ENDBRANCH  25  26
ENDBRANCH  24  25
ENDBRANCH  23  24
ENDBRANCH  22  23
ENDBRANCH  21  22
ENDBRANCH  20  21
ENDBRANCH  19  20
ENDBRANCH  18  19
ENDBRANCH   1  18
TORSDOF 28
ENDMDL
MODEL 7
REMARK VINA RESULT:    -0.694      2.546      7.604
REMARK INTER + INTRA:          -3.465
REMARK INTER:                  -2.924
REMARK INTRA:                  -0.541
REMARK UNBOUND:                -1.635
REMARK SMILES CCCCCCCCCCCCCCCCCCCCCCCCCCCCCC(=O)[O-]
REMARK SMILES IDX 16 1 17 2 18 3 19 4 20 5 21 6 22 7 23 8 24 9 25 10 26 11
REMARK SMILES IDX 27 12 28 13 29 14 30 15 31 16 32 17 15 18 14 19 13 20 12 21
REMARK SMILES IDX 11 22 10 23 9 24 8 25 7 26 6 27 5 28 4 29 3 30 2 31 1 32
REMARK H PARENT
REMARK Flexibility Score: inf
ROOT
ATOM      1  C   UNL     1      -6.897  -5.729  -4.715  1.00  0.00     0.000 C 
ENDROOT
BRANCH   1   2
ATOM      2  C   UNL     1      -7.583  -6.998  -5.247  1.00  0.00     0.000 C 
BRANCH   2   3
ATOM      3  C   UNL     1      -9.038  -6.779  -5.710  1.00  0.00     0.000 C 
BRANCH   3   4
ATOM      4  C   UNL     1      -9.882  -6.037  -4.659  1.00  0.00     0.000 C 
BRANCH   4   5
ATOM      5  C   UNL     1     -11.125  -5.372  -5.272  1.00  0.00     0.000 C 
BRANCH   5   6
ATOM      6  C   UNL     1     -10.895  -3.882  -5.582  1.00  0.00     0.000 C 
BRANCH   6   7
ATOM      7  C   UNL     1     -10.871  -3.006  -4.317  1.00  0.00     0.000 C 
BRANCH   7   8
ATOM      8  C   UNL     1     -11.125  -3.765  -2.999  1.00  0.00     0.000 C 
BRANCH   8   9
ATOM      9  C   UNL     1     -10.959  -2.928  -1.715  1.00  0.00     0.000 C 
BRANCH   9  10
ATOM     10  C   UNL     1      -9.890  -3.441  -0.732  1.00  0.00     0.000 C 
BRANCH  10  11
ATOM     11  C   UNL     1      -8.514  -3.635  -1.393  1.00  0.00     0.000 C 
BRANCH  11  12
ATOM     12  C   UNL     1      -8.419  -2.937  -2.759  1.00  0.00     0.000 C 
BRANCH  12  13
ATOM     13  C   UNL     1      -7.833  -1.517  -2.658  1.00  0.00     0.006 C 
BRANCH  13  14
ATOM     14  C   UNL     1      -8.072  -0.891  -1.278  1.00  0.00     0.053 C 
BRANCH  14  15
ATOM     15  C   UNL     1      -7.535   0.505  -1.195  1.00  0.00     0.041 C 
ATOM     16  O   UNL     1      -8.324   1.486  -1.163  1.00  0.00    -0.550 OA
ATOM     17  O   UNL     1      -6.164   0.721  -1.120  1.00  0.00    -0.550 OA
ENDBRANCH  14  15
ENDBRANCH  13  14
ENDBRANCH  12  13
ENDBRANCH  11  12
ENDBRANCH  10  11
ENDBRANCH   9  10
ENDBRANCH   8   9
ENDBRANCH   7   8
ENDBRANCH   6   7
ENDBRANCH   5   6
ENDBRANCH   4   5
ENDBRANCH   3   4
ENDBRANCH   2   3
ENDBRANCH   1   2
BRANCH   1  18
ATOM     18  C   UNL     1      -7.329  -4.458  -5.466  1.00  0.00     0.000 C 
BRANCH  18  19
ATOM     19  C   UNL     1      -7.034  -4.511  -6.977  1.00  0.00     0.000 C 
BRANCH  19  20
ATOM     20  C   UNL     1      -8.273  -4.507  -7.893  1.00  0.00     0.000 C 
BRANCH  20  21
ATOM     21  C   UNL     1      -8.149  -5.478  -9.080  1.00  0.00     0.000 C 
BRANCH  21  22
ATOM     22  C   UNL     1      -7.020  -5.090 -10.047  1.00  0.00     0.000 C 
BRANCH  22  23
ATOM     23  C   UNL     1      -5.772  -5.977  -9.878  1.00  0.00     0.000 C 
BRANCH  23  24
ATOM     24  C   UNL     1      -6.078  -7.299  -9.159  1.00  0.00    -0.000 C 
BRANCH  24  25
ATOM     25  C   UNL     1      -5.698  -7.264  -7.672  1.00  0.00    -0.000 C 
BRANCH  25  26
ATOM     26  C   UNL     1      -4.282  -6.706  -7.482  1.00  0.00    -0.000 C 
BRANCH  26  27
ATOM     27  C   UNL     1      -4.026  -6.335  -6.013  1.00  0.00    -0.000 C 
BRANCH  27  28
ATOM     28  C   UNL     1      -2.589  -5.850  -5.767  1.00  0.00    -0.000 C 
BRANCH  28  29
ATOM     29  C   UNL     1      -2.530  -4.416  -5.222  1.00  0.00    -0.000 C 
BRANCH  29  30
ATOM     30  C   UNL     1      -3.719  -3.589  -5.733  1.00  0.00    -0.000 C 
BRANCH  30  31
ATOM     31  C   UNL     1      -3.292  -2.226  -6.300  1.00  0.00    -0.003 C 
ATOM     32  C   UNL     1      -2.970  -1.206  -5.209  1.00  0.00     0.004 C 
ENDBRANCH  30  31
ENDBRANCH  29  30
ENDBRANCH  28  29
ENDBRANCH  27  28
ENDBRANCH  26  27
ENDBRANCH  25  26
ENDBRANCH  24  25
ENDBRANCH  23  24
ENDBRANCH  22  23
ENDBRANCH  21  22
ENDBRANCH  20  21
ENDBRANCH  19  20
ENDBRANCH  18  19
ENDBRANCH   1  18
TORSDOF 28
ENDMDL
MODEL 8
REMARK VINA RESULT:    -0.343      3.251      9.550
REMARK INTER + INTRA:          -2.540
REMARK INTER:                  -0.542
REMARK INTRA:                  -1.998
REMARK UNBOUND:                -1.635
REMARK SMILES CCCCCCCCCCCCCCCCCCCCCCCCCCCCCC(=O)[O-]
REMARK SMILES IDX 16 1 17 2 18 3 19 4 20 5 21 6 22 7 23 8 24 9 25 10 26 11
REMARK SMILES IDX 27 12 28 13 29 14 30 15 31 16 32 17 15 18 14 19 13 20 12 21
REMARK SMILES IDX 11 22 10 23 9 24 8 25 7 26 6 27 5 28 4 29 3 30 2 31 1 32
REMARK H PARENT
REMARK Flexibility Score: inf
ROOT
ATOM      1  C   UNL     1     -10.059  -4.755  -6.001  1.00  0.00     0.000 C 
ENDROOT
BRANCH   1   2
ATOM      2  C   UNL     1     -11.029  -3.671  -5.501  1.00  0.00     0.000 C 
BRANCH   2   3
ATOM      3  C   UNL     1     -10.730  -3.172  -4.073  1.00  0.00     0.000 C 
BRANCH   3   4
ATOM      4  C   UNL     1      -9.988  -4.222  -3.227  1.00  0.00     0.000 C 
BRANCH   4   5
ATOM      5  C   UNL     1      -9.806  -3.774  -1.768  1.00  0.00     0.000 C 
BRANCH   5   6
ATOM      6  C   UNL     1      -8.325  -3.741  -1.350  1.00  0.00     0.000 C 
BRANCH   6   7
ATOM      7  C   UNL     1      -7.873  -2.353  -0.865  1.00  0.00     0.000 C 
BRANCH   7   8
ATOM      8  C   UNL     1      -7.860  -1.260  -1.953  1.00  0.00     0.000 C 
BRANCH   8   9
ATOM      9  C   UNL     1      -7.408   0.136  -1.479  1.00  0.00     0.000 C 
BRANCH   9  10
ATOM     10  C   UNL     1      -8.507   0.992  -0.821  1.00  0.00     0.000 C 
BRANCH  10  11
ATOM     11  C   UNL     1      -8.019   2.399  -0.436  1.00  0.00     0.000 C 
BRANCH  11  12
ATOM     12  C   UNL     1      -8.501   3.476  -1.421  1.00  0.00     0.000 C 
BRANCH  12  13
ATOM     13  C   UNL     1      -9.234   4.633  -0.719  1.00  0.00     0.006 C 
BRANCH  13  14
ATOM     14  C   UNL     1      -8.703   6.004  -1.159  1.00  0.00     0.053 C 
BRANCH  14  15
ATOM     15  C   UNL     1      -9.280   7.118  -0.340  1.00  0.00     0.041 C 
ATOM     16  O   UNL     1      -9.976   6.861   0.677  1.00  0.00    -0.550 OA
ATOM     17  O   UNL     1      -9.022   8.440  -0.681  1.00  0.00    -0.550 OA
ENDBRANCH  14  15
ENDBRANCH  13  14
ENDBRANCH  12  13
ENDBRANCH  11  12
ENDBRANCH  10  11
ENDBRANCH   9  10
ENDBRANCH   8   9
ENDBRANCH   7   8
ENDBRANCH   6   7
ENDBRANCH   5   6
ENDBRANCH   4   5
ENDBRANCH   3   4
ENDBRANCH   2   3
ENDBRANCH   1   2
BRANCH   1  18
ATOM     18  C   UNL     1      -9.809  -4.679  -7.517  1.00  0.00     0.000 C 
BRANCH  18  19
ATOM     19  C   UNL     1     -11.104  -4.574  -8.345  1.00  0.00     0.000 C 
BRANCH  19  20
ATOM     20  C   UNL     1     -11.125  -5.399  -9.646  1.00  0.00     0.000 C 
BRANCH  20  21
ATOM     21  C   UNL     1      -9.730  -5.886 -10.074  1.00  0.00     0.000 C 
BRANCH  21  22
ATOM     22  C   UNL     1      -9.609  -7.418 -10.069  1.00  0.00     0.000 C 
BRANCH  22  23
ATOM     23  C   UNL     1      -8.147  -7.891  -9.950  1.00  0.00     0.000 C 
BRANCH  23  24
ATOM     24  C   UNL     1      -7.150  -6.724  -9.884  1.00  0.00    -0.000 C 
BRANCH  24  25
ATOM     25  C   UNL     1      -5.791  -7.142  -9.307  1.00  0.00    -0.000 C 
BRANCH  25  26
ATOM     26  C   UNL     1      -5.266  -6.088  -8.325  1.00  0.00    -0.000 C 
BRANCH  26  27
ATOM     27  C   UNL     1      -5.071  -6.686  -6.923  1.00  0.00    -0.000 C 
BRANCH  27  28
ATOM     28  C   UNL     1      -4.959  -5.611  -5.831  1.00  0.00    -0.000 C 
BRANCH  28  29
ATOM     29  C   UNL     1      -4.731  -4.204  -6.402  1.00  0.00    -0.000 C 
BRANCH  29  30
ATOM     30  C   UNL     1      -3.445  -3.587  -5.833  1.00  0.00    -0.000 C 
BRANCH  30  31
ATOM     31  C   UNL     1      -2.656  -4.568  -4.953  1.00  0.00    -0.003 C 
ATOM     32  C   UNL     1      -1.407  -5.113  -5.648  1.00  0.00     0.004 C 
ENDBRANCH  30  31
ENDBRANCH  29  30
ENDBRANCH  28  29
ENDBRANCH  27  28
ENDBRANCH  26  27
ENDBRANCH  25  26
ENDBRANCH  24  25
ENDBRANCH  23  24
ENDBRANCH  22  23
ENDBRANCH  21  22
ENDBRANCH  20  21
ENDBRANCH  19  20
ENDBRANCH  18  19
ENDBRANCH   1  18
TORSDOF 28
ENDMDL
