MODEL 1
REMARK VINA RESULT:    -6.668      0.000      0.000
REMARK INTER + INTRA:          -7.311
REMARK INTER:                  -7.253
REMARK INTRA:                  -0.058
REMARK UNBOUND:                -0.058
REMARK SMILES COc1cc2ccc(=O)oc2cc1O
REMARK SMILES IDX 3 1 13 2 12 3 11 4 5 5 4 6 6 7 7 8 8 9 9 10 10 11 2 12 1 13
REMARK SMILES IDX 14 14
REMARK H PARENT 14 15
REMARK Flexibility Score: inf
ROOT
ATOM      1  C   UNL     1      41.697 -48.442 163.187  1.00  0.00     0.161 A 
ATOM      2  C   UNL     1      41.777 -47.339 162.314  1.00  0.00     0.161 A 
ATOM      3  C   UNL     1      40.665 -46.961 161.552  1.00  0.00     0.098 A 
ATOM      4  C   UNL     1      39.466 -47.672 161.649  1.00  0.00     0.142 A 
ATOM      5  C   UNL     1      39.377 -48.778 162.520  1.00  0.00     0.022 A 
ATOM      6  C   UNL     1      40.488 -49.159 163.285  1.00  0.00     0.062 A 
ATOM      7  C   UNL     1      38.164 -49.470 162.595  1.00  0.00     0.019 A 
ATOM      8  C   UNL     1      37.087 -49.052 161.814  1.00  0.00     0.094 A 
ATOM      9  C   UNL     1      37.249 -47.946 160.973  1.00  0.00     0.336 A 
ATOM     10  O   UNL     1      36.290 -47.552 160.259  1.00  0.00    -0.246 OA
ATOM     11  O   UNL     1      38.415 -47.305 160.921  1.00  0.00    -0.423 OA
ENDROOT
BRANCH   1  12
ATOM     12  O   UNL     1      42.832 -48.793 163.937  1.00  0.00    -0.493 OA
ATOM     13  C   UNL     1      43.108 -48.323 165.251  1.00  0.00     0.278 C 
ENDBRANCH   1  12
BRANCH   2  14
ATOM     14  O   UNL     1      42.956 -46.604 162.189  1.00  0.00    -0.504 OA
ATOM     15  H   UNL     1      43.281 -46.251 161.298  1.00  0.00     0.293 HD
ENDBRANCH   2  14
TORSDOF 2
ENDMDL
MODEL 2
REMARK VINA RESULT:    -6.650      7.713     11.647
REMARK INTER + INTRA:          -7.292
REMARK INTER:                  -7.250
REMARK INTRA:                  -0.041
REMARK UNBOUND:                -0.058
REMARK SMILES COc1cc2ccc(=O)oc2cc1O
REMARK SMILES IDX 3 1 13 2 12 3 11 4 5 5 4 6 6 7 7 8 8 9 9 10 10 11 2 12 1 13
REMARK SMILES IDX 14 14
REMARK H PARENT 14 15
REMARK Flexibility Score: inf
ROOT
ATOM      1  C   UNL     1      48.367 -47.746 164.666  1.00  0.00     0.161 A 
ATOM      2  C   UNL     1      48.364 -46.382 164.313  1.00  0.00     0.161 A 
ATOM      3  C   UNL     1      49.522 -45.611 164.471  1.00  0.00     0.098 A 
ATOM      4  C   UNL     1      50.690 -46.184 164.979  1.00  0.00     0.142 A 
ATOM      5  C   UNL     1      50.702 -47.549 165.335  1.00  0.00     0.022 A 
ATOM      6  C   UNL     1      49.545 -48.325 165.179  1.00  0.00     0.062 A 
ATOM      7  C   UNL     1      51.886 -48.095 165.841  1.00  0.00     0.019 A 
ATOM      8  C   UNL     1      53.011 -47.282 165.979  1.00  0.00     0.094 A 
ATOM      9  C   UNL     1      52.925 -45.937 165.604  1.00  0.00     0.336 A 
ATOM     10  O   UNL     1      53.929 -45.186 165.720  1.00  0.00    -0.246 OA
ATOM     11  O   UNL     1      51.786 -45.444 165.125  1.00  0.00    -0.423 OA
ENDROOT
BRANCH   1  12
ATOM     12  O   UNL     1      47.188 -48.490 164.494  1.00  0.00    -0.493 OA
ATOM     13  C   UNL     1      46.822 -49.158 163.292  1.00  0.00     0.278 C 
ENDBRANCH   1  12
BRANCH   2  14
ATOM     14  O   UNL     1      47.218 -45.773 163.803  1.00  0.00    -0.504 OA
ATOM     15  H   UNL     1      47.002 -45.771 162.813  1.00  0.00     0.293 HD
ENDBRANCH   2  14
TORSDOF 2
ENDMDL
MODEL 3
REMARK VINA RESULT:    -6.627      7.392     11.589
REMARK INTER + INTRA:          -7.266
REMARK INTER:                  -7.201
REMARK INTRA:                  -0.065
REMARK UNBOUND:                -0.058
REMARK SMILES COc1cc2ccc(=O)oc2cc1O
REMARK SMILES IDX 3 1 13 2 12 3 11 4 5 5 4 6 6 7 7 8 8 9 9 10 10 11 2 12 1 13
REMARK SMILES IDX 14 14
REMARK H PARENT 14 15
REMARK Flexibility Score: inf
ROOT
ATOM      1  C   UNL     1      47.961 -47.190 164.724  1.00  0.00     0.161 A 
ATOM      2  C   UNL     1      48.163 -48.542 165.067  1.00  0.00     0.161 A 
ATOM      3  C   UNL     1      49.428 -48.986 165.468  1.00  0.00     0.098 A 
ATOM      4  C   UNL     1      50.503 -48.097 165.531  1.00  0.00     0.142 A 
ATOM      5  C   UNL     1      50.312 -46.742 165.189  1.00  0.00     0.022 A 
ATOM      6  C   UNL     1      49.046 -46.293 164.787  1.00  0.00     0.062 A 
ATOM      7  C   UNL     1      51.407 -45.876 165.261  1.00  0.00     0.019 A 
ATOM      8  C   UNL     1      52.646 -46.371 165.666  1.00  0.00     0.094 A 
ATOM      9  C   UNL     1      52.761 -47.727 165.991  1.00  0.00     0.336 A 
ATOM     10  O   UNL     1      53.871 -48.194 166.359  1.00  0.00    -0.246 OA
ATOM     11  O   UNL     1      51.702 -48.529 165.914  1.00  0.00    -0.423 OA
ENDROOT
BRANCH   1  12
ATOM     12  O   UNL     1      46.679 -46.778 164.326  1.00  0.00    -0.493 OA
ATOM     13  C   UNL     1      45.753 -46.099 165.167  1.00  0.00     0.278 C 
ENDBRANCH   1  12
BRANCH   2  14
ATOM     14  O   UNL     1      47.114 -49.460 165.017  1.00  0.00    -0.504 OA
ATOM     15  H   UNL     1      47.208 -50.408 165.361  1.00  0.00     0.293 HD
ENDBRANCH   2  14
TORSDOF 2
ENDMDL
MODEL 4
REMARK VINA RESULT:    -6.533      1.486      2.474
REMARK INTER + INTRA:          -7.164
REMARK INTER:                  -7.118
REMARK INTRA:                  -0.045
REMARK UNBOUND:                -0.058
REMARK SMILES COc1cc2ccc(=O)oc2cc1O
REMARK SMILES IDX 3 1 13 2 12 3 11 4 5 5 4 6 6 7 7 8 8 9 9 10 10 11 2 12 1 13
REMARK SMILES IDX 14 14
REMARK H PARENT 14 15
REMARK Flexibility Score: inf
ROOT
ATOM      1  C   UNL     1      41.627 -47.995 162.527  1.00  0.00     0.161 A 
ATOM      2  C   UNL     1      41.405 -49.155 163.296  1.00  0.00     0.161 A 
ATOM      3  C   UNL     1      40.142 -49.757 163.315  1.00  0.00     0.098 A 
ATOM      4  C   UNL     1      39.088 -49.215 162.575  1.00  0.00     0.142 A 
ATOM      5  C   UNL     1      39.300 -48.054 161.803  1.00  0.00     0.022 A 
ATOM      6  C   UNL     1      40.565 -47.448 161.781  1.00  0.00     0.062 A 
ATOM      7  C   UNL     1      38.227 -47.534 161.073  1.00  0.00     0.019 A 
ATOM      8  C   UNL     1      36.988 -48.172 161.127  1.00  0.00     0.094 A 
ATOM      9  C   UNL     1      36.852 -49.321 161.914  1.00  0.00     0.336 A 
ATOM     10  O   UNL     1      35.743 -49.913 161.978  1.00  0.00    -0.246 OA
ATOM     11  O   UNL     1      37.891 -49.795 162.599  1.00  0.00    -0.423 OA
ENDROOT
BRANCH   1  12
ATOM     12  O   UNL     1      42.907 -47.417 162.531  1.00  0.00    -0.493 OA
ATOM     13  C   UNL     1      43.956 -47.774 161.637  1.00  0.00     0.278 C 
ENDBRANCH   1  12
BRANCH   2  14
ATOM     14  O   UNL     1      42.431 -49.726 164.048  1.00  0.00    -0.504 OA
ATOM     15  H   UNL     1      42.972 -50.516 163.715  1.00  0.00     0.293 HD
ENDBRANCH   2  14
TORSDOF 2
ENDMDL
MODEL 5
REMARK VINA RESULT:    -6.344      4.567      6.672
REMARK INTER + INTRA:          -6.959
REMARK INTER:                  -6.905
REMARK INTRA:                  -0.054
REMARK UNBOUND:                -0.058
REMARK SMILES COc1cc2ccc(=O)oc2cc1O
REMARK SMILES IDX 3 1 13 2 12 3 11 4 5 5 4 6 6 7 7 8 8 9 9 10 10 11 2 12 1 13
REMARK SMILES IDX 14 14
REMARK H PARENT 14 15
REMARK Flexibility Score: inf
ROOT
ATOM      1  C   UNL     1      47.652 -46.773 164.810  1.00  0.00     0.161 A 
ATOM      2  C   UNL     1      46.833 -45.809 165.431  1.00  0.00     0.161 A 
ATOM      3  C   UNL     1      45.457 -46.028 165.555  1.00  0.00     0.098 A 
ATOM      4  C   UNL     1      44.880 -47.203 165.066  1.00  0.00     0.142 A 
ATOM      5  C   UNL     1      45.691 -48.173 164.442  1.00  0.00     0.022 A 
ATOM      6  C   UNL     1      47.071 -47.958 164.315  1.00  0.00     0.062 A 
ATOM      7  C   UNL     1      45.086 -49.339 163.961  1.00  0.00     0.019 A 
ATOM      8  C   UNL     1      43.709 -49.507 164.111  1.00  0.00     0.094 A 
ATOM      9  C   UNL     1      42.968 -48.501 164.741  1.00  0.00     0.336 A 
ATOM     10  O   UNL     1      41.725 -48.633 164.886  1.00  0.00    -0.246 OA
ATOM     11  O   UNL     1      43.570 -47.402 165.189  1.00  0.00    -0.423 OA
ENDROOT
BRANCH   1  12
ATOM     12  O   UNL     1      49.030 -46.521 164.702  1.00  0.00    -0.493 OA
ATOM     13  C   UNL     1      50.050 -47.414 165.135  1.00  0.00     0.278 C 
ENDBRANCH   1  12
BRANCH   2  14
ATOM     14  O   UNL     1      47.372 -44.624 165.932  1.00  0.00    -0.504 OA
ATOM     15  H   UNL     1      48.313 -44.572 166.303  1.00  0.00     0.293 HD
ENDBRANCH   2  14
TORSDOF 2
ENDMDL
MODEL 6
REMARK VINA RESULT:    -6.307      2.670      6.469
REMARK INTER + INTRA:          -6.918
REMARK INTER:                  -6.865
REMARK INTRA:                  -0.053
REMARK UNBOUND:                -0.058
REMARK SMILES COc1cc2ccc(=O)oc2cc1O
REMARK SMILES IDX 3 1 13 2 12 3 11 4 5 5 4 6 6 7 7 8 8 9 9 10 10 11 2 12 1 13
REMARK SMILES IDX 14 14
REMARK H PARENT 14 15
REMARK Flexibility Score: inf
ROOT
ATOM      1  C   UNL     1      41.659 -48.532 163.645  1.00  0.00     0.161 A 
ATOM      2  C   UNL     1      41.846 -48.582 165.041  1.00  0.00     0.161 A 
ATOM      3  C   UNL     1      43.011 -48.060 165.614  1.00  0.00     0.098 A 
ATOM      4  C   UNL     1      44.000 -47.487 164.811  1.00  0.00     0.142 A 
ATOM      5  C   UNL     1      43.822 -47.433 163.413  1.00  0.00     0.022 A 
ATOM      6  C   UNL     1      42.656 -47.954 162.834  1.00  0.00     0.062 A 
ATOM      7  C   UNL     1      44.829 -46.854 162.634  1.00  0.00     0.019 A 
ATOM      8  C   UNL     1      45.970 -46.350 163.256  1.00  0.00     0.094 A 
ATOM      9  C   UNL     1      46.078 -46.437 164.649  1.00  0.00     0.336 A 
ATOM     10  O   UNL     1      47.100 -45.988 165.230  1.00  0.00    -0.246 OA
ATOM     11  O   UNL     1      45.104 -46.993 165.365  1.00  0.00    -0.423 OA
ENDROOT
BRANCH   1  12
ATOM     12  O   UNL     1      40.477 -49.065 163.103  1.00  0.00    -0.493 OA
ATOM     13  C   UNL     1      39.625 -48.378 162.193  1.00  0.00     0.278 C 
ENDBRANCH   1  12
BRANCH   2  14
ATOM     14  O   UNL     1      40.882 -49.146 165.876  1.00  0.00    -0.504 OA
ATOM     15  H   UNL     1      39.968 -49.421 165.538  1.00  0.00     0.293 HD
ENDBRANCH   2  14
TORSDOF 2
ENDMDL
MODEL 7
REMARK VINA RESULT:    -6.145      2.768      6.283
REMARK INTER + INTRA:          -6.742
REMARK INTER:                  -6.688
REMARK INTRA:                  -0.054
REMARK UNBOUND:                -0.058
REMARK SMILES COc1cc2ccc(=O)oc2cc1O
REMARK SMILES IDX 3 1 13 2 12 3 11 4 5 5 4 6 6 7 7 8 8 9 9 10 10 11 2 12 1 13
REMARK SMILES IDX 14 14
REMARK H PARENT 14 15
REMARK Flexibility Score: inf
ROOT
ATOM      1  C   UNL     1      42.006 -47.947 162.260  1.00  0.00     0.161 A 
ATOM      2  C   UNL     1      42.809 -47.735 161.121  1.00  0.00     0.161 A 
ATOM      3  C   UNL     1      44.188 -47.961 161.179  1.00  0.00     0.098 A 
ATOM      4  C   UNL     1      44.785 -48.399 162.364  1.00  0.00     0.142 A 
ATOM      5  C   UNL     1      43.990 -48.613 163.510  1.00  0.00     0.022 A 
ATOM      6  C   UNL     1      42.607 -48.388 163.456  1.00  0.00     0.062 A 
ATOM      7  C   UNL     1      44.615 -49.051 164.682  1.00  0.00     0.019 A 
ATOM      8  C   UNL     1      45.994 -49.261 164.685  1.00  0.00     0.094 A 
ATOM      9  C   UNL     1      46.718 -49.028 163.511  1.00  0.00     0.336 A 
ATOM     10  O   UNL     1      47.963 -49.211 163.493  1.00  0.00    -0.246 OA
ATOM     11  O   UNL     1      46.097 -48.612 162.409  1.00  0.00    -0.423 OA
ENDROOT
BRANCH   1  12
ATOM     12  O   UNL     1      40.625 -47.710 162.166  1.00  0.00    -0.493 OA
ATOM     13  C   UNL     1      39.619 -48.655 162.512  1.00  0.00     0.278 C 
ENDBRANCH   1  12
BRANCH   2  14
ATOM     14  O   UNL     1      42.251 -47.299 159.919  1.00  0.00    -0.504 OA
ATOM     15  H   UNL     1      42.408 -46.366 159.557  1.00  0.00     0.293 HD
ENDBRANCH   2  14
TORSDOF 2
ENDMDL
MODEL 8
REMARK VINA RESULT:    -6.032      3.767      7.958
REMARK INTER + INTRA:          -6.619
REMARK INTER:                  -6.560
REMARK INTRA:                  -0.059
REMARK UNBOUND:                -0.058
REMARK SMILES COc1cc2ccc(=O)oc2cc1O
REMARK SMILES IDX 3 1 13 2 12 3 11 4 5 5 4 6 6 7 7 8 8 9 9 10 10 11 2 12 1 13
REMARK SMILES IDX 14 14
REMARK H PARENT 14 15
REMARK Flexibility Score: inf
ROOT
ATOM      1  C   UNL     1      43.661 -47.897 163.771  1.00  0.00     0.161 A 
ATOM      2  C   UNL     1      44.062 -49.223 164.027  1.00  0.00     0.161 A 
ATOM      3  C   UNL     1      45.393 -49.507 164.351  1.00  0.00     0.098 A 
ATOM      4  C   UNL     1      46.338 -48.481 164.424  1.00  0.00     0.142 A 
ATOM      5  C   UNL     1      45.947 -47.150 164.169  1.00  0.00     0.022 A 
ATOM      6  C   UNL     1      44.614 -46.861 163.844  1.00  0.00     0.062 A 
ATOM      7  C   UNL     1      46.915 -46.144 164.249  1.00  0.00     0.019 A 
ATOM      8  C   UNL     1      48.228 -46.481 164.576  1.00  0.00     0.094 A 
ATOM      9  C   UNL     1      48.543 -47.823 164.817  1.00  0.00     0.336 A 
ATOM     10  O   UNL     1      49.722 -48.149 165.113  1.00  0.00    -0.246 OA
ATOM     11  O   UNL     1      47.602 -48.761 164.734  1.00  0.00    -0.423 OA
ENDROOT
BRANCH   1  12
ATOM     12  O   UNL     1      42.317 -47.647 163.448  1.00  0.00    -0.493 OA
ATOM     13  C   UNL     1      41.802 -47.592 162.122  1.00  0.00     0.278 C 
ENDBRANCH   1  12
BRANCH   2  14
ATOM     14  O   UNL     1      43.148 -50.275 163.964  1.00  0.00    -0.504 OA
ATOM     15  H   UNL     1      42.741 -50.586 163.091  1.00  0.00     0.293 HD
ENDBRANCH   2  14
TORSDOF 2
ENDMDL
