MODEL 1
REMARK VINA RESULT:     7.084      0.000      0.000
REMARK INTER + INTRA:           7.611
REMARK INTER:                   7.705
REMARK INTRA:                  -0.094
REMARK UNBOUND:                -0.094
REMARK SMILES C[C@H]1[C@H](C)CC[C@@]2(C(=O)[O-])CC[C@]3(C)C(=CC[C@H]4[C@]5(C)CC[C@@H](O)C(C)(C)[C@@H]5CC[C@]43C)[C@@H]12
REMARK SMILES IDX 7 1 6 2 11 3 33 4 5 5 12 6 15 7 2 8 3 9 13 10 16 11 1 12
REMARK SMILES IDX 4 13 14 14 31 15 17 16 18 17 30 18 32 19 19 20 29 21 28 22
REMARK SMILES IDX 21 23 20 24 25 25 22 26 23 27 26 28 27 29 8 30 9 31 10 32
REMARK SMILES IDX 24 33
REMARK H PARENT 24 34
REMARK Flexibility Score: inf
ROOT
ATOM      1  C   UNL     1      11.010  21.504  10.259  1.00  0.00     0.017 C 
ATOM      2  C   UNL     1      12.562  21.388  10.135  1.00  0.00     0.014 C 
ATOM      3  C   UNL     1      10.554  22.965   9.921  1.00  0.00     0.014 C 
ATOM      4  C   UNL     1      10.271  20.423   9.378  1.00  0.00     0.030 C 
ATOM      5  C   UNL     1      13.070  21.182   8.710  1.00  0.00     0.004 C 
ATOM      6  C   UNL     1       9.277  23.125   9.067  1.00  0.00     0.013 C 
ATOM      7  C   UNL     1       8.756  20.682   9.270  1.00  0.00    -0.063 C 
ATOM      8  C   UNL     1      10.924  20.023   8.002  1.00  0.00    -0.003 C 
ATOM      9  C   UNL     1      12.469  19.926   8.067  1.00  0.00    -0.011 C 
ATOM     10  C   UNL     1       8.127  22.089   9.303  1.00  0.00    -0.006 C 
ATOM     11  C   UNL     1       7.947  19.617   9.193  1.00  0.00    -0.027 C 
ATOM     12  C   UNL     1      10.503  20.865   6.787  1.00  0.00     0.008 C 
ATOM     13  C   UNL     1      12.939  18.631   8.755  1.00  0.00     0.008 C 
ATOM     14  C   UNL     1       7.647  22.329  10.772  1.00  0.00     0.017 C 
ATOM     15  C   UNL     1       6.868  22.227   8.214  1.00  0.00    -0.020 C 
ATOM     16  C   UNL     1       6.501  19.782   8.864  1.00  0.00     0.032 C 
ATOM     17  C   UNL     1       6.362  20.796   7.686  1.00  0.00     0.006 C 
ATOM     18  C   UNL     1       5.640  22.931   8.866  1.00  0.00     0.008 C 
ATOM     19  C   UNL     1       7.307  23.123   7.006  1.00  0.00     0.012 C 
ATOM     20  C   UNL     1       4.935  20.702   6.919  1.00  0.00    -0.025 C 
ATOM     21  C   UNL     1       4.382  22.988   8.007  1.00  0.00     0.005 C 
ATOM     22  C   UNL     1       3.823  21.590   7.623  1.00  0.00     0.003 C 
ATOM     23  C   UNL     1       5.087  21.099   5.412  1.00  0.00     0.010 C 
ATOM     24  C   UNL     1       4.493  19.200   6.897  1.00  0.00     0.012 C 
ATOM     25  C   UNL     1       2.449  21.723   6.810  1.00  0.00    -0.006 C 
ATOM     26  C   UNL     1       3.764  21.197   4.631  1.00  0.00     0.033 C 
ATOM     27  C   UNL     1       2.750  22.124   5.328  1.00  0.00     0.120 C 
ATOM     28  C   UNL     1       1.535  22.832   7.418  1.00  0.00     0.014 C 
ATOM     29  C   UNL     1       1.605  20.411   6.892  1.00  0.00     0.014 C 
ENDROOT
BRANCH   1  30
ATOM     30  C   UNL     1      10.734  21.252  11.749  1.00  0.00     0.048 C 
ATOM     31  O   UNL     1      10.283  22.160  12.504  1.00  0.00    -0.550 OA
ATOM     32  O   UNL     1      10.938  19.978  12.282  1.00  0.00    -0.550 OA
ENDBRANCH   1  30
BRANCH  27  33
ATOM     33  O   UNL     1       1.574  22.241   4.564  1.00  0.00    -0.393 OA
ATOM     34  H   UNL     1       1.797  22.702   3.715  1.00  0.00     0.210 HD
ENDBRANCH  27  33
TORSDOF 2
ENDMDL
MODEL 2
REMARK VINA RESULT:     7.561      1.673      2.786
REMARK INTER + INTRA:           8.130
REMARK INTER:                   8.245
REMARK INTRA:                  -0.115
REMARK UNBOUND:                -0.094
REMARK SMILES C[C@H]1[C@H](C)CC[C@@]2(C(=O)[O-])CC[C@]3(C)C(=CC[C@H]4[C@]5(C)CC[C@@H](O)C(C)(C)[C@@H]5CC[C@]43C)[C@@H]12
REMARK SMILES IDX 7 1 6 2 11 3 33 4 5 5 12 6 15 7 2 8 3 9 13 10 16 11 1 12
REMARK SMILES IDX 4 13 14 14 31 15 17 16 18 17 30 18 32 19 19 20 29 21 28 22
REMARK SMILES IDX 21 23 20 24 25 25 22 26 23 27 26 28 27 29 8 30 9 31 10 32
REMARK SMILES IDX 24 33
REMARK H PARENT 24 34
REMARK Flexibility Score: inf
ROOT
ATOM      1  C   UNL     1       9.980  21.009   9.698  1.00  0.00     0.017 C 
ATOM      2  C   UNL     1      11.181  20.155  10.213  1.00  0.00     0.014 C 
ATOM      3  C   UNL     1       9.990  21.058   8.133  1.00  0.00     0.014 C 
ATOM      4  C   UNL     1       8.606  20.491  10.276  1.00  0.00     0.030 C 
ATOM      5  C   UNL     1      10.940  18.648  10.196  1.00  0.00     0.004 C 
ATOM      6  C   UNL     1       8.629  20.929   7.414  1.00  0.00     0.013 C 
ATOM      7  C   UNL     1       7.390  21.137   9.583  1.00  0.00    -0.063 C 
ATOM      8  C   UNL     1       8.435  18.941  10.491  1.00  0.00    -0.003 C 
ATOM      9  C   UNL     1       9.715  18.257  11.034  1.00  0.00    -0.011 C 
ATOM     10  C   UNL     1       7.391  21.589   8.108  1.00  0.00    -0.006 C 
ATOM     11  C   UNL     1       6.296  21.358  10.323  1.00  0.00    -0.027 C 
ATOM     12  C   UNL     1       7.886  18.150   9.293  1.00  0.00     0.008 C 
ATOM     13  C   UNL     1       9.922  18.523  12.536  1.00  0.00     0.008 C 
ATOM     14  C   UNL     1       7.686  23.125   8.112  1.00  0.00     0.017 C 
ATOM     15  C   UNL     1       5.940  21.243   7.358  1.00  0.00    -0.020 C 
ATOM     16  C   UNL     1       5.013  21.769   9.682  1.00  0.00     0.032 C 
ATOM     17  C   UNL     1       4.778  20.893   8.411  1.00  0.00     0.006 C 
ATOM     18  C   UNL     1       5.441  22.459   6.519  1.00  0.00     0.008 C 
ATOM     19  C   UNL     1       6.131  20.057   6.352  1.00  0.00     0.012 C 
ATOM     20  C   UNL     1       3.236  20.889   7.908  1.00  0.00    -0.025 C 
ATOM     21  C   UNL     1       4.055  22.307   5.900  1.00  0.00     0.005 C 
ATOM     22  C   UNL     1       2.922  22.111   6.945  1.00  0.00     0.003 C 
ATOM     23  C   UNL     1       2.883  19.531   7.211  1.00  0.00     0.010 C 
ATOM     24  C   UNL     1       2.312  20.945   9.171  1.00  0.00     0.012 C 
ATOM     25  C   UNL     1       1.487  22.062   6.234  1.00  0.00    -0.006 C 
ATOM     26  C   UNL     1       1.491  19.483   6.556  1.00  0.00     0.033 C 
ATOM     27  C   UNL     1       1.271  20.656   5.582  1.00  0.00     0.120 C 
ATOM     28  C   UNL     1       1.380  23.125   5.098  1.00  0.00     0.014 C 
ATOM     29  C   UNL     1       0.340  22.417   7.233  1.00  0.00     0.014 C 
ENDROOT
BRANCH   1  30
ATOM     30  C   UNL     1      10.275  22.423  10.222  1.00  0.00     0.048 C 
ATOM     31  O   UNL     1      11.245  23.105   9.782  1.00  0.00    -0.550 OA
ATOM     32  O   UNL     1       9.431  22.997  11.173  1.00  0.00    -0.550 OA
ENDBRANCH   1  30
BRANCH  27  33
ATOM     33  O   UNL     1       0.015  20.554   4.954  1.00  0.00    -0.393 OA
ATOM     34  H   UNL     1       0.001  21.175   4.181  1.00  0.00     0.210 HD
ENDBRANCH  27  33
TORSDOF 2
ENDMDL
MODEL 3
REMARK VINA RESULT:     8.480      1.751      3.157
REMARK INTER + INTRA:           9.130
REMARK INTER:                   9.033
REMARK INTRA:                   0.097
REMARK UNBOUND:                -0.094
REMARK SMILES C[C@H]1[C@H](C)CC[C@@]2(C(=O)[O-])CC[C@]3(C)C(=CC[C@H]4[C@]5(C)CC[C@@H](O)C(C)(C)[C@@H]5CC[C@]43C)[C@@H]12
REMARK SMILES IDX 7 1 6 2 11 3 33 4 5 5 12 6 15 7 2 8 3 9 13 10 16 11 1 12
REMARK SMILES IDX 4 13 14 14 31 15 17 16 18 17 30 18 32 19 19 20 29 21 28 22
REMARK SMILES IDX 21 23 20 24 25 25 22 26 23 27 26 28 27 29 8 30 9 31 10 32
REMARK SMILES IDX 24 33
REMARK H PARENT 24 34
REMARK Flexibility Score: inf
ROOT
ATOM      1  C   UNL     1      11.029  19.999  10.894  1.00  0.00     0.017 C 
ATOM      2  C   UNL     1      12.159  20.546  11.823  1.00  0.00     0.014 C 
ATOM      3  C   UNL     1       9.821  19.499  11.758  1.00  0.00     0.014 C 
ATOM      4  C   UNL     1      10.596  21.064   9.813  1.00  0.00     0.030 C 
ATOM      5  C   UNL     1      11.948  21.980  12.301  1.00  0.00     0.004 C 
ATOM      6  C   UNL     1       8.403  19.833  11.248  1.00  0.00     0.013 C 
ATOM      7  C   UNL     1       9.312  20.659   9.063  1.00  0.00    -0.063 C 
ATOM      8  C   UNL     1      10.608  22.583  10.229  1.00  0.00    -0.003 C 
ATOM      9  C   UNL     1      11.814  22.958  11.126  1.00  0.00    -0.011 C 
ATOM     10  C   UNL     1       8.182  19.824   9.698  1.00  0.00    -0.006 C 
ATOM     11  C   UNL     1       9.205  21.015   7.776  1.00  0.00    -0.027 C 
ATOM     12  C   UNL     1       9.309  23.123  10.846  1.00  0.00     0.008 C 
ATOM     13  C   UNL     1      13.119  23.088  10.319  1.00  0.00     0.008 C 
ATOM     14  C   UNL     1       8.418  18.343   9.253  1.00  0.00     0.017 C 
ATOM     15  C   UNL     1       6.675  20.374   9.233  1.00  0.00    -0.020 C 
ATOM     16  C   UNL     1       7.911  20.859   7.049  1.00  0.00     0.032 C 
ATOM     17  C   UNL     1       6.751  21.358   7.965  1.00  0.00     0.006 C 
ATOM     18  C   UNL     1       5.747  19.187   8.832  1.00  0.00     0.008 C 
ATOM     19  C   UNL     1       5.979  21.097  10.436  1.00  0.00     0.012 C 
ATOM     20  C   UNL     1       5.388  21.698   7.152  1.00  0.00    -0.025 C 
ATOM     21  C   UNL     1       4.389  19.578   8.258  1.00  0.00     0.005 C 
ATOM     22  C   UNL     1       4.480  20.412   6.949  1.00  0.00     0.003 C 
ATOM     23  C   UNL     1       4.584  22.835   7.868  1.00  0.00     0.010 C 
ATOM     24  C   UNL     1       5.789  22.301   5.763  1.00  0.00     0.012 C 
ATOM     25  C   UNL     1       3.024  20.699   6.349  1.00  0.00    -0.006 C 
ATOM     26  C   UNL     1       3.197  23.125   7.265  1.00  0.00     0.033 C 
ATOM     27  C   UNL     1       2.339  21.851   7.156  1.00  0.00     0.120 C 
ATOM     28  C   UNL     1       2.107  19.442   6.457  1.00  0.00     0.014 C 
ATOM     29  C   UNL     1       3.088  21.025   4.821  1.00  0.00     0.014 C 
ENDROOT
BRANCH   1  30
ATOM     30  C   UNL     1      11.664  18.780  10.211  1.00  0.00     0.048 C 
ATOM     31  O   UNL     1      11.114  17.641  10.238  1.00  0.00    -0.550 OA
ATOM     32  O   UNL     1      12.854  18.930   9.498  1.00  0.00    -0.550 OA
ENDBRANCH   1  30
BRANCH  27  33
ATOM     33  O   UNL     1       1.057  22.153   6.658  1.00  0.00    -0.393 OA
ATOM     34  H   UNL     1       0.405  21.536   7.078  1.00  0.00     0.210 HD
ENDBRANCH  27  33
TORSDOF 2
ENDMDL
