MODEL 1
REMARK VINA RESULT:    -4.674      0.000      0.000
REMARK INTER + INTRA:          -5.138
REMARK INTER:                  -4.948
REMARK INTRA:                  -0.190
REMARK UNBOUND:                -0.190
REMARK SMILES CC1=CC[C@H](C(C)C)C=C1
REMARK SMILES IDX 1 1 2 2 3 3 4 4 5 5 9 6 10 7 6 8 7 9 8 10
REMARK H PARENT
REMARK Flexibility Score: inf
ROOT
ATOM      1  C   UNL     1      33.099  11.546  31.299  1.00  0.00     0.044 C 
ATOM      2  C   UNL     1      32.606  10.807  32.507  1.00  0.00    -0.055 C 
ATOM      3  C   UNL     1      32.365  11.465  33.653  1.00  0.00    -0.023 C 
ATOM      4  C   UNL     1      32.015  10.717  34.913  1.00  0.00     0.035 C 
ATOM      5  C   UNL     1      31.190   9.445  34.589  1.00  0.00     0.018 C 
ATOM      6  C   UNL     1      31.827   8.683  33.447  1.00  0.00    -0.023 C 
ATOM      7  C   UNL     1      32.444   9.336  32.456  1.00  0.00    -0.001 C 
ENDROOT
BRANCH   5   8
ATOM      8  C   UNL     1      30.933   8.526  35.819  1.00  0.00    -0.010 C 
ATOM      9  C   UNL     1      31.555   7.126  35.680  1.00  0.00     0.008 C 
ATOM     10  C   UNL     1      31.392   9.183  37.128  1.00  0.00     0.008 C 
ENDBRANCH   5   8
TORSDOF 1
ENDMDL
MODEL 2
REMARK VINA RESULT:    -4.386      2.607      5.763
REMARK INTER + INTRA:          -4.832
REMARK INTER:                  -4.641
REMARK INTRA:                  -0.191
REMARK UNBOUND:                -0.190
REMARK SMILES CC1=CC[C@H](C(C)C)C=C1
REMARK SMILES IDX 1 1 2 2 3 3 4 4 5 5 9 6 10 7 6 8 7 9 8 10
REMARK H PARENT
REMARK Flexibility Score: inf
ROOT
ATOM      1  C   UNL     1      32.863  11.140  33.728  1.00  0.00     0.044 C 
ATOM      2  C   UNL     1      32.532  10.896  32.286  1.00  0.00    -0.055 C 
ATOM      3  C   UNL     1      31.746   9.865  31.935  1.00  0.00    -0.023 C 
ATOM      4  C   UNL     1      31.528   9.519  30.486  1.00  0.00     0.035 C 
ATOM      5  C   UNL     1      31.527  10.796  29.607  1.00  0.00     0.018 C 
ATOM      6  C   UNL     1      32.696  11.685  29.972  1.00  0.00    -0.023 C 
ATOM      7  C   UNL     1      33.125  11.758  31.238  1.00  0.00    -0.001 C 
ENDROOT
BRANCH   5   8
ATOM      8  C   UNL     1      31.478  10.513  28.077  1.00  0.00    -0.010 C 
ATOM      9  C   UNL     1      32.398  11.430  27.254  1.00  0.00     0.008 C 
ATOM     10  C   UNL     1      31.772   9.040  27.759  1.00  0.00     0.008 C 
ENDBRANCH   5   8
TORSDOF 1
ENDMDL
MODEL 3
REMARK VINA RESULT:    -4.383      1.141      4.206
REMARK INTER + INTRA:          -4.829
REMARK INTER:                  -4.644
REMARK INTRA:                  -0.186
REMARK UNBOUND:                -0.190
REMARK SMILES CC1=CC[C@H](C(C)C)C=C1
REMARK SMILES IDX 1 1 2 2 3 3 4 4 5 5 9 6 10 7 6 8 7 9 8 10
REMARK H PARENT
REMARK Flexibility Score: inf
ROOT
ATOM      1  C   UNL     1      31.021   6.853  36.032  1.00  0.00     0.044 C 
ATOM      2  C   UNL     1      31.320   7.865  34.966  1.00  0.00    -0.055 C 
ATOM      3  C   UNL     1      31.236   9.179  35.235  1.00  0.00    -0.023 C 
ATOM      4  C   UNL     1      31.386  10.201  34.140  1.00  0.00     0.035 C 
ATOM      5  C   UNL     1      32.396   9.718  33.067  1.00  0.00     0.018 C 
ATOM      6  C   UNL     1      32.107   8.283  32.684  1.00  0.00    -0.023 C 
ATOM      7  C   UNL     1      31.650   7.415  33.594  1.00  0.00    -0.001 C 
ENDROOT
BRANCH   5   8
ATOM      8  C   UNL     1      32.481  10.639  31.816  1.00  0.00    -0.010 C 
ATOM      9  C   UNL     1      31.694  10.106  30.606  1.00  0.00     0.008 C 
ATOM     10  C   UNL     1      32.053  12.078  32.136  1.00  0.00     0.008 C 
ENDBRANCH   5   8
TORSDOF 1
ENDMDL
MODEL 4
REMARK VINA RESULT:    -4.342      1.337      2.725
REMARK INTER + INTRA:          -4.787
REMARK INTER:                  -4.597
REMARK INTRA:                  -0.190
REMARK UNBOUND:                -0.190
REMARK SMILES CC1=CC[C@H](C(C)C)C=C1
REMARK SMILES IDX 1 1 2 2 3 3 4 4 5 5 9 6 10 7 6 8 7 9 8 10
REMARK H PARENT
REMARK Flexibility Score: inf
ROOT
ATOM      1  C   UNL     1      33.125  12.618  30.754  1.00  0.00     0.044 C 
ATOM      2  C   UNL     1      32.644  11.350  31.396  1.00  0.00    -0.055 C 
ATOM      3  C   UNL     1      31.970  10.439  30.676  1.00  0.00    -0.023 C 
ATOM      4  C   UNL     1      31.352   9.235  31.339  1.00  0.00     0.035 C 
ATOM      5  C   UNL     1      32.217   8.758  32.533  1.00  0.00     0.018 C 
ATOM      6  C   UNL     1      32.616   9.936  33.396  1.00  0.00    -0.023 C 
ATOM      7  C   UNL     1      32.859  11.130  32.845  1.00  0.00    -0.001 C 
ENDROOT
BRANCH   5   8
ATOM      8  C   UNL     1      31.564   7.625  33.376  1.00  0.00    -0.010 C 
ATOM      9  C   UNL     1      31.231   8.046  34.818  1.00  0.00     0.008 C 
ATOM     10  C   UNL     1      30.317   7.049  32.690  1.00  0.00     0.008 C 
ENDBRANCH   5   8
TORSDOF 1
ENDMDL
MODEL 5
REMARK VINA RESULT:    -4.313      2.741      6.124
REMARK INTER + INTRA:          -4.756
REMARK INTER:                  -4.592
REMARK INTRA:                  -0.163
REMARK UNBOUND:                -0.190
REMARK SMILES CC1=CC[C@H](C(C)C)C=C1
REMARK SMILES IDX 1 1 2 2 3 3 4 4 5 5 9 6 10 7 6 8 7 9 8 10
REMARK H PARENT
REMARK Flexibility Score: inf
ROOT
ATOM      1  C   UNL     1      32.514   9.312  32.910  1.00  0.00     0.044 C 
ATOM      2  C   UNL     1      32.350  10.172  31.692  1.00  0.00    -0.055 C 
ATOM      3  C   UNL     1      32.950  11.371  31.623  1.00  0.00    -0.023 C 
ATOM      4  C   UNL     1      32.674  12.307  30.475  1.00  0.00     0.035 C 
ATOM      5  C   UNL     1      32.422  11.515  29.166  1.00  0.00     0.018 C 
ATOM      6  C   UNL     1      31.461  10.375  29.419  1.00  0.00    -0.023 C 
ATOM      7  C   UNL     1      31.471   9.724  30.587  1.00  0.00    -0.001 C 
ENDROOT
BRANCH   5   8
ATOM      8  C   UNL     1      31.962  12.399  27.970  1.00  0.00    -0.010 C 
ATOM      9  C   UNL     1      32.416  11.864  26.601  1.00  0.00     0.008 C 
ATOM     10  C   UNL     1      30.443  12.622  27.976  1.00  0.00     0.008 C 
ENDBRANCH   5   8
TORSDOF 1
ENDMDL
MODEL 6
REMARK VINA RESULT:    -4.261      1.133      4.524
REMARK INTER + INTRA:          -4.700
REMARK INTER:                  -4.509
REMARK INTRA:                  -0.191
REMARK UNBOUND:                -0.190
REMARK SMILES CC1=CC[C@H](C(C)C)C=C1
REMARK SMILES IDX 1 1 2 2 3 3 4 4 5 5 9 6 10 7 6 8 7 9 8 10
REMARK H PARENT
REMARK Flexibility Score: inf
ROOT
ATOM      1  C   UNL     1      30.502   9.471  38.877  1.00  0.00     0.044 C 
ATOM      2  C   UNL     1      30.870   9.227  37.444  1.00  0.00    -0.055 C 
ATOM      3  C   UNL     1      30.699   8.012  36.897  1.00  0.00    -0.023 C 
ATOM      4  C   UNL     1      31.202   7.714  35.509  1.00  0.00     0.035 C 
ATOM      5  C   UNL     1      31.098   8.967  34.602  1.00  0.00     0.018 C 
ATOM      6  C   UNL     1      31.639  10.182  35.323  1.00  0.00    -0.023 C 
ATOM      7  C   UNL     1      31.483  10.313  36.646  1.00  0.00    -0.001 C 
ENDROOT
BRANCH   5   8
ATOM      8  C   UNL     1      31.754   8.792  33.202  1.00  0.00    -0.010 C 
ATOM      9  C   UNL     1      32.784   9.883  32.866  1.00  0.00     0.008 C 
ATOM     10  C   UNL     1      32.379   7.400  33.034  1.00  0.00     0.008 C 
ENDBRANCH   5   8
TORSDOF 1
ENDMDL
MODEL 7
REMARK VINA RESULT:    -4.250      1.876      3.706
REMARK INTER + INTRA:          -4.689
REMARK INTER:                  -4.498
REMARK INTRA:                  -0.192
REMARK UNBOUND:                -0.190
REMARK SMILES CC1=CC[C@H](C(C)C)C=C1
REMARK SMILES IDX 1 1 2 2 3 3 4 4 5 5 9 6 10 7 6 8 7 9 8 10
REMARK H PARENT
REMARK Flexibility Score: inf
ROOT
ATOM      1  C   UNL     1      32.382  11.503  27.752  1.00  0.00     0.044 C 
ATOM      2  C   UNL     1      32.248  11.101  29.191  1.00  0.00    -0.055 C 
ATOM      3  C   UNL     1      31.548  10.005  29.527  1.00  0.00    -0.023 C 
ATOM      4  C   UNL     1      31.279   9.674  30.971  1.00  0.00     0.035 C 
ATOM      5  C   UNL     1      32.466  10.111  31.868  1.00  0.00     0.018 C 
ATOM      6  C   UNL     1      32.900  11.517  31.516  1.00  0.00    -0.023 C 
ATOM      7  C   UNL     1      32.838  11.950  30.251  1.00  0.00    -0.001 C 
ENDROOT
BRANCH   5   8
ATOM      8  C   UNL     1      32.197   9.960  33.394  1.00  0.00    -0.010 C 
ATOM      9  C   UNL     1      32.603  11.196  34.214  1.00  0.00     0.008 C 
ATOM     10  C   UNL     1      30.736   9.588  33.682  1.00  0.00     0.008 C 
ENDBRANCH   5   8
TORSDOF 1
ENDMDL
MODEL 8
REMARK VINA RESULT:    -4.225      1.494      2.787
REMARK INTER + INTRA:          -4.662
REMARK INTER:                  -4.515
REMARK INTRA:                  -0.147
REMARK UNBOUND:                -0.190
REMARK SMILES CC1=CC[C@H](C(C)C)C=C1
REMARK SMILES IDX 1 1 2 2 3 3 4 4 5 5 9 6 10 7 6 8 7 9 8 10
REMARK H PARENT
REMARK Flexibility Score: inf
ROOT
ATOM      1  C   UNL     1      32.130  12.170  28.794  1.00  0.00     0.044 C 
ATOM      2  C   UNL     1      32.199  11.322  30.028  1.00  0.00    -0.055 C 
ATOM      3  C   UNL     1      32.859  11.757  31.114  1.00  0.00    -0.023 C 
ATOM      4  C   UNL     1      33.064  10.857  32.305  1.00  0.00     0.035 C 
ATOM      5  C   UNL     1      31.855   9.906  32.493  1.00  0.00     0.018 C 
ATOM      6  C   UNL     1      31.468   9.281  31.170  1.00  0.00    -0.023 C 
ATOM      7  C   UNL     1      31.589   9.972  30.031  1.00  0.00    -0.001 C 
ENDROOT
BRANCH   5   8
ATOM      8  C   UNL     1      32.061   8.829  33.597  1.00  0.00    -0.010 C 
ATOM      9  C   UNL     1      31.099   8.978  34.788  1.00  0.00     0.008 C 
ATOM     10  C   UNL     1      31.985   7.405  33.028  1.00  0.00     0.008 C 
ENDBRANCH   5   8
TORSDOF 1
ENDMDL
MODEL 9
REMARK VINA RESULT:    -4.148      2.146      4.299
REMARK INTER + INTRA:          -4.581
REMARK INTER:                  -4.392
REMARK INTRA:                  -0.189
REMARK UNBOUND:                -0.190
REMARK SMILES CC1=CC[C@H](C(C)C)C=C1
REMARK SMILES IDX 1 1 2 2 3 3 4 4 5 5 9 6 10 7 6 8 7 9 8 10
REMARK H PARENT
REMARK Flexibility Score: inf
ROOT
ATOM      1  C   UNL     1      29.965   6.553  30.246  1.00  0.00     0.044 C 
ATOM      2  C   UNL     1      30.656   7.724  30.879  1.00  0.00    -0.055 C 
ATOM      3  C   UNL     1      31.059   7.663  32.159  1.00  0.00    -0.023 C 
ATOM      4  C   UNL     1      31.617   8.879  32.850  1.00  0.00     0.035 C 
ATOM      5  C   UNL     1      32.408   9.766  31.855  1.00  0.00     0.018 C 
ATOM      6  C   UNL     1      31.617   9.957  30.580  1.00  0.00    -0.023 C 
ATOM      7  C   UNL     1      30.839   8.976  30.109  1.00  0.00    -0.001 C 
ENDROOT
BRANCH   5   8
ATOM      8  C   UNL     1      32.873  11.127  32.451  1.00  0.00    -0.010 C 
ATOM      9  C   UNL     1      32.138  12.341  31.856  1.00  0.00     0.008 C 
ATOM     10  C   UNL     1      32.774  11.144  33.983  1.00  0.00     0.008 C 
ENDBRANCH   5   8
TORSDOF 1
ENDMDL
