MODEL 1
REMARK VINA RESULT:    -6.133      0.000      0.000
REMARK INTER + INTRA:          -6.313
REMARK INTER:                  -6.313
REMARK INTRA:                   0.000
REMARK UNBOUND:                 0.000
REMARK SMILES O=c1ccc2ccc(O)cc2o1
REMARK SMILES IDX 6 1 7 2 8 3 10 4 11 5 5 6 4 7 3 8 2 9 1 10 12 11 9 12
REMARK H PARENT 9 13
REMARK Flexibility Score: inf
ROOT
ATOM      1  C   UNL     1     -30.923  -2.979 -18.381  1.00  0.00     0.016 A 
ATOM      2  C   UNL     1     -31.282  -2.412 -19.608  1.00  0.00     0.047 A 
ATOM      3  C   UNL     1     -32.614  -2.444 -20.039  1.00  0.00     0.119 A 
ATOM      4  C   UNL     1     -33.595  -3.048 -19.237  1.00  0.00     0.094 A 
ATOM      5  C   UNL     1     -33.244  -3.617 -18.009  1.00  0.00     0.142 A 
ATOM      6  C   UNL     1     -31.899  -3.583 -17.577  1.00  0.00     0.018 A 
ATOM      7  C   UNL     1     -31.579  -4.162 -16.345  1.00  0.00     0.019 A 
ATOM      8  C   UNL     1     -32.588  -4.750 -15.584  1.00  0.00     0.094 A 
ATOM      9  C   UNL     1     -33.898  -4.747 -16.074  1.00  0.00     0.336 A 
ATOM     10  O   UNL     1     -34.822  -5.274 -15.402  1.00  0.00    -0.246 OA
ATOM     11  O   UNL     1     -34.176  -4.190 -17.251  1.00  0.00    -0.423 OA
ENDROOT
BRANCH   3  12
ATOM     12  O   UNL     1     -32.952  -1.872 -21.264  1.00  0.00    -0.508 OA
ATOM     13  H   UNL     1     -33.284  -2.437 -22.037  1.00  0.00     0.293 HD
ENDBRANCH   3  12
TORSDOF 1
ENDMDL
MODEL 2
REMARK VINA RESULT:    -6.047      6.702      8.815
REMARK INTER + INTRA:          -6.223
REMARK INTER:                  -6.223
REMARK INTRA:                   0.000
REMARK UNBOUND:                 0.000
REMARK SMILES O=c1ccc2ccc(O)cc2o1
REMARK SMILES IDX 6 1 7 2 8 3 10 4 11 5 5 6 4 7 3 8 2 9 1 10 12 11 9 12
REMARK H PARENT 9 13
REMARK Flexibility Score: inf
ROOT
ATOM      1  C   UNL     1     -38.495  -8.980 -13.561  1.00  0.00     0.016 A 
ATOM      2  C   UNL     1     -39.893  -8.996 -13.565  1.00  0.00     0.047 A 
ATOM      3  C   UNL     1     -40.614  -7.812 -13.370  1.00  0.00     0.119 A 
ATOM      4  C   UNL     1     -39.933  -6.602 -13.167  1.00  0.00     0.094 A 
ATOM      5  C   UNL     1     -38.534  -6.578 -13.161  1.00  0.00     0.142 A 
ATOM      6  C   UNL     1     -37.810  -7.775 -13.359  1.00  0.00     0.018 A 
ATOM      7  C   UNL     1     -36.413  -7.718 -13.346  1.00  0.00     0.019 A 
ATOM      8  C   UNL     1     -35.780  -6.493 -13.142  1.00  0.00     0.094 A 
ATOM      9  C   UNL     1     -36.562  -5.348 -12.953  1.00  0.00     0.336 A 
ATOM     10  O   UNL     1     -36.008  -4.233 -12.766  1.00  0.00    -0.246 OA
ATOM     11  O   UNL     1     -37.890  -5.429 -12.968  1.00  0.00    -0.423 OA
ENDROOT
BRANCH   3  12
ATOM     12  O   UNL     1     -42.007  -7.848 -13.379  1.00  0.00    -0.508 OA
ATOM     13  H   UNL     1     -42.537  -8.013 -12.531  1.00  0.00     0.293 HD
ENDBRANCH   3  12
TORSDOF 1
ENDMDL
MODEL 3
REMARK VINA RESULT:    -5.811      6.456      8.367
REMARK INTER + INTRA:          -5.981
REMARK INTER:                  -5.981
REMARK INTRA:                   0.000
REMARK UNBOUND:                 0.000
REMARK SMILES O=c1ccc2ccc(O)cc2o1
REMARK SMILES IDX 6 1 7 2 8 3 10 4 11 5 5 6 4 7 3 8 2 9 1 10 12 11 9 12
REMARK H PARENT 9 13
REMARK Flexibility Score: inf
ROOT
ATOM      1  C   UNL     1     -36.752  -8.508 -13.403  1.00  0.00     0.016 A 
ATOM      2  C   UNL     1     -37.902  -9.303 -13.418  1.00  0.00     0.047 A 
ATOM      3  C   UNL     1     -39.169  -8.714 -13.323  1.00  0.00     0.119 A 
ATOM      4  C   UNL     1     -39.288  -7.321 -13.212  1.00  0.00     0.094 A 
ATOM      5  C   UNL     1     -38.142  -6.519 -13.196  1.00  0.00     0.142 A 
ATOM      6  C   UNL     1     -36.865  -7.116 -13.292  1.00  0.00     0.018 A 
ATOM      7  C   UNL     1     -35.739  -6.287 -13.272  1.00  0.00     0.019 A 
ATOM      8  C   UNL     1     -35.906  -4.908 -13.160  1.00  0.00     0.094 A 
ATOM      9  C   UNL     1     -37.201  -4.387 -13.069  1.00  0.00     0.336 A 
ATOM     10  O   UNL     1     -37.373  -3.144 -12.967  1.00  0.00    -0.246 OA
ATOM     11  O   UNL     1     -38.257  -5.197 -13.089  1.00  0.00    -0.423 OA
ENDROOT
BRANCH   3  12
ATOM     12  O   UNL     1     -40.304  -9.524 -13.341  1.00  0.00    -0.508 OA
ATOM     13  H   UNL     1     -41.133  -9.261 -13.862  1.00  0.00     0.293 HD
ENDBRANCH   3  12
TORSDOF 1
ENDMDL
MODEL 4
REMARK VINA RESULT:    -5.622      6.328      7.923
REMARK INTER + INTRA:          -5.786
REMARK INTER:                  -5.786
REMARK INTRA:                   0.000
REMARK UNBOUND:                 0.000
REMARK SMILES O=c1ccc2ccc(O)cc2o1
REMARK SMILES IDX 6 1 7 2 8 3 10 4 11 5 5 6 4 7 3 8 2 9 1 10 12 11 9 12
REMARK H PARENT 9 13
REMARK Flexibility Score: inf
ROOT
ATOM      1  C   UNL     1     -35.900  -6.773 -13.371  1.00  0.00     0.016 A 
ATOM      2  C   UNL     1     -35.809  -5.380 -13.302  1.00  0.00     0.047 A 
ATOM      3  C   UNL     1     -36.968  -4.598 -13.218  1.00  0.00     0.119 A 
ATOM      4  C   UNL     1     -38.228  -5.214 -13.204  1.00  0.00     0.094 A 
ATOM      5  C   UNL     1     -38.328  -6.608 -13.274  1.00  0.00     0.142 A 
ATOM      6  C   UNL     1     -37.157  -7.393 -13.358  1.00  0.00     0.018 A 
ATOM      7  C   UNL     1     -37.290  -8.784 -13.427  1.00  0.00     0.019 A 
ATOM      8  C   UNL     1     -38.564  -9.350 -13.410  1.00  0.00     0.094 A 
ATOM      9  C   UNL     1     -39.679  -8.510 -13.324  1.00  0.00     0.336 A 
ATOM     10  O   UNL     1     -40.837  -9.003 -13.308  1.00  0.00    -0.246 OA
ATOM     11  O   UNL     1     -39.525  -7.190 -13.261  1.00  0.00    -0.423 OA
ENDROOT
BRANCH   3  12
ATOM     12  O   UNL     1     -36.855  -3.211 -13.149  1.00  0.00    -0.508 OA
ATOM     13  H   UNL     1     -35.995  -2.764 -12.853  1.00  0.00     0.293 HD
ENDBRANCH   3  12
TORSDOF 1
ENDMDL
MODEL 5
REMARK VINA RESULT:    -5.537      5.643      7.268
REMARK INTER + INTRA:          -5.699
REMARK INTER:                  -5.699
REMARK INTRA:                   0.000
REMARK UNBOUND:                 0.000
REMARK SMILES O=c1ccc2ccc(O)cc2o1
REMARK SMILES IDX 6 1 7 2 8 3 10 4 11 5 5 6 4 7 3 8 2 9 1 10 12 11 9 12
REMARK H PARENT 9 13
REMARK Flexibility Score: inf
ROOT
ATOM      1  C   UNL     1     -36.725  -8.106 -13.344  1.00  0.00     0.016 A 
ATOM      2  C   UNL     1     -37.679  -8.846 -14.049  1.00  0.00     0.047 A 
ATOM      3  C   UNL     1     -38.497  -8.222 -14.999  1.00  0.00     0.119 A 
ATOM      4  C   UNL     1     -38.360  -6.848 -15.247  1.00  0.00     0.094 A 
ATOM      5  C   UNL     1     -37.407  -6.101 -14.546  1.00  0.00     0.142 A 
ATOM      6  C   UNL     1     -36.584  -6.733 -13.588  1.00  0.00     0.018 A 
ATOM      7  C   UNL     1     -35.642  -5.959 -12.903  1.00  0.00     0.019 A 
ATOM      8  C   UNL     1     -35.543  -4.597 -13.184  1.00  0.00     0.094 A 
ATOM      9  C   UNL     1     -36.391  -4.038 -14.146  1.00  0.00     0.336 A 
ATOM     10  O   UNL     1     -36.316  -2.810 -14.413  1.00  0.00    -0.246 OA
ATOM     11  O   UNL     1     -37.280  -4.797 -14.783  1.00  0.00    -0.423 OA
ENDROOT
BRANCH   3  12
ATOM     12  O   UNL     1     -39.442  -8.977 -15.692  1.00  0.00    -0.508 OA
ATOM     13  H   UNL     1     -40.255  -8.546 -16.116  1.00  0.00     0.293 HD
ENDBRANCH   3  12
TORSDOF 1
ENDMDL
MODEL 6
REMARK VINA RESULT:    -5.495      7.526      8.919
REMARK INTER + INTRA:          -5.656
REMARK INTER:                  -5.656
REMARK INTRA:                   0.000
REMARK UNBOUND:                 0.000
REMARK SMILES O=c1ccc2ccc(O)cc2o1
REMARK SMILES IDX 6 1 7 2 8 3 10 4 11 5 5 6 4 7 3 8 2 9 1 10 12 11 9 12
REMARK H PARENT 9 13
REMARK Flexibility Score: inf
ROOT
ATOM      1  C   UNL     1     -39.684  -8.464 -13.337  1.00  0.00     0.016 A 
ATOM      2  C   UNL     1     -38.669  -9.195 -13.961  1.00  0.00     0.047 A 
ATOM      3  C   UNL     1     -37.415  -8.614 -14.186  1.00  0.00     0.119 A 
ATOM      4  C   UNL     1     -37.174  -7.292 -13.784  1.00  0.00     0.094 A 
ATOM      5  C   UNL     1     -38.184  -6.553 -13.160  1.00  0.00     0.142 A 
ATOM      6  C   UNL     1     -39.448  -7.143 -12.934  1.00  0.00     0.018 A 
ATOM      7  C   UNL     1     -40.438  -6.378 -12.309  1.00  0.00     0.019 A 
ATOM      8  C   UNL     1     -40.151  -5.068 -11.927  1.00  0.00     0.094 A 
ATOM      9  C   UNL     1     -38.877  -4.550 -12.182  1.00  0.00     0.336 A 
ATOM     10  O   UNL     1     -38.600  -3.370 -11.846  1.00  0.00    -0.246 OA
ATOM     11  O   UNL     1     -37.953  -5.299 -12.780  1.00  0.00    -0.423 OA
ENDROOT
BRANCH   3  12
ATOM     12  O   UNL     1     -36.416  -9.360 -14.808  1.00  0.00    -0.508 OA
ATOM     13  H   UNL     1     -35.439  -9.103 -14.731  1.00  0.00     0.293 HD
ENDBRANCH   3  12
TORSDOF 1
ENDMDL
MODEL 7
REMARK VINA RESULT:    -5.494      5.810      8.722
REMARK INTER + INTRA:          -5.655
REMARK INTER:                  -5.655
REMARK INTRA:                   0.000
REMARK UNBOUND:                 0.000
REMARK SMILES O=c1ccc2ccc(O)cc2o1
REMARK SMILES IDX 6 1 7 2 8 3 10 4 11 5 5 6 4 7 3 8 2 9 1 10 12 11 9 12
REMARK H PARENT 9 13
REMARK Flexibility Score: inf
ROOT
ATOM      1  C   UNL     1     -40.018  -6.449 -12.991  1.00  0.00     0.016 A 
ATOM      2  C   UNL     1     -40.488  -7.766 -12.991  1.00  0.00     0.047 A 
ATOM      3  C   UNL     1     -39.640  -8.819 -13.358  1.00  0.00     0.119 A 
ATOM      4  C   UNL     1     -38.314  -8.554 -13.728  1.00  0.00     0.094 A 
ATOM      5  C   UNL     1     -37.836  -7.239 -13.730  1.00  0.00     0.142 A 
ATOM      6  C   UNL     1     -38.693  -6.179 -13.359  1.00  0.00     0.018 A 
ATOM      7  C   UNL     1     -38.186  -4.876 -13.373  1.00  0.00     0.019 A 
ATOM      8  C   UNL     1     -36.860  -4.662 -13.748  1.00  0.00     0.094 A 
ATOM      9  C   UNL     1     -36.069  -5.759 -14.103  1.00  0.00     0.336 A 
ATOM     10  O   UNL     1     -34.871  -5.586 -14.444  1.00  0.00    -0.246 OA
ATOM     11  O   UNL     1     -36.577  -6.990 -14.083  1.00  0.00    -0.423 OA
ENDROOT
BRANCH   3  12
ATOM     12  O   UNL     1     -40.127 -10.125 -13.351  1.00  0.00    -0.508 OA
ATOM     13  H   UNL     1     -41.090 -10.329 -13.110  1.00  0.00     0.293 HD
ENDBRANCH   3  12
TORSDOF 1
ENDMDL
MODEL 8
REMARK VINA RESULT:    -5.487      2.082      3.444
REMARK INTER + INTRA:          -5.648
REMARK INTER:                  -5.648
REMARK INTRA:                   0.000
REMARK UNBOUND:                 0.000
REMARK SMILES O=c1ccc2ccc(O)cc2o1
REMARK SMILES IDX 6 1 7 2 8 3 10 4 11 5 5 6 4 7 3 8 2 9 1 10 12 11 9 12
REMARK H PARENT 9 13
REMARK Flexibility Score: inf
ROOT
ATOM      1  C   UNL     1     -31.608  -3.052 -17.929  1.00  0.00     0.016 A 
ATOM      2  C   UNL     1     -30.531  -3.723 -17.343  1.00  0.00     0.047 A 
ATOM      3  C   UNL     1     -30.717  -4.980 -16.754  1.00  0.00     0.119 A 
ATOM      4  C   UNL     1     -31.990  -5.569 -16.749  1.00  0.00     0.094 A 
ATOM      5  C   UNL     1     -33.073  -4.904 -17.332  1.00  0.00     0.142 A 
ATOM      6  C   UNL     1     -32.882  -3.637 -17.926  1.00  0.00     0.018 A 
ATOM      7  C   UNL     1     -33.985  -2.996 -18.500  1.00  0.00     0.019 A 
ATOM      8  C   UNL     1     -35.230  -3.622 -18.471  1.00  0.00     0.094 A 
ATOM      9  C   UNL     1     -35.345  -4.878 -17.865  1.00  0.00     0.336 A 
ATOM     10  O   UNL     1     -36.461  -5.458 -17.828  1.00  0.00    -0.246 OA
ATOM     11  O   UNL     1     -34.280  -5.465 -17.325  1.00  0.00    -0.423 OA
ENDROOT
BRANCH   3  12
ATOM     12  O   UNL     1     -29.630  -5.633 -16.176  1.00  0.00    -0.508 OA
ATOM     13  H   UNL     1     -28.724  -5.185 -16.097  1.00  0.00     0.293 HD
ENDBRANCH   3  12
TORSDOF 1
ENDMDL
MODEL 9
REMARK VINA RESULT:    -5.344      5.998      7.903
REMARK INTER + INTRA:          -5.500
REMARK INTER:                  -5.500
REMARK INTRA:                   0.000
REMARK UNBOUND:                 0.000
REMARK SMILES O=c1ccc2ccc(O)cc2o1
REMARK SMILES IDX 6 1 7 2 8 3 10 4 11 5 5 6 4 7 3 8 2 9 1 10 12 11 9 12
REMARK H PARENT 9 13
REMARK Flexibility Score: inf
ROOT
ATOM      1  C   UNL     1     -38.133  -4.469 -12.832  1.00  0.00     0.016 A 
ATOM      2  C   UNL     1     -36.814  -4.043 -13.014  1.00  0.00     0.047 A 
ATOM      3  C   UNL     1     -35.812  -4.965 -13.341  1.00  0.00     0.119 A 
ATOM      4  C   UNL     1     -36.131  -6.323 -13.488  1.00  0.00     0.094 A 
ATOM      5  C   UNL     1     -37.448  -6.757 -13.308  1.00  0.00     0.142 A 
ATOM      6  C   UNL     1     -38.457  -5.825 -12.978  1.00  0.00     0.018 A 
ATOM      7  C   UNL     1     -39.764  -6.290 -12.803  1.00  0.00     0.019 A 
ATOM      8  C   UNL     1     -40.032  -7.650 -12.960  1.00  0.00     0.094 A 
ATOM      9  C   UNL     1     -38.983  -8.515 -13.287  1.00  0.00     0.336 A 
ATOM     10  O   UNL     1     -39.206  -9.745 -13.432  1.00  0.00    -0.246 OA
ATOM     11  O   UNL     1     -37.748  -8.047 -13.447  1.00  0.00    -0.423 OA
ENDROOT
BRANCH   3  12
ATOM     12  O   UNL     1     -34.503  -4.520 -13.519  1.00  0.00    -0.508 OA
ATOM     13  H   UNL     1     -33.813  -5.087 -13.996  1.00  0.00     0.293 HD
ENDBRANCH   3  12
TORSDOF 1
ENDMDL
