MODEL 1
REMARK VINA RESULT:    -1.030      0.000      0.000
REMARK INTER + INTRA:          -2.761
REMARK INTER:                  -1.933
REMARK INTRA:                  -0.828
REMARK UNBOUND:                -0.828
REMARK SMILES CCCCCCCCC=CCCCCCCCC(=O)[O-]
REMARK SMILES IDX 10 1 9 2 11 3 12 4 13 5 14 6 15 7 16 8 17 9 18 10 19 11
REMARK SMILES IDX 20 12 8 13 7 14 6 15 5 16 4 17 3 18 2 19 1 20
REMARK H PARENT
REMARK Flexibility Score: inf
ROOT
ATOM      1  C   UNL     1     100.771  68.545  72.634  1.00  0.00    -0.031 C 
ATOM      2  C   UNL     1     100.377  68.558  71.347  1.00  0.00    -0.031 C 
ENDROOT
BRANCH   1   3
ATOM      3  C   UNL     1     102.027  67.877  73.138  1.00  0.00     0.027 C 
BRANCH   3   4
ATOM      4  C   UNL     1     102.227  68.068  74.655  1.00  0.00     0.004 C 
BRANCH   4   5
ATOM      5  C   UNL     1     100.962  68.540  75.393  1.00  0.00     0.000 C 
BRANCH   5   6
ATOM      6  C   UNL     1     101.216  69.764  76.287  1.00  0.00     0.000 C 
BRANCH   6   7
ATOM      7  C   UNL     1     100.854  71.087  75.593  1.00  0.00     0.000 C 
BRANCH   7   8
ATOM      8  C   UNL     1     101.593  71.276  74.255  1.00  0.00     0.006 C 
BRANCH   8   9
ATOM      9  C   UNL     1     103.114  71.360  74.441  1.00  0.00     0.053 C 
BRANCH   9  10
ATOM     10  C   UNL     1     103.615  72.763  74.288  1.00  0.00     0.041 C 
ATOM     11  O   UNL     1     102.984  73.588  73.576  1.00  0.00    -0.550 OA
ATOM     12  O   UNL     1     104.761  73.171  74.960  1.00  0.00    -0.550 OA
ENDBRANCH   9  10
ENDBRANCH   8   9
ENDBRANCH   7   8
ENDBRANCH   6   7
ENDBRANCH   5   6
ENDBRANCH   4   5
ENDBRANCH   3   4
ENDBRANCH   1   3
BRANCH   2  13
ATOM     13  C   UNL     1     101.170  67.975  70.203  1.00  0.00     0.027 C 
BRANCH  13  14
ATOM     14  C   UNL     1     100.326  67.948  68.922  1.00  0.00     0.004 C 
BRANCH  14  15
ATOM     15  C   UNL     1      98.821  68.075  69.204  1.00  0.00     0.000 C 
BRANCH  15  16
ATOM     16  C   UNL     1      98.282  69.486  68.914  1.00  0.00     0.000 C 
BRANCH  16  17
ATOM     17  C   UNL     1      99.393  70.486  68.552  1.00  0.00    -0.000 C 
BRANCH  17  18
ATOM     18  C   UNL     1      98.998  71.959  68.786  1.00  0.00    -0.000 C 
BRANCH  18  19
ATOM     19  C   UNL     1      97.475  72.160  68.778  1.00  0.00    -0.003 C 
ATOM     20  C   UNL     1      97.096  73.523  69.353  1.00  0.00     0.004 C 
ENDBRANCH  18  19
ENDBRANCH  17  18
ENDBRANCH  16  17
ENDBRANCH  15  16
ENDBRANCH  14  15
ENDBRANCH  13  14
ENDBRANCH   2  13
TORSDOF 15
ENDMDL
MODEL 2
REMARK VINA RESULT:    -0.752      1.060      1.977
REMARK INTER + INTRA:          -2.239
REMARK INTER:                  -2.808
REMARK INTRA:                   0.569
REMARK UNBOUND:                -0.828
REMARK SMILES CCCCCCCCC=CCCCCCCCC(=O)[O-]
REMARK SMILES IDX 10 1 9 2 11 3 12 4 13 5 14 6 15 7 16 8 17 9 18 10 19 11
REMARK SMILES IDX 20 12 8 13 7 14 6 15 5 16 4 17 3 18 2 19 1 20
REMARK H PARENT
REMARK Flexibility Score: inf
ROOT
ATOM      1  C   UNL     1     100.592  69.167  72.514  1.00  0.00    -0.031 C 
ATOM      2  C   UNL     1      99.851  68.910  71.419  1.00  0.00    -0.031 C 
ENDROOT
BRANCH   1   3
ATOM      3  C   UNL     1     101.847  68.421  72.892  1.00  0.00     0.027 C 
BRANCH   3   4
ATOM      4  C   UNL     1     101.796  67.876  74.334  1.00  0.00     0.004 C 
BRANCH   4   5
ATOM      5  C   UNL     1     102.481  68.787  75.367  1.00  0.00     0.000 C 
BRANCH   5   6
ATOM      6  C   UNL     1     101.480  69.514  76.278  1.00  0.00     0.000 C 
BRANCH   6   7
ATOM      7  C   UNL     1     100.547  70.453  75.497  1.00  0.00     0.000 C 
BRANCH   7   8
ATOM      8  C   UNL     1     101.283  71.675  74.920  1.00  0.00     0.006 C 
BRANCH   8   9
ATOM      9  C   UNL     1     102.789  71.422  74.761  1.00  0.00     0.053 C 
BRANCH   9  10
ATOM     10  C   UNL     1     103.522  72.666  74.362  1.00  0.00     0.041 C 
ATOM     11  O   UNL     1     104.708  72.853  74.743  1.00  0.00    -0.550 OA
ATOM     12  O   UNL     1     102.908  73.604  73.541  1.00  0.00    -0.550 OA
ENDBRANCH   9  10
ENDBRANCH   8   9
ENDBRANCH   7   8
ENDBRANCH   6   7
ENDBRANCH   5   6
ENDBRANCH   4   5
ENDBRANCH   3   4
ENDBRANCH   1   3
BRANCH   2  13
ATOM     13  C   UNL     1     100.208  67.891  70.365  1.00  0.00     0.027 C 
BRANCH  13  14
ATOM     14  C   UNL     1     100.850  68.575  69.150  1.00  0.00     0.004 C 
BRANCH  14  15
ATOM     15  C   UNL     1      99.828  69.343  68.298  1.00  0.00     0.000 C 
BRANCH  15  16
ATOM     16  C   UNL     1      99.490  70.724  68.882  1.00  0.00     0.000 C 
BRANCH  16  17
ATOM     17  C   UNL     1      98.018  71.117  68.672  1.00  0.00    -0.000 C 
BRANCH  17  18
ATOM     18  C   UNL     1      97.021  70.185  69.391  1.00  0.00    -0.000 C 
BRANCH  18  19
ATOM     19  C   UNL     1      97.149  68.727  68.926  1.00  0.00    -0.003 C 
ATOM     20  C   UNL     1      95.828  67.979  69.086  1.00  0.00     0.004 C 
ENDBRANCH  18  19
ENDBRANCH  17  18
ENDBRANCH  16  17
ENDBRANCH  15  16
ENDBRANCH  14  15
ENDBRANCH  13  14
ENDBRANCH   2  13
TORSDOF 15
ENDMDL
MODEL 3
REMARK VINA RESULT:     0.262      1.320      2.076
REMARK INTER + INTRA:          -0.337
REMARK INTER:                  -0.367
REMARK INTRA:                   0.029
REMARK UNBOUND:                -0.828
REMARK SMILES CCCCCCCCC=CCCCCCCCC(=O)[O-]
REMARK SMILES IDX 10 1 9 2 11 3 12 4 13 5 14 6 15 7 16 8 17 9 18 10 19 11
REMARK SMILES IDX 20 12 8 13 7 14 6 15 5 16 4 17 3 18 2 19 1 20
REMARK H PARENT
REMARK Flexibility Score: inf
ROOT
ATOM      1  C   UNL     1     100.549  68.980  72.959  1.00  0.00    -0.031 C 
ATOM      2  C   UNL     1     100.476  68.681  71.649  1.00  0.00    -0.031 C 
ENDROOT
BRANCH   1   3
ATOM      3  C   UNL     1     101.632  68.491  73.890  1.00  0.00     0.027 C 
BRANCH   3   4
ATOM      4  C   UNL     1     101.343  68.841  75.363  1.00  0.00     0.004 C 
BRANCH   4   5
ATOM      5  C   UNL     1     101.609  70.314  75.716  1.00  0.00     0.000 C 
BRANCH   5   6
ATOM      6  C   UNL     1     102.130  71.129  74.522  1.00  0.00     0.000 C 
BRANCH   6   7
ATOM      7  C   UNL     1     103.571  71.623  74.729  1.00  0.00     0.000 C 
BRANCH   7   8
ATOM      8  C   UNL     1     103.780  73.065  74.233  1.00  0.00     0.006 C 
BRANCH   8   9
ATOM      9  C   UNL     1     102.476  73.875  74.243  1.00  0.00     0.053 C 
BRANCH   9  10
ATOM     10  C   UNL     1     102.269  74.609  72.954  1.00  0.00     0.041 C 
ATOM     11  O   UNL     1     102.554  74.059  71.857  1.00  0.00    -0.550 OA
ATOM     12  O   UNL     1     101.728  75.889  72.960  1.00  0.00    -0.550 OA
ENDBRANCH   9  10
ENDBRANCH   8   9
ENDBRANCH   7   8
ENDBRANCH   6   7
ENDBRANCH   5   6
ENDBRANCH   4   5
ENDBRANCH   3   4
ENDBRANCH   1   3
BRANCH   2  13
ATOM     13  C   UNL     1     101.506  67.875  70.897  1.00  0.00     0.027 C 
BRANCH  13  14
ATOM     14  C   UNL     1     101.246  67.945  69.386  1.00  0.00     0.004 C 
BRANCH  14  15
ATOM     15  C   UNL     1      99.792  68.316  69.055  1.00  0.00     0.000 C 
BRANCH  15  16
ATOM     16  C   UNL     1      99.665  69.723  68.448  1.00  0.00     0.000 C 
BRANCH  16  17
ATOM     17  C   UNL     1      99.363  70.803  69.501  1.00  0.00    -0.000 C 
BRANCH  17  18
ATOM     18  C   UNL     1      98.462  71.941  68.977  1.00  0.00    -0.000 C 
BRANCH  18  19
ATOM     19  C   UNL     1      97.043  71.454  68.649  1.00  0.00    -0.003 C 
ATOM     20  C   UNL     1      96.807  70.043  69.182  1.00  0.00     0.004 C 
ENDBRANCH  18  19
ENDBRANCH  17  18
ENDBRANCH  16  17
ENDBRANCH  15  16
ENDBRANCH  14  15
ENDBRANCH  13  14
ENDBRANCH   2  13
TORSDOF 15
ENDMDL
MODEL 4
REMARK VINA RESULT:     0.566      3.385      7.273
REMARK INTER + INTRA:           0.235
REMARK INTER:                  -0.069
REMARK INTRA:                   0.304
REMARK UNBOUND:                -0.828
REMARK SMILES CCCCCCCCC=CCCCCCCCC(=O)[O-]
REMARK SMILES IDX 10 1 9 2 11 3 12 4 13 5 14 6 15 7 16 8 17 9 18 10 19 11
REMARK SMILES IDX 20 12 8 13 7 14 6 15 5 16 4 17 3 18 2 19 1 20
REMARK H PARENT
REMARK Flexibility Score: inf
ROOT
ATOM      1  C   UNL     1     100.449  68.631  72.008  1.00  0.00    -0.031 C 
ATOM      2  C   UNL     1     100.764  68.946  73.279  1.00  0.00    -0.031 C 
ENDROOT
BRANCH   1   3
ATOM      3  C   UNL     1     101.370  67.916  71.050  1.00  0.00     0.027 C 
BRANCH   3   4
ATOM      4  C   UNL     1     100.809  67.875  69.615  1.00  0.00     0.004 C 
BRANCH   4   5
ATOM      5  C   UNL     1     100.621  69.265  68.981  1.00  0.00     0.000 C 
BRANCH   5   6
ATOM      6  C   UNL     1      99.638  70.149  69.763  1.00  0.00     0.000 C 
BRANCH   6   7
ATOM      7  C   UNL     1      98.641  70.876  68.846  1.00  0.00     0.000 C 
BRANCH   7   8
ATOM      8  C   UNL     1      97.218  70.918  69.431  1.00  0.00     0.006 C 
BRANCH   8   9
ATOM      9  C   UNL     1      96.248  70.012  68.660  1.00  0.00     0.053 C 
BRANCH   9  10
ATOM     10  C   UNL     1      96.258  68.610  69.188  1.00  0.00     0.041 C 
ATOM     11  O   UNL     1      97.298  67.906  69.096  1.00  0.00    -0.550 OA
ATOM     12  O   UNL     1      95.130  68.094  69.814  1.00  0.00    -0.550 OA
ENDBRANCH   9  10
ENDBRANCH   8   9
ENDBRANCH   7   8
ENDBRANCH   6   7
ENDBRANCH   5   6
ENDBRANCH   4   5
ENDBRANCH   3   4
ENDBRANCH   1   3
BRANCH   2  13
ATOM     13  C   UNL     1     102.054  68.562  73.960  1.00  0.00     0.027 C 
BRANCH  13  14
ATOM     14  C   UNL     1     102.077  69.086  75.403  1.00  0.00     0.004 C 
BRANCH  14  15
ATOM     15  C   UNL     1     100.736  69.703  75.827  1.00  0.00     0.000 C 
BRANCH  15  16
ATOM     16  C   UNL     1     100.588  71.164  75.372  1.00  0.00     0.000 C 
BRANCH  16  17
ATOM     17  C   UNL     1     101.889  71.971  75.521  1.00  0.00    -0.000 C 
BRANCH  17  18
ATOM     18  C   UNL     1     102.791  71.924  74.270  1.00  0.00    -0.000 C 
BRANCH  18  19
ATOM     19  C   UNL     1     104.277  72.090  74.619  1.00  0.00    -0.003 C 
ATOM     20  C   UNL     1     104.590  73.527  75.028  1.00  0.00     0.004 C 
ENDBRANCH  18  19
ENDBRANCH  17  18
ENDBRANCH  16  17
ENDBRANCH  15  16
ENDBRANCH  14  15
ENDBRANCH  13  14
ENDBRANCH   2  13
TORSDOF 15
ENDMDL
MODEL 5
REMARK VINA RESULT:     1.054      3.046      6.615
REMARK INTER + INTRA:           1.150
REMARK INTER:                   0.431
REMARK INTRA:                   0.719
REMARK UNBOUND:                -0.828
REMARK SMILES CCCCCCCCC=CCCCCCCCC(=O)[O-]
REMARK SMILES IDX 10 1 9 2 11 3 12 4 13 5 14 6 15 7 16 8 17 9 18 10 19 11
REMARK SMILES IDX 20 12 8 13 7 14 6 15 5 16 4 17 3 18 2 19 1 20
REMARK H PARENT
REMARK Flexibility Score: inf
ROOT
ATOM      1  C   UNL     1     101.698  68.341  73.318  1.00  0.00    -0.031 C 
ATOM      2  C   UNL     1     101.823  68.526  74.646  1.00  0.00    -0.031 C 
ENDROOT
BRANCH   1   3
ATOM      3  C   UNL     1     100.529  68.823  72.494  1.00  0.00     0.027 C 
BRANCH   3   4
ATOM      4  C   UNL     1     100.207  67.875  71.321  1.00  0.00     0.004 C 
BRANCH   4   5
ATOM      5  C   UNL     1     101.267  67.883  70.206  1.00  0.00     0.000 C 
BRANCH   5   6
ATOM      6  C   UNL     1     100.765  68.542  68.911  1.00  0.00     0.000 C 
BRANCH   6   7
ATOM      7  C   UNL     1      99.417  69.257  69.099  1.00  0.00     0.000 C 
BRANCH   7   8
ATOM      8  C   UNL     1      99.574  70.674  69.681  1.00  0.00     0.006 C 
BRANCH   8   9
ATOM      9  C   UNL     1      98.851  71.731  68.835  1.00  0.00     0.053 C 
BRANCH   9  10
ATOM     10  C   UNL     1      97.363  71.574  68.901  1.00  0.00     0.041 C 
ATOM     11  O   UNL     1      96.611  72.557  68.673  1.00  0.00    -0.550 OA
ATOM     12  O   UNL     1      96.806  70.332  69.182  1.00  0.00    -0.550 OA
ENDBRANCH   9  10
ENDBRANCH   8   9
ENDBRANCH   7   8
ENDBRANCH   6   7
ENDBRANCH   5   6
ENDBRANCH   4   5
ENDBRANCH   3   4
ENDBRANCH   1   3
BRANCH   2  13
ATOM     13  C   UNL     1     100.853  69.310  75.496  1.00  0.00     0.027 C 
BRANCH  13  14
ATOM     14  C   UNL     1     100.761  70.762  75.007  1.00  0.00     0.004 C 
BRANCH  14  15
ATOM     15  C   UNL     1     101.951  71.616  75.471  1.00  0.00     0.000 C 
BRANCH  15  16
ATOM     16  C   UNL     1     103.248  71.283  74.715  1.00  0.00     0.000 C 
BRANCH  16  17
ATOM     17  C   UNL     1     104.207  72.481  74.619  1.00  0.00    -0.000 C 
BRANCH  17  18
ATOM     18  C   UNL     1     103.819  73.496  73.523  1.00  0.00    -0.000 C 
BRANCH  18  19
ATOM     19  C   UNL     1     102.332  73.876  73.583  1.00  0.00    -0.003 C 
ATOM     20  C   UNL     1     101.988  74.923  72.527  1.00  0.00     0.004 C 
ENDBRANCH  18  19
ENDBRANCH  17  18
ENDBRANCH  16  17
ENDBRANCH  15  16
ENDBRANCH  14  15
ENDBRANCH  13  14
ENDBRANCH   2  13
TORSDOF 15
ENDMDL
MODEL 6
REMARK VINA RESULT:     1.963      7.453     10.910
REMARK INTER + INTRA:           2.857
REMARK INTER:                   4.079
REMARK INTRA:                  -1.222
REMARK UNBOUND:                -0.828
REMARK SMILES CCCCCCCCC=CCCCCCCCC(=O)[O-]
REMARK SMILES IDX 10 1 9 2 11 3 12 4 13 5 14 6 15 7 16 8 17 9 18 10 19 11
REMARK SMILES IDX 20 12 8 13 7 14 6 15 5 16 4 17 3 18 2 19 1 20
REMARK H PARENT
REMARK Flexibility Score: inf
ROOT
ATOM      1  C   UNL     1      97.268  71.427  82.525  1.00  0.00    -0.031 C 
ATOM      2  C   UNL     1      96.382  70.662  83.191  1.00  0.00    -0.031 C 
ENDROOT
BRANCH   1   3
ATOM      3  C   UNL     1      98.766  71.327  82.673  1.00  0.00     0.027 C 
BRANCH   3   4
ATOM      4  C   UNL     1      99.511  71.710  81.378  1.00  0.00     0.004 C 
BRANCH   4   5
ATOM      5  C   UNL     1      98.579  72.060  80.205  1.00  0.00     0.000 C 
BRANCH   5   6
ATOM      6  C   UNL     1      99.342  72.360  78.906  1.00  0.00     0.000 C 
BRANCH   6   7
ATOM      7  C   UNL     1      99.068  71.320  77.808  1.00  0.00     0.000 C 
BRANCH   7   8
ATOM      8  C   UNL     1     100.012  71.468  76.601  1.00  0.00     0.006 C 
BRANCH   8   9
ATOM      9  C   UNL     1     100.284  70.125  75.911  1.00  0.00     0.053 C 
BRANCH   9  10
ATOM     10  C   UNL     1     101.223  70.275  74.753  1.00  0.00     0.041 C 
ATOM     11  O   UNL     1     101.045  69.605  73.702  1.00  0.00    -0.550 OA
ATOM     12  O   UNL     1     102.274  71.182  74.821  1.00  0.00    -0.550 OA
ENDBRANCH   9  10
ENDBRANCH   8   9
ENDBRANCH   7   8
ENDBRANCH   6   7
ENDBRANCH   5   6
ENDBRANCH   4   5
ENDBRANCH   3   4
ENDBRANCH   1   3
BRANCH   2  13
ATOM     13  C   UNL     1      96.756  69.537  84.125  1.00  0.00     0.027 C 
BRANCH  13  14
ATOM     14  C   UNL     1      96.315  68.186  83.544  1.00  0.00     0.004 C 
BRANCH  14  15
ATOM     15  C   UNL     1      95.191  68.329  82.507  1.00  0.00     0.000 C 
BRANCH  15  16
ATOM     16  C   UNL     1      93.802  68.457  83.154  1.00  0.00     0.000 C 
BRANCH  16  17
ATOM     17  C   UNL     1      92.747  69.034  82.196  1.00  0.00    -0.000 C 
BRANCH  17  18
ATOM     18  C   UNL     1      92.525  70.552  82.363  1.00  0.00    -0.000 C 
BRANCH  18  19
ATOM     19  C   UNL     1      92.813  71.026  83.795  1.00  0.00    -0.003 C 
ATOM     20  C   UNL     1      93.247  72.489  83.814  1.00  0.00     0.004 C 
ENDBRANCH  18  19
ENDBRANCH  17  18
ENDBRANCH  16  17
ENDBRANCH  15  16
ENDBRANCH  14  15
ENDBRANCH  13  14
ENDBRANCH   2  13
TORSDOF 15
ENDMDL
