MODEL 1
REMARK VINA RESULT:    -8.933      0.000      0.000
REMARK INTER + INTRA:         -14.378
REMARK INTER:                 -13.111
REMARK INTRA:                  -1.267
REMARK UNBOUND:                -1.267
REMARK SMILES O=c1c(O[C@@H]2O[C@@H](CO)[C@@H](O)[C@@H](O)[C@H]2O)c(-c2ccc(O)c(O)c2)oc2cc(O)cc(O)c12
REMARK SMILES IDX 4 1 3 2 16 3 25 4 2 5 26 6 1 7 33 8 27 9 31 10 28 11 30 12
REMARK SMILES IDX 17 13 18 14 19 15 20 16 24 17 22 18 21 19 23 21 32 23 29 25
REMARK SMILES IDX 5 27 14 28 6 29 12 30 7 31 10 32 15 33 13 35 8 37 9 38 11 40
REMARK H PARENT 21 20 23 22 32 24 29 26 15 34 13 36 9 39 11 41
REMARK Flexibility Score: inf
ROOT
ATOM      1  O   UNL     1     -12.490  37.999  -8.900  1.00  0.00    -0.454 OA
ENDROOT
BRANCH   1   2
ATOM      2  C   UNL     1     -11.623  37.850  -7.774  1.00  0.00     0.214 A 
ATOM      3  C   UNL     1     -10.220  38.189  -7.881  1.00  0.00     0.180 A 
ATOM      4  O   UNL     1      -9.451  38.049  -6.811  1.00  0.00    -0.452 OA
ATOM      5  C   UNL     1     -12.081  37.292  -6.553  1.00  0.00     0.239 A 
ATOM      6  C   UNL     1      -9.861  37.578  -5.646  1.00  0.00     0.146 A 
ATOM      7  O   UNL     1     -13.185  36.691  -6.507  1.00  0.00    -0.285 OA
ATOM      8  C   UNL     1     -11.216  37.240  -5.448  1.00  0.00     0.111 A 
ATOM      9  C   UNL     1      -8.939  37.457  -4.613  1.00  0.00     0.094 A 
ATOM     10  C   UNL     1     -11.668  36.967  -4.121  1.00  0.00     0.134 A 
ATOM     11  C   UNL     1      -9.383  37.188  -3.315  1.00  0.00     0.123 A 
ATOM     12  C   UNL     1     -10.753  36.973  -3.059  1.00  0.00     0.093 A 
BRANCH   3  13
ATOM     13  C   UNL     1      -9.492  38.675  -9.104  1.00  0.00     0.025 A 
ATOM     14  C   UNL     1      -8.928  39.988  -9.131  1.00  0.00     0.016 A 
ATOM     15  C   UNL     1      -8.015  40.334 -10.136  1.00  0.00     0.051 A 
ATOM     16  C   UNL     1      -7.441  39.327 -10.923  1.00  0.00     0.157 A 
ATOM     17  C   UNL     1      -9.156  37.802 -10.153  1.00  0.00     0.062 A 
ATOM     18  C   UNL     1      -8.052  38.067 -10.966  1.00  0.00     0.158 A 
BRANCH  16  19
ATOM     19  O   UNL     1      -6.160  39.493 -11.481  1.00  0.00    -0.504 OA
ATOM     20  H   UNL     1      -5.964  39.184 -12.422  1.00  0.00     0.293 HD
ENDBRANCH  16  19
BRANCH  18  21
ATOM     21  O   UNL     1      -7.683  37.095 -11.873  1.00  0.00    -0.504 OA
ATOM     22  H   UNL     1      -8.191  37.012 -12.747  1.00  0.00     0.293 HD
ENDBRANCH  18  21
ENDBRANCH   3  13
BRANCH  10  23
ATOM     23  O   UNL     1     -13.028  36.754  -3.855  1.00  0.00    -0.507 OA
ATOM     24  H   UNL     1     -13.318  36.020  -3.208  1.00  0.00     0.293 HD
ENDBRANCH  10  23
BRANCH  11  25
ATOM     25  O   UNL     1      -8.476  37.168  -2.247  1.00  0.00    -0.508 OA
ATOM     26  H   UNL     1      -7.488  37.004  -2.424  1.00  0.00     0.293 HD
ENDBRANCH  11  25
ENDBRANCH   1   2
BRANCH   1  27
ATOM     27  C   UNL     1     -13.089  39.198  -9.448  1.00  0.00     0.339 C 
ATOM     28  C   UNL     1     -14.642  39.102  -9.244  1.00  0.00     0.214 C 
ATOM     29  O   UNL     1     -12.540  40.378  -8.846  1.00  0.00    -0.332 OA
ATOM     30  C   UNL     1     -15.253  40.094  -8.172  1.00  0.00     0.180 C 
ATOM     31  C   UNL     1     -13.321  41.553  -9.025  1.00  0.00     0.179 C 
ATOM     32  C   UNL     1     -14.559  41.496  -8.086  1.00  0.00     0.177 C 
BRANCH  28  33
ATOM     33  O   UNL     1     -15.263  39.239 -10.485  1.00  0.00    -0.384 OA
ATOM     34  H   UNL     1     -14.999  40.122 -10.833  1.00  0.00     0.211 HD
ENDBRANCH  28  33
BRANCH  30  35
ATOM     35  O   UNL     1     -16.644  40.179  -8.379  1.00  0.00    -0.387 OA
ATOM     36  H   UNL     1     -17.079  39.975  -7.490  1.00  0.00     0.211 HD
ENDBRANCH  30  35
BRANCH  31  37
ATOM     37  C   UNL     1     -13.591  41.982 -10.512  1.00  0.00     0.191 C 
BRANCH  37  38
ATOM     38  O   UNL     1     -12.473  42.575 -11.123  1.00  0.00    -0.394 OA
ATOM     39  H   UNL     1     -11.723  42.571 -10.463  1.00  0.00     0.210 HD
ENDBRANCH  37  38
ENDBRANCH  31  37
BRANCH  32  40
ATOM     40  O   UNL     1     -15.451  42.582  -8.271  1.00  0.00    -0.387 OA
ATOM     41  H   UNL     1     -15.362  43.176  -7.482  1.00  0.00     0.211 HD
ENDBRANCH  32  40
ENDBRANCH   1  27
TORSDOF 12
ENDMDL
MODEL 2
REMARK VINA RESULT:    -8.552      3.047      7.333
REMARK INTER + INTRA:         -13.818
REMARK INTER:                 -12.215
REMARK INTRA:                  -1.603
REMARK UNBOUND:                -1.267
REMARK SMILES O=c1c(O[C@@H]2O[C@@H](CO)[C@@H](O)[C@@H](O)[C@H]2O)c(-c2ccc(O)c(O)c2)oc2cc(O)cc(O)c12
REMARK SMILES IDX 4 1 3 2 16 3 25 4 2 5 26 6 1 7 33 8 27 9 31 10 28 11 30 12
REMARK SMILES IDX 17 13 18 14 19 15 20 16 24 17 22 18 21 19 23 21 32 23 29 25
REMARK SMILES IDX 5 27 14 28 6 29 12 30 7 31 10 32 15 33 13 35 8 37 9 38 11 40
REMARK H PARENT 21 20 23 22 32 24 29 26 15 34 13 36 9 39 11 41
REMARK Flexibility Score: inf
ROOT
ATOM      1  O   UNL     1     -13.820  37.890  -5.104  1.00  0.00    -0.454 OA
ENDROOT
BRANCH   1   2
ATOM      2  C   UNL     1     -13.443  38.803  -6.138  1.00  0.00     0.214 A 
ATOM      3  C   UNL     1     -12.119  39.387  -6.150  1.00  0.00     0.180 A 
ATOM      4  O   UNL     1     -11.804  40.219  -7.133  1.00  0.00    -0.452 OA
ATOM      5  C   UNL     1     -14.367  39.228  -7.126  1.00  0.00     0.239 A 
ATOM      6  C   UNL     1     -12.629  40.595  -8.094  1.00  0.00     0.146 A 
ATOM      7  O   UNL     1     -15.598  39.008  -6.978  1.00  0.00    -0.285 OA
ATOM      8  C   UNL     1     -13.932  40.060  -8.169  1.00  0.00     0.111 A 
ATOM      9  C   UNL     1     -12.174  41.499  -9.049  1.00  0.00     0.094 A 
ATOM     10  C   UNL     1     -14.705  40.300  -9.345  1.00  0.00     0.134 A 
ATOM     11  C   UNL     1     -12.934  41.733 -10.198  1.00  0.00     0.123 A 
ATOM     12  C   UNL     1     -14.188  41.110 -10.365  1.00  0.00     0.093 A 
BRANCH   3  13
ATOM     13  C   UNL     1     -11.025  39.182  -5.140  1.00  0.00     0.025 A 
ATOM     14  C   UNL     1     -11.256  39.471  -3.760  1.00  0.00     0.016 A 
ATOM     15  C   UNL     1     -10.352  39.016  -2.791  1.00  0.00     0.051 A 
ATOM     16  C   UNL     1      -9.401  38.047  -3.136  1.00  0.00     0.157 A 
ATOM     17  C   UNL     1      -9.837  38.508  -5.472  1.00  0.00     0.062 A 
ATOM     18  C   UNL     1      -9.109  37.834  -4.490  1.00  0.00     0.158 A 
BRANCH  16  19
ATOM     19  O   UNL     1      -8.909  37.147  -2.173  1.00  0.00    -0.504 OA
ATOM     20  H   UNL     1      -9.431  36.959  -1.329  1.00  0.00     0.293 HD
ENDBRANCH  16  19
BRANCH  18  21
ATOM     21  O   UNL     1      -8.042  37.064  -4.905  1.00  0.00    -0.504 OA
ATOM     22  H   UNL     1      -7.355  36.759  -4.226  1.00  0.00     0.293 HD
ENDBRANCH  18  21
ENDBRANCH   3  13
BRANCH  10  23
ATOM     23  O   UNL     1     -15.953  39.684  -9.522  1.00  0.00    -0.507 OA
ATOM     24  H   UNL     1     -16.182  38.827  -9.018  1.00  0.00     0.293 HD
ENDBRANCH  10  23
BRANCH  11  25
ATOM     25  O   UNL     1     -12.439  42.560 -11.216  1.00  0.00    -0.508 OA
ATOM     26  H   UNL     1     -12.671  43.549 -11.223  1.00  0.00     0.293 HD
ENDBRANCH  11  25
ENDBRANCH   1   2
BRANCH   1  27
ATOM     27  C   UNL     1     -13.592  36.463  -5.008  1.00  0.00     0.339 C 
ATOM     28  C   UNL     1     -12.887  36.176  -3.636  1.00  0.00     0.214 C 
ATOM     29  O   UNL     1     -14.815  35.728  -5.150  1.00  0.00    -0.332 OA
ATOM     30  C   UNL     1     -13.772  35.427  -2.557  1.00  0.00     0.180 C 
ATOM     31  C   UNL     1     -14.756  34.384  -4.687  1.00  0.00     0.179 C 
ATOM     32  C   UNL     1     -14.779  34.373  -3.132  1.00  0.00     0.177 C 
BRANCH  28  33
ATOM     33  O   UNL     1     -11.694  35.497  -3.882  1.00  0.00    -0.384 OA
ATOM     34  H   UNL     1     -11.015  36.187  -4.069  1.00  0.00     0.211 HD
ENDBRANCH  28  33
BRANCH  30  35
ATOM     35  O   UNL     1     -12.922  34.895  -1.568  1.00  0.00    -0.387 OA
ATOM     36  H   UNL     1     -13.319  34.006  -1.296  1.00  0.00     0.211 HD
ENDBRANCH  30  35
BRANCH  31  37
ATOM     37  C   UNL     1     -13.684  33.465  -5.376  1.00  0.00     0.191 C 
BRANCH  37  38
ATOM     38  O   UNL     1     -14.000  32.099  -5.295  1.00  0.00    -0.394 OA
ATOM     39  H   UNL     1     -13.427  31.611  -5.953  1.00  0.00     0.210 HD
ENDBRANCH  37  38
ENDBRANCH  31  37
BRANCH  32  40
ATOM     40  O   UNL     1     -14.620  33.078  -2.580  1.00  0.00    -0.387 OA
ATOM     41  H   UNL     1     -13.827  32.667  -3.012  1.00  0.00     0.211 HD
ENDBRANCH  32  40
ENDBRANCH   1  27
TORSDOF 12
ENDMDL
MODEL 3
REMARK VINA RESULT:    -8.548      5.382      8.311
REMARK INTER + INTRA:         -13.812
REMARK INTER:                 -11.816
REMARK INTRA:                  -1.996
REMARK UNBOUND:                -1.267
REMARK SMILES O=c1c(O[C@@H]2O[C@@H](CO)[C@@H](O)[C@@H](O)[C@H]2O)c(-c2ccc(O)c(O)c2)oc2cc(O)cc(O)c12
REMARK SMILES IDX 4 1 3 2 16 3 25 4 2 5 26 6 1 7 33 8 27 9 31 10 28 11 30 12
REMARK SMILES IDX 17 13 18 14 19 15 20 16 24 17 22 18 21 19 23 21 32 23 29 25
REMARK SMILES IDX 5 27 14 28 6 29 12 30 7 31 10 32 15 33 13 35 8 37 9 38 11 40
REMARK H PARENT 21 20 23 22 32 24 29 26 15 34 13 36 9 39 11 41
REMARK Flexibility Score: inf
ROOT
ATOM      1  O   UNL     1     -16.978  36.357  -3.136  1.00  0.00    -0.454 OA
ENDROOT
BRANCH   1   2
ATOM      2  C   UNL     1     -16.743  36.300  -1.727  1.00  0.00     0.214 A 
ATOM      3  C   UNL     1     -15.583  35.609  -1.207  1.00  0.00     0.180 A 
ATOM      4  O   UNL     1     -15.394  35.589   0.105  1.00  0.00    -0.452 OA
ATOM      5  C   UNL     1     -17.671  36.837  -0.798  1.00  0.00     0.239 A 
ATOM      6  C   UNL     1     -16.216  36.123   0.992  1.00  0.00     0.146 A 
ATOM      7  O   UNL     1     -18.829  37.154  -1.172  1.00  0.00    -0.285 OA
ATOM      8  C   UNL     1     -17.361  36.831   0.571  1.00  0.00     0.111 A 
ATOM      9  C   UNL     1     -15.909  36.004   2.343  1.00  0.00     0.094 A 
ATOM     10  C   UNL     1     -18.088  37.594   1.534  1.00  0.00     0.134 A 
ATOM     11  C   UNL     1     -16.623  36.750   3.284  1.00  0.00     0.123 A 
ATOM     12  C   UNL     1     -17.695  37.573   2.880  1.00  0.00     0.093 A 
BRANCH   3  13
ATOM     13  C   UNL     1     -14.540  34.863  -1.992  1.00  0.00     0.025 A 
ATOM     14  C   UNL     1     -14.871  33.635  -2.643  1.00  0.00     0.016 A 
ATOM     15  C   UNL     1     -14.001  33.094  -3.598  1.00  0.00     0.051 A 
ATOM     16  C   UNL     1     -12.971  33.888  -4.119  1.00  0.00     0.157 A 
ATOM     17  C   UNL     1     -13.294  35.441  -2.291  1.00  0.00     0.062 A 
ATOM     18  C   UNL     1     -12.586  35.043  -3.426  1.00  0.00     0.158 A 
BRANCH  16  19
ATOM     19  O   UNL     1     -12.482  33.667  -5.420  1.00  0.00    -0.504 OA
ATOM     20  H   UNL     1     -13.060  33.226  -6.121  1.00  0.00     0.293 HD
ENDBRANCH  16  19
BRANCH  18  21
ATOM     21  O   UNL     1     -11.449  35.756  -3.749  1.00  0.00    -0.504 OA
ATOM     22  H   UNL     1     -10.832  35.407  -4.473  1.00  0.00     0.293 HD
ENDBRANCH  18  21
ENDBRANCH   3  13
BRANCH  10  23
ATOM     23  O   UNL     1     -19.154  38.416   1.143  1.00  0.00    -0.507 OA
ATOM     24  H   UNL     1     -19.014  39.420   1.019  1.00  0.00     0.293 HD
ENDBRANCH  10  23
BRANCH  11  25
ATOM     25  O   UNL     1     -16.256  36.720   4.636  1.00  0.00    -0.508 OA
ATOM     26  H   UNL     1     -16.893  37.078   5.343  1.00  0.00     0.293 HD
ENDBRANCH  11  25
ENDBRANCH   1   2
BRANCH   1  27
ATOM     27  C   UNL     1     -16.475  37.299  -4.115  1.00  0.00     0.339 C 
ATOM     28  C   UNL     1     -16.044  38.603  -3.357  1.00  0.00     0.214 C 
ATOM     29  O   UNL     1     -15.397  36.736  -4.875  1.00  0.00    -0.332 OA
ATOM     30  C   UNL     1     -14.485  38.870  -3.289  1.00  0.00     0.180 C 
ATOM     31  C   UNL     1     -14.599  37.690  -5.567  1.00  0.00     0.179 C 
ATOM     32  C   UNL     1     -13.673  38.419  -4.552  1.00  0.00     0.177 C 
BRANCH  28  33
ATOM     33  O   UNL     1     -16.728  39.686  -3.909  1.00  0.00    -0.384 OA
ATOM     34  H   UNL     1     -17.273  39.324  -4.645  1.00  0.00     0.211 HD
ENDBRANCH  28  33
BRANCH  30  35
ATOM     35  O   UNL     1     -14.273  40.221  -2.951  1.00  0.00    -0.387 OA
ATOM     36  H   UNL     1     -14.329  40.277  -1.944  1.00  0.00     0.211 HD
ENDBRANCH  30  35
BRANCH  31  37
ATOM     37  C   UNL     1     -15.354  38.599  -6.602  1.00  0.00     0.191 C 
BRANCH  37  38
ATOM     38  O   UNL     1     -15.161  39.971  -6.369  1.00  0.00    -0.394 OA
ATOM     39  H   UNL     1     -14.744  40.366  -7.187  1.00  0.00     0.210 HD
ENDBRANCH  37  38
ENDBRANCH  31  37
BRANCH  32  40
ATOM     40  O   UNL     1     -12.913  39.462  -5.139  1.00  0.00    -0.387 OA
ATOM     41  H   UNL     1     -13.553  40.131  -5.494  1.00  0.00     0.211 HD
ENDBRANCH  32  40
ENDBRANCH   1  27
TORSDOF 12
ENDMDL
MODEL 4
REMARK VINA RESULT:    -8.462      4.190      9.406
REMARK INTER + INTRA:         -13.686
REMARK INTER:                 -11.903
REMARK INTRA:                  -1.782
REMARK UNBOUND:                -1.267
REMARK SMILES O=c1c(O[C@@H]2O[C@@H](CO)[C@@H](O)[C@@H](O)[C@H]2O)c(-c2ccc(O)c(O)c2)oc2cc(O)cc(O)c12
REMARK SMILES IDX 4 1 3 2 16 3 25 4 2 5 26 6 1 7 33 8 27 9 31 10 28 11 30 12
REMARK SMILES IDX 17 13 18 14 19 15 20 16 24 17 22 18 21 19 23 21 32 23 29 25
REMARK SMILES IDX 5 27 14 28 6 29 12 30 7 31 10 32 15 33 13 35 8 37 9 38 11 40
REMARK H PARENT 21 20 23 22 32 24 29 26 15 34 13 36 9 39 11 41
REMARK Flexibility Score: inf
ROOT
ATOM      1  O   UNL     1     -14.031  40.267  -2.866  1.00  0.00    -0.454 OA
ENDROOT
BRANCH   1   2
ATOM      2  C   UNL     1     -14.332  40.063  -4.249  1.00  0.00     0.214 A 
ATOM      3  C   UNL     1     -15.346  39.108  -4.642  1.00  0.00     0.180 A 
ATOM      4  O   UNL     1     -15.605  38.956  -5.933  1.00  0.00    -0.452 OA
ATOM      5  C   UNL     1     -13.600  40.716  -5.272  1.00  0.00     0.239 A 
ATOM      6  C   UNL     1     -14.971  39.588  -6.907  1.00  0.00     0.146 A 
ATOM      7  O   UNL     1     -12.516  41.297  -5.002  1.00  0.00    -0.285 OA
ATOM      8  C   UNL     1     -13.982  40.549  -6.613  1.00  0.00     0.111 A 
ATOM      9  C   UNL     1     -15.326  39.311  -8.223  1.00  0.00     0.094 A 
ATOM     10  C   UNL     1     -13.496  41.379  -7.667  1.00  0.00     0.134 A 
ATOM     11  C   UNL     1     -14.847  40.123  -9.255  1.00  0.00     0.123 A 
ATOM     12  C   UNL     1     -13.955  41.180  -8.977  1.00  0.00     0.093 A 
BRANCH   3  13
ATOM     13  C   UNL     1     -16.155  38.216  -3.743  1.00  0.00     0.025 A 
ATOM     14  C   UNL     1     -15.696  36.898  -3.435  1.00  0.00     0.016 A 
ATOM     15  C   UNL     1     -16.285  36.180  -2.386  1.00  0.00     0.051 A 
ATOM     16  C   UNL     1     -17.105  36.850  -1.468  1.00  0.00     0.157 A 
ATOM     17  C   UNL     1     -17.250  38.708  -3.013  1.00  0.00     0.062 A 
ATOM     18  C   UNL     1     -17.630  38.103  -1.814  1.00  0.00     0.158 A 
BRANCH  16  19
ATOM     19  O   UNL     1     -17.223  36.394  -0.143  1.00  0.00    -0.504 OA
ATOM     20  H   UNL     1     -18.131  36.213   0.262  1.00  0.00     0.293 HD
ENDBRANCH  16  19
BRANCH  18  21
ATOM     21  O   UNL     1     -18.609  38.727  -1.069  1.00  0.00    -0.504 OA
ATOM     22  H   UNL     1     -18.430  39.647  -0.684  1.00  0.00     0.293 HD
ENDBRANCH  18  21
ENDBRANCH   3  13
BRANCH  10  23
ATOM     23  O   UNL     1     -12.610  42.433  -7.402  1.00  0.00    -0.507 OA
ATOM     24  H   UNL     1     -11.611  42.252  -7.293  1.00  0.00     0.293 HD
ENDBRANCH  10  23
BRANCH  11  25
ATOM     25  O   UNL     1     -15.279  39.921 -10.572  1.00  0.00    -0.508 OA
ATOM     26  H   UNL     1     -16.271  39.820 -10.770  1.00  0.00     0.293 HD
ENDBRANCH  11  25
ENDBRANCH   1   2
BRANCH   1  27
ATOM     27  C   UNL     1     -12.961  39.710  -2.065  1.00  0.00     0.339 C 
ATOM     28  C   UNL     1     -13.546  39.355  -0.653  1.00  0.00     0.214 C 
ATOM     29  O   UNL     1     -12.369  38.571  -2.704  1.00  0.00    -0.332 OA
ATOM     30  C   UNL     1     -13.680  37.809  -0.338  1.00  0.00     0.180 C 
ATOM     31  C   UNL     1     -11.601  37.740  -1.842  1.00  0.00     0.179 C 
ATOM     32  C   UNL     1     -12.557  36.902  -0.948  1.00  0.00     0.177 C 
BRANCH  28  33
ATOM     33  O   UNL     1     -12.793  40.014   0.319  1.00  0.00    -0.384 OA
ATOM     34  H   UNL     1     -12.351  40.768  -0.136  1.00  0.00     0.211 HD
ENDBRANCH  28  33
BRANCH  30  35
ATOM     35  O   UNL     1     -13.828  37.644   1.053  1.00  0.00    -0.387 OA
ATOM     36  H   UNL     1     -14.031  36.666   1.206  1.00  0.00     0.211 HD
ENDBRANCH  30  35
BRANCH  31  37
ATOM     37  C   UNL     1     -10.393  38.432  -1.115  1.00  0.00     0.191 C 
BRANCH  37  38
ATOM     38  O   UNL     1     -10.513  38.417   0.285  1.00  0.00    -0.394 OA
ATOM     39  H   UNL     1     -11.230  39.066   0.539  1.00  0.00     0.210 HD
ENDBRANCH  37  38
ENDBRANCH  31  37
BRANCH  32  40
ATOM     40  O   UNL     1     -11.876  36.118   0.017  1.00  0.00    -0.387 OA
ATOM     41  H   UNL     1     -12.450  36.080   0.825  1.00  0.00     0.211 HD
ENDBRANCH  32  40
ENDBRANCH   1  27
TORSDOF 12
ENDMDL
MODEL 5
REMARK VINA RESULT:    -8.441      2.004      2.762
REMARK INTER + INTRA:         -13.656
REMARK INTER:                 -12.369
REMARK INTRA:                  -1.286
REMARK UNBOUND:                -1.267
REMARK SMILES O=c1c(O[C@@H]2O[C@@H](CO)[C@@H](O)[C@@H](O)[C@H]2O)c(-c2ccc(O)c(O)c2)oc2cc(O)cc(O)c12
REMARK SMILES IDX 4 1 3 2 16 3 25 4 2 5 26 6 1 7 33 8 27 9 31 10 28 11 30 12
REMARK SMILES IDX 17 13 18 14 19 15 20 16 24 17 22 18 21 19 23 21 32 23 29 25
REMARK SMILES IDX 5 27 14 28 6 29 12 30 7 31 10 32 15 33 13 35 8 37 9 38 11 40
REMARK H PARENT 21 20 23 22 32 24 29 26 15 34 13 36 9 39 11 41
REMARK Flexibility Score: inf
ROOT
ATOM      1  O   UNL     1     -11.721  39.440  -7.056  1.00  0.00    -0.454 OA
ENDROOT
BRANCH   1   2
ATOM      2  C   UNL     1     -11.909  38.184  -6.400  1.00  0.00     0.214 A 
ATOM      3  C   UNL     1     -11.519  36.953  -7.053  1.00  0.00     0.180 A 
ATOM      4  O   UNL     1     -11.698  35.809  -6.408  1.00  0.00    -0.452 OA
ATOM      5  C   UNL     1     -12.553  38.094  -5.140  1.00  0.00     0.239 A 
ATOM      6  C   UNL     1     -12.251  35.699  -5.212  1.00  0.00     0.146 A 
ATOM      7  O   UNL     1     -13.190  39.078  -4.683  1.00  0.00    -0.285 OA
ATOM      8  C   UNL     1     -12.644  36.849  -4.496  1.00  0.00     0.111 A 
ATOM      9  C   UNL     1     -12.405  34.431  -4.661  1.00  0.00     0.094 A 
ATOM     10  C   UNL     1     -13.009  36.712  -3.123  1.00  0.00     0.134 A 
ATOM     11  C   UNL     1     -12.765  34.299  -3.318  1.00  0.00     0.123 A 
ATOM     12  C   UNL     1     -13.038  35.439  -2.535  1.00  0.00     0.093 A 
BRANCH   3  13
ATOM     13  C   UNL     1     -10.939  36.797  -8.431  1.00  0.00     0.025 A 
ATOM     14  C   UNL     1     -11.661  36.088  -9.440  1.00  0.00     0.016 A 
ATOM     15  C   UNL     1     -11.266  36.188 -10.781  1.00  0.00     0.051 A 
ATOM     16  C   UNL     1     -10.368  37.193 -11.162  1.00  0.00     0.157 A 
ATOM     17  C   UNL     1      -9.797  37.513  -8.832  1.00  0.00     0.062 A 
ATOM     18  C   UNL     1      -9.593  37.821 -10.178  1.00  0.00     0.158 A 
BRANCH  16  19
ATOM     19  O   UNL     1     -10.395  37.726 -12.464  1.00  0.00    -0.504 OA
ATOM     20  H   UNL     1     -10.389  37.118 -13.271  1.00  0.00     0.293 HD
ENDBRANCH  16  19
BRANCH  18  21
ATOM     21  O   UNL     1      -8.540  38.657 -10.486  1.00  0.00    -0.504 OA
ATOM     22  H   UNL     1      -8.701  39.460 -11.084  1.00  0.00     0.293 HD
ENDBRANCH  18  21
ENDBRANCH   3  13
BRANCH  10  23
ATOM     23  O   UNL     1     -13.281  37.839  -2.335  1.00  0.00    -0.507 OA
ATOM     24  H   UNL     1     -14.037  38.476  -2.589  1.00  0.00     0.293 HD
ENDBRANCH  10  23
BRANCH  11  25
ATOM     25  O   UNL     1     -12.820  33.031  -2.722  1.00  0.00    -0.508 OA
ATOM     26  H   UNL     1     -12.816  32.197  -3.304  1.00  0.00     0.293 HD
ENDBRANCH  11  25
ENDBRANCH   1   2
BRANCH   1  27
ATOM     27  C   UNL     1     -12.417  39.994  -8.199  1.00  0.00     0.339 C 
ATOM     28  C   UNL     1     -13.845  39.346  -8.259  1.00  0.00     0.214 C 
ATOM     29  O   UNL     1     -12.477  41.424  -8.130  1.00  0.00    -0.332 OA
ATOM     30  C   UNL     1     -15.048  40.313  -7.906  1.00  0.00     0.180 C 
ATOM     31  C   UNL     1     -13.455  42.018  -8.976  1.00  0.00     0.179 C 
ATOM     32  C   UNL     1     -14.867  41.801  -8.361  1.00  0.00     0.177 C 
BRANCH  28  33
ATOM     33  O   UNL     1     -14.012  38.752  -9.509  1.00  0.00    -0.384 OA
ATOM     34  H   UNL     1     -14.539  39.384 -10.050  1.00  0.00     0.211 HD
ENDBRANCH  28  33
BRANCH  30  35
ATOM     35  O   UNL     1     -16.244  39.734  -8.376  1.00  0.00    -0.387 OA
ATOM     36  H   UNL     1     -15.974  38.985  -8.999  1.00  0.00     0.211 HD
ENDBRANCH  30  35
BRANCH  31  37
ATOM     37  C   UNL     1     -13.310  41.722 -10.512  1.00  0.00     0.191 C 
BRANCH  37  38
ATOM     38  O   UNL     1     -12.518  42.671 -11.180  1.00  0.00    -0.394 OA
ATOM     39  H   UNL     1     -12.765  42.650 -12.149  1.00  0.00     0.210 HD
ENDBRANCH  37  38
ENDBRANCH  31  37
BRANCH  32  40
ATOM     40  O   UNL     1     -15.916  42.272  -9.190  1.00  0.00    -0.387 OA
ATOM     41  H   UNL     1     -15.660  42.080 -10.129  1.00  0.00     0.211 HD
ENDBRANCH  32  40
ENDBRANCH   1  27
TORSDOF 12
ENDMDL
MODEL 6
REMARK VINA RESULT:    -8.326      4.317      8.452
REMARK INTER + INTRA:         -13.487
REMARK INTER:                 -12.022
REMARK INTRA:                  -1.465
REMARK UNBOUND:                -1.267
REMARK SMILES O=c1c(O[C@@H]2O[C@@H](CO)[C@@H](O)[C@@H](O)[C@H]2O)c(-c2ccc(O)c(O)c2)oc2cc(O)cc(O)c12
REMARK SMILES IDX 4 1 3 2 16 3 25 4 2 5 26 6 1 7 33 8 27 9 31 10 28 11 30 12
REMARK SMILES IDX 17 13 18 14 19 15 20 16 24 17 22 18 21 19 23 21 32 23 29 25
REMARK SMILES IDX 5 27 14 28 6 29 12 30 7 31 10 32 15 33 13 35 8 37 9 38 11 40
REMARK H PARENT 21 20 23 22 32 24 29 26 15 34 13 36 9 39 11 41
REMARK Flexibility Score: inf
ROOT
ATOM      1  O   UNL     1     -14.748  37.363  -3.714  1.00  0.00    -0.454 OA
ENDROOT
BRANCH   1   2
ATOM      2  C   UNL     1     -14.463  38.487  -4.550  1.00  0.00     0.214 A 
ATOM      3  C   UNL     1     -13.480  39.468  -4.146  1.00  0.00     0.180 A 
ATOM      4  O   UNL     1     -13.235  40.489  -4.955  1.00  0.00    -0.452 OA
ATOM      5  C   UNL     1     -15.185  38.722  -5.748  1.00  0.00     0.239 A 
ATOM      6  C   UNL     1     -13.857  40.708  -6.100  1.00  0.00     0.146 A 
ATOM      7  O   UNL     1     -16.250  38.093  -5.979  1.00  0.00    -0.285 OA
ATOM      8  C   UNL     1     -14.817  39.792  -6.580  1.00  0.00     0.111 A 
ATOM      9  C   UNL     1     -13.521  41.837  -6.838  1.00  0.00     0.094 A 
ATOM     10  C   UNL     1     -15.288  39.930  -7.920  1.00  0.00     0.134 A 
ATOM     11  C   UNL     1     -13.985  41.972  -8.150  1.00  0.00     0.123 A 
ATOM     12  C   UNL     1     -14.845  41.003  -8.706  1.00  0.00     0.093 A 
BRANCH   3  13
ATOM     13  C   UNL     1     -12.689  39.492  -2.868  1.00  0.00     0.025 A 
ATOM     14  C   UNL     1     -13.349  39.695  -1.617  1.00  0.00     0.016 A 
ATOM     15  C   UNL     1     -12.672  39.433  -0.419  1.00  0.00     0.051 A 
ATOM     16  C   UNL     1     -11.475  38.706  -0.449  1.00  0.00     0.157 A 
ATOM     17  C   UNL     1     -11.338  39.104  -2.833  1.00  0.00     0.062 A 
ATOM     18  C   UNL     1     -10.782  38.588  -1.661  1.00  0.00     0.158 A 
BRANCH  16  19
ATOM     19  O   UNL     1     -11.084  37.919   0.650  1.00  0.00    -0.504 OA
ATOM     20  H   UNL     1     -10.309  37.276   0.574  1.00  0.00     0.293 HD
ENDBRANCH  16  19
BRANCH  18  21
ATOM     21  O   UNL     1      -9.500  38.081  -1.735  1.00  0.00    -0.504 OA
ATOM     22  H   UNL     1      -8.716  38.720  -1.801  1.00  0.00     0.293 HD
ENDBRANCH  18  21
ENDBRANCH   3  13
BRANCH  10  23
ATOM     23  O   UNL     1     -16.142  38.972  -8.484  1.00  0.00    -0.507 OA
ATOM     24  H   UNL     1     -15.764  38.220  -9.061  1.00  0.00     0.293 HD
ENDBRANCH  10  23
BRANCH  11  25
ATOM     25  O   UNL     1     -13.568  43.052  -8.940  1.00  0.00    -0.508 OA
ATOM     26  H   UNL     1     -13.783  44.003  -8.653  1.00  0.00     0.293 HD
ENDBRANCH  11  25
ENDBRANCH   1   2
BRANCH   1  27
ATOM     27  C   UNL     1     -14.145  36.046  -3.706  1.00  0.00     0.339 C 
ATOM     28  C   UNL     1     -13.300  35.907  -2.392  1.00  0.00     0.214 C 
ATOM     29  O   UNL     1     -15.138  35.018  -3.819  1.00  0.00    -0.332 OA
ATOM     30  C   UNL     1     -13.882  34.911  -1.307  1.00  0.00     0.180 C 
ATOM     31  C   UNL     1     -14.696  33.722  -3.432  1.00  0.00     0.179 C 
ATOM     32  C   UNL     1     -14.611  33.648  -1.881  1.00  0.00     0.177 C 
BRANCH  28  33
ATOM     33  O   UNL     1     -11.989  35.581  -2.738  1.00  0.00    -0.384 OA
ATOM     34  H   UNL     1     -11.844  35.935  -3.646  1.00  0.00     0.211 HD
ENDBRANCH  28  33
BRANCH  30  35
ATOM     35  O   UNL     1     -12.857  34.589  -0.395  1.00  0.00    -0.387 OA
ATOM     36  H   UNL     1     -12.615  35.448   0.080  1.00  0.00     0.211 HD
ENDBRANCH  30  35
BRANCH  31  37
ATOM     37  C   UNL     1     -13.468  33.147  -4.226  1.00  0.00     0.191 C 
BRANCH  37  38
ATOM     38  O   UNL     1     -13.786  32.795  -5.548  1.00  0.00    -0.394 OA
ATOM     39  H   UNL     1     -13.937  33.638  -6.064  1.00  0.00     0.210 HD
ENDBRANCH  37  38
ENDBRANCH  31  37
BRANCH  32  40
ATOM     40  O   UNL     1     -14.080  32.423  -1.408  1.00  0.00    -0.387 OA
ATOM     41  H   UNL     1     -14.796  31.741  -1.482  1.00  0.00     0.211 HD
ENDBRANCH  32  40
ENDBRANCH   1  27
TORSDOF 12
ENDMDL
MODEL 7
REMARK VINA RESULT:    -8.268      2.471      4.118
REMARK INTER + INTRA:         -13.403
REMARK INTER:                 -11.911
REMARK INTRA:                  -1.491
REMARK UNBOUND:                -1.267
REMARK SMILES O=c1c(O[C@@H]2O[C@@H](CO)[C@@H](O)[C@@H](O)[C@H]2O)c(-c2ccc(O)c(O)c2)oc2cc(O)cc(O)c12
REMARK SMILES IDX 4 1 3 2 16 3 25 4 2 5 26 6 1 7 33 8 27 9 31 10 28 11 30 12
REMARK SMILES IDX 17 13 18 14 19 15 20 16 24 17 22 18 21 19 23 21 32 23 29 25
REMARK SMILES IDX 5 27 14 28 6 29 12 30 7 31 10 32 15 33 13 35 8 37 9 38 11 40
REMARK H PARENT 21 20 23 22 32 24 29 26 15 34 13 36 9 39 11 41
REMARK Flexibility Score: inf
ROOT
ATOM      1  O   UNL     1     -13.519  39.991  -6.244  1.00  0.00    -0.454 OA
ENDROOT
BRANCH   1   2
ATOM      2  C   UNL     1     -13.660  38.686  -5.678  1.00  0.00     0.214 A 
ATOM      3  C   UNL     1     -12.712  37.642  -6.005  1.00  0.00     0.180 A 
ATOM      4  O   UNL     1     -12.870  36.448  -5.451  1.00  0.00    -0.452 OA
ATOM      5  C   UNL     1     -14.765  38.348  -4.857  1.00  0.00     0.239 A 
ATOM      6  C   UNL     1     -13.863  36.119  -4.643  1.00  0.00     0.146 A 
ATOM      7  O   UNL     1     -15.769  39.105  -4.804  1.00  0.00    -0.285 OA
ATOM      8  C   UNL     1     -14.821  37.080  -4.257  1.00  0.00     0.111 A 
ATOM      9  C   UNL     1     -13.922  34.818  -4.153  1.00  0.00     0.094 A 
ATOM     10  C   UNL     1     -15.729  36.759  -3.204  1.00  0.00     0.134 A 
ATOM     11  C   UNL     1     -14.814  34.506  -3.124  1.00  0.00     0.123 A 
ATOM     12  C   UNL     1     -15.699  35.483  -2.623  1.00  0.00     0.093 A 
BRANCH   3  13
ATOM     13  C   UNL     1     -11.544  37.735  -6.946  1.00  0.00     0.025 A 
ATOM     14  C   UNL     1     -11.703  37.397  -8.326  1.00  0.00     0.016 A 
ATOM     15  C   UNL     1     -10.712  37.753  -9.250  1.00  0.00     0.051 A 
ATOM     16  C   UNL     1      -9.727  38.678  -8.882  1.00  0.00     0.157 A 
ATOM     17  C   UNL     1     -10.340  38.351  -6.563  1.00  0.00     0.062 A 
ATOM     18  C   UNL     1      -9.510  38.936  -7.522  1.00  0.00     0.158 A 
BRANCH  16  19
ATOM     19  O   UNL     1      -9.118  39.502  -9.847  1.00  0.00    -0.504 OA
ATOM     20  H   UNL     1      -8.261  39.994  -9.638  1.00  0.00     0.293 HD
ENDBRANCH  16  19
BRANCH  18  21
ATOM     21  O   UNL     1      -8.427  39.660  -7.068  1.00  0.00    -0.504 OA
ATOM     22  H   UNL     1      -8.340  40.637  -7.323  1.00  0.00     0.293 HD
ENDBRANCH  18  21
ENDBRANCH   3  13
BRANCH  10  23
ATOM     23  O   UNL     1     -16.612  37.723  -2.697  1.00  0.00    -0.507 OA
ATOM     24  H   UNL     1     -16.815  37.763  -1.698  1.00  0.00     0.293 HD
ENDBRANCH  10  23
BRANCH  11  25
ATOM     25  O   UNL     1     -14.811  33.227  -2.550  1.00  0.00    -0.508 OA
ATOM     26  H   UNL     1     -14.401  32.446  -3.055  1.00  0.00     0.293 HD
ENDBRANCH  11  25
ENDBRANCH   1   2
BRANCH   1  27
ATOM     27  C   UNL     1     -14.136  40.552  -7.428  1.00  0.00     0.339 C 
ATOM     28  C   UNL     1     -13.081  41.475  -8.133  1.00  0.00     0.214 C 
ATOM     29  O   UNL     1     -14.621  39.524  -8.301  1.00  0.00    -0.332 OA
ATOM     30  C   UNL     1     -12.510  40.933  -9.507  1.00  0.00     0.180 C 
ATOM     31  C   UNL     1     -14.879  39.950  -9.634  1.00  0.00     0.179 C 
ATOM     32  C   UNL     1     -13.530  40.131 -10.386  1.00  0.00     0.177 C 
BRANCH  28  33
ATOM     33  O   UNL     1     -13.627  42.751  -8.271  1.00  0.00    -0.384 OA
ATOM     34  H   UNL     1     -13.163  43.172  -9.031  1.00  0.00     0.211 HD
ENDBRANCH  28  33
BRANCH  30  35
ATOM     35  O   UNL     1     -11.908  42.003 -10.199  1.00  0.00    -0.387 OA
ATOM     36  H   UNL     1     -11.557  42.638  -9.495  1.00  0.00     0.211 HD
ENDBRANCH  30  35
BRANCH  31  37
ATOM     37  C   UNL     1     -15.928  41.108  -9.796  1.00  0.00     0.191 C 
BRANCH  37  38
ATOM     38  O   UNL     1     -17.048  40.953  -8.962  1.00  0.00    -0.394 OA
ATOM     39  H   UNL     1     -17.481  41.849  -8.858  1.00  0.00     0.210 HD
ENDBRANCH  37  38
ENDBRANCH  31  37
BRANCH  32  40
ATOM     40  O   UNL     1     -13.685  40.654 -11.694  1.00  0.00    -0.387 OA
ATOM     41  H   UNL     1     -13.941  41.608 -11.603  1.00  0.00     0.211 HD
ENDBRANCH  32  40
ENDBRANCH   1  27
TORSDOF 12
ENDMDL
MODEL 8
REMARK VINA RESULT:    -8.225      2.133      5.579
REMARK INTER + INTRA:         -13.339
REMARK INTER:                 -11.628
REMARK INTRA:                  -1.711
REMARK UNBOUND:                -1.267
REMARK SMILES O=c1c(O[C@@H]2O[C@@H](CO)[C@@H](O)[C@@H](O)[C@H]2O)c(-c2ccc(O)c(O)c2)oc2cc(O)cc(O)c12
REMARK SMILES IDX 4 1 3 2 16 3 25 4 2 5 26 6 1 7 33 8 27 9 31 10 28 11 30 12
REMARK SMILES IDX 17 13 18 14 19 15 20 16 24 17 22 18 21 19 23 21 32 23 29 25
REMARK SMILES IDX 5 27 14 28 6 29 12 30 7 31 10 32 15 33 13 35 8 37 9 38 11 40
REMARK H PARENT 21 20 23 22 32 24 29 26 15 34 13 36 9 39 11 41
REMARK Flexibility Score: inf
ROOT
ATOM      1  O   UNL     1     -10.090  39.355  -7.203  1.00  0.00    -0.454 OA
ENDROOT
BRANCH   1   2
ATOM      2  C   UNL     1     -10.839  39.225  -5.993  1.00  0.00     0.214 A 
ATOM      3  C   UNL     1     -12.259  39.504  -5.979  1.00  0.00     0.180 A 
ATOM      4  O   UNL     1     -12.921  39.359  -4.840  1.00  0.00    -0.452 OA
ATOM      5  C   UNL     1     -10.211  38.904  -4.762  1.00  0.00     0.239 A 
ATOM      6  C   UNL     1     -12.371  39.014  -3.688  1.00  0.00     0.146 A 
ATOM      7  O   UNL     1      -8.959  38.968  -4.655  1.00  0.00    -0.285 OA
ATOM      8  C   UNL     1     -10.997  38.706  -3.615  1.00  0.00     0.111 A 
ATOM      9  C   UNL     1     -13.181  38.927  -2.561  1.00  0.00     0.094 A 
ATOM     10  C   UNL     1     -10.489  38.109  -2.422  1.00  0.00     0.134 A 
ATOM     11  C   UNL     1     -12.681  38.344  -1.393  1.00  0.00     0.123 A 
ATOM     12  C   UNL     1     -11.343  37.904  -1.329  1.00  0.00     0.093 A 
BRANCH   3  13
ATOM     13  C   UNL     1     -13.105  39.978  -7.127  1.00  0.00     0.025 A 
ATOM     14  C   UNL     1     -14.307  39.284  -7.470  1.00  0.00     0.016 A 
ATOM     15  C   UNL     1     -15.234  39.880  -8.335  1.00  0.00     0.051 A 
ATOM     16  C   UNL     1     -15.127  41.246  -8.625  1.00  0.00     0.157 A 
ATOM     17  C   UNL     1     -12.871  41.216  -7.749  1.00  0.00     0.062 A 
ATOM     18  C   UNL     1     -13.915  41.901  -8.374  1.00  0.00     0.158 A 
BRANCH  16  19
ATOM     19  O   UNL     1     -16.268  42.004  -8.948  1.00  0.00    -0.504 OA
ATOM     20  H   UNL     1     -17.146  41.842  -8.475  1.00  0.00     0.293 HD
ENDBRANCH  16  19
BRANCH  18  21
ATOM     21  O   UNL     1     -13.655  43.179  -8.827  1.00  0.00    -0.504 OA
ATOM     22  H   UNL     1     -13.937  43.973  -8.262  1.00  0.00     0.293 HD
ENDBRANCH  18  21
ENDBRANCH   3  13
BRANCH  10  23
ATOM     23  O   UNL     1      -9.161  37.666  -2.348  1.00  0.00    -0.507 OA
ATOM     24  H   UNL     1      -8.391  38.315  -2.518  1.00  0.00     0.293 HD
ENDBRANCH  10  23
BRANCH  11  25
ATOM     25  O   UNL     1     -13.518  38.154  -0.284  1.00  0.00    -0.508 OA
ATOM     26  H   UNL     1     -13.944  37.245  -0.121  1.00  0.00     0.293 HD
ENDBRANCH  11  25
ENDBRANCH   1   2
BRANCH   1  27
ATOM     27  C   UNL     1      -9.907  38.403  -8.279  1.00  0.00     0.339 C 
ATOM     28  C   UNL     1     -10.536  37.037  -7.831  1.00  0.00     0.214 C 
ATOM     29  O   UNL     1     -10.479  38.882  -9.503  1.00  0.00    -0.332 OA
ATOM     30  C   UNL     1     -11.863  36.616  -8.584  1.00  0.00     0.180 C 
ATOM     31  C   UNL     1     -10.695  37.880 -10.490  1.00  0.00     0.179 C 
ATOM     32  C   UNL     1     -11.935  37.028 -10.094  1.00  0.00     0.177 C 
BRANCH  28  33
ATOM     33  O   UNL     1      -9.558  36.047  -7.918  1.00  0.00    -0.384 OA
ATOM     34  H   UNL     1      -8.806  36.442  -8.415  1.00  0.00     0.211 HD
ENDBRANCH  28  33
BRANCH  30  35
ATOM     35  O   UNL     1     -12.081  35.239  -8.377  1.00  0.00    -0.387 OA
ATOM     36  H   UNL     1     -12.313  34.847  -9.279  1.00  0.00     0.211 HD
ENDBRANCH  30  35
BRANCH  31  37
ATOM     37  C   UNL     1      -9.422  37.086 -10.955  1.00  0.00     0.191 C 
BRANCH  37  38
ATOM     38  O   UNL     1      -9.542  35.698 -10.766  1.00  0.00    -0.394 OA
ATOM     39  H   UNL     1      -9.733  35.282 -11.654  1.00  0.00     0.210 HD
ENDBRANCH  37  38
ENDBRANCH  31  37
BRANCH  32  40
ATOM     40  O   UNL     1     -12.165  35.937 -10.969  1.00  0.00    -0.387 OA
ATOM     41  H   UNL     1     -11.467  35.257 -10.784  1.00  0.00     0.211 HD
ENDBRANCH  32  40
ENDBRANCH   1  27
TORSDOF 12
ENDMDL
MODEL 9
REMARK VINA RESULT:    -8.161      3.755      9.265
REMARK INTER + INTRA:         -13.245
REMARK INTER:                 -11.851
REMARK INTRA:                  -1.393
REMARK UNBOUND:                -1.267
REMARK SMILES O=c1c(O[C@@H]2O[C@@H](CO)[C@@H](O)[C@@H](O)[C@H]2O)c(-c2ccc(O)c(O)c2)oc2cc(O)cc(O)c12
REMARK SMILES IDX 4 1 3 2 16 3 25 4 2 5 26 6 1 7 33 8 27 9 31 10 28 11 30 12
REMARK SMILES IDX 17 13 18 14 19 15 20 16 24 17 22 18 21 19 23 21 32 23 29 25
REMARK SMILES IDX 5 27 14 28 6 29 12 30 7 31 10 32 15 33 13 35 8 37 9 38 11 40
REMARK H PARENT 21 20 23 22 32 24 29 26 15 34 13 36 9 39 11 41
REMARK Flexibility Score: inf
ROOT
ATOM      1  O   UNL     1     -13.477  39.534  -3.925  1.00  0.00    -0.454 OA
ENDROOT
BRANCH   1   2
ATOM      2  C   UNL     1     -14.021  39.653  -5.241  1.00  0.00     0.214 A 
ATOM      3  C   UNL     1     -15.325  39.104  -5.544  1.00  0.00     0.180 A 
ATOM      4  O   UNL     1     -15.801  39.245  -6.774  1.00  0.00    -0.452 OA
ATOM      5  C   UNL     1     -13.278  40.229  -6.302  1.00  0.00     0.239 A 
ATOM      6  C   UNL     1     -15.150  39.821  -7.770  1.00  0.00     0.146 A 
ATOM      7  O   UNL     1     -12.041  40.424  -6.176  1.00  0.00    -0.285 OA
ATOM      8  C   UNL     1     -13.882  40.399  -7.559  1.00  0.00     0.111 A 
ATOM      9  C   UNL     1     -15.758  39.876  -9.020  1.00  0.00     0.094 A 
ATOM     10  C   UNL     1     -13.320  41.216  -8.585  1.00  0.00     0.134 A 
ATOM     11  C   UNL     1     -15.205  40.675 -10.025  1.00  0.00     0.123 A 
ATOM     12  C   UNL     1     -14.001  41.373  -9.801  1.00  0.00     0.093 A 
BRANCH   3  13
ATOM     13  C   UNL     1     -16.232  38.345  -4.616  1.00  0.00     0.025 A 
ATOM     14  C   UNL     1     -15.974  36.970  -4.323  1.00  0.00     0.016 A 
ATOM     15  C   UNL     1     -16.632  36.349  -3.253  1.00  0.00     0.051 A 
ATOM     16  C   UNL     1     -17.305  37.135  -2.309  1.00  0.00     0.157 A 
ATOM     17  C   UNL     1     -17.212  38.999  -3.850  1.00  0.00     0.062 A 
ATOM     18  C   UNL     1     -17.640  38.455  -2.638  1.00  0.00     0.158 A 
BRANCH  16  19
ATOM     19  O   UNL     1     -17.447  36.696  -0.979  1.00  0.00    -0.504 OA
ATOM     20  H   UNL     1     -16.866  35.955  -0.616  1.00  0.00     0.293 HD
ENDBRANCH  16  19
BRANCH  18  21
ATOM     21  O   UNL     1     -18.484  39.221  -1.860  1.00  0.00    -0.504 OA
ATOM     22  H   UNL     1     -18.361  39.231  -0.854  1.00  0.00     0.293 HD
ENDBRANCH  18  21
ENDBRANCH   3  13
BRANCH  10  23
ATOM     23  O   UNL     1     -12.124  41.916  -8.373  1.00  0.00    -0.507 OA
ATOM     24  H   UNL     1     -11.275  41.417  -8.103  1.00  0.00     0.293 HD
ENDBRANCH  10  23
BRANCH  11  25
ATOM     25  O   UNL     1     -15.863  40.823 -11.253  1.00  0.00    -0.508 OA
ATOM     26  H   UNL     1     -15.421  40.495 -12.108  1.00  0.00     0.293 HD
ENDBRANCH  11  25
ENDBRANCH   1   2
BRANCH   1  27
ATOM     27  C   UNL     1     -13.115  38.344  -3.182  1.00  0.00     0.339 C 
ATOM     28  C   UNL     1     -11.568  38.385  -2.925  1.00  0.00     0.214 C 
ATOM     29  O   UNL     1     -13.861  38.243  -1.962  1.00  0.00    -0.332 OA
ATOM     30  C   UNL     1     -11.131  38.638  -1.425  1.00  0.00     0.180 C 
ATOM     31  C   UNL     1     -13.310  37.348  -1.003  1.00  0.00     0.179 C 
ATOM     32  C   UNL     1     -12.067  38.006  -0.339  1.00  0.00     0.177 C 
BRANCH  28  33
ATOM     33  O   UNL     1     -11.001  37.216  -3.435  1.00  0.00    -0.384 OA
ATOM     34  H   UNL     1     -11.676  36.817  -4.031  1.00  0.00     0.211 HD
ENDBRANCH  28  33
BRANCH  30  35
ATOM     35  O   UNL     1      -9.781  38.259  -1.278  1.00  0.00    -0.387 OA
ATOM     36  H   UNL     1      -9.782  37.387  -0.767  1.00  0.00     0.211 HD
ENDBRANCH  30  35
BRANCH  31  37
ATOM     37  C   UNL     1     -13.145  35.856  -1.467  1.00  0.00     0.191 C 
BRANCH  37  38
ATOM     38  O   UNL     1     -13.062  34.954  -0.394  1.00  0.00    -0.394 OA
ATOM     39  H   UNL     1     -12.563  34.147  -0.708  1.00  0.00     0.210 HD
ENDBRANCH  37  38
ENDBRANCH  31  37
BRANCH  32  40
ATOM     40  O   UNL     1     -11.391  37.143   0.559  1.00  0.00    -0.387 OA
ATOM     41  H   UNL     1     -10.436  37.411   0.564  1.00  0.00     0.211 HD
ENDBRANCH  32  40
ENDBRANCH   1  27
TORSDOF 12
ENDMDL
