MODEL 1
REMARK VINA RESULT:    -4.006      0.000      0.000
REMARK INTER + INTRA:          -4.835
REMARK INTER:                  -4.709
REMARK INTRA:                  -0.126
REMARK UNBOUND:                -0.126
REMARK SMILES O=C([O-])C=Cc1ccc(O)c(O)c1
REMARK SMILES IDX 6 1 13 2 7 3 11 4 8 5 9 6 5 7 4 8 2 9 1 10 3 11 12 12 10 14
REMARK H PARENT 12 13 10 15
REMARK Flexibility Score: inf
ROOT
ATOM      1  C   UNL     1      25.894 -39.592   0.193  1.00  0.00    -0.022 A 
ATOM      2  C   UNL     1      25.881 -40.772   0.954  1.00  0.00     0.058 A 
ATOM      3  C   UNL     1      25.881 -38.352   0.861  1.00  0.00     0.012 A 
ATOM      4  C   UNL     1      25.879 -40.722   2.357  1.00  0.00     0.157 A 
ATOM      5  C   UNL     1      25.878 -38.301   2.258  1.00  0.00     0.051 A 
ATOM      6  C   UNL     1      25.881 -39.479   3.010  1.00  0.00     0.157 A 
ENDROOT
BRANCH   1   7
ATOM      7  C   UNL     1      25.885 -39.701  -1.287  1.00  0.00     0.010 C 
ATOM      8  C   UNL     1      26.810 -40.371  -1.989  1.00  0.00     0.025 C 
BRANCH   8   9
ATOM      9  C   UNL     1      26.755 -40.461  -3.457  1.00  0.00     0.064 C 
ATOM     10  O   UNL     1      27.373 -39.615  -4.155  1.00  0.00    -0.545 OA
ATOM     11  O   UNL     1      26.032 -41.467  -4.088  1.00  0.00    -0.545 OA
ENDBRANCH   8   9
ENDBRANCH   1   7
BRANCH   4  12
ATOM     12  O   UNL     1      25.876 -41.901   3.099  1.00  0.00    -0.504 OA
ATOM     13  H   UNL     1      25.130 -42.119   3.748  1.00  0.00     0.293 HD
ENDBRANCH   4  12
BRANCH   6  14
ATOM     14  O   UNL     1      25.881 -39.395   4.402  1.00  0.00    -0.504 OA
ATOM     15  H   UNL     1      26.139 -40.181   4.988  1.00  0.00     0.293 HD
ENDBRANCH   6  14
TORSDOF 4
ENDMDL
MODEL 2
REMARK VINA RESULT:    -3.954     12.060     14.293
REMARK INTER + INTRA:          -4.773
REMARK INTER:                  -4.644
REMARK INTRA:                  -0.128
REMARK UNBOUND:                -0.126
REMARK SMILES O=C([O-])C=Cc1ccc(O)c(O)c1
REMARK SMILES IDX 6 1 13 2 7 3 11 4 8 5 9 6 5 7 4 8 2 9 1 10 3 11 12 12 10 14
REMARK H PARENT 12 13 10 15
REMARK Flexibility Score: inf
ROOT
ATOM      1  C   UNL     1      29.242 -35.223  12.904  1.00  0.00    -0.022 A 
ATOM      2  C   UNL     1      28.846 -33.876  12.899  1.00  0.00     0.058 A 
ATOM      3  C   UNL     1      30.615 -35.529  12.829  1.00  0.00     0.012 A 
ATOM      4  C   UNL     1      29.799 -32.847  12.846  1.00  0.00     0.157 A 
ATOM      5  C   UNL     1      31.565 -34.505  12.776  1.00  0.00     0.051 A 
ATOM      6  C   UNL     1      31.166 -33.166  12.786  1.00  0.00     0.157 A 
ENDROOT
BRANCH   1   7
ATOM      7  C   UNL     1      28.192 -36.271  12.951  1.00  0.00     0.010 C 
ATOM      8  C   UNL     1      27.646 -36.828  11.861  1.00  0.00     0.025 C 
BRANCH   8   9
ATOM      9  C   UNL     1      26.614 -37.872  11.956  1.00  0.00     0.064 C 
ATOM     10  O   UNL     1      25.875 -38.108  10.964  1.00  0.00    -0.545 OA
ATOM     11  O   UNL     1      26.439 -38.604  13.125  1.00  0.00    -0.545 OA
ENDBRANCH   8   9
ENDBRANCH   1   7
BRANCH   4  12
ATOM     12  O   UNL     1      29.392 -31.514  12.851  1.00  0.00    -0.504 OA
ATOM     13  H   UNL     1      28.907 -31.110  13.643  1.00  0.00     0.293 HD
ENDBRANCH   4  12
BRANCH   6  14
ATOM     14  O   UNL     1      32.138 -32.168  12.734  1.00  0.00    -0.504 OA
ATOM     15  H   UNL     1      33.120 -32.364  12.892  1.00  0.00     0.293 HD
ENDBRANCH   6  14
TORSDOF 4
ENDMDL
MODEL 3
REMARK VINA RESULT:    -3.815     12.221     14.270
REMARK INTER + INTRA:          -4.610
REMARK INTER:                  -4.484
REMARK INTRA:                  -0.126
REMARK UNBOUND:                -0.126
REMARK SMILES O=C([O-])C=Cc1ccc(O)c(O)c1
REMARK SMILES IDX 6 1 13 2 7 3 11 4 8 5 9 6 5 7 4 8 2 9 1 10 3 11 12 12 10 14
REMARK H PARENT 12 13 10 15
REMARK Flexibility Score: inf
ROOT
ATOM      1  C   UNL     1      29.440 -34.923  12.845  1.00  0.00    -0.022 A 
ATOM      2  C   UNL     1      30.755 -35.263  12.487  1.00  0.00     0.058 A 
ATOM      3  C   UNL     1      29.138 -33.576  13.125  1.00  0.00     0.012 A 
ATOM      4  C   UNL     1      31.749 -34.277  12.384  1.00  0.00     0.157 A 
ATOM      5  C   UNL     1      30.127 -32.594  13.024  1.00  0.00     0.051 A 
ATOM      6  C   UNL     1      31.430 -32.936  12.652  1.00  0.00     0.157 A 
ENDROOT
BRANCH   1   7
ATOM      7  C   UNL     1      28.431 -36.006  12.948  1.00  0.00     0.010 C 
ATOM      8  C   UNL     1      27.882 -36.617  11.888  1.00  0.00     0.025 C 
BRANCH   8   9
ATOM      9  C   UNL     1      26.891 -37.694  12.038  1.00  0.00     0.064 C 
ATOM     10  O   UNL     1      25.991 -37.834  11.170  1.00  0.00    -0.545 OA
ATOM     11  O   UNL     1      26.932 -38.560  13.124  1.00  0.00    -0.545 OA
ENDBRANCH   8   9
ENDBRANCH   1   7
BRANCH   4  12
ATOM     12  O   UNL     1      33.047 -34.627  12.018  1.00  0.00    -0.504 OA
ATOM     13  H   UNL     1      33.815 -33.972  12.092  1.00  0.00     0.293 HD
ENDBRANCH   4  12
BRANCH   6  14
ATOM     14  O   UNL     1      32.394 -31.933  12.558  1.00  0.00    -0.504 OA
ATOM     15  H   UNL     1      32.549 -31.263  13.303  1.00  0.00     0.293 HD
ENDBRANCH   6  14
TORSDOF 4
ENDMDL
MODEL 4
REMARK VINA RESULT:    -3.734      1.685      5.643
REMARK INTER + INTRA:          -4.514
REMARK INTER:                  -4.380
REMARK INTRA:                  -0.134
REMARK UNBOUND:                -0.126
REMARK SMILES O=C([O-])C=Cc1ccc(O)c(O)c1
REMARK SMILES IDX 6 1 13 2 7 3 11 4 8 5 9 6 5 7 4 8 2 9 1 10 3 11 12 12 10 14
REMARK H PARENT 12 13 10 15
REMARK Flexibility Score: inf
ROOT
ATOM      1  C   UNL     1      26.369 -39.566  -1.319  1.00  0.00    -0.022 A 
ATOM      2  C   UNL     1      27.071 -40.761  -1.091  1.00  0.00     0.058 A 
ATOM      3  C   UNL     1      25.903 -39.289  -2.619  1.00  0.00     0.012 A 
ATOM      4  C   UNL     1      27.286 -41.678  -2.132  1.00  0.00     0.157 A 
ATOM      5  C   UNL     1      26.116 -40.200  -3.656  1.00  0.00     0.051 A 
ATOM      6  C   UNL     1      26.803 -41.395  -3.420  1.00  0.00     0.157 A 
ENDROOT
BRANCH   1   7
ATOM      7  C   UNL     1      26.179 -38.627  -0.186  1.00  0.00     0.010 C 
ATOM      8  C   UNL     1      26.138 -39.009   1.099  1.00  0.00     0.025 C 
BRANCH   8   9
ATOM      9  C   UNL     1      25.958 -38.040   2.192  1.00  0.00     0.064 C 
ATOM     10  O   UNL     1      25.876 -36.812   1.926  1.00  0.00    -0.545 OA
ATOM     11  O   UNL     1      25.875 -38.458   3.515  1.00  0.00    -0.545 OA
ENDBRANCH   8   9
ENDBRANCH   1   7
BRANCH   4  12
ATOM     12  O   UNL     1      27.975 -42.864  -1.889  1.00  0.00    -0.504 OA
ATOM     13  H   UNL     1      28.808 -42.886  -1.313  1.00  0.00     0.293 HD
ENDBRANCH   4  12
BRANCH   6  14
ATOM     14  O   UNL     1      26.998 -42.286  -4.475  1.00  0.00    -0.504 OA
ATOM     15  H   UNL     1      27.263 -43.252  -4.322  1.00  0.00     0.293 HD
ENDBRANCH   6  14
TORSDOF 4
ENDMDL
MODEL 5
REMARK VINA RESULT:    -3.651      2.047      6.270
REMARK INTER + INTRA:          -4.417
REMARK INTER:                  -4.275
REMARK INTRA:                  -0.142
REMARK UNBOUND:                -0.126
REMARK SMILES O=C([O-])C=Cc1ccc(O)c(O)c1
REMARK SMILES IDX 6 1 13 2 7 3 11 4 8 5 9 6 5 7 4 8 2 9 1 10 3 11 12 12 10 14
REMARK H PARENT 12 13 10 15
REMARK Flexibility Score: inf
ROOT
ATOM      1  C   UNL     1      26.043 -38.953   1.968  1.00  0.00    -0.022 A 
ATOM      2  C   UNL     1      26.285 -37.716   1.350  1.00  0.00     0.058 A 
ATOM      3  C   UNL     1      25.877 -40.095   1.161  1.00  0.00     0.012 A 
ATOM      4  C   UNL     1      26.385 -37.618  -0.047  1.00  0.00     0.157 A 
ATOM      5  C   UNL     1      25.975 -39.999  -0.229  1.00  0.00     0.051 A 
ATOM      6  C   UNL     1      26.231 -38.768  -0.839  1.00  0.00     0.157 A 
ENDROOT
BRANCH   1   7
ATOM      7  C   UNL     1      25.937 -38.998   3.448  1.00  0.00     0.010 C 
ATOM      8  C   UNL     1      26.026 -40.127   4.167  1.00  0.00     0.025 C 
BRANCH   8   9
ATOM      9  C   UNL     1      25.926 -40.122   5.635  1.00  0.00     0.064 C 
ATOM     10  O   UNL     1      25.878 -39.025   6.251  1.00  0.00    -0.545 OA
ATOM     11  O   UNL     1      25.882 -41.310   6.355  1.00  0.00    -0.545 OA
ENDBRANCH   8   9
ENDBRANCH   1   7
BRANCH   4  12
ATOM     12  O   UNL     1      26.636 -36.385  -0.646  1.00  0.00    -0.504 OA
ATOM     13  H   UNL     1      26.475 -36.232  -1.634  1.00  0.00     0.293 HD
ENDBRANCH   4  12
BRANCH   6  14
ATOM     14  O   UNL     1      26.326 -38.705  -2.228  1.00  0.00    -0.504 OA
ATOM     15  H   UNL     1      27.193 -38.898  -2.718  1.00  0.00     0.293 HD
ENDBRANCH   6  14
TORSDOF 4
ENDMDL
MODEL 6
REMARK VINA RESULT:    -3.629      1.591      5.634
REMARK INTER + INTRA:          -4.391
REMARK INTER:                  -4.257
REMARK INTRA:                  -0.134
REMARK UNBOUND:                -0.126
REMARK SMILES O=C([O-])C=Cc1ccc(O)c(O)c1
REMARK SMILES IDX 6 1 13 2 7 3 11 4 8 5 9 6 5 7 4 8 2 9 1 10 3 11 12 12 10 14
REMARK H PARENT 12 13 10 15
REMARK Flexibility Score: inf
ROOT
ATOM      1  C   UNL     1      26.391 -40.566  -0.126  1.00  0.00    -0.022 A 
ATOM      2  C   UNL     1      26.735 -41.422  -1.185  1.00  0.00     0.058 A 
ATOM      3  C   UNL     1      26.269 -39.186  -0.380  1.00  0.00     0.012 A 
ATOM      4  C   UNL     1      26.930 -40.920  -2.481  1.00  0.00     0.157 A 
ATOM      5  C   UNL     1      26.464 -38.684  -1.670  1.00  0.00     0.051 A 
ATOM      6  C   UNL     1      26.791 -39.543  -2.723  1.00  0.00     0.157 A 
ENDROOT
BRANCH   1   7
ATOM      7  C   UNL     1      26.207 -41.148   1.226  1.00  0.00     0.010 C 
ATOM      8  C   UNL     1      26.129 -42.465   1.466  1.00  0.00     0.025 C 
BRANCH   8   9
ATOM      9  C   UNL     1      25.955 -42.997   2.827  1.00  0.00     0.064 C 
ATOM     10  O   UNL     1      25.877 -44.242   3.001  1.00  0.00    -0.545 OA
ATOM     11  O   UNL     1      25.875 -42.150   3.925  1.00  0.00    -0.545 OA
ENDBRANCH   8   9
ENDBRANCH   1   7
BRANCH   4  12
ATOM     12  O   UNL     1      27.260 -41.783  -3.524  1.00  0.00    -0.504 OA
ATOM     13  H   UNL     1      27.255 -42.788  -3.403  1.00  0.00     0.293 HD
ENDBRANCH   4  12
BRANCH   6  14
ATOM     14  O   UNL     1      26.976 -39.013  -3.999  1.00  0.00    -0.504 OA
ATOM     15  H   UNL     1      26.214 -38.605  -4.529  1.00  0.00     0.293 HD
ENDBRANCH   6  14
TORSDOF 4
ENDMDL
MODEL 7
REMARK VINA RESULT:    -3.589     19.157     20.844
REMARK INTER + INTRA:          -4.344
REMARK INTER:                  -4.215
REMARK INTRA:                  -0.130
REMARK UNBOUND:                -0.126
REMARK SMILES O=C([O-])C=Cc1ccc(O)c(O)c1
REMARK SMILES IDX 6 1 13 2 7 3 11 4 8 5 9 6 5 7 4 8 2 9 1 10 3 11 12 12 10 14
REMARK H PARENT 12 13 10 15
REMARK Flexibility Score: inf
ROOT
ATOM      1  C   UNL     1      41.744 -30.781  10.585  1.00  0.00    -0.022 A 
ATOM      2  C   UNL     1      42.171 -32.023  10.088  1.00  0.00     0.058 A 
ATOM      3  C   UNL     1      42.567 -30.096  11.499  1.00  0.00     0.012 A 
ATOM      4  C   UNL     1      43.407 -32.565  10.473  1.00  0.00     0.157 A 
ATOM      5  C   UNL     1      43.798 -30.634  11.884  1.00  0.00     0.051 A 
ATOM      6  C   UNL     1      44.224 -31.864  11.374  1.00  0.00     0.157 A 
ENDROOT
BRANCH   1   7
ATOM      7  C   UNL     1      40.424 -30.259  10.153  1.00  0.00     0.010 C 
ATOM      8  C   UNL     1      39.328 -31.021  10.024  1.00  0.00     0.025 C 
BRANCH   8   9
ATOM      9  C   UNL     1      38.036 -30.457   9.601  1.00  0.00     0.064 C 
ATOM     10  O   UNL     1      37.500 -29.548  10.289  1.00  0.00    -0.545 OA
ATOM     11  O   UNL     1      37.394 -30.912   8.455  1.00  0.00    -0.545 OA
ENDBRANCH   8   9
ENDBRANCH   1   7
BRANCH   4  12
ATOM     12  O   UNL     1      43.821 -33.794   9.963  1.00  0.00    -0.504 OA
ATOM     13  H   UNL     1      44.802 -34.039   9.900  1.00  0.00     0.293 HD
ENDBRANCH   4  12
BRANCH   6  14
ATOM     14  O   UNL     1      45.459 -32.374  11.775  1.00  0.00    -0.504 OA
ATOM     15  H   UNL     1      46.151 -32.694  11.108  1.00  0.00     0.293 HD
ENDBRANCH   6  14
TORSDOF 4
ENDMDL
MODEL 8
REMARK VINA RESULT:    -3.505     16.072     18.124
REMARK INTER + INTRA:          -4.245
REMARK INTER:                  -4.119
REMARK INTRA:                  -0.127
REMARK UNBOUND:                -0.126
REMARK SMILES O=C([O-])C=Cc1ccc(O)c(O)c1
REMARK SMILES IDX 6 1 13 2 7 3 11 4 8 5 9 6 5 7 4 8 2 9 1 10 3 11 12 12 10 14
REMARK H PARENT 12 13 10 15
REMARK Flexibility Score: inf
ROOT
ATOM      1  C   UNL     1      37.760 -30.448   9.744  1.00  0.00    -0.022 A 
ATOM      2  C   UNL     1      37.355 -30.873   8.468  1.00  0.00     0.058 A 
ATOM      3  C   UNL     1      36.786 -29.968  10.641  1.00  0.00     0.012 A 
ATOM      4  C   UNL     1      36.002 -30.846   8.097  1.00  0.00     0.157 A 
ATOM      5  C   UNL     1      35.438 -29.940  10.273  1.00  0.00     0.051 A 
ATOM      6  C   UNL     1      35.039 -30.378   9.007  1.00  0.00     0.157 A 
ENDROOT
BRANCH   1   7
ATOM      7  C   UNL     1      39.205 -30.489  10.080  1.00  0.00     0.010 C 
ATOM      8  C   UNL     1      39.918 -31.620  10.165  1.00  0.00     0.025 C 
BRANCH   8   9
ATOM      9  C   UNL     1      41.352 -31.612  10.492  1.00  0.00     0.064 C 
ATOM     10  O   UNL     1      42.141 -30.908   9.808  1.00  0.00    -0.545 OA
ATOM     11  O   UNL     1      41.853 -32.369  11.545  1.00  0.00    -0.545 OA
ENDBRANCH   8   9
ENDBRANCH   1   7
BRANCH   4  12
ATOM     12  O   UNL     1      35.614 -31.280   6.831  1.00  0.00    -0.504 OA
ATOM     13  H   UNL     1      34.643 -31.456   6.604  1.00  0.00     0.293 HD
ENDBRANCH   4  12
BRANCH   6  14
ATOM     14  O   UNL     1      33.687 -30.340   8.670  1.00  0.00    -0.504 OA
ATOM     15  H   UNL     1      33.312 -30.866   7.889  1.00  0.00     0.293 HD
ENDBRANCH   6  14
TORSDOF 4
ENDMDL
MODEL 9
REMARK VINA RESULT:    -3.394     19.701     21.450
REMARK INTER + INTRA:          -4.115
REMARK INTER:                  -3.980
REMARK INTRA:                  -0.135
REMARK UNBOUND:                -0.126
REMARK SMILES O=C([O-])C=Cc1ccc(O)c(O)c1
REMARK SMILES IDX 6 1 13 2 7 3 11 4 8 5 9 6 5 7 4 8 2 9 1 10 3 11 12 12 10 14
REMARK H PARENT 12 13 10 15
REMARK Flexibility Score: inf
ROOT
ATOM      1  C   UNL     1      42.115 -31.927  11.039  1.00  0.00    -0.022 A 
ATOM      2  C   UNL     1      43.206 -31.625  10.207  1.00  0.00     0.058 A 
ATOM      3  C   UNL     1      42.364 -32.375  12.351  1.00  0.00     0.012 A 
ATOM      4  C   UNL     1      44.523 -31.742  10.678  1.00  0.00     0.157 A 
ATOM      5  C   UNL     1      43.675 -32.492  12.821  1.00  0.00     0.051 A 
ATOM      6  C   UNL     1      44.756 -32.175  11.994  1.00  0.00     0.157 A 
ENDROOT
BRANCH   1   7
ATOM      7  C   UNL     1      40.744 -31.796  10.487  1.00  0.00     0.010 C 
ATOM      8  C   UNL     1      39.768 -31.090  11.076  1.00  0.00     0.025 C 
BRANCH   8   9
ATOM      9  C   UNL     1      38.425 -30.980  10.486  1.00  0.00     0.064 C 
ATOM     10  O   UNL     1      38.275 -31.147   9.247  1.00  0.00    -0.545 OA
ATOM     11  O   UNL     1      37.316 -30.692  11.274  1.00  0.00    -0.545 OA
ENDBRANCH   8   9
ENDBRANCH   1   7
BRANCH   4  12
ATOM     12  O   UNL     1      45.594 -31.429   9.844  1.00  0.00    -0.504 OA
ATOM     13  H   UNL     1      45.772 -31.944   8.991  1.00  0.00     0.293 HD
ENDBRANCH   4  12
BRANCH   6  14
ATOM     14  O   UNL     1      46.052 -32.300  12.492  1.00  0.00    -0.504 OA
ATOM     15  H   UNL     1      46.505 -31.553  13.006  1.00  0.00     0.293 HD
ENDBRANCH   6  14
TORSDOF 4
ENDMDL
