MODEL 1
REMARK VINA RESULT:    -4.535      0.000      0.000
REMARK INTER + INTRA:         -17.349
REMARK INTER:                 -11.957
REMARK INTRA:                  -5.392
REMARK UNBOUND:                -5.392
REMARK SMILES CCCCCCCCCCCCCCCCCCCCCCCCCCCCCC(=O)[O-]
REMARK SMILES IDX 16 1 17 2 18 3 19 4 20 5 21 6 22 7 23 8 24 9 25 10 26 11
REMARK SMILES IDX 27 12 28 13 29 14 30 15 31 16 32 17 15 18 14 19 13 20 12 21
REMARK SMILES IDX 11 22 10 23 9 24 8 25 7 26 6 27 5 28 4 29 3 30 2 31 1 32
REMARK H PARENT
REMARK Flexibility Score: inf
ROOT
ATOM      1  C   UNL     1      11.218 -21.926  21.758  1.00  0.00     0.000 C 
ENDROOT
BRANCH   1   2
ATOM      2  C   UNL     1      12.065 -20.656  21.925  1.00  0.00     0.000 C 
BRANCH   2   3
ATOM      3  C   UNL     1      11.170 -19.436  22.180  1.00  0.00     0.000 C 
BRANCH   3   4
ATOM      4  C   UNL     1      11.064 -19.065  23.670  1.00  0.00     0.000 C 
BRANCH   4   5
ATOM      5  C   UNL     1      12.275 -18.299  24.243  1.00  0.00     0.000 C 
BRANCH   5   6
ATOM      6  C   UNL     1      12.013 -16.820  24.583  1.00  0.00     0.000 C 
BRANCH   6   7
ATOM      7  C   UNL     1      11.906 -15.879  23.368  1.00  0.00     0.000 C 
BRANCH   7   8
ATOM      8  C   UNL     1      13.243 -15.221  22.961  1.00  0.00     0.000 C 
BRANCH   8   9
ATOM      9  C   UNL     1      13.602 -15.460  21.485  1.00  0.00     0.000 C 
BRANCH   9  10
ATOM     10  C   UNL     1      13.186 -16.853  20.986  1.00  0.00     0.000 C 
BRANCH  10  11
ATOM     11  C   UNL     1      14.375 -17.810  20.747  1.00  0.00     0.000 C 
BRANCH  11  12
ATOM     12  C   UNL     1      15.262 -18.051  21.986  1.00  0.00     0.000 C 
BRANCH  12  13
ATOM     13  C   UNL     1      15.699 -19.511  22.216  1.00  0.00     0.006 C 
BRANCH  13  14
ATOM     14  C   UNL     1      16.422 -19.731  23.553  1.00  0.00     0.053 C 
BRANCH  14  15
ATOM     15  C   UNL     1      15.787 -20.852  24.313  1.00  0.00     0.041 C 
ATOM     16  O   UNL     1      16.114 -21.072  25.509  1.00  0.00    -0.550 OA
ATOM     17  O   UNL     1      14.874 -21.688  23.683  1.00  0.00    -0.550 OA
ENDBRANCH  14  15
ENDBRANCH  13  14
ENDBRANCH  12  13
ENDBRANCH  11  12
ENDBRANCH  10  11
ENDBRANCH   9  10
ENDBRANCH   8   9
ENDBRANCH   7   8
ENDBRANCH   6   7
ENDBRANCH   5   6
ENDBRANCH   4   5
ENDBRANCH   3   4
ENDBRANCH   2   3
ENDBRANCH   1   2
BRANCH   1  18
ATOM     18  C   UNL     1      10.312 -21.883  20.514  1.00  0.00     0.000 C 
BRANCH  18  19
ATOM     19  C   UNL     1       8.796 -21.921  20.806  1.00  0.00     0.000 C 
BRANCH  19  20
ATOM     20  C   UNL     1       7.973 -20.807  20.131  1.00  0.00     0.000 C 
BRANCH  20  21
ATOM     21  C   UNL     1       7.209 -19.936  21.139  1.00  0.00     0.000 C 
BRANCH  21  22
ATOM     22  C   UNL     1       7.577 -20.306  22.584  1.00  0.00     0.000 C 
BRANCH  22  23
ATOM     23  C   UNL     1       6.688 -19.586  23.620  1.00  0.00     0.000 C 
BRANCH  23  24
ATOM     24  C   UNL     1       7.006 -19.959  25.078  1.00  0.00    -0.000 C 
BRANCH  24  25
ATOM     25  C   UNL     1       7.109 -18.734  26.004  1.00  0.00    -0.000 C 
BRANCH  25  26
ATOM     26  C   UNL     1       8.176 -17.730  25.539  1.00  0.00    -0.000 C 
BRANCH  26  27
ATOM     27  C   UNL     1       7.801 -16.277  25.876  1.00  0.00    -0.000 C 
BRANCH  27  28
ATOM     28  C   UNL     1       8.779 -15.254  25.272  1.00  0.00    -0.000 C 
BRANCH  28  29
ATOM     29  C   UNL     1       8.469 -14.845  23.820  1.00  0.00    -0.000 C 
BRANCH  29  30
ATOM     30  C   UNL     1       7.086 -15.315  23.323  1.00  0.00    -0.000 C 
BRANCH  30  31
ATOM     31  C   UNL     1       7.190 -16.228  22.094  1.00  0.00    -0.003 C 
ATOM     32  C   UNL     1       8.639 -16.616  21.815  1.00  0.00     0.004 C 
ENDBRANCH  30  31
ENDBRANCH  29  30
ENDBRANCH  28  29
ENDBRANCH  27  28
ENDBRANCH  26  27
ENDBRANCH  25  26
ENDBRANCH  24  25
ENDBRANCH  23  24
ENDBRANCH  22  23
ENDBRANCH  21  22
ENDBRANCH  20  21
ENDBRANCH  19  20
ENDBRANCH  18  19
ENDBRANCH   1  18
TORSDOF 28
ENDMDL
MODEL 2
REMARK VINA RESULT:    -4.528      1.740      2.944
REMARK INTER + INTRA:         -17.331
REMARK INTER:                 -11.396
REMARK INTRA:                  -5.935
REMARK UNBOUND:                -5.392
REMARK SMILES CCCCCCCCCCCCCCCCCCCCCCCCCCCCCC(=O)[O-]
REMARK SMILES IDX 16 1 17 2 18 3 19 4 20 5 21 6 22 7 23 8 24 9 25 10 26 11
REMARK SMILES IDX 27 12 28 13 29 14 30 15 31 16 32 17 15 18 14 19 13 20 12 21
REMARK SMILES IDX 11 22 10 23 9 24 8 25 7 26 6 27 5 28 4 29 3 30 2 31 1 32
REMARK H PARENT
REMARK Flexibility Score: inf
ROOT
ATOM      1  C   UNL     1      10.873 -18.985  19.934  1.00  0.00     0.000 C 
ENDROOT
BRANCH   1   2
ATOM      2  C   UNL     1      10.267 -17.601  20.208  1.00  0.00     0.000 C 
BRANCH   2   3
ATOM      3  C   UNL     1      10.765 -17.046  21.550  1.00  0.00     0.000 C 
BRANCH   3   4
ATOM      4  C   UNL     1      11.633 -18.047  22.333  1.00  0.00     0.000 C 
BRANCH   4   5
ATOM      5  C   UNL     1      12.669 -17.414  23.285  1.00  0.00     0.000 C 
BRANCH   5   6
ATOM      6  C   UNL     1      12.641 -15.876  23.356  1.00  0.00     0.000 C 
BRANCH   6   7
ATOM      7  C   UNL     1      13.863 -15.171  22.738  1.00  0.00     0.000 C 
BRANCH   7   8
ATOM      8  C   UNL     1      13.511 -13.930  21.889  1.00  0.00     0.000 C 
BRANCH   8   9
ATOM      9  C   UNL     1      13.861 -14.103  20.401  1.00  0.00     0.000 C 
BRANCH   9  10
ATOM     10  C   UNL     1      12.769 -14.846  19.613  1.00  0.00     0.000 C 
BRANCH  10  11
ATOM     11  C   UNL     1      13.318 -15.909  18.637  1.00  0.00     0.000 C 
BRANCH  11  12
ATOM     12  C   UNL     1      14.629 -16.583  19.096  1.00  0.00     0.000 C 
BRANCH  12  13
ATOM     13  C   UNL     1      14.462 -17.760  20.077  1.00  0.00     0.006 C 
BRANCH  13  14
ATOM     14  C   UNL     1      15.781 -18.212  20.721  1.00  0.00     0.053 C 
BRANCH  14  15
ATOM     15  C   UNL     1      15.515 -19.144  21.860  1.00  0.00     0.041 C 
ATOM     16  O   UNL     1      14.673 -20.073  21.736  1.00  0.00    -0.550 OA
ATOM     17  O   UNL     1      16.155 -18.953  23.078  1.00  0.00    -0.550 OA
ENDBRANCH  14  15
ENDBRANCH  13  14
ENDBRANCH  12  13
ENDBRANCH  11  12
ENDBRANCH  10  11
ENDBRANCH   9  10
ENDBRANCH   8   9
ENDBRANCH   7   8
ENDBRANCH   6   7
ENDBRANCH   5   6
ENDBRANCH   4   5
ENDBRANCH   3   4
ENDBRANCH   2   3
ENDBRANCH   1   2
BRANCH   1  18
ATOM     18  C   UNL     1      10.253 -19.678  18.708  1.00  0.00     0.000 C 
BRANCH  18  19
ATOM     19  C   UNL     1       8.781 -20.117  18.878  1.00  0.00     0.000 C 
BRANCH  19  20
ATOM     20  C   UNL     1       8.582 -21.482  19.564  1.00  0.00     0.000 C 
BRANCH  20  21
ATOM     21  C   UNL     1       8.292 -21.357  21.067  1.00  0.00     0.000 C 
BRANCH  21  22
ATOM     22  C   UNL     1       7.029 -20.520  21.321  1.00  0.00     0.000 C 
BRANCH  22  23
ATOM     23  C   UNL     1       7.264 -19.400  22.356  1.00  0.00     0.000 C 
BRANCH  23  24
ATOM     24  C   UNL     1       7.121 -17.982  21.780  1.00  0.00    -0.000 C 
BRANCH  24  25
ATOM     25  C   UNL     1       7.031 -16.896  22.866  1.00  0.00    -0.000 C 
BRANCH  25  26
ATOM     26  C   UNL     1       7.498 -15.520  22.365  1.00  0.00    -0.000 C 
BRANCH  26  27
ATOM     27  C   UNL     1       7.838 -14.560  23.518  1.00  0.00    -0.000 C 
BRANCH  27  28
ATOM     28  C   UNL     1       9.188 -14.880  24.182  1.00  0.00    -0.000 C 
BRANCH  28  29
ATOM     29  C   UNL     1       9.084 -15.550  25.564  1.00  0.00    -0.000 C 
BRANCH  29  30
ATOM     30  C   UNL     1      10.339 -16.357  25.961  1.00  0.00    -0.000 C 
BRANCH  30  31
ATOM     31  C   UNL     1      10.003 -17.809  26.327  1.00  0.00    -0.003 C 
ATOM     32  C   UNL     1       9.391 -18.551  25.143  1.00  0.00     0.004 C 
ENDBRANCH  30  31
ENDBRANCH  29  30
ENDBRANCH  28  29
ENDBRANCH  27  28
ENDBRANCH  26  27
ENDBRANCH  25  26
ENDBRANCH  24  25
ENDBRANCH  23  24
ENDBRANCH  22  23
ENDBRANCH  21  22
ENDBRANCH  20  21
ENDBRANCH  19  20
ENDBRANCH  18  19
ENDBRANCH   1  18
TORSDOF 28
ENDMDL
MODEL 3
REMARK VINA RESULT:    -4.493      2.657      5.656
REMARK INTER + INTRA:         -17.241
REMARK INTER:                 -10.704
REMARK INTRA:                  -6.537
REMARK UNBOUND:                -5.392
REMARK SMILES CCCCCCCCCCCCCCCCCCCCCCCCCCCCCC(=O)[O-]
REMARK SMILES IDX 16 1 17 2 18 3 19 4 20 5 21 6 22 7 23 8 24 9 25 10 26 11
REMARK SMILES IDX 27 12 28 13 29 14 30 15 31 16 32 17 15 18 14 19 13 20 12 21
REMARK SMILES IDX 11 22 10 23 9 24 8 25 7 26 6 27 5 28 4 29 3 30 2 31 1 32
REMARK H PARENT
REMARK Flexibility Score: inf
ROOT
ATOM      1  C   UNL     1       6.764 -20.307  24.163  1.00  0.00     0.000 C 
ENDROOT
BRANCH   1   2
ATOM      2  C   UNL     1       7.116 -19.076  25.011  1.00  0.00     0.000 C 
BRANCH   2   3
ATOM      3  C   UNL     1       8.634 -18.857  25.047  1.00  0.00     0.000 C 
BRANCH   3   4
ATOM      4  C   UNL     1       9.048 -17.627  25.874  1.00  0.00     0.000 C 
BRANCH   4   5
ATOM      5  C   UNL     1       8.064 -16.440  25.825  1.00  0.00     0.000 C 
BRANCH   5   6
ATOM      6  C   UNL     1       8.665 -15.111  25.334  1.00  0.00     0.000 C 
BRANCH   6   7
ATOM      7  C   UNL     1       8.626 -14.899  23.809  1.00  0.00     0.000 C 
BRANCH   7   8
ATOM      8  C   UNL     1       7.342 -15.430  23.133  1.00  0.00     0.000 C 
BRANCH   8   9
ATOM      9  C   UNL     1       7.612 -16.599  22.170  1.00  0.00     0.000 C 
BRANCH   9  10
ATOM     10  C   UNL     1       9.104 -16.953  22.064  1.00  0.00     0.000 C 
BRANCH  10  11
ATOM     11  C   UNL     1       9.584 -17.204  20.617  1.00  0.00     0.000 C 
BRANCH  11  12
ATOM     12  C   UNL     1       8.448 -17.365  19.585  1.00  0.00     0.000 C 
BRANCH  12  13
ATOM     13  C   UNL     1       8.788 -18.227  18.354  1.00  0.00     0.006 C 
BRANCH  13  14
ATOM     14  C   UNL     1      10.122 -17.852  17.692  1.00  0.00     0.053 C 
BRANCH  14  15
ATOM     15  C   UNL     1      10.886 -19.083  17.319  1.00  0.00     0.041 C 
ATOM     16  O   UNL     1      10.305 -20.200  17.275  1.00  0.00    -0.550 OA
ATOM     17  O   UNL     1      12.251 -19.006  17.074  1.00  0.00    -0.550 OA
ENDBRANCH  14  15
ENDBRANCH  13  14
ENDBRANCH  12  13
ENDBRANCH  11  12
ENDBRANCH  10  11
ENDBRANCH   9  10
ENDBRANCH   8   9
ENDBRANCH   7   8
ENDBRANCH   6   7
ENDBRANCH   5   6
ENDBRANCH   4   5
ENDBRANCH   3   4
ENDBRANCH   2   3
ENDBRANCH   1   2
BRANCH   1  18
ATOM     18  C   UNL     1       6.041 -19.945  22.853  1.00  0.00     0.000 C 
BRANCH  18  19
ATOM     19  C   UNL     1       6.867 -20.164  21.566  1.00  0.00     0.000 C 
BRANCH  19  20
ATOM     20  C   UNL     1       8.278 -20.740  21.786  1.00  0.00     0.000 C 
BRANCH  20  21
ATOM     21  C   UNL     1       9.010 -21.043  20.470  1.00  0.00     0.000 C 
BRANCH  21  22
ATOM     22  C   UNL     1      10.526 -21.158  20.691  1.00  0.00     0.000 C 
BRANCH  22  23
ATOM     23  C   UNL     1      10.934 -20.844  22.146  1.00  0.00     0.000 C 
BRANCH  23  24
ATOM     24  C   UNL     1      11.831 -19.602  22.284  1.00  0.00    -0.000 C 
BRANCH  24  25
ATOM     25  C   UNL     1      11.913 -19.076  23.728  1.00  0.00    -0.000 C 
BRANCH  25  26
ATOM     26  C   UNL     1      12.857 -17.870  23.864  1.00  0.00    -0.000 C 
BRANCH  26  27
ATOM     27  C   UNL     1      12.112 -16.585  24.264  1.00  0.00    -0.000 C 
BRANCH  27  28
ATOM     28  C   UNL     1      12.262 -15.461  23.225  1.00  0.00    -0.000 C 
BRANCH  28  29
ATOM     29  C   UNL     1      13.462 -15.619  22.273  1.00  0.00    -0.000 C 
BRANCH  29  30
ATOM     30  C   UNL     1      13.068 -16.020  20.836  1.00  0.00    -0.000 C 
BRANCH  30  31
ATOM     31  C   UNL     1      13.249 -14.865  19.841  1.00  0.00    -0.003 C 
ATOM     32  C   UNL     1      12.166 -14.885  18.767  1.00  0.00     0.004 C 
ENDBRANCH  30  31
ENDBRANCH  29  30
ENDBRANCH  28  29
ENDBRANCH  27  28
ENDBRANCH  26  27
ENDBRANCH  25  26
ENDBRANCH  24  25
ENDBRANCH  23  24
ENDBRANCH  22  23
ENDBRANCH  21  22
ENDBRANCH  20  21
ENDBRANCH  19  20
ENDBRANCH  18  19
ENDBRANCH   1  18
TORSDOF 28
ENDMDL
MODEL 4
REMARK VINA RESULT:    -4.484      1.645      5.456
REMARK INTER + INTRA:         -17.217
REMARK INTER:                 -11.053
REMARK INTRA:                  -6.164
REMARK UNBOUND:                -5.392
REMARK SMILES CCCCCCCCCCCCCCCCCCCCCCCCCCCCCC(=O)[O-]
REMARK SMILES IDX 16 1 17 2 18 3 19 4 20 5 21 6 22 7 23 8 24 9 25 10 26 11
REMARK SMILES IDX 27 12 28 13 29 14 30 15 31 16 32 17 15 18 14 19 13 20 12 21
REMARK SMILES IDX 11 22 10 23 9 24 8 25 7 26 6 27 5 28 4 29 3 30 2 31 1 32
REMARK H PARENT
REMARK Flexibility Score: inf
ROOT
ATOM      1  C   UNL     1       8.892 -14.873  23.874  1.00  0.00     0.000 C 
ENDROOT
BRANCH   1   2
ATOM      2  C   UNL     1       7.575 -14.422  23.223  1.00  0.00     0.000 C 
BRANCH   2   3
ATOM      3  C   UNL     1       6.855 -15.611  22.573  1.00  0.00     0.000 C 
BRANCH   3   4
ATOM      4  C   UNL     1       7.511 -16.068  21.258  1.00  0.00     0.000 C 
BRANCH   4   5
ATOM      5  C   UNL     1       8.507 -17.239  21.392  1.00  0.00     0.000 C 
BRANCH   5   6
ATOM      6  C   UNL     1       9.178 -17.683  20.080  1.00  0.00     0.000 C 
BRANCH   6   7
ATOM      7  C   UNL     1       9.896 -16.564  19.302  1.00  0.00     0.000 C 
BRANCH   7   8
ATOM      8  C   UNL     1      11.437 -16.629  19.384  1.00  0.00     0.000 C 
BRANCH   8   9
ATOM      9  C   UNL     1      12.032 -15.563  20.321  1.00  0.00     0.000 C 
BRANCH   9  10
ATOM     10  C   UNL     1      12.987 -16.156  21.369  1.00  0.00     0.000 C 
BRANCH  10  11
ATOM     11  C   UNL     1      12.909 -15.462  22.747  1.00  0.00     0.000 C 
BRANCH  11  12
ATOM     12  C   UNL     1      12.246 -16.309  23.854  1.00  0.00     0.000 C 
BRANCH  12  13
ATOM     13  C   UNL     1      11.653 -17.655  23.394  1.00  0.00     0.006 C 
BRANCH  13  14
ATOM     14  C   UNL     1      11.744 -18.760  24.457  1.00  0.00     0.053 C 
BRANCH  14  15
ATOM     15  C   UNL     1      13.163 -19.198  24.636  1.00  0.00     0.041 C 
ATOM     16  O   UNL     1      13.783 -18.920  25.697  1.00  0.00    -0.550 OA
ATOM     17  O   UNL     1      13.819 -19.865  23.609  1.00  0.00    -0.550 OA
ENDBRANCH  14  15
ENDBRANCH  13  14
ENDBRANCH  12  13
ENDBRANCH  11  12
ENDBRANCH  10  11
ENDBRANCH   9  10
ENDBRANCH   8   9
ENDBRANCH   7   8
ENDBRANCH   6   7
ENDBRANCH   5   6
ENDBRANCH   4   5
ENDBRANCH   3   4
ENDBRANCH   2   3
ENDBRANCH   1   2
BRANCH   1  18
ATOM     18  C   UNL     1       8.756 -15.125  25.386  1.00  0.00     0.000 C 
BRANCH  18  19
ATOM     19  C   UNL     1       9.056 -16.572  25.839  1.00  0.00     0.000 C 
BRANCH  19  20
ATOM     20  C   UNL     1       7.850 -17.530  25.805  1.00  0.00     0.000 C 
BRANCH  20  21
ATOM     21  C   UNL     1       8.018 -18.663  24.782  1.00  0.00     0.000 C 
BRANCH  21  22
ATOM     22  C   UNL     1       6.709 -18.923  24.022  1.00  0.00     0.000 C 
BRANCH  22  23
ATOM     23  C   UNL     1       6.663 -20.334  23.398  1.00  0.00     0.000 C 
BRANCH  23  24
ATOM     24  C   UNL     1       6.700 -20.334  21.860  1.00  0.00    -0.000 C 
BRANCH  24  25
ATOM     25  C   UNL     1       7.234 -21.651  21.270  1.00  0.00    -0.000 C 
BRANCH  25  26
ATOM     26  C   UNL     1       8.416 -21.431  20.312  1.00  0.00    -0.000 C 
BRANCH  26  27
ATOM     27  C   UNL     1       9.759 -21.860  20.927  1.00  0.00    -0.000 C 
BRANCH  27  28
ATOM     28  C   UNL     1      10.501 -20.697  21.607  1.00  0.00    -0.000 C 
BRANCH  28  29
ATOM     29  C   UNL     1      11.726 -20.174  20.834  1.00  0.00    -0.000 C 
BRANCH  29  30
ATOM     30  C   UNL     1      11.976 -20.902  19.497  1.00  0.00    -0.000 C 
BRANCH  30  31
ATOM     31  C   UNL     1      11.851 -19.960  18.291  1.00  0.00    -0.003 C 
ATOM     32  C   UNL     1      10.500 -20.119  17.602  1.00  0.00     0.004 C 
ENDBRANCH  30  31
ENDBRANCH  29  30
ENDBRANCH  28  29
ENDBRANCH  27  28
ENDBRANCH  26  27
ENDBRANCH  25  26
ENDBRANCH  24  25
ENDBRANCH  23  24
ENDBRANCH  22  23
ENDBRANCH  21  22
ENDBRANCH  20  21
ENDBRANCH  19  20
ENDBRANCH  18  19
ENDBRANCH   1  18
TORSDOF 28
ENDMDL
MODEL 5
REMARK VINA RESULT:    -4.482      2.592      6.702
REMARK INTER + INTRA:         -17.212
REMARK INTER:                 -10.751
REMARK INTRA:                  -6.461
REMARK UNBOUND:                -5.392
REMARK SMILES CCCCCCCCCCCCCCCCCCCCCCCCCCCCCC(=O)[O-]
REMARK SMILES IDX 16 1 17 2 18 3 19 4 20 5 21 6 22 7 23 8 24 9 25 10 26 11
REMARK SMILES IDX 27 12 28 13 29 14 30 15 31 16 32 17 15 18 14 19 13 20 12 21
REMARK SMILES IDX 11 22 10 23 9 24 8 25 7 26 6 27 5 28 4 29 3 30 2 31 1 32
REMARK H PARENT
REMARK Flexibility Score: inf
ROOT
ATOM      1  C   UNL     1      12.784 -20.260  22.751  1.00  0.00     0.000 C 
ENDROOT
BRANCH   1   2
ATOM      2  C   UNL     1      12.366 -19.152  23.729  1.00  0.00     0.000 C 
BRANCH   2   3
ATOM      3  C   UNL     1      10.844 -18.957  23.709  1.00  0.00     0.000 C 
BRANCH   3   4
ATOM      4  C   UNL     1      10.370 -17.808  24.617  1.00  0.00     0.000 C 
BRANCH   4   5
ATOM      5  C   UNL     1      11.130 -16.477  24.443  1.00  0.00     0.000 C 
BRANCH   5   6
ATOM      6  C   UNL     1      10.292 -15.313  23.883  1.00  0.00     0.000 C 
BRANCH   6   7
ATOM      7  C   UNL     1       8.768 -15.529  23.917  1.00  0.00     0.000 C 
BRANCH   7   8
ATOM      8  C   UNL     1       8.130 -15.736  22.526  1.00  0.00     0.000 C 
BRANCH   8   9
ATOM      9  C   UNL     1       6.866 -16.612  22.570  1.00  0.00     0.000 C 
BRANCH   9  10
ATOM     10  C   UNL     1       6.515 -17.082  23.991  1.00  0.00     0.000 C 
BRANCH  10  11
ATOM     11  C   UNL     1       6.822 -18.574  24.248  1.00  0.00     0.000 C 
BRANCH  11  12
ATOM     12  C   UNL     1       6.430 -19.517  23.091  1.00  0.00     0.000 C 
BRANCH  12  13
ATOM     13  C   UNL     1       7.594 -20.296  22.447  1.00  0.00     0.006 C 
BRANCH  13  14
ATOM     14  C   UNL     1       7.628 -20.191  20.915  1.00  0.00     0.053 C 
BRANCH  14  15
ATOM     15  C   UNL     1       8.139 -21.462  20.315  1.00  0.00     0.041 C 
ATOM     16  O   UNL     1       8.530 -21.485  19.118  1.00  0.00    -0.550 OA
ATOM     17  O   UNL     1       8.132 -22.634  21.060  1.00  0.00    -0.550 OA
ENDBRANCH  14  15
ENDBRANCH  13  14
ENDBRANCH  12  13
ENDBRANCH  11  12
ENDBRANCH  10  11
ENDBRANCH   9  10
ENDBRANCH   8   9
ENDBRANCH   7   8
ENDBRANCH   6   7
ENDBRANCH   5   6
ENDBRANCH   4   5
ENDBRANCH   3   4
ENDBRANCH   2   3
ENDBRANCH   1   2
BRANCH   1  18
ATOM     18  C   UNL     1      11.584 -21.009  22.146  1.00  0.00     0.000 C 
BRANCH  18  19
ATOM     19  C   UNL     1      11.785 -21.510  20.698  1.00  0.00     0.000 C 
BRANCH  19  20
ATOM     20  C   UNL     1      12.592 -20.565  19.787  1.00  0.00     0.000 C 
BRANCH  20  21
ATOM     21  C   UNL     1      11.779 -20.054  18.588  1.00  0.00     0.000 C 
BRANCH  21  22
ATOM     22  C   UNL     1      11.506 -18.547  18.704  1.00  0.00     0.000 C 
BRANCH  22  23
ATOM     23  C   UNL     1      10.526 -18.213  19.848  1.00  0.00     0.000 C 
BRANCH  23  24
ATOM     24  C   UNL     1      10.961 -17.015  20.708  1.00  0.00    -0.000 C 
BRANCH  24  25
ATOM     25  C   UNL     1      11.618 -15.891  19.888  1.00  0.00    -0.000 C 
BRANCH  25  26
ATOM     26  C   UNL     1      13.043 -15.567  20.367  1.00  0.00    -0.000 C 
BRANCH  26  27
ATOM     27  C   UNL     1      13.499 -16.484  21.515  1.00  0.00    -0.000 C 
BRANCH  27  28
ATOM     28  C   UNL     1      14.505 -17.554  21.060  1.00  0.00    -0.000 C 
BRANCH  28  29
ATOM     29  C   UNL     1      15.006 -17.394  19.612  1.00  0.00    -0.000 C 
BRANCH  29  30
ATOM     30  C   UNL     1      15.939 -18.532  19.147  1.00  0.00    -0.000 C 
BRANCH  30  31
ATOM     31  C   UNL     1      16.105 -18.559  17.621  1.00  0.00    -0.003 C 
ATOM     32  C   UNL     1      14.751 -18.560  16.918  1.00  0.00     0.004 C 
ENDBRANCH  30  31
ENDBRANCH  29  30
ENDBRANCH  28  29
ENDBRANCH  27  28
ENDBRANCH  26  27
ENDBRANCH  25  26
ENDBRANCH  24  25
ENDBRANCH  23  24
ENDBRANCH  22  23
ENDBRANCH  21  22
ENDBRANCH  20  21
ENDBRANCH  19  20
ENDBRANCH  18  19
ENDBRANCH   1  18
TORSDOF 28
ENDMDL
MODEL 6
REMARK VINA RESULT:    -4.465      2.143      5.222
REMARK INTER + INTRA:         -17.167
REMARK INTER:                 -10.552
REMARK INTRA:                  -6.615
REMARK UNBOUND:                -5.392
REMARK SMILES CCCCCCCCCCCCCCCCCCCCCCCCCCCCCC(=O)[O-]
REMARK SMILES IDX 16 1 17 2 18 3 19 4 20 5 21 6 22 7 23 8 24 9 25 10 26 11
REMARK SMILES IDX 27 12 28 13 29 14 30 15 31 16 32 17 15 18 14 19 13 20 12 21
REMARK SMILES IDX 11 22 10 23 9 24 8 25 7 26 6 27 5 28 4 29 3 30 2 31 1 32
REMARK H PARENT
REMARK Flexibility Score: inf
ROOT
ATOM      1  C   UNL     1       7.334 -18.930  24.521  1.00  0.00     0.000 C 
ENDROOT
BRANCH   1   2
ATOM      2  C   UNL     1       7.874 -18.305  25.816  1.00  0.00     0.000 C 
BRANCH   2   3
ATOM      3  C   UNL     1       9.404 -18.410  25.873  1.00  0.00     0.000 C 
BRANCH   3   4
ATOM      4  C   UNL     1      10.099 -17.045  26.014  1.00  0.00     0.000 C 
BRANCH   4   5
ATOM      5  C   UNL     1       9.287 -15.838  25.500  1.00  0.00     0.000 C 
BRANCH   5   6
ATOM      6  C   UNL     1       9.886 -15.118  24.278  1.00  0.00     0.000 C 
BRANCH   6   7
ATOM      7  C   UNL     1      11.280 -15.611  23.847  1.00  0.00     0.000 C 
BRANCH   7   8
ATOM      8  C   UNL     1      11.918 -14.782  22.710  1.00  0.00     0.000 C 
BRANCH   8   9
ATOM      9  C   UNL     1      13.062 -15.523  21.997  1.00  0.00     0.000 C 
BRANCH   9  10
ATOM     10  C   UNL     1      13.817 -16.489  22.924  1.00  0.00     0.000 C 
BRANCH  10  11
ATOM     11  C   UNL     1      14.066 -17.882  22.303  1.00  0.00     0.000 C 
BRANCH  11  12
ATOM     12  C   UNL     1      13.353 -19.043  23.027  1.00  0.00     0.000 C 
BRANCH  12  13
ATOM     13  C   UNL     1      13.057 -18.811  24.522  1.00  0.00     0.006 C 
BRANCH  13  14
ATOM     14  C   UNL     1      14.193 -19.268  25.449  1.00  0.00     0.053 C 
BRANCH  14  15
ATOM     15  C   UNL     1      13.646 -20.046  26.603  1.00  0.00     0.041 C 
ATOM     16  O   UNL     1      14.227 -21.093  26.995  1.00  0.00    -0.550 OA
ATOM     17  O   UNL     1      12.463 -19.645  27.213  1.00  0.00    -0.550 OA
ENDBRANCH  14  15
ENDBRANCH  13  14
ENDBRANCH  12  13
ENDBRANCH  11  12
ENDBRANCH  10  11
ENDBRANCH   9  10
ENDBRANCH   8   9
ENDBRANCH   7   8
ENDBRANCH   6   7
ENDBRANCH   5   6
ENDBRANCH   4   5
ENDBRANCH   3   4
ENDBRANCH   2   3
ENDBRANCH   1   2
BRANCH   1  18
ATOM     18  C   UNL     1       6.813 -17.881  23.522  1.00  0.00     0.000 C 
BRANCH  18  19
ATOM     19  C   UNL     1       7.786 -17.529  22.375  1.00  0.00     0.000 C 
BRANCH  19  20
ATOM     20  C   UNL     1       9.013 -18.452  22.253  1.00  0.00     0.000 C 
BRANCH  20  21
ATOM     21  C   UNL     1      10.152 -17.824  21.437  1.00  0.00     0.000 C 
BRANCH  21  22
ATOM     22  C   UNL     1       9.654 -16.622  20.620  1.00  0.00     0.000 C 
BRANCH  22  23
ATOM     23  C   UNL     1      10.338 -16.524  19.241  1.00  0.00     0.000 C 
BRANCH  23  24
ATOM     24  C   UNL     1       9.877 -17.598  18.241  1.00  0.00    -0.000 C 
BRANCH  24  25
ATOM     25  C   UNL     1       8.347 -17.750  18.182  1.00  0.00    -0.000 C 
BRANCH  25  26
ATOM     26  C   UNL     1       7.871 -19.125  18.677  1.00  0.00    -0.000 C 
BRANCH  26  27
ATOM     27  C   UNL     1       8.921 -20.226  18.452  1.00  0.00    -0.000 C 
BRANCH  27  28
ATOM     28  C   UNL     1       9.093 -21.144  19.674  1.00  0.00    -0.000 C 
BRANCH  28  29
ATOM     29  C   UNL     1      10.512 -21.164  20.272  1.00  0.00    -0.000 C 
BRANCH  29  30
ATOM     30  C   UNL     1      11.631 -20.984  19.224  1.00  0.00    -0.000 C 
BRANCH  30  31
ATOM     31  C   UNL     1      12.538 -19.788  19.544  1.00  0.00    -0.003 C 
ATOM     32  C   UNL     1      13.248 -19.282  18.292  1.00  0.00     0.004 C 
ENDBRANCH  30  31
ENDBRANCH  29  30
ENDBRANCH  28  29
ENDBRANCH  27  28
ENDBRANCH  26  27
ENDBRANCH  25  26
ENDBRANCH  24  25
ENDBRANCH  23  24
ENDBRANCH  22  23
ENDBRANCH  21  22
ENDBRANCH  20  21
ENDBRANCH  19  20
ENDBRANCH  18  19
ENDBRANCH   1  18
TORSDOF 28
ENDMDL
MODEL 7
REMARK VINA RESULT:    -4.463      2.310      7.004
REMARK INTER + INTRA:         -17.160
REMARK INTER:                 -11.016
REMARK INTRA:                  -6.143
REMARK UNBOUND:                -5.392
REMARK SMILES CCCCCCCCCCCCCCCCCCCCCCCCCCCCCC(=O)[O-]
REMARK SMILES IDX 16 1 17 2 18 3 19 4 20 5 21 6 22 7 23 8 24 9 25 10 26 11
REMARK SMILES IDX 27 12 28 13 29 14 30 15 31 16 32 17 15 18 14 19 13 20 12 21
REMARK SMILES IDX 11 22 10 23 9 24 8 25 7 26 6 27 5 28 4 29 3 30 2 31 1 32
REMARK H PARENT
REMARK Flexibility Score: inf
ROOT
ATOM      1  C   UNL     1       8.387 -15.566  24.653  1.00  0.00     0.000 C 
ENDROOT
BRANCH   1   2
ATOM      2  C   UNL     1       7.959 -16.362  25.895  1.00  0.00     0.000 C 
BRANCH   2   3
ATOM      3  C   UNL     1       6.956 -17.460  25.518  1.00  0.00     0.000 C 
BRANCH   3   4
ATOM      4  C   UNL     1       6.980 -17.811  24.019  1.00  0.00     0.000 C 
BRANCH   4   5
ATOM      5  C   UNL     1       7.203 -19.304  23.698  1.00  0.00     0.000 C 
BRANCH   5   6
ATOM      6  C   UNL     1       6.377 -19.851  22.519  1.00  0.00     0.000 C 
BRANCH   6   7
ATOM      7  C   UNL     1       7.195 -20.555  21.420  1.00  0.00     0.000 C 
BRANCH   7   8
ATOM      8  C   UNL     1       8.150 -19.618  20.648  1.00  0.00     0.000 C 
BRANCH   8   9
ATOM      9  C   UNL     1       7.446 -18.366  20.096  1.00  0.00     0.000 C 
BRANCH   9  10
ATOM     10  C   UNL     1       8.093 -17.057  20.575  1.00  0.00     0.000 C 
BRANCH  10  11
ATOM     11  C   UNL     1       9.411 -17.261  21.354  1.00  0.00     0.000 C 
BRANCH  11  12
ATOM     12  C   UNL     1      10.689 -17.010  20.527  1.00  0.00     0.000 C 
BRANCH  12  13
ATOM     13  C   UNL     1      11.943 -16.633  21.341  1.00  0.00     0.006 C 
BRANCH  13  14
ATOM     14  C   UNL     1      12.383 -15.174  21.147  1.00  0.00     0.053 C 
BRANCH  14  15
ATOM     15  C   UNL     1      13.278 -14.745  22.266  1.00  0.00     0.041 C 
ATOM     16  O   UNL     1      13.483 -15.512  23.244  1.00  0.00    -0.550 OA
ATOM     17  O   UNL     1      13.841 -13.475  22.257  1.00  0.00    -0.550 OA
ENDBRANCH  14  15
ENDBRANCH  13  14
ENDBRANCH  12  13
ENDBRANCH  11  12
ENDBRANCH  10  11
ENDBRANCH   9  10
ENDBRANCH   8   9
ENDBRANCH   7   8
ENDBRANCH   6   7
ENDBRANCH   5   6
ENDBRANCH   4   5
ENDBRANCH   3   4
ENDBRANCH   2   3
ENDBRANCH   1   2
BRANCH   1  18
ATOM     18  C   UNL     1       9.910 -15.575  24.432  1.00  0.00     0.000 C 
BRANCH  18  19
ATOM     19  C   UNL     1      10.688 -16.616  25.268  1.00  0.00     0.000 C 
BRANCH  19  20
ATOM     20  C   UNL     1      10.864 -17.992  24.598  1.00  0.00     0.000 C 
BRANCH  20  21
ATOM     21  C   UNL     1      12.328 -18.458  24.571  1.00  0.00     0.000 C 
BRANCH  21  22
ATOM     22  C   UNL     1      12.535 -19.578  23.541  1.00  0.00     0.000 C 
BRANCH  22  23
ATOM     23  C   UNL     1      11.215 -20.012  22.869  1.00  0.00     0.000 C 
BRANCH  23  24
ATOM     24  C   UNL     1      11.408 -20.709  21.512  1.00  0.00    -0.000 C 
BRANCH  24  25
ATOM     25  C   UNL     1      12.738 -20.343  20.830  1.00  0.00    -0.000 C 
BRANCH  25  26
ATOM     26  C   UNL     1      12.563 -19.998  19.343  1.00  0.00    -0.000 C 
BRANCH  26  27
ATOM     27  C   UNL     1      13.507 -18.872  18.886  1.00  0.00    -0.000 C 
BRANCH  27  28
ATOM     28  C   UNL     1      14.987 -19.192  19.150  1.00  0.00    -0.000 C 
BRANCH  28  29
ATOM     29  C   UNL     1      15.728 -18.153  20.012  1.00  0.00    -0.000 C 
BRANCH  29  30
ATOM     30  C   UNL     1      15.384 -18.233  21.515  1.00  0.00    -0.000 C 
BRANCH  30  31
ATOM     31  C   UNL     1      16.516 -18.866  22.336  1.00  0.00    -0.003 C 
ATOM     32  C   UNL     1      16.069 -20.177  22.974  1.00  0.00     0.004 C 
ENDBRANCH  30  31
ENDBRANCH  29  30
ENDBRANCH  28  29
ENDBRANCH  27  28
ENDBRANCH  26  27
ENDBRANCH  25  26
ENDBRANCH  24  25
ENDBRANCH  23  24
ENDBRANCH  22  23
ENDBRANCH  21  22
ENDBRANCH  20  21
ENDBRANCH  19  20
ENDBRANCH  18  19
ENDBRANCH   1  18
TORSDOF 28
ENDMDL
MODEL 8
REMARK VINA RESULT:    -4.447      1.894      5.888
REMARK INTER + INTRA:         -17.118
REMARK INTER:                 -10.356
REMARK INTRA:                  -6.762
REMARK UNBOUND:                -5.392
REMARK SMILES CCCCCCCCCCCCCCCCCCCCCCCCCCCCCC(=O)[O-]
REMARK SMILES IDX 16 1 17 2 18 3 19 4 20 5 21 6 22 7 23 8 24 9 25 10 26 11
REMARK SMILES IDX 27 12 28 13 29 14 30 15 31 16 32 17 15 18 14 19 13 20 12 21
REMARK SMILES IDX 11 22 10 23 9 24 8 25 7 26 6 27 5 28 4 29 3 30 2 31 1 32
REMARK H PARENT
REMARK Flexibility Score: inf
ROOT
ATOM      1  C   UNL     1      10.572 -16.235  25.031  1.00  0.00     0.000 C 
ENDROOT
BRANCH   1   2
ATOM      2  C   UNL     1       9.486 -16.911  25.881  1.00  0.00     0.000 C 
BRANCH   2   3
ATOM      3  C   UNL     1       9.266 -18.361  25.428  1.00  0.00     0.000 C 
BRANCH   3   4
ATOM      4  C   UNL     1       7.819 -18.845  25.633  1.00  0.00     0.000 C 
BRANCH   4   5
ATOM      5  C   UNL     1       6.744 -18.041  24.873  1.00  0.00     0.000 C 
BRANCH   5   6
ATOM      6  C   UNL     1       6.298 -18.648  23.530  1.00  0.00     0.000 C 
BRANCH   6   7
ATOM      7  C   UNL     1       7.024 -19.946  23.127  1.00  0.00     0.000 C 
BRANCH   7   8
ATOM      8  C   UNL     1       7.110 -20.171  21.601  1.00  0.00     0.000 C 
BRANCH   8   9
ATOM      9  C   UNL     1       8.558 -20.230  21.085  1.00  0.00     0.000 C 
BRANCH   9  10
ATOM     10  C   UNL     1       9.599 -20.102  22.209  1.00  0.00     0.000 C 
BRANCH  10  11
ATOM     11  C   UNL     1      10.585 -18.929  22.016  1.00  0.00     0.000 C 
BRANCH  11  12
ATOM     12  C   UNL     1      11.895 -19.054  22.823  1.00  0.00     0.000 C 
BRANCH  12  13
ATOM     13  C   UNL     1      12.679 -20.364  22.616  1.00  0.00     0.006 C 
BRANCH  13  14
ATOM     14  C   UNL     1      14.057 -20.157  21.970  1.00  0.00     0.053 C 
BRANCH  14  15
ATOM     15  C   UNL     1      14.856 -19.161  22.750  1.00  0.00     0.041 C 
ATOM     16  O   UNL     1      15.328 -18.141  22.180  1.00  0.00    -0.550 OA
ATOM     17  O   UNL     1      15.128 -19.388  24.093  1.00  0.00    -0.550 OA
ENDBRANCH  14  15
ENDBRANCH  13  14
ENDBRANCH  12  13
ENDBRANCH  11  12
ENDBRANCH  10  11
ENDBRANCH   9  10
ENDBRANCH   8   9
ENDBRANCH   7   8
ENDBRANCH   6   7
ENDBRANCH   5   6
ENDBRANCH   4   5
ENDBRANCH   3   4
ENDBRANCH   2   3
ENDBRANCH   1   2
BRANCH   1  18
ATOM     18  C   UNL     1      10.041 -15.719  23.682  1.00  0.00     0.000 C 
BRANCH  18  19
ATOM     19  C   UNL     1       8.728 -14.909  23.760  1.00  0.00     0.000 C 
BRANCH  19  20
ATOM     20  C   UNL     1       7.685 -15.251  22.679  1.00  0.00     0.000 C 
BRANCH  20  21
ATOM     21  C   UNL     1       8.231 -16.202  21.604  1.00  0.00     0.000 C 
BRANCH  21  22
ATOM     22  C   UNL     1       7.137 -16.588  20.597  1.00  0.00     0.000 C 
BRANCH  22  23
ATOM     23  C   UNL     1       7.715 -16.943  19.210  1.00  0.00     0.000 C 
BRANCH  23  24
ATOM     24  C   UNL     1       9.243 -17.118  19.200  1.00  0.00    -0.000 C 
BRANCH  24  25
ATOM     25  C   UNL     1       9.747 -17.942  18.002  1.00  0.00    -0.000 C 
BRANCH  25  26
ATOM     26  C   UNL     1      10.794 -18.992  18.408  1.00  0.00    -0.000 C 
BRANCH  26  27
ATOM     27  C   UNL     1      12.230 -18.541  18.093  1.00  0.00    -0.000 C 
BRANCH  27  28
ATOM     28  C   UNL     1      12.936 -17.912  19.306  1.00  0.00    -0.000 C 
BRANCH  28  29
ATOM     29  C   UNL     1      12.788 -16.383  19.417  1.00  0.00    -0.000 C 
BRANCH  29  30
ATOM     30  C   UNL     1      12.427 -15.894  20.835  1.00  0.00    -0.000 C 
BRANCH  30  31
ATOM     31  C   UNL     1      13.563 -15.083  21.476  1.00  0.00    -0.003 C 
ATOM     32  C   UNL     1      13.605 -15.289  22.987  1.00  0.00     0.004 C 
ENDBRANCH  30  31
ENDBRANCH  29  30
ENDBRANCH  28  29
ENDBRANCH  27  28
ENDBRANCH  26  27
ENDBRANCH  25  26
ENDBRANCH  24  25
ENDBRANCH  23  24
ENDBRANCH  22  23
ENDBRANCH  21  22
ENDBRANCH  20  21
ENDBRANCH  19  20
ENDBRANCH  18  19
ENDBRANCH   1  18
TORSDOF 28
ENDMDL
MODEL 9
REMARK VINA RESULT:    -4.437      2.590      4.812
REMARK INTER + INTRA:         -17.091
REMARK INTER:                 -10.616
REMARK INTRA:                  -6.475
REMARK UNBOUND:                -5.392
REMARK SMILES CCCCCCCCCCCCCCCCCCCCCCCCCCCCCC(=O)[O-]
REMARK SMILES IDX 16 1 17 2 18 3 19 4 20 5 21 6 22 7 23 8 24 9 25 10 26 11
REMARK SMILES IDX 27 12 28 13 29 14 30 15 31 16 32 17 15 18 14 19 13 20 12 21
REMARK SMILES IDX 11 22 10 23 9 24 8 25 7 26 6 27 5 28 4 29 3 30 2 31 1 32
REMARK H PARENT
REMARK Flexibility Score: inf
ROOT
ATOM      1  C   UNL     1       8.404 -19.152  18.950  1.00  0.00     0.000 C 
ENDROOT
BRANCH   1   2
ATOM      2  C   UNL     1       8.603 -20.592  18.455  1.00  0.00     0.000 C 
BRANCH   2   3
ATOM      3  C   UNL     1      10.007 -20.774  17.864  1.00  0.00     0.000 C 
BRANCH   3   4
ATOM      4  C   UNL     1      11.085 -19.967  18.608  1.00  0.00     0.000 C 
BRANCH   4   5
ATOM      5  C   UNL     1      11.981 -20.788  19.559  1.00  0.00     0.000 C 
BRANCH   5   6
ATOM      6  C   UNL     1      11.244 -21.480  20.719  1.00  0.00     0.000 C 
BRANCH   6   7
ATOM      7  C   UNL     1      11.124 -20.646  22.008  1.00  0.00     0.000 C 
BRANCH   7   8
ATOM      8  C   UNL     1      12.405 -19.864  22.374  1.00  0.00     0.000 C 
BRANCH   8   9
ATOM      9  C   UNL     1      12.227 -18.340  22.272  1.00  0.00     0.000 C 
BRANCH   9  10
ATOM     10  C   UNL     1      10.803 -17.931  21.864  1.00  0.00     0.000 C 
BRANCH  10  11
ATOM     11  C   UNL     1      10.754 -16.761  20.857  1.00  0.00     0.000 C 
BRANCH  11  12
ATOM     12  C   UNL     1      12.138 -16.235  20.419  1.00  0.00     0.000 C 
BRANCH  12  13
ATOM     13  C   UNL     1      12.633 -16.733  19.047  1.00  0.00     0.006 C 
BRANCH  13  14
ATOM     14  C   UNL     1      13.949 -17.522  19.119  1.00  0.00     0.053 C 
BRANCH  14  15
ATOM     15  C   UNL     1      14.259 -18.145  17.795  1.00  0.00     0.041 C 
ATOM     16  O   UNL     1      14.661 -19.337  17.734  1.00  0.00    -0.550 OA
ATOM     17  O   UNL     1      14.156 -17.392  16.632  1.00  0.00    -0.550 OA
ENDBRANCH  14  15
ENDBRANCH  13  14
ENDBRANCH  12  13
ENDBRANCH  11  12
ENDBRANCH  10  11
ENDBRANCH   9  10
ENDBRANCH   8   9
ENDBRANCH   7   8
ENDBRANCH   6   7
ENDBRANCH   5   6
ENDBRANCH   4   5
ENDBRANCH   3   4
ENDBRANCH   2   3
ENDBRANCH   1   2
BRANCH   1  18
ATOM     18  C   UNL     1       7.690 -19.080  20.312  1.00  0.00     0.000 C 
BRANCH  18  19
ATOM     19  C   UNL     1       7.536 -20.432  21.044  1.00  0.00     0.000 C 
BRANCH  19  20
ATOM     20  C   UNL     1       7.110 -20.330  22.521  1.00  0.00     0.000 C 
BRANCH  20  21
ATOM     21  C   UNL     1       7.965 -19.336  23.321  1.00  0.00     0.000 C 
BRANCH  21  22
ATOM     22  C   UNL     1       7.127 -18.614  24.386  1.00  0.00     0.000 C 
BRANCH  22  23
ATOM     23  C   UNL     1       6.328 -17.429  23.803  1.00  0.00     0.000 C 
BRANCH  23  24
ATOM     24  C   UNL     1       7.119 -16.585  22.790  1.00  0.00    -0.000 C 
BRANCH  24  25
ATOM     25  C   UNL     1       7.279 -15.117  23.223  1.00  0.00    -0.000 C 
BRANCH  25  26
ATOM     26  C   UNL     1       8.729 -14.766  23.596  1.00  0.00    -0.000 C 
BRANCH  26  27
ATOM     27  C   UNL     1       9.092 -15.210  25.023  1.00  0.00    -0.000 C 
BRANCH  27  28
ATOM     28  C   UNL     1      10.297 -16.164  25.062  1.00  0.00    -0.000 C 
BRANCH  28  29
ATOM     29  C   UNL     1      10.210 -17.270  26.130  1.00  0.00    -0.000 C 
BRANCH  29  30
ATOM     30  C   UNL     1      10.980 -18.555  25.758  1.00  0.00    -0.000 C 
BRANCH  30  31
ATOM     31  C   UNL     1      12.501 -18.361  25.830  1.00  0.00    -0.003 C 
ATOM     32  C   UNL     1      13.222 -19.696  25.992  1.00  0.00     0.004 C 
ENDBRANCH  30  31
ENDBRANCH  29  30
ENDBRANCH  28  29
ENDBRANCH  27  28
ENDBRANCH  26  27
ENDBRANCH  25  26
ENDBRANCH  24  25
ENDBRANCH  23  24
ENDBRANCH  22  23
ENDBRANCH  21  22
ENDBRANCH  20  21
ENDBRANCH  19  20
ENDBRANCH  18  19
ENDBRANCH   1  18
TORSDOF 28
ENDMDL
