MODEL 1
REMARK VINA RESULT:    -7.377      0.000      0.000
REMARK INTER + INTRA:         -17.120
REMARK INTER:                 -16.002
REMARK INTRA:                  -1.118
REMARK UNBOUND:                -1.118
REMARK SMILES CCCCCCCCCCCCCCCCCCCCCC(=O)[O-]
REMARK SMILES IDX 12 1 11 2 10 3 9 4 8 5 7 6 6 7 5 8 4 9 3 10 2 11 1 12 13 13
REMARK SMILES IDX 14 14 15 15 16 16 17 17 18 18 19 19 20 20 21 21 22 22 23 23
REMARK SMILES IDX 24 24
REMARK H PARENT
REMARK Flexibility Score: inf
ROOT
ATOM      1  C   UNL     1       2.834  -1.151  19.099  1.00  0.00     0.000 C 
ENDROOT
BRANCH   1   2
ATOM      2  C   UNL     1       3.304   0.260  18.697  1.00  0.00     0.000 C 
BRANCH   2   3
ATOM      3  C   UNL     1       2.769   0.722  17.328  1.00  0.00     0.000 C 
BRANCH   3   4
ATOM      4  C   UNL     1       1.260   1.020  17.363  1.00  0.00    -0.000 C 
BRANCH   4   5
ATOM      5  C   UNL     1       0.931   2.331  18.095  1.00  0.00    -0.000 C 
BRANCH   5   6
ATOM      6  C   UNL     1       1.190   3.575  17.233  1.00  0.00    -0.000 C 
BRANCH   6   7
ATOM      7  C   UNL     1       1.681   4.746  18.099  1.00  0.00    -0.000 C 
BRANCH   7   8
ATOM      8  C   UNL     1       1.585   6.097  17.373  1.00  0.00    -0.000 C 
BRANCH   8   9
ATOM      9  C   UNL     1       1.965   5.995  15.886  1.00  0.00    -0.000 C 
BRANCH   9  10
ATOM     10  C   UNL     1       2.474   7.338  15.320  1.00  0.00    -0.000 C 
BRANCH  10  11
ATOM     11  C   UNL     1       1.913   8.568  16.056  1.00  0.00    -0.003 C 
ATOM     12  C   UNL     1       2.142   9.875  15.301  1.00  0.00     0.004 C 
ENDBRANCH  10  11
ENDBRANCH   9  10
ENDBRANCH   8   9
ENDBRANCH   7   8
ENDBRANCH   6   7
ENDBRANCH   5   6
ENDBRANCH   4   5
ENDBRANCH   3   4
ENDBRANCH   2   3
ENDBRANCH   1   2
BRANCH   1  13
ATOM     13  C   UNL     1       2.891  -1.376  20.621  1.00  0.00     0.000 C 
BRANCH  13  14
ATOM     14  C   UNL     1       3.799  -2.563  21.007  1.00  0.00     0.000 C 
BRANCH  14  15
ATOM     15  C   UNL     1       4.940  -2.186  21.971  1.00  0.00     0.000 C 
BRANCH  15  16
ATOM     16  C   UNL     1       6.089  -3.207  22.048  1.00  0.00     0.000 C 
BRANCH  16  17
ATOM     17  C   UNL     1       7.009  -3.248  20.812  1.00  0.00     0.000 C 
BRANCH  17  18
ATOM     18  C   UNL     1       7.114  -4.642  20.157  1.00  0.00     0.000 C 
BRANCH  18  19
ATOM     19  C   UNL     1       6.707  -5.771  21.116  1.00  0.00     0.000 C 
BRANCH  19  20
ATOM     20  C   UNL     1       7.894  -6.693  21.420  1.00  0.00     0.006 C 
BRANCH  20  21
ATOM     21  C   UNL     1       7.522  -8.161  21.191  1.00  0.00     0.053 C 
BRANCH  21  22
ATOM     22  C   UNL     1       7.075  -8.795  22.471  1.00  0.00     0.041 C 
ATOM     23  O   UNL     1       7.420  -8.302  23.576  1.00  0.00    -0.550 OA
ATOM     24  O   UNL     1       6.234  -9.900  22.442  1.00  0.00    -0.550 OA
ENDBRANCH  21  22
ENDBRANCH  20  21
ENDBRANCH  19  20
ENDBRANCH  18  19
ENDBRANCH  17  18
ENDBRANCH  16  17
ENDBRANCH  15  16
ENDBRANCH  14  15
ENDBRANCH  13  14
ENDBRANCH   1  13
TORSDOF 20
ENDMDL
MODEL 2
REMARK VINA RESULT:    -7.055      5.947     13.278
REMARK INTER + INTRA:         -16.421
REMARK INTER:                 -15.350
REMARK INTRA:                  -1.071
REMARK UNBOUND:                -1.118
REMARK SMILES CCCCCCCCCCCCCCCCCCCCCC(=O)[O-]
REMARK SMILES IDX 12 1 11 2 10 3 9 4 8 5 7 6 6 7 5 8 4 9 3 10 2 11 1 12 13 13
REMARK SMILES IDX 14 14 15 15 16 16 17 17 18 18 19 19 20 20 21 21 22 22 23 23
REMARK SMILES IDX 24 24
REMARK H PARENT
REMARK Flexibility Score: inf
ROOT
ATOM      1  C   UNL     1       2.048  -0.890  19.134  1.00  0.00     0.000 C 
ENDROOT
BRANCH   1   2
ATOM      2  C   UNL     1       2.907  -1.894  19.926  1.00  0.00     0.000 C 
BRANCH   2   3
ATOM      3  C   UNL     1       2.916  -1.635  21.444  1.00  0.00     0.000 C 
BRANCH   3   4
ATOM      4  C   UNL     1       4.147  -2.251  22.133  1.00  0.00    -0.000 C 
BRANCH   4   5
ATOM      5  C   UNL     1       5.110  -2.919  21.140  1.00  0.00    -0.000 C 
BRANCH   5   6
ATOM      6  C   UNL     1       6.560  -2.948  21.645  1.00  0.00    -0.000 C 
BRANCH   6   7
ATOM      7  C   UNL     1       7.302  -4.179  21.099  1.00  0.00    -0.000 C 
BRANCH   7   8
ATOM      8  C   UNL     1       6.367  -5.376  20.867  1.00  0.00    -0.000 C 
BRANCH   8   9
ATOM      9  C   UNL     1       7.137  -6.688  20.637  1.00  0.00    -0.000 C 
BRANCH   9  10
ATOM     10  C   UNL     1       7.595  -7.335  21.962  1.00  0.00    -0.000 C 
BRANCH  10  11
ATOM     11  C   UNL     1       6.555  -8.291  22.573  1.00  0.00    -0.003 C 
ATOM     12  C   UNL     1       6.927  -9.763  22.415  1.00  0.00     0.004 C 
ENDBRANCH  10  11
ENDBRANCH   9  10
ENDBRANCH   8   9
ENDBRANCH   7   8
ENDBRANCH   6   7
ENDBRANCH   5   6
ENDBRANCH   4   5
ENDBRANCH   3   4
ENDBRANCH   2   3
ENDBRANCH   1   2
BRANCH   1  13
ATOM     13  C   UNL     1       2.904   0.117  18.343  1.00  0.00     0.000 C 
BRANCH  13  14
ATOM     14  C   UNL     1       2.066   0.942  17.342  1.00  0.00     0.000 C 
BRANCH  14  15
ATOM     15  C   UNL     1       1.051   1.889  18.011  1.00  0.00     0.000 C 
BRANCH  15  16
ATOM     16  C   UNL     1       1.026   3.319  17.445  1.00  0.00     0.000 C 
BRANCH  16  17
ATOM     17  C   UNL     1       2.008   4.302  18.113  1.00  0.00     0.000 C 
BRANCH  17  18
ATOM     18  C   UNL     1       1.706   5.786  17.816  1.00  0.00     0.000 C 
BRANCH  18  19
ATOM     19  C   UNL     1       0.905   5.972  16.518  1.00  0.00     0.000 C 
BRANCH  19  20
ATOM     20  C   UNL     1       1.643   6.893  15.539  1.00  0.00     0.006 C 
BRANCH  20  21
ATOM     21  C   UNL     1       2.381   8.008  16.286  1.00  0.00     0.053 C 
BRANCH  21  22
ATOM     22  C   UNL     1       1.491   9.198  16.466  1.00  0.00     0.041 C 
ATOM     23  O   UNL     1       0.919   9.399  17.568  1.00  0.00    -0.550 OA
ATOM     24  O   UNL     1       1.337  10.112  15.432  1.00  0.00    -0.550 OA
ENDBRANCH  21  22
ENDBRANCH  20  21
ENDBRANCH  19  20
ENDBRANCH  18  19
ENDBRANCH  17  18
ENDBRANCH  16  17
ENDBRANCH  15  16
ENDBRANCH  14  15
ENDBRANCH  13  14
ENDBRANCH   1  13
TORSDOF 20
ENDMDL
MODEL 3
REMARK VINA RESULT:    -6.960      1.093      1.792
REMARK INTER + INTRA:         -16.216
REMARK INTER:                 -15.434
REMARK INTRA:                  -0.782
REMARK UNBOUND:                -1.118
REMARK SMILES CCCCCCCCCCCCCCCCCCCCCC(=O)[O-]
REMARK SMILES IDX 12 1 11 2 10 3 9 4 8 5 7 6 6 7 5 8 4 9 3 10 2 11 1 12 13 13
REMARK SMILES IDX 14 14 15 15 16 16 17 17 18 18 19 19 20 20 21 21 22 22 23 23
REMARK SMILES IDX 24 24
REMARK H PARENT
REMARK Flexibility Score: inf
ROOT
ATOM      1  C   UNL     1       4.169  -0.049  19.838  1.00  0.00     0.000 C 
ENDROOT
BRANCH   1   2
ATOM      2  C   UNL     1       3.427  -1.198  19.130  1.00  0.00     0.000 C 
BRANCH   2   3
ATOM      3  C   UNL     1       1.917  -1.235  19.431  1.00  0.00     0.000 C 
BRANCH   3   4
ATOM      4  C   UNL     1       1.106  -0.369  18.449  1.00  0.00    -0.000 C 
BRANCH   4   5
ATOM      5  C   UNL     1       1.353   1.135  18.642  1.00  0.00    -0.000 C 
BRANCH   5   6
ATOM      6  C   UNL     1       1.216   1.933  17.337  1.00  0.00    -0.000 C 
BRANCH   6   7
ATOM      7  C   UNL     1       0.875   3.403  17.630  1.00  0.00    -0.000 C 
BRANCH   7   8
ATOM      8  C   UNL     1       2.120   4.240  17.966  1.00  0.00    -0.000 C 
BRANCH   8   9
ATOM      9  C   UNL     1       1.903   5.743  17.717  1.00  0.00    -0.000 C 
BRANCH   9  10
ATOM     10  C   UNL     1       2.511   6.205  16.376  1.00  0.00    -0.000 C 
BRANCH  10  11
ATOM     11  C   UNL     1       1.711   7.326  15.690  1.00  0.00    -0.003 C 
ATOM     12  C   UNL     1       1.463   8.529  16.597  1.00  0.00     0.004 C 
ENDBRANCH  10  11
ENDBRANCH   9  10
ENDBRANCH   8   9
ENDBRANCH   7   8
ENDBRANCH   6   7
ENDBRANCH   5   6
ENDBRANCH   4   5
ENDBRANCH   3   4
ENDBRANCH   2   3
ENDBRANCH   1   2
BRANCH   1  13
ATOM     13  C   UNL     1       5.693  -0.120  19.630  1.00  0.00     0.000 C 
BRANCH  13  14
ATOM     14  C   UNL     1       6.385  -1.046  20.652  1.00  0.00     0.000 C 
BRANCH  14  15
ATOM     15  C   UNL     1       5.446  -1.564  21.759  1.00  0.00     0.000 C 
BRANCH  15  16
ATOM     16  C   UNL     1       5.713  -3.009  22.214  1.00  0.00     0.000 C 
BRANCH  16  17
ATOM     17  C   UNL     1       5.372  -4.094  21.172  1.00  0.00     0.000 C 
BRANCH  17  18
ATOM     18  C   UNL     1       6.571  -4.986  20.784  1.00  0.00     0.000 C 
BRANCH  18  19
ATOM     19  C   UNL     1       6.547  -6.344  21.502  1.00  0.00     0.000 C 
BRANCH  19  20
ATOM     20  C   UNL     1       7.930  -7.006  21.479  1.00  0.00     0.006 C 
BRANCH  20  21
ATOM     21  C   UNL     1       7.808  -8.528  21.363  1.00  0.00     0.053 C 
BRANCH  21  22
ATOM     22  C   UNL     1       7.004  -9.079  22.499  1.00  0.00     0.041 C 
ATOM     23  O   UNL     1       6.147  -9.976  22.291  1.00  0.00    -0.550 OA
ATOM     24  O   UNL     1       7.240  -8.637  23.794  1.00  0.00    -0.550 OA
ENDBRANCH  21  22
ENDBRANCH  20  21
ENDBRANCH  19  20
ENDBRANCH  18  19
ENDBRANCH  17  18
ENDBRANCH  16  17
ENDBRANCH  15  16
ENDBRANCH  14  15
ENDBRANCH  13  14
ENDBRANCH   1  13
TORSDOF 20
ENDMDL
MODEL 4
REMARK VINA RESULT:    -6.496      5.493     12.883
REMARK INTER + INTRA:         -15.208
REMARK INTER:                 -14.151
REMARK INTRA:                  -1.057
REMARK UNBOUND:                -1.118
REMARK SMILES CCCCCCCCCCCCCCCCCCCCCC(=O)[O-]
REMARK SMILES IDX 12 1 11 2 10 3 9 4 8 5 7 6 6 7 5 8 4 9 3 10 2 11 1 12 13 13
REMARK SMILES IDX 14 14 15 15 16 16 17 17 18 18 19 19 20 20 21 21 22 22 23 23
REMARK SMILES IDX 24 24
REMARK H PARENT
REMARK Flexibility Score: inf
ROOT
ATOM      1  C   UNL     1       2.579  -1.897  19.993  1.00  0.00     0.000 C 
ENDROOT
BRANCH   1   2
ATOM      2  C   UNL     1       2.839  -1.882  21.511  1.00  0.00     0.000 C 
BRANCH   2   3
ATOM      3  C   UNL     1       4.288  -2.237  21.894  1.00  0.00     0.000 C 
BRANCH   3   4
ATOM      4  C   UNL     1       5.306  -1.719  20.862  1.00  0.00    -0.000 C 
BRANCH   4   5
ATOM      5  C   UNL     1       6.705  -2.323  21.054  1.00  0.00    -0.000 C 
BRANCH   5   6
ATOM      6  C   UNL     1       6.684  -3.633  21.856  1.00  0.00    -0.000 C 
BRANCH   6   7
ATOM      7  C   UNL     1       7.553  -4.703  21.177  1.00  0.00    -0.000 C 
BRANCH   7   8
ATOM      8  C   UNL     1       6.890  -6.089  21.178  1.00  0.00    -0.000 C 
BRANCH   8   9
ATOM      9  C   UNL     1       7.889  -7.220  21.476  1.00  0.00    -0.000 C 
BRANCH   9  10
ATOM     10  C   UNL     1       7.247  -8.617  21.332  1.00  0.00    -0.000 C 
BRANCH  10  11
ATOM     11  C   UNL     1       6.611  -9.140  22.631  1.00  0.00    -0.003 C 
ATOM     12  C   UNL     1       7.271  -8.582  23.890  1.00  0.00     0.004 C 
ENDBRANCH  10  11
ENDBRANCH   9  10
ENDBRANCH   8   9
ENDBRANCH   7   8
ENDBRANCH   6   7
ENDBRANCH   5   6
ENDBRANCH   4   5
ENDBRANCH   3   4
ENDBRANCH   2   3
ENDBRANCH   1   2
BRANCH   1  13
ATOM     13  C   UNL     1       2.183  -0.511  19.453  1.00  0.00     0.000 C 
BRANCH  13  14
ATOM     14  C   UNL     1       3.192   0.027  18.414  1.00  0.00     0.000 C 
BRANCH  14  15
ATOM     15  C   UNL     1       2.532   0.625  17.157  1.00  0.00     0.000 C 
BRANCH  15  16
ATOM     16  C   UNL     1       1.068   1.061  17.338  1.00  0.00     0.000 C 
BRANCH  16  17
ATOM     17  C   UNL     1       0.875   2.437  18.008  1.00  0.00     0.000 C 
BRANCH  17  18
ATOM     18  C   UNL     1       1.749   3.555  17.402  1.00  0.00     0.000 C 
BRANCH  18  19
ATOM     19  C   UNL     1       1.184   4.956  17.681  1.00  0.00     0.000 C 
BRANCH  19  20
ATOM     20  C   UNL     1       2.185   6.046  17.279  1.00  0.00     0.006 C 
BRANCH  20  21
ATOM     21  C   UNL     1       1.543   7.053  16.320  1.00  0.00     0.053 C 
BRANCH  21  22
ATOM     22  C   UNL     1       2.525   7.483  15.276  1.00  0.00     0.041 C 
ATOM     23  O   UNL     1       3.496   6.741  14.977  1.00  0.00    -0.550 OA
ATOM     24  O   UNL     1       2.337   8.680  14.597  1.00  0.00    -0.550 OA
ENDBRANCH  21  22
ENDBRANCH  20  21
ENDBRANCH  19  20
ENDBRANCH  18  19
ENDBRANCH  17  18
ENDBRANCH  16  17
ENDBRANCH  15  16
ENDBRANCH  14  15
ENDBRANCH  13  14
ENDBRANCH   1  13
TORSDOF 20
ENDMDL
MODEL 5
REMARK VINA RESULT:    -6.105      5.580     12.417
REMARK INTER + INTRA:         -14.361
REMARK INTER:                 -12.907
REMARK INTRA:                  -1.454
REMARK UNBOUND:                -1.118
REMARK SMILES CCCCCCCCCCCCCCCCCCCCCC(=O)[O-]
REMARK SMILES IDX 12 1 11 2 10 3 9 4 8 5 7 6 6 7 5 8 4 9 3 10 2 11 1 12 13 13
REMARK SMILES IDX 14 14 15 15 16 16 17 17 18 18 19 19 20 20 21 21 22 22 23 23
REMARK SMILES IDX 24 24
REMARK H PARENT
REMARK Flexibility Score: inf
ROOT
ATOM      1  C   UNL     1       1.830  -0.064  17.571  1.00  0.00     0.000 C 
ENDROOT
BRANCH   1   2
ATOM      2  C   UNL     1       1.271  -0.384  18.970  1.00  0.00     0.000 C 
BRANCH   2   3
ATOM      3  C   UNL     1       1.859  -1.665  19.591  1.00  0.00     0.000 C 
BRANCH   3   4
ATOM      4  C   UNL     1       3.337  -1.871  19.212  1.00  0.00    -0.000 C 
BRANCH   4   5
ATOM      5  C   UNL     1       4.262  -0.815  19.837  1.00  0.00    -0.000 C 
BRANCH   5   6
ATOM      6  C   UNL     1       5.308  -1.424  20.782  1.00  0.00    -0.000 C 
BRANCH   6   7
ATOM      7  C   UNL     1       4.677  -2.513  21.665  1.00  0.00    -0.000 C 
BRANCH   7   8
ATOM      8  C   UNL     1       5.350  -3.883  21.482  1.00  0.00    -0.000 C 
BRANCH   8   9
ATOM      9  C   UNL     1       5.924  -4.074  20.068  1.00  0.00    -0.000 C 
BRANCH   9  10
ATOM     10  C   UNL     1       7.405  -4.507  20.094  1.00  0.00    -0.000 C 
BRANCH  10  11
ATOM     11  C   UNL     1       7.834  -5.157  21.422  1.00  0.00    -0.003 C 
ATOM     12  C   UNL     1       7.710  -6.679  21.414  1.00  0.00     0.004 C 
ENDBRANCH  10  11
ENDBRANCH   9  10
ENDBRANCH   8   9
ENDBRANCH   7   8
ENDBRANCH   6   7
ENDBRANCH   5   6
ENDBRANCH   4   5
ENDBRANCH   3   4
ENDBRANCH   2   3
ENDBRANCH   1   2
BRANCH   1  13
ATOM     13  C   UNL     1       2.079   1.442  17.370  1.00  0.00     0.000 C 
BRANCH  13  14
ATOM     14  C   UNL     1       1.073   2.315  18.151  1.00  0.00     0.000 C 
BRANCH  14  15
ATOM     15  C   UNL     1       0.879   3.724  17.558  1.00  0.00     0.000 C 
BRANCH  15  16
ATOM     16  C   UNL     1       2.179   4.501  17.293  1.00  0.00     0.000 C 
BRANCH  16  17
ATOM     17  C   UNL     1       2.371   5.765  18.156  1.00  0.00     0.000 C 
BRANCH  17  18
ATOM     18  C   UNL     1       1.052   6.479  18.520  1.00  0.00     0.000 C 
BRANCH  18  19
ATOM     19  C   UNL     1       1.150   8.004  18.365  1.00  0.00     0.000 C 
BRANCH  19  20
ATOM     20  C   UNL     1       0.875   8.432  16.918  1.00  0.00     0.006 C 
BRANCH  20  21
ATOM     21  C   UNL     1       2.175   8.800  16.198  1.00  0.00     0.053 C 
BRANCH  21  22
ATOM     22  C   UNL     1       2.367   7.941  14.988  1.00  0.00     0.041 C 
ATOM     23  O   UNL     1       3.231   8.246  14.125  1.00  0.00    -0.550 OA
ATOM     24  O   UNL     1       1.628   6.774  14.840  1.00  0.00    -0.550 OA
ENDBRANCH  21  22
ENDBRANCH  20  21
ENDBRANCH  19  20
ENDBRANCH  18  19
ENDBRANCH  17  18
ENDBRANCH  16  17
ENDBRANCH  15  16
ENDBRANCH  14  15
ENDBRANCH  13  14
ENDBRANCH   1  13
TORSDOF 20
ENDMDL
MODEL 6
REMARK VINA RESULT:    -5.761      1.017      2.245
REMARK INTER + INTRA:         -13.615
REMARK INTER:                 -13.641
REMARK INTRA:                   0.026
REMARK UNBOUND:                -1.118
REMARK SMILES CCCCCCCCCCCCCCCCCCCCCC(=O)[O-]
REMARK SMILES IDX 12 1 11 2 10 3 9 4 8 5 7 6 6 7 5 8 4 9 3 10 2 11 1 12 13 13
REMARK SMILES IDX 14 14 15 15 16 16 17 17 18 18 19 19 20 20 21 21 22 22 23 23
REMARK SMILES IDX 24 24
REMARK H PARENT
REMARK Flexibility Score: inf
ROOT
ATOM      1  C   UNL     1       3.921  -2.766  20.971  1.00  0.00     0.000 C 
ENDROOT
BRANCH   1   2
ATOM      2  C   UNL     1       3.205  -1.402  20.973  1.00  0.00     0.000 C 
BRANCH   2   3
ATOM      3  C   UNL     1       2.517  -1.064  19.637  1.00  0.00     0.000 C 
BRANCH   3   4
ATOM      4  C   UNL     1       3.123   0.184  18.969  1.00  0.00    -0.000 C 
BRANCH   4   5
ATOM      5  C   UNL     1       2.440   0.535  17.638  1.00  0.00    -0.000 C 
BRANCH   5   6
ATOM      6  C   UNL     1       1.020   1.089  17.824  1.00  0.00    -0.000 C 
BRANCH   6   7
ATOM      7  C   UNL     1       0.875   2.458  17.140  1.00  0.00    -0.000 C 
BRANCH   7   8
ATOM      8  C   UNL     1       1.176   3.627  18.091  1.00  0.00    -0.000 C 
BRANCH   8   9
ATOM      9  C   UNL     1       2.146   4.651  17.477  1.00  0.00    -0.000 C 
BRANCH   9  10
ATOM     10  C   UNL     1       1.406   5.764  16.704  1.00  0.00    -0.000 C 
BRANCH  10  11
ATOM     11  C   UNL     1       2.331   6.620  15.821  1.00  0.00    -0.003 C 
ATOM     12  C   UNL     1       2.098   8.120  15.985  1.00  0.00     0.004 C 
ENDBRANCH  10  11
ENDBRANCH   9  10
ENDBRANCH   8   9
ENDBRANCH   7   8
ENDBRANCH   6   7
ENDBRANCH   5   6
ENDBRANCH   4   5
ENDBRANCH   3   4
ENDBRANCH   2   3
ENDBRANCH   1   2
BRANCH   1  13
ATOM     13  C   UNL     1       3.714  -3.535  19.653  1.00  0.00     0.000 C 
BRANCH  13  14
ATOM     14  C   UNL     1       4.902  -3.368  18.682  1.00  0.00     0.000 C 
BRANCH  14  15
ATOM     15  C   UNL     1       6.202  -4.038  19.166  1.00  0.00     0.000 C 
BRANCH  15  16
ATOM     16  C   UNL     1       6.791  -3.452  20.461  1.00  0.00     0.000 C 
BRANCH  16  17
ATOM     17  C   UNL     1       7.394  -4.487  21.431  1.00  0.00     0.000 C 
BRANCH  17  18
ATOM     18  C   UNL     1       6.820  -5.910  21.261  1.00  0.00     0.000 C 
BRANCH  18  19
ATOM     19  C   UNL     1       7.757  -6.990  21.824  1.00  0.00     0.000 C 
BRANCH  19  20
ATOM     20  C   UNL     1       7.645  -8.292  21.022  1.00  0.00     0.006 C 
BRANCH  20  21
ATOM     21  C   UNL     1       6.782  -9.319  21.761  1.00  0.00     0.053 C 
BRANCH  21  22
ATOM     22  C   UNL     1       6.657  -8.958  23.208  1.00  0.00     0.041 C 
ATOM     23  O   UNL     1       7.674  -8.611  23.864  1.00  0.00    -0.550 OA
ATOM     24  O   UNL     1       5.409  -8.953  23.817  1.00  0.00    -0.550 OA
ENDBRANCH  21  22
ENDBRANCH  20  21
ENDBRANCH  19  20
ENDBRANCH  18  19
ENDBRANCH  17  18
ENDBRANCH  16  17
ENDBRANCH  15  16
ENDBRANCH  14  15
ENDBRANCH  13  14
ENDBRANCH   1  13
TORSDOF 20
ENDMDL
MODEL 7
REMARK VINA RESULT:    -5.339      5.051     12.648
REMARK INTER + INTRA:         -12.698
REMARK INTER:                 -11.732
REMARK INTRA:                  -0.967
REMARK UNBOUND:                -1.118
REMARK SMILES CCCCCCCCCCCCCCCCCCCCCC(=O)[O-]
REMARK SMILES IDX 12 1 11 2 10 3 9 4 8 5 7 6 6 7 5 8 4 9 3 10 2 11 1 12 13 13
REMARK SMILES IDX 14 14 15 15 16 16 17 17 18 18 19 19 20 20 21 21 22 22 23 23
REMARK SMILES IDX 24 24
REMARK H PARENT
REMARK Flexibility Score: inf
ROOT
ATOM      1  C   UNL     1       3.335   0.422  18.191  1.00  0.00     0.000 C 
ENDROOT
BRANCH   1   2
ATOM      2  C   UNL     1       3.109  -0.996  18.749  1.00  0.00     0.000 C 
BRANCH   2   3
ATOM      3  C   UNL     1       4.176  -1.434  19.769  1.00  0.00     0.000 C 
BRANCH   3   4
ATOM      4  C   UNL     1       3.558  -2.131  20.995  1.00  0.00    -0.000 C 
BRANCH   4   5
ATOM      5  C   UNL     1       4.565  -2.322  22.139  1.00  0.00    -0.000 C 
BRANCH   5   6
ATOM      6  C   UNL     1       6.023  -2.307  21.658  1.00  0.00    -0.000 C 
BRANCH   6   7
ATOM      7  C   UNL     1       6.742  -3.606  22.054  1.00  0.00    -0.000 C 
BRANCH   7   8
ATOM      8  C   UNL     1       7.043  -4.506  20.845  1.00  0.00    -0.000 C 
BRANCH   8   9
ATOM      9  C   UNL     1       7.779  -5.797  21.239  1.00  0.00    -0.000 C 
BRANCH   9  10
ATOM     10  C   UNL     1       6.881  -7.045  21.102  1.00  0.00    -0.000 C 
BRANCH  10  11
ATOM     11  C   UNL     1       7.521  -8.329  21.658  1.00  0.00    -0.003 C 
ATOM     12  C   UNL     1       6.673  -9.007  22.732  1.00  0.00     0.004 C 
ENDBRANCH  10  11
ENDBRANCH   9  10
ENDBRANCH   8   9
ENDBRANCH   7   8
ENDBRANCH   6   7
ENDBRANCH   5   6
ENDBRANCH   4   5
ENDBRANCH   3   4
ENDBRANCH   2   3
ENDBRANCH   1   2
BRANCH   1  13
ATOM     13  C   UNL     1       2.323   1.439  18.749  1.00  0.00     0.000 C 
BRANCH  13  14
ATOM     14  C   UNL     1       1.278   1.869  17.696  1.00  0.00     0.000 C 
BRANCH  14  15
ATOM     15  C   UNL     1       1.484   3.300  17.163  1.00  0.00     0.000 C 
BRANCH  15  16
ATOM     16  C   UNL     1       0.877   4.412  18.036  1.00  0.00     0.000 C 
BRANCH  16  17
ATOM     17  C   UNL     1       1.710   5.707  18.115  1.00  0.00     0.000 C 
BRANCH  17  18
ATOM     18  C   UNL     1       1.052   6.916  17.417  1.00  0.00     0.000 C 
BRANCH  18  19
ATOM     19  C   UNL     1       1.911   7.469  16.270  1.00  0.00     0.000 C 
BRANCH  19  20
ATOM     20  C   UNL     1       2.726   6.356  15.602  1.00  0.00     0.006 C 
BRANCH  20  21
ATOM     21  C   UNL     1       3.540   6.901  14.425  1.00  0.00     0.053 C 
BRANCH  21  22
ATOM     22  C   UNL     1       4.730   6.032  14.162  1.00  0.00     0.041 C 
ATOM     23  O   UNL     1       4.657   4.788  14.337  1.00  0.00    -0.550 OA
ATOM     24  O   UNL     1       5.903   6.591  13.673  1.00  0.00    -0.550 OA
ENDBRANCH  21  22
ENDBRANCH  20  21
ENDBRANCH  19  20
ENDBRANCH  18  19
ENDBRANCH  17  18
ENDBRANCH  16  17
ENDBRANCH  15  16
ENDBRANCH  14  15
ENDBRANCH  13  14
ENDBRANCH   1  13
TORSDOF 20
ENDMDL
MODEL 8
REMARK VINA RESULT:    -5.110      1.157      2.609
REMARK INTER + INTRA:         -12.202
REMARK INTER:                 -11.207
REMARK INTRA:                  -0.995
REMARK UNBOUND:                -1.118
REMARK SMILES CCCCCCCCCCCCCCCCCCCCCC(=O)[O-]
REMARK SMILES IDX 12 1 11 2 10 3 9 4 8 5 7 6 6 7 5 8 4 9 3 10 2 11 1 12 13 13
REMARK SMILES IDX 14 14 15 15 16 16 17 17 18 18 19 19 20 20 21 21 22 22 23 23
REMARK SMILES IDX 24 24
REMARK H PARENT
REMARK Flexibility Score: inf
ROOT
ATOM      1  C   UNL     1       2.848   0.791  17.044  1.00  0.00     0.000 C 
ENDROOT
BRANCH   1   2
ATOM      2  C   UNL     1       1.646   1.134  17.944  1.00  0.00     0.000 C 
BRANCH   2   3
ATOM      3  C   UNL     1       0.875   2.389  17.493  1.00  0.00     0.000 C 
BRANCH   3   4
ATOM      4  C   UNL     1       1.730   3.665  17.592  1.00  0.00    -0.000 C 
BRANCH   4   5
ATOM      5  C   UNL     1       0.902   4.906  17.960  1.00  0.00    -0.000 C 
BRANCH   5   6
ATOM      6  C   UNL     1       1.396   6.181  17.260  1.00  0.00    -0.000 C 
BRANCH   6   7
ATOM      7  C   UNL     1       2.867   6.035  16.837  1.00  0.00    -0.000 C 
BRANCH   7   8
ATOM      8  C   UNL     1       3.166   6.730  15.499  1.00  0.00    -0.000 C 
BRANCH   8   9
ATOM      9  C   UNL     1       1.997   7.604  15.014  1.00  0.00    -0.000 C 
BRANCH   9  10
ATOM     10  C   UNL     1       2.168   9.083  15.420  1.00  0.00    -0.000 C 
BRANCH  10  11
ATOM     11  C   UNL     1       0.876   9.731  15.948  1.00  0.00    -0.003 C 
ATOM     12  C   UNL     1       0.875   9.920  17.463  1.00  0.00     0.004 C 
ENDBRANCH  10  11
ENDBRANCH   9  10
ENDBRANCH   8   9
ENDBRANCH   7   8
ENDBRANCH   6   7
ENDBRANCH   5   6
ENDBRANCH   4   5
ENDBRANCH   3   4
ENDBRANCH   2   3
ENDBRANCH   1   2
BRANCH   1  13
ATOM     13  C   UNL     1       4.085   0.363  17.855  1.00  0.00     0.000 C 
BRANCH  13  14
ATOM     14  C   UNL     1       3.710  -0.235  19.228  1.00  0.00     0.000 C 
BRANCH  14  15
ATOM     15  C   UNL     1       2.861  -1.518  19.138  1.00  0.00     0.000 C 
BRANCH  15  16
ATOM     16  C   UNL     1       2.917  -2.422  20.381  1.00  0.00     0.000 C 
BRANCH  16  17
ATOM     17  C   UNL     1       4.218  -3.235  20.539  1.00  0.00     0.000 C 
BRANCH  17  18
ATOM     18  C   UNL     1       5.007  -2.908  21.824  1.00  0.00     0.000 C 
BRANCH  18  19
ATOM     19  C   UNL     1       6.258  -3.786  21.982  1.00  0.00     0.000 C 
BRANCH  19  20
ATOM     20  C   UNL     1       6.294  -4.893  20.923  1.00  0.00     0.006 C 
BRANCH  20  21
ATOM     21  C   UNL     1       6.089  -6.271  21.560  1.00  0.00     0.053 C 
BRANCH  21  22
ATOM     22  C   UNL     1       7.373  -7.039  21.574  1.00  0.00     0.041 C 
ATOM     23  O   UNL     1       8.345  -6.638  22.266  1.00  0.00    -0.550 OA
ATOM     24  O   UNL     1       7.478  -8.228  20.863  1.00  0.00    -0.550 OA
ENDBRANCH  21  22
ENDBRANCH  20  21
ENDBRANCH  19  20
ENDBRANCH  18  19
ENDBRANCH  17  18
ENDBRANCH  16  17
ENDBRANCH  15  16
ENDBRANCH  14  15
ENDBRANCH  13  14
ENDBRANCH   1  13
TORSDOF 20
ENDMDL
MODEL 9
REMARK VINA RESULT:    -4.986      1.554      2.884
REMARK INTER + INTRA:         -11.935
REMARK INTER:                 -11.762
REMARK INTRA:                  -0.173
REMARK UNBOUND:                -1.118
REMARK SMILES CCCCCCCCCCCCCCCCCCCCCC(=O)[O-]
REMARK SMILES IDX 12 1 11 2 10 3 9 4 8 5 7 6 6 7 5 8 4 9 3 10 2 11 1 12 13 13
REMARK SMILES IDX 14 14 15 15 16 16 17 17 18 18 19 19 20 20 21 21 22 22 23 23
REMARK SMILES IDX 24 24
REMARK H PARENT
REMARK Flexibility Score: inf
ROOT
ATOM      1  C   UNL     1       3.072   0.000  17.936  1.00  0.00     0.000 C 
ENDROOT
BRANCH   1   2
ATOM      2  C   UNL     1       2.687   1.223  17.082  1.00  0.00     0.000 C 
BRANCH   2   3
ATOM      3  C   UNL     1       1.201   1.612  17.195  1.00  0.00     0.000 C 
BRANCH   3   4
ATOM      4  C   UNL     1       0.990   2.855  18.078  1.00  0.00    -0.000 C 
BRANCH   4   5
ATOM      5  C   UNL     1       1.400   4.158  17.374  1.00  0.00    -0.000 C 
BRANCH   5   6
ATOM      6  C   UNL     1       0.913   5.413  18.114  1.00  0.00    -0.000 C 
BRANCH   6   7
ATOM      7  C   UNL     1       1.723   6.647  17.686  1.00  0.00    -0.000 C 
BRANCH   7   8
ATOM      8  C   UNL     1       0.879   7.932  17.677  1.00  0.00    -0.000 C 
BRANCH   8   9
ATOM      9  C   UNL     1       1.445   9.002  16.728  1.00  0.00    -0.000 C 
BRANCH   9  10
ATOM     10  C   UNL     1       2.766   8.554  16.067  1.00  0.00    -0.000 C 
BRANCH  10  11
ATOM     11  C   UNL     1       2.564   7.726  14.785  1.00  0.00    -0.003 C 
ATOM     12  C   UNL     1       3.044   6.283  14.921  1.00  0.00     0.004 C 
ENDBRANCH  10  11
ENDBRANCH   9  10
ENDBRANCH   8   9
ENDBRANCH   7   8
ENDBRANCH   6   7
ENDBRANCH   5   6
ENDBRANCH   4   5
ENDBRANCH   3   4
ENDBRANCH   2   3
ENDBRANCH   1   2
BRANCH   1  13
ATOM     13  C   UNL     1       1.843  -0.707  18.535  1.00  0.00     0.000 C 
BRANCH  13  14
ATOM     14  C   UNL     1       2.012  -1.005  20.041  1.00  0.00     0.000 C 
BRANCH  14  15
ATOM     15  C   UNL     1       2.608  -2.395  20.337  1.00  0.00     0.000 C 
BRANCH  15  16
ATOM     16  C   UNL     1       3.979  -2.663  19.695  1.00  0.00     0.000 C 
BRANCH  16  17
ATOM     17  C   UNL     1       5.108  -1.716  20.147  1.00  0.00     0.000 C 
BRANCH  17  18
ATOM     18  C   UNL     1       5.122  -1.440  21.666  1.00  0.00     0.000 C 
BRANCH  18  19
ATOM     19  C   UNL     1       5.416  -2.705  22.488  1.00  0.00     0.000 C 
BRANCH  19  20
ATOM     20  C   UNL     1       6.558  -3.516  21.866  1.00  0.00     0.006 C 
BRANCH  20  21
ATOM     21  C   UNL     1       6.034  -4.808  21.233  1.00  0.00     0.053 C 
BRANCH  21  22
ATOM     22  C   UNL     1       7.152  -5.779  21.018  1.00  0.00     0.041 C 
ATOM     23  O   UNL     1       6.905  -7.002  20.853  1.00  0.00    -0.550 OA
ATOM     24  O   UNL     1       8.462  -5.324  20.946  1.00  0.00    -0.550 OA
ENDBRANCH  21  22
ENDBRANCH  20  21
ENDBRANCH  19  20
ENDBRANCH  18  19
ENDBRANCH  17  18
ENDBRANCH  16  17
ENDBRANCH  15  16
ENDBRANCH  14  15
ENDBRANCH  13  14
ENDBRANCH   1  13
TORSDOF 20
ENDMDL
