MODEL 1
REMARK VINA RESULT:    -1.878      0.000      0.000
REMARK INTER + INTRA:          -5.329
REMARK INTER:                  -4.074
REMARK INTRA:                  -1.255
REMARK UNBOUND:                -1.255
REMARK SMILES CCCCCCCCCCCCCCCCCCCCCC(=O)[O-]
REMARK SMILES IDX 12 1 11 2 10 3 9 4 8 5 7 6 6 7 5 8 4 9 3 10 2 11 1 12 13 13
REMARK SMILES IDX 14 14 15 15 16 16 17 17 18 18 19 19 20 20 21 21 22 22 23 23
REMARK SMILES IDX 24 24
REMARK H PARENT
REMARK Flexibility Score: inf
ROOT
ATOM      1  C   UNL     1      14.792  15.201   6.548  1.00  0.00     0.000 C 
ENDROOT
BRANCH   1   2
ATOM      2  C   UNL     1      15.356  16.619   6.755  1.00  0.00     0.000 C 
BRANCH   2   3
ATOM      3  C   UNL     1      16.761  16.612   7.378  1.00  0.00     0.000 C 
BRANCH   3   4
ATOM      4  C   UNL     1      16.813  17.356   8.724  1.00  0.00    -0.000 C 
BRANCH   4   5
ATOM      5  C   UNL     1      17.007  18.872   8.555  1.00  0.00    -0.000 C 
BRANCH   5   6
ATOM      6  C   UNL     1      16.877  19.638   9.882  1.00  0.00    -0.000 C 
BRANCH   6   7
ATOM      7  C   UNL     1      15.534  19.376  10.584  1.00  0.00    -0.000 C 
BRANCH   7   8
ATOM      8  C   UNL     1      15.701  18.682  11.947  1.00  0.00    -0.000 C 
BRANCH   8   9
ATOM      9  C   UNL     1      14.598  19.074  12.944  1.00  0.00    -0.000 C 
BRANCH   9  10
ATOM     10  C   UNL     1      13.300  19.513  12.245  1.00  0.00    -0.000 C 
BRANCH  10  11
ATOM     11  C   UNL     1      12.693  20.778  12.870  1.00  0.00    -0.003 C 
ATOM     12  C   UNL     1      13.224  22.062  12.233  1.00  0.00     0.004 C 
ENDBRANCH  10  11
ENDBRANCH   9  10
ENDBRANCH   8   9
ENDBRANCH   7   8
ENDBRANCH   6   7
ENDBRANCH   5   6
ENDBRANCH   4   5
ENDBRANCH   3   4
ENDBRANCH   2   3
ENDBRANCH   1   2
BRANCH   1  13
ATOM     13  C   UNL     1      14.936  14.323   7.801  1.00  0.00     0.000 C 
BRANCH  13  14
ATOM     14  C   UNL     1      15.860  13.114   7.572  1.00  0.00     0.000 C 
BRANCH  14  15
ATOM     15  C   UNL     1      17.125  13.165   8.443  1.00  0.00     0.000 C 
BRANCH  15  16
ATOM     16  C   UNL     1      16.807  13.299   9.939  1.00  0.00     0.000 C 
BRANCH  16  17
ATOM     17  C   UNL     1      16.883  14.763  10.389  1.00  0.00     0.000 C 
BRANCH  17  18
ATOM     18  C   UNL     1      16.295  14.938  11.797  1.00  0.00     0.000 C 
BRANCH  18  19
ATOM     19  C   UNL     1      15.924  13.599  12.454  1.00  0.00     0.000 C 
BRANCH  19  20
ATOM     20  C   UNL     1      14.538  13.631  13.124  1.00  0.00     0.006 C 
BRANCH  20  21
ATOM     21  C   UNL     1      13.631  12.494  12.635  1.00  0.00     0.053 C 
BRANCH  21  22
ATOM     22  C   UNL     1      14.045  11.991  11.286  1.00  0.00     0.041 C 
ATOM     23  O   UNL     1      13.587  12.526  10.242  1.00  0.00    -0.550 OA
ATOM     24  O   UNL     1      14.960  10.951  11.181  1.00  0.00    -0.550 OA
ENDBRANCH  21  22
ENDBRANCH  20  21
ENDBRANCH  19  20
ENDBRANCH  18  19
ENDBRANCH  17  18
ENDBRANCH  16  17
ENDBRANCH  15  16
ENDBRANCH  14  15
ENDBRANCH  13  14
ENDBRANCH   1  13
TORSDOF 20
ENDMDL
MODEL 2
REMARK VINA RESULT:    -1.215      1.325      2.999
REMARK INTER + INTRA:          -3.890
REMARK INTER:                  -3.017
REMARK INTRA:                  -0.874
REMARK UNBOUND:                -1.255
REMARK SMILES CCCCCCCCCCCCCCCCCCCCCC(=O)[O-]
REMARK SMILES IDX 12 1 11 2 10 3 9 4 8 5 7 6 6 7 5 8 4 9 3 10 2 11 1 12 13 13
REMARK SMILES IDX 14 14 15 15 16 16 17 17 18 18 19 19 20 20 21 21 22 22 23 23
REMARK SMILES IDX 24 24
REMARK H PARENT
REMARK Flexibility Score: inf
ROOT
ATOM      1  C   UNL     1      15.741  17.323   8.505  1.00  0.00     0.000 C 
ENDROOT
BRANCH   1   2
ATOM      2  C   UNL     1      16.272  18.767   8.490  1.00  0.00     0.000 C 
BRANCH   2   3
ATOM      3  C   UNL     1      17.082  19.112   9.750  1.00  0.00     0.000 C 
BRANCH   3   4
ATOM      4  C   UNL     1      17.117  20.624  10.033  1.00  0.00    -0.000 C 
BRANCH   4   5
ATOM      5  C   UNL     1      17.091  20.945  11.537  1.00  0.00    -0.000 C 
BRANCH   5   6
ATOM      6  C   UNL     1      16.157  22.120  11.876  1.00  0.00    -0.000 C 
BRANCH   6   7
ATOM      7  C   UNL     1      14.671  21.735  11.788  1.00  0.00    -0.000 C 
BRANCH   7   8
ATOM      8  C   UNL     1      14.202  20.901  12.993  1.00  0.00    -0.000 C 
BRANCH   8   9
ATOM      9  C   UNL     1      13.631  19.535  12.575  1.00  0.00    -0.000 C 
BRANCH   9  10
ATOM     10  C   UNL     1      14.456  18.359  13.124  1.00  0.00    -0.000 C 
BRANCH  10  11
ATOM     11  C   UNL     1      15.828  18.232  12.444  1.00  0.00    -0.003 C 
ATOM     12  C   UNL     1      16.469  16.862  12.661  1.00  0.00     0.004 C 
ENDBRANCH  10  11
ENDBRANCH   9  10
ENDBRANCH   8   9
ENDBRANCH   7   8
ENDBRANCH   6   7
ENDBRANCH   5   6
ENDBRANCH   4   5
ENDBRANCH   3   4
ENDBRANCH   2   3
ENDBRANCH   1   2
BRANCH   1  13
ATOM     13  C   UNL     1      16.795  16.302   8.047  1.00  0.00     0.000 C 
BRANCH  13  14
ATOM     14  C   UNL     1      16.166  15.047   7.416  1.00  0.00     0.000 C 
BRANCH  14  15
ATOM     15  C   UNL     1      17.125  14.329   6.453  1.00  0.00     0.000 C 
BRANCH  15  16
ATOM     16  C   UNL     1      17.111  12.804   6.634  1.00  0.00     0.000 C 
BRANCH  16  17
ATOM     17  C   UNL     1      16.270  12.402   7.852  1.00  0.00     0.000 C 
BRANCH  17  18
ATOM     18  C   UNL     1      17.125  12.385   9.128  1.00  0.00     0.000 C 
BRANCH  18  19
ATOM     19  C   UNL     1      16.807  13.558  10.070  1.00  0.00     0.000 C 
BRANCH  19  20
ATOM     20  C   UNL     1      16.897  13.164  11.555  1.00  0.00     0.006 C 
BRANCH  20  21
ATOM     21  C   UNL     1      15.515  13.093  12.220  1.00  0.00     0.053 C 
BRANCH  21  22
ATOM     22  C   UNL     1      14.609  12.127  11.522  1.00  0.00     0.041 C 
ATOM     23  O   UNL     1      13.425  12.454  11.246  1.00  0.00    -0.550 OA
ATOM     24  O   UNL     1      15.081  10.874  11.149  1.00  0.00    -0.550 OA
ENDBRANCH  21  22
ENDBRANCH  20  21
ENDBRANCH  19  20
ENDBRANCH  18  19
ENDBRANCH  17  18
ENDBRANCH  16  17
ENDBRANCH  15  16
ENDBRANCH  14  15
ENDBRANCH  13  14
ENDBRANCH   1  13
TORSDOF 20
ENDMDL
MODEL 3
REMARK VINA RESULT:    -0.757      1.641      2.690
REMARK INTER + INTRA:          -2.896
REMARK INTER:                  -1.430
REMARK INTRA:                  -1.467
REMARK UNBOUND:                -1.255
REMARK SMILES CCCCCCCCCCCCCCCCCCCCCC(=O)[O-]
REMARK SMILES IDX 12 1 11 2 10 3 9 4 8 5 7 6 6 7 5 8 4 9 3 10 2 11 1 12 13 13
REMARK SMILES IDX 14 14 15 15 16 16 17 17 18 18 19 19 20 20 21 21 22 22 23 23
REMARK SMILES IDX 24 24
REMARK H PARENT
REMARK Flexibility Score: inf
ROOT
ATOM      1  C   UNL     1      15.652  17.254   9.002  1.00  0.00     0.000 C 
ENDROOT
BRANCH   1   2
ATOM      2  C   UNL     1      15.933  18.363   7.972  1.00  0.00     0.000 C 
BRANCH   2   3
ATOM      3  C   UNL     1      17.124  19.250   8.370  1.00  0.00     0.000 C 
BRANCH   3   4
ATOM      4  C   UNL     1      16.692  20.491   9.171  1.00  0.00    -0.000 C 
BRANCH   4   5
ATOM      5  C   UNL     1      16.905  20.322  10.684  1.00  0.00    -0.000 C 
BRANCH   5   6
ATOM      6  C   UNL     1      17.124  18.854  11.091  1.00  0.00    -0.000 C 
BRANCH   6   7
ATOM      7  C   UNL     1      16.298  18.457  12.326  1.00  0.00    -0.000 C 
BRANCH   7   8
ATOM      8  C   UNL     1      15.321  19.561  12.767  1.00  0.00    -0.000 C 
BRANCH   8   9
ATOM      9  C   UNL     1      13.871  19.059  12.861  1.00  0.00    -0.000 C 
BRANCH   9  10
ATOM     10  C   UNL     1      12.920  19.827  11.927  1.00  0.00    -0.000 C 
BRANCH  10  11
ATOM     11  C   UNL     1      13.225  21.332  11.881  1.00  0.00    -0.003 C 
ATOM     12  C   UNL     1      12.510  22.112  12.983  1.00  0.00     0.004 C 
ENDBRANCH  10  11
ENDBRANCH   9  10
ENDBRANCH   8   9
ENDBRANCH   7   8
ENDBRANCH   6   7
ENDBRANCH   5   6
ENDBRANCH   4   5
ENDBRANCH   3   4
ENDBRANCH   2   3
ENDBRANCH   1   2
BRANCH   1  13
ATOM     13  C   UNL     1      16.552  16.024   8.804  1.00  0.00     0.000 C 
BRANCH  13  14
ATOM     14  C   UNL     1      16.402  15.401   7.405  1.00  0.00     0.000 C 
BRANCH  14  15
ATOM     15  C   UNL     1      14.939  15.351   6.937  1.00  0.00     0.000 C 
BRANCH  15  16
ATOM     16  C   UNL     1      14.315  13.957   7.096  1.00  0.00     0.000 C 
BRANCH  16  17
ATOM     17  C   UNL     1      15.166  13.076   8.019  1.00  0.00     0.000 C 
BRANCH  17  18
ATOM     18  C   UNL     1      14.307  12.454   9.131  1.00  0.00     0.000 C 
BRANCH  18  19
ATOM     19  C   UNL     1      14.731  12.914  10.535  1.00  0.00     0.000 C 
BRANCH  19  20
ATOM     20  C   UNL     1      16.254  12.840  10.747  1.00  0.00     0.006 C 
BRANCH  20  21
ATOM     21  C   UNL     1      16.621  12.148  12.067  1.00  0.00     0.053 C 
BRANCH  21  22
ATOM     22  C   UNL     1      16.502  10.658  11.969  1.00  0.00     0.041 C 
ATOM     23  O   UNL     1      16.459  10.099  10.842  1.00  0.00    -0.550 OA
ATOM     24  O   UNL     1      16.471   9.885  13.123  1.00  0.00    -0.550 OA
ENDBRANCH  21  22
ENDBRANCH  20  21
ENDBRANCH  19  20
ENDBRANCH  18  19
ENDBRANCH  17  18
ENDBRANCH  16  17
ENDBRANCH  15  16
ENDBRANCH  14  15
ENDBRANCH  13  14
ENDBRANCH   1  13
TORSDOF 20
ENDMDL
MODEL 4
REMARK VINA RESULT:    -0.661      4.566      7.392
REMARK INTER + INTRA:          -2.689
REMARK INTER:                  -0.689
REMARK INTRA:                  -2.000
REMARK UNBOUND:                -1.255
REMARK SMILES CCCCCCCCCCCCCCCCCCCCCC(=O)[O-]
REMARK SMILES IDX 12 1 11 2 10 3 9 4 8 5 7 6 6 7 5 8 4 9 3 10 2 11 1 12 13 13
REMARK SMILES IDX 14 14 15 15 16 16 17 17 18 18 19 19 20 20 21 21 22 22 23 23
REMARK SMILES IDX 24 24
REMARK H PARENT
REMARK Flexibility Score: inf
ROOT
ATOM      1  C   UNL     1      14.511  13.179   7.580  1.00  0.00     0.000 C 
ENDROOT
BRANCH   1   2
ATOM      2  C   UNL     1      14.365  13.762   8.997  1.00  0.00     0.000 C 
BRANCH   2   3
ATOM      3  C   UNL     1      14.731  12.749  10.094  1.00  0.00     0.000 C 
BRANCH   3   4
ATOM      4  C   UNL     1      16.242  12.710  10.380  1.00  0.00    -0.000 C 
BRANCH   4   5
ATOM      5  C   UNL     1      16.842  14.111  10.586  1.00  0.00    -0.000 C 
BRANCH   5   6
ATOM      6  C   UNL     1      16.234  14.844  11.794  1.00  0.00    -0.000 C 
BRANCH   6   7
ATOM      7  C   UNL     1      16.503  16.357  11.761  1.00  0.00    -0.000 C 
BRANCH   7   8
ATOM      8  C   UNL     1      16.714  16.892  10.334  1.00  0.00    -0.000 C 
BRANCH   8   9
ATOM      9  C   UNL     1      15.581  17.830   9.885  1.00  0.00    -0.000 C 
BRANCH   9  10
ATOM     10  C   UNL     1      15.715  19.242  10.479  1.00  0.00    -0.000 C 
BRANCH  10  11
ATOM     11  C   UNL     1      14.481  19.660  11.292  1.00  0.00    -0.003 C 
ATOM     12  C   UNL     1      14.810  19.949  12.756  1.00  0.00     0.004 C 
ENDBRANCH  10  11
ENDBRANCH   9  10
ENDBRANCH   8   9
ENDBRANCH   7   8
ENDBRANCH   6   7
ENDBRANCH   5   6
ENDBRANCH   4   5
ENDBRANCH   3   4
ENDBRANCH   2   3
ENDBRANCH   1   2
BRANCH   1  13
ATOM     13  C   UNL     1      15.806  13.633   6.887  1.00  0.00     0.000 C 
BRANCH  13  14
ATOM     14  C   UNL     1      16.209  15.067   7.272  1.00  0.00     0.000 C 
BRANCH  14  15
ATOM     15  C   UNL     1      15.847  16.092   6.185  1.00  0.00     0.000 C 
BRANCH  15  16
ATOM     16  C   UNL     1      14.330  16.244   5.997  1.00  0.00     0.000 C 
BRANCH  16  17
ATOM     17  C   UNL     1      13.991  16.621   4.550  1.00  0.00     0.000 C 
BRANCH  17  18
ATOM     18  C   UNL     1      12.712  15.909   4.081  1.00  0.00     0.000 C 
BRANCH  18  19
ATOM     19  C   UNL     1      12.392  16.178   2.603  1.00  0.00     0.000 C 
BRANCH  19  20
ATOM     20  C   UNL     1      13.378  17.166   1.953  1.00  0.00     0.006 C 
BRANCH  20  21
ATOM     21  C   UNL     1      12.919  17.611   0.558  1.00  0.00     0.053 C 
BRANCH  21  22
ATOM     22  C   UNL     1      13.586  18.882   0.130  1.00  0.00     0.041 C 
ATOM     23  O   UNL     1      14.756  19.144   0.512  1.00  0.00    -0.550 OA
ATOM     24  O   UNL     1      12.925  19.764  -0.717  1.00  0.00    -0.550 OA
ENDBRANCH  21  22
ENDBRANCH  20  21
ENDBRANCH  19  20
ENDBRANCH  18  19
ENDBRANCH  17  18
ENDBRANCH  16  17
ENDBRANCH  15  16
ENDBRANCH  14  15
ENDBRANCH  13  14
ENDBRANCH   1  13
TORSDOF 20
ENDMDL
MODEL 5
REMARK VINA RESULT:    -0.479      5.938      9.544
REMARK INTER + INTRA:          -2.293
REMARK INTER:                  -0.871
REMARK INTRA:                  -1.422
REMARK UNBOUND:                -1.255
REMARK SMILES CCCCCCCCCCCCCCCCCCCCCC(=O)[O-]
REMARK SMILES IDX 12 1 11 2 10 3 9 4 8 5 7 6 6 7 5 8 4 9 3 10 2 11 1 12 13 13
REMARK SMILES IDX 14 14 15 15 16 16 17 17 18 18 19 19 20 20 21 21 22 22 23 23
REMARK SMILES IDX 24 24
REMARK H PARENT
REMARK Flexibility Score: inf
ROOT
ATOM      1  C   UNL     1      16.050  16.378   6.236  1.00  0.00     0.000 C 
ENDROOT
BRANCH   1   2
ATOM      2  C   UNL     1      16.533  16.027   7.654  1.00  0.00     0.000 C 
BRANCH   2   3
ATOM      3  C   UNL     1      16.497  17.233   8.607  1.00  0.00     0.000 C 
BRANCH   3   4
ATOM      4  C   UNL     1      16.026  16.853  10.022  1.00  0.00    -0.000 C 
BRANCH   4   5
ATOM      5  C   UNL     1      16.875  15.734  10.648  1.00  0.00    -0.000 C 
BRANCH   5   6
ATOM      6  C   UNL     1      16.181  15.063  11.846  1.00  0.00    -0.000 C 
BRANCH   6   7
ATOM      7  C   UNL     1      16.275  13.529  11.796  1.00  0.00    -0.000 C 
BRANCH   7   8
ATOM      8  C   UNL     1      14.895  12.850  11.792  1.00  0.00    -0.000 C 
BRANCH   8   9
ATOM      9  C   UNL     1      14.529  12.271  10.415  1.00  0.00    -0.000 C 
BRANCH   9  10
ATOM     10  C   UNL     1      14.342  13.362   9.348  1.00  0.00    -0.000 C 
BRANCH  10  11
ATOM     11  C   UNL     1      13.855  12.796   8.005  1.00  0.00    -0.003 C 
ATOM     12  C   UNL     1      14.885  12.957   6.888  1.00  0.00     0.004 C 
ENDBRANCH  10  11
ENDBRANCH   9  10
ENDBRANCH   8   9
ENDBRANCH   7   8
ENDBRANCH   6   7
ENDBRANCH   5   6
ENDBRANCH   4   5
ENDBRANCH   3   4
ENDBRANCH   2   3
ENDBRANCH   1   2
BRANCH   1  13
ATOM     13  C   UNL     1      14.540  16.156   6.057  1.00  0.00     0.000 C 
BRANCH  13  14
ATOM     14  C   UNL     1      14.005  16.763   4.748  1.00  0.00     0.000 C 
BRANCH  14  15
ATOM     15  C   UNL     1      12.989  15.848   4.046  1.00  0.00     0.000 C 
BRANCH  15  16
ATOM     16  C   UNL     1      12.236  16.561   2.913  1.00  0.00     0.000 C 
BRANCH  16  17
ATOM     17  C   UNL     1      12.969  16.397   1.576  1.00  0.00     0.000 C 
BRANCH  17  18
ATOM     18  C   UNL     1      12.904  17.692   0.752  1.00  0.00     0.000 C 
BRANCH  18  19
ATOM     19  C   UNL     1      14.232  18.465   0.757  1.00  0.00     0.000 C 
BRANCH  19  20
ATOM     20  C   UNL     1      14.142  19.802  -0.002  1.00  0.00     0.006 C 
BRANCH  20  21
ATOM     21  C   UNL     1      15.477  20.557  -0.008  1.00  0.00     0.053 C 
BRANCH  21  22
ATOM     22  C   UNL     1      15.606  21.455  -1.200  1.00  0.00     0.041 C 
ATOM     23  O   UNL     1      14.586  21.773  -1.867  1.00  0.00    -0.550 OA
ATOM     24  O   UNL     1      16.848  21.966  -1.556  1.00  0.00    -0.550 OA
ENDBRANCH  21  22
ENDBRANCH  20  21
ENDBRANCH  19  20
ENDBRANCH  18  19
ENDBRANCH  17  18
ENDBRANCH  16  17
ENDBRANCH  15  16
ENDBRANCH  14  15
ENDBRANCH  13  14
ENDBRANCH   1  13
TORSDOF 20
ENDMDL
MODEL 6
REMARK VINA RESULT:    -0.464      4.824      7.497
REMARK INTER + INTRA:          -2.262
REMARK INTER:                  -0.935
REMARK INTRA:                  -1.327
REMARK UNBOUND:                -1.255
REMARK SMILES CCCCCCCCCCCCCCCCCCCCCC(=O)[O-]
REMARK SMILES IDX 12 1 11 2 10 3 9 4 8 5 7 6 6 7 5 8 4 9 3 10 2 11 1 12 13 13
REMARK SMILES IDX 14 14 15 15 16 16 17 17 18 18 19 19 20 20 21 21 22 22 23 23
REMARK SMILES IDX 24 24
REMARK H PARENT
REMARK Flexibility Score: inf
ROOT
ATOM      1  C   UNL     1      15.002  16.504   6.077  1.00  0.00     0.000 C 
ENDROOT
BRANCH   1   2
ATOM      2  C   UNL     1      13.839  16.007   5.200  1.00  0.00     0.000 C 
BRANCH   2   3
ATOM      3  C   UNL     1      13.632  16.873   3.946  1.00  0.00     0.000 C 
BRANCH   3   4
ATOM      4  C   UNL     1      12.614  16.260   2.968  1.00  0.00    -0.000 C 
BRANCH   4   5
ATOM      5  C   UNL     1      13.005  16.475   1.496  1.00  0.00    -0.000 C 
BRANCH   5   6
ATOM      6  C   UNL     1      12.145  17.547   0.805  1.00  0.00    -0.000 C 
BRANCH   6   7
ATOM      7  C   UNL     1      12.992  18.582   0.046  1.00  0.00    -0.000 C 
BRANCH   7   8
ATOM      8  C   UNL     1      14.393  18.763   0.654  1.00  0.00    -0.000 C 
BRANCH   8   9
ATOM      9  C   UNL     1      15.120  19.998   0.096  1.00  0.00    -0.000 C 
BRANCH   9  10
ATOM     10  C   UNL     1      14.318  20.705  -1.009  1.00  0.00    -0.000 C 
BRANCH  10  11
ATOM     11  C   UNL     1      15.010  21.979  -1.517  1.00  0.00    -0.003 C 
ATOM     12  C   UNL     1      16.532  21.850  -1.547  1.00  0.00     0.004 C 
ENDBRANCH  10  11
ENDBRANCH   9  10
ENDBRANCH   8   9
ENDBRANCH   7   8
ENDBRANCH   6   7
ENDBRANCH   5   6
ENDBRANCH   4   5
ENDBRANCH   3   4
ENDBRANCH   2   3
ENDBRANCH   1   2
BRANCH   1  13
ATOM     13  C   UNL     1      15.493  15.434   7.065  1.00  0.00     0.000 C 
BRANCH  13  14
ATOM     14  C   UNL     1      16.553  15.974   8.041  1.00  0.00     0.000 C 
BRANCH  14  15
ATOM     15  C   UNL     1      16.304  17.440   8.430  1.00  0.00     0.000 C 
BRANCH  15  16
ATOM     16  C   UNL     1      16.193  17.638   9.948  1.00  0.00     0.000 C 
BRANCH  16  17
ATOM     17  C   UNL     1      16.392  16.311  10.692  1.00  0.00     0.000 C 
BRANCH  17  18
ATOM     18  C   UNL     1      16.165  16.487  12.201  1.00  0.00     0.000 C 
BRANCH  18  19
ATOM     19  C   UNL     1      16.160  15.150  12.959  1.00  0.00     0.000 C 
BRANCH  19  20
ATOM     20  C   UNL     1      16.377  13.942  12.030  1.00  0.00     0.006 C 
BRANCH  20  21
ATOM     21  C   UNL     1      15.056  13.259  11.650  1.00  0.00     0.053 C 
BRANCH  21  22
ATOM     22  C   UNL     1      15.046  12.823  10.216  1.00  0.00     0.041 C 
ATOM     23  O   UNL     1      16.118  12.790   9.556  1.00  0.00    -0.550 OA
ATOM     24  O   UNL     1      13.857  12.422   9.618  1.00  0.00    -0.550 OA
ENDBRANCH  21  22
ENDBRANCH  20  21
ENDBRANCH  19  20
ENDBRANCH  18  19
ENDBRANCH  17  18
ENDBRANCH  16  17
ENDBRANCH  15  16
ENDBRANCH  14  15
ENDBRANCH  13  14
ENDBRANCH   1  13
TORSDOF 20
ENDMDL
MODEL 7
REMARK VINA RESULT:    -0.450      6.169      9.872
REMARK INTER + INTRA:          -2.231
REMARK INTER:                  -0.755
REMARK INTRA:                  -1.476
REMARK UNBOUND:                -1.255
REMARK SMILES CCCCCCCCCCCCCCCCCCCCCC(=O)[O-]
REMARK SMILES IDX 12 1 11 2 10 3 9 4 8 5 7 6 6 7 5 8 4 9 3 10 2 11 1 12 13 13
REMARK SMILES IDX 14 14 15 15 16 16 17 17 18 18 19 19 20 20 21 21 22 22 23 23
REMARK SMILES IDX 24 24
REMARK H PARENT
REMARK Flexibility Score: inf
ROOT
ATOM      1  C   UNL     1      14.091  15.788   5.607  1.00  0.00     0.000 C 
ENDROOT
BRANCH   1   2
ATOM      2  C   UNL     1      15.156  16.492   6.467  1.00  0.00     0.000 C 
BRANCH   2   3
ATOM      3  C   UNL     1      16.114  15.503   7.151  1.00  0.00     0.000 C 
BRANCH   3   4
ATOM      4  C   UNL     1      15.604  15.046   8.529  1.00  0.00    -0.000 C 
BRANCH   4   5
ATOM      5  C   UNL     1      15.572  13.515   8.670  1.00  0.00    -0.000 C 
BRANCH   5   6
ATOM      6  C   UNL     1      14.193  12.987   9.102  1.00  0.00    -0.000 C 
BRANCH   6   7
ATOM      7  C   UNL     1      14.282  12.004  10.281  1.00  0.00    -0.000 C 
BRANCH   7   8
ATOM      8  C   UNL     1      13.523  12.498  11.525  1.00  0.00    -0.000 C 
BRANCH   8   9
ATOM      9  C   UNL     1      14.441  13.218  12.526  1.00  0.00    -0.000 C 
BRANCH   9  10
ATOM     10  C   UNL     1      15.907  12.767  12.411  1.00  0.00    -0.000 C 
BRANCH  10  11
ATOM     11  C   UNL     1      16.865  13.938  12.144  1.00  0.00    -0.003 C 
ATOM     12  C   UNL     1      16.149  15.287  12.096  1.00  0.00     0.004 C 
ENDBRANCH  10  11
ENDBRANCH   9  10
ENDBRANCH   8   9
ENDBRANCH   7   8
ENDBRANCH   6   7
ENDBRANCH   5   6
ENDBRANCH   4   5
ENDBRANCH   3   4
ENDBRANCH   2   3
ENDBRANCH   1   2
BRANCH   1  13
ATOM     13  C   UNL     1      13.710  16.599   4.360  1.00  0.00     0.000 C 
BRANCH  13  14
ATOM     14  C   UNL     1      12.566  15.951   3.560  1.00  0.00     0.000 C 
BRANCH  14  15
ATOM     15  C   UNL     1      12.756  16.090   2.042  1.00  0.00     0.000 C 
BRANCH  15  16
ATOM     16  C   UNL     1      12.697  17.550   1.570  1.00  0.00     0.000 C 
BRANCH  16  17
ATOM     17  C   UNL     1      12.815  17.641   0.044  1.00  0.00     0.000 C 
BRANCH  17  18
ATOM     18  C   UNL     1      12.628  19.088  -0.437  1.00  0.00     0.000 C 
BRANCH  18  19
ATOM     19  C   UNL     1      13.812  19.994  -0.063  1.00  0.00     0.000 C 
BRANCH  19  20
ATOM     20  C   UNL     1      13.955  21.201  -1.007  1.00  0.00     0.006 C 
BRANCH  20  21
ATOM     21  C   UNL     1      15.344  21.269  -1.656  1.00  0.00     0.053 C 
BRANCH  21  22
ATOM     22  C   UNL     1      16.440  21.130  -0.644  1.00  0.00     0.041 C 
ATOM     23  O   UNL     1      16.754  22.106   0.088  1.00  0.00    -0.550 OA
ATOM     24  O   UNL     1      17.094  19.914  -0.488  1.00  0.00    -0.550 OA
ENDBRANCH  21  22
ENDBRANCH  20  21
ENDBRANCH  19  20
ENDBRANCH  18  19
ENDBRANCH  17  18
ENDBRANCH  16  17
ENDBRANCH  15  16
ENDBRANCH  14  15
ENDBRANCH  13  14
ENDBRANCH   1  13
TORSDOF 20
ENDMDL
MODEL 8
REMARK VINA RESULT:    -0.380      4.271      7.449
REMARK INTER + INTRA:          -2.079
REMARK INTER:                  -0.900
REMARK INTRA:                  -1.179
REMARK UNBOUND:                -1.255
REMARK SMILES CCCCCCCCCCCCCCCCCCCCCC(=O)[O-]
REMARK SMILES IDX 12 1 11 2 10 3 9 4 8 5 7 6 6 7 5 8 4 9 3 10 2 11 1 12 13 13
REMARK SMILES IDX 14 14 15 15 16 16 17 17 18 18 19 19 20 20 21 21 22 22 23 23
REMARK SMILES IDX 24 24
REMARK H PARENT
REMARK Flexibility Score: inf
ROOT
ATOM      1  C   UNL     1      14.331  13.250   7.875  1.00  0.00     0.000 C 
ENDROOT
BRANCH   1   2
ATOM      2  C   UNL     1      15.638  13.809   7.286  1.00  0.00     0.000 C 
BRANCH   2   3
ATOM      3  C   UNL     1      15.759  15.333   7.454  1.00  0.00     0.000 C 
BRANCH   3   4
ATOM      4  C   UNL     1      15.574  16.089   6.127  1.00  0.00    -0.000 C 
BRANCH   4   5
ATOM      5  C   UNL     1      14.094  16.305   5.770  1.00  0.00    -0.000 C 
BRANCH   5   6
ATOM      6  C   UNL     1      13.886  16.645   4.284  1.00  0.00    -0.000 C 
BRANCH   6   7
ATOM      7  C   UNL     1      12.605  16.018   3.710  1.00  0.00    -0.000 C 
BRANCH   7   8
ATOM      8  C   UNL     1      12.545  16.092   2.175  1.00  0.00    -0.000 C 
BRANCH   8   9
ATOM      9  C   UNL     1      13.332  17.287   1.613  1.00  0.00    -0.000 C 
BRANCH   9  10
ATOM     10  C   UNL     1      12.653  17.915   0.384  1.00  0.00    -0.000 C 
BRANCH  10  11
ATOM     11  C   UNL     1      13.390  19.164  -0.124  1.00  0.00    -0.003 C 
ATOM     12  C   UNL     1      14.815  19.267   0.417  1.00  0.00     0.004 C 
ENDBRANCH  10  11
ENDBRANCH   9  10
ENDBRANCH   8   9
ENDBRANCH   7   8
ENDBRANCH   6   7
ENDBRANCH   5   6
ENDBRANCH   4   5
ENDBRANCH   3   4
ENDBRANCH   2   3
ENDBRANCH   1   2
BRANCH   1  13
ATOM     13  C   UNL     1      14.483  12.820   9.343  1.00  0.00     0.000 C 
BRANCH  13  14
ATOM     14  C   UNL     1      15.899  13.075   9.889  1.00  0.00     0.000 C 
BRANCH  14  15
ATOM     15  C   UNL     1      15.910  14.081  11.050  1.00  0.00     0.000 C 
BRANCH  15  16
ATOM     16  C   UNL     1      16.815  15.291  10.776  1.00  0.00     0.000 C 
BRANCH  16  17
ATOM     17  C   UNL     1      16.919  16.191  12.013  1.00  0.00     0.000 C 
BRANCH  17  18
ATOM     18  C   UNL     1      15.975  17.397  11.897  1.00  0.00     0.000 C 
BRANCH  18  19
ATOM     19  C   UNL     1      16.039  18.070  10.517  1.00  0.00     0.000 C 
BRANCH  19  20
ATOM     20  C   UNL     1      15.518  19.519  10.539  1.00  0.00     0.006 C 
BRANCH  20  21
ATOM     21  C   UNL     1      14.431  19.727  11.602  1.00  0.00     0.053 C 
BRANCH  21  22
ATOM     22  C   UNL     1      14.205  21.179  11.893  1.00  0.00     0.041 C 
ATOM     23  O   UNL     1      15.142  21.888  12.344  1.00  0.00    -0.550 OA
ATOM     24  O   UNL     1      12.967  21.756  11.637  1.00  0.00    -0.550 OA
ENDBRANCH  21  22
ENDBRANCH  20  21
ENDBRANCH  19  20
ENDBRANCH  18  19
ENDBRANCH  17  18
ENDBRANCH  16  17
ENDBRANCH  15  16
ENDBRANCH  14  15
ENDBRANCH  13  14
ENDBRANCH   1  13
TORSDOF 20
ENDMDL
MODEL 9
REMARK VINA RESULT:    -0.290      6.016      8.891
REMARK INTER + INTRA:          -1.885
REMARK INTER:                  -1.233
REMARK INTRA:                  -0.652
REMARK UNBOUND:                -1.255
REMARK SMILES CCCCCCCCCCCCCCCCCCCCCC(=O)[O-]
REMARK SMILES IDX 12 1 11 2 10 3 9 4 8 5 7 6 6 7 5 8 4 9 3 10 2 11 1 12 13 13
REMARK SMILES IDX 14 14 15 15 16 16 17 17 18 18 19 19 20 20 21 21 22 22 23 23
REMARK SMILES IDX 24 24
REMARK H PARENT
REMARK Flexibility Score: inf
ROOT
ATOM      1  C   UNL     1      14.169  16.126   5.679  1.00  0.00     0.000 C 
ENDROOT
BRANCH   1   2
ATOM      2  C   UNL     1      15.645  16.374   6.040  1.00  0.00     0.000 C 
BRANCH   2   3
ATOM      3  C   UNL     1      16.017  15.816   7.423  1.00  0.00     0.000 C 
BRANCH   3   4
ATOM      4  C   UNL     1      15.735  16.815   8.559  1.00  0.00    -0.000 C 
BRANCH   4   5
ATOM      5  C   UNL     1      16.664  18.040   8.513  1.00  0.00    -0.000 C 
BRANCH   5   6
ATOM      6  C   UNL     1      16.385  19.038   9.650  1.00  0.00    -0.000 C 
BRANCH   6   7
ATOM      7  C   UNL     1      15.446  18.461  10.722  1.00  0.00    -0.000 C 
BRANCH   7   8
ATOM      8  C   UNL     1      15.938  18.740  12.153  1.00  0.00    -0.000 C 
BRANCH   8   9
ATOM      9  C   UNL     1      15.148  19.869  12.836  1.00  0.00    -0.000 C 
BRANCH   9  10
ATOM     10  C   UNL     1      13.630  19.741  12.622  1.00  0.00    -0.000 C 
BRANCH  10  11
ATOM     11  C   UNL     1      13.000  21.033  12.080  1.00  0.00    -0.003 C 
ATOM     12  C   UNL     1      14.034  22.124  11.808  1.00  0.00     0.004 C 
ENDBRANCH  10  11
ENDBRANCH   9  10
ENDBRANCH   8   9
ENDBRANCH   7   8
ENDBRANCH   6   7
ENDBRANCH   5   6
ENDBRANCH   4   5
ENDBRANCH   3   4
ENDBRANCH   2   3
ENDBRANCH   1   2
BRANCH   1  13
ATOM     13  C   UNL     1      13.764  16.802   4.360  1.00  0.00     0.000 C 
BRANCH  13  14
ATOM     14  C   UNL     1      12.530  16.148   3.716  1.00  0.00     0.000 C 
BRANCH  14  15
ATOM     15  C   UNL     1      12.629  16.084   2.183  1.00  0.00     0.000 C 
BRANCH  15  16
ATOM     16  C   UNL     1      13.315  17.320   1.583  1.00  0.00     0.000 C 
BRANCH  16  17
ATOM     17  C   UNL     1      12.774  17.623   0.180  1.00  0.00     0.000 C 
BRANCH  17  18
ATOM     18  C   UNL     1      12.627  19.136  -0.038  1.00  0.00     0.000 C 
BRANCH  18  19
ATOM     19  C   UNL     1      13.978  19.868  -0.039  1.00  0.00     0.000 C 
BRANCH  19  20
ATOM     20  C   UNL     1      14.031  21.011  -1.070  1.00  0.00     0.006 C 
BRANCH  20  21
ATOM     21  C   UNL     1      15.470  21.402  -1.429  1.00  0.00     0.053 C 
BRANCH  21  22
ATOM     22  C   UNL     1      16.421  21.127  -0.305  1.00  0.00     0.041 C 
ATOM     23  O   UNL     1      16.853  22.073   0.406  1.00  0.00    -0.550 OA
ATOM     24  O   UNL     1      16.807  19.822  -0.022  1.00  0.00    -0.550 OA
ENDBRANCH  21  22
ENDBRANCH  20  21
ENDBRANCH  19  20
ENDBRANCH  18  19
ENDBRANCH  17  18
ENDBRANCH  16  17
ENDBRANCH  15  16
ENDBRANCH  14  15
ENDBRANCH  13  14
ENDBRANCH   1  13
TORSDOF 20
ENDMDL
