MODEL 1
REMARK VINA RESULT:    -3.290      0.000      0.000
REMARK INTER + INTRA:         -13.571
REMARK INTER:                  -8.290
REMARK INTRA:                  -5.281
REMARK UNBOUND:                -5.281
REMARK SMILES CCCCCCCCCCCCCCCCCCCCCCCCCCCC(=O)[O-]
REMARK SMILES IDX 15 1 16 2 17 3 18 4 19 5 20 6 21 7 22 8 23 9 24 10 25 11
REMARK SMILES IDX 26 12 27 13 28 14 29 15 30 16 14 17 13 18 12 19 11 20 10 21
REMARK SMILES IDX 9 22 8 23 7 24 6 25 5 26 4 27 3 28 2 29 1 30
REMARK H PARENT
REMARK Flexibility Score: inf
ROOT
ATOM      1  C   UNL     1      -5.228  -2.617  34.674  1.00  0.00     0.000 C 
ENDROOT
BRANCH   1   2
ATOM      2  C   UNL     1      -5.480  -3.265  36.049  1.00  0.00     0.000 C 
BRANCH   2   3
ATOM      3  C   UNL     1      -5.585  -2.275  37.225  1.00  0.00     0.000 C 
BRANCH   3   4
ATOM      4  C   UNL     1      -6.508  -1.084  36.917  1.00  0.00     0.000 C 
BRANCH   4   5
ATOM      5  C   UNL     1      -5.810   0.277  37.089  1.00  0.00     0.000 C 
BRANCH   5   6
ATOM      6  C   UNL     1      -4.289   0.209  37.320  1.00  0.00     0.000 C 
BRANCH   6   7
ATOM      7  C   UNL     1      -3.472   0.633  36.089  1.00  0.00     0.000 C 
BRANCH   7   8
ATOM      8  C   UNL     1      -4.343   1.419  35.096  1.00  0.00     0.000 C 
BRANCH   8   9
ATOM      9  C   UNL     1      -4.293   0.850  33.666  1.00  0.00     0.000 C 
BRANCH   9  10
ATOM     10  C   UNL     1      -5.588   1.055  32.847  1.00  0.00     0.000 C 
BRANCH  10  11
ATOM     11  C   UNL     1      -6.833   0.380  33.453  1.00  0.00     0.000 C 
BRANCH  11  12
ATOM     12  C   UNL     1      -7.854   1.343  34.082  1.00  0.00     0.006 C 
BRANCH  12  13
ATOM     13  C   UNL     1      -9.234   0.698  34.286  1.00  0.00     0.053 C 
BRANCH  13  14
ATOM     14  C   UNL     1     -10.281   1.360  33.442  1.00  0.00     0.041 C 
ATOM     15  O   UNL     1     -10.167   1.393  32.188  1.00  0.00    -0.550 OA
ATOM     16  O   UNL     1     -11.358   1.995  34.050  1.00  0.00    -0.550 OA
ENDBRANCH  13  14
ENDBRANCH  12  13
ENDBRANCH  11  12
ENDBRANCH  10  11
ENDBRANCH   9  10
ENDBRANCH   8   9
ENDBRANCH   7   8
ENDBRANCH   6   7
ENDBRANCH   5   6
ENDBRANCH   4   5
ENDBRANCH   3   4
ENDBRANCH   2   3
ENDBRANCH   1   2
BRANCH   1  17
ATOM     17  C   UNL     1      -3.983  -3.177  33.969  1.00  0.00     0.000 C 
BRANCH  17  18
ATOM     18  C   UNL     1      -2.733  -2.362  34.333  1.00  0.00     0.000 C 
BRANCH  18  19
ATOM     19  C   UNL     1      -2.047  -2.882  35.611  1.00  0.00     0.000 C 
BRANCH  19  20
ATOM     20  C   UNL     1      -0.853  -2.016  36.070  1.00  0.00     0.000 C 
BRANCH  20  21
ATOM     21  C   UNL     1       0.473  -2.790  36.183  1.00  0.00     0.000 C 
BRANCH  21  22
ATOM     22  C   UNL     1       1.553  -2.257  35.224  1.00  0.00    -0.000 C 
BRANCH  22  23
ATOM     23  C   UNL     1       2.611  -1.413  35.958  1.00  0.00    -0.000 C 
BRANCH  23  24
ATOM     24  C   UNL     1       2.123   0.012  36.305  1.00  0.00    -0.000 C 
BRANCH  24  25
ATOM     25  C   UNL     1       1.647   0.813  35.081  1.00  0.00    -0.000 C 
BRANCH  25  26
ATOM     26  C   UNL     1       0.208   1.332  35.233  1.00  0.00    -0.000 C 
BRANCH  26  27
ATOM     27  C   UNL     1      -0.580   1.296  33.914  1.00  0.00    -0.000 C 
BRANCH  27  28
ATOM     28  C   UNL     1      -0.171   0.126  33.009  1.00  0.00    -0.000 C 
BRANCH  28  29
ATOM     29  C   UNL     1      -1.168  -0.053  31.859  1.00  0.00    -0.003 C 
ATOM     30  C   UNL     1      -1.228   1.194  30.982  1.00  0.00     0.004 C 
ENDBRANCH  28  29
ENDBRANCH  27  28
ENDBRANCH  26  27
ENDBRANCH  25  26
ENDBRANCH  24  25
ENDBRANCH  23  24
ENDBRANCH  22  23
ENDBRANCH  21  22
ENDBRANCH  20  21
ENDBRANCH  19  20
ENDBRANCH  18  19
ENDBRANCH  17  18
ENDBRANCH   1  17
TORSDOF 26
ENDMDL
MODEL 2
REMARK VINA RESULT:    -3.252      3.431      7.528
REMARK INTER + INTRA:         -13.477
REMARK INTER:                  -7.989
REMARK INTRA:                  -5.488
REMARK UNBOUND:                -5.281
REMARK SMILES CCCCCCCCCCCCCCCCCCCCCCCCCCCC(=O)[O-]
REMARK SMILES IDX 15 1 16 2 17 3 18 4 19 5 20 6 21 7 22 8 23 9 24 10 25 11
REMARK SMILES IDX 26 12 27 13 28 14 29 15 30 16 14 17 13 18 12 19 11 20 10 21
REMARK SMILES IDX 9 22 8 23 7 24 6 25 5 26 4 27 3 28 2 29 1 30
REMARK H PARENT
REMARK Flexibility Score: inf
ROOT
ATOM      1  C   UNL     1      -0.218  -2.946  36.529  1.00  0.00     0.000 C 
ENDROOT
BRANCH   1   2
ATOM      2  C   UNL     1       0.833  -2.164  35.717  1.00  0.00     0.000 C 
BRANCH   2   3
ATOM      3  C   UNL     1       2.097  -2.965  35.348  1.00  0.00     0.000 C 
BRANCH   3   4
ATOM      4  C   UNL     1       2.738  -2.489  34.034  1.00  0.00     0.000 C 
BRANCH   4   5
ATOM      5  C   UNL     1       4.179  -1.980  34.219  1.00  0.00     0.000 C 
BRANCH   5   6
ATOM      6  C   UNL     1       4.640  -1.836  35.681  1.00  0.00     0.000 C 
BRANCH   6   7
ATOM      7  C   UNL     1       4.796  -0.372  36.123  1.00  0.00     0.000 C 
BRANCH   7   8
ATOM      8  C   UNL     1       3.785  -0.021  37.227  1.00  0.00     0.000 C 
BRANCH   8   9
ATOM      9  C   UNL     1       2.643   0.888  36.733  1.00  0.00     0.000 C 
BRANCH   9  10
ATOM     10  C   UNL     1       2.993   1.741  35.492  1.00  0.00     0.000 C 
BRANCH  10  11
ATOM     11  C   UNL     1       1.769   2.223  34.690  1.00  0.00     0.000 C 
BRANCH  11  12
ATOM     12  C   UNL     1       0.667   1.170  34.489  1.00  0.00     0.006 C 
BRANCH  12  13
ATOM     13  C   UNL     1       0.738   0.487  33.114  1.00  0.00     0.053 C 
BRANCH  13  14
ATOM     14  C   UNL     1      -0.485   0.769  32.295  1.00  0.00     0.041 C 
ATOM     15  O   UNL     1      -1.083   1.874  32.395  1.00  0.00    -0.550 OA
ATOM     16  O   UNL     1      -1.000  -0.217  31.462  1.00  0.00    -0.550 OA
ENDBRANCH  13  14
ENDBRANCH  12  13
ENDBRANCH  11  12
ENDBRANCH  10  11
ENDBRANCH   9  10
ENDBRANCH   8   9
ENDBRANCH   7   8
ENDBRANCH   6   7
ENDBRANCH   5   6
ENDBRANCH   4   5
ENDBRANCH   3   4
ENDBRANCH   2   3
ENDBRANCH   1   2
BRANCH   1  17
ATOM     17  C   UNL     1      -1.656  -2.670  36.066  1.00  0.00     0.000 C 
BRANCH  17  18
ATOM     18  C   UNL     1      -1.667  -1.848  34.769  1.00  0.00     0.000 C 
BRANCH  18  19
ATOM     19  C   UNL     1      -3.094  -1.595  34.246  1.00  0.00     0.000 C 
BRANCH  19  20
ATOM     20  C   UNL     1      -3.904  -2.886  34.004  1.00  0.00     0.000 C 
BRANCH  20  21
ATOM     21  C   UNL     1      -5.308  -2.871  34.636  1.00  0.00     0.000 C 
BRANCH  21  22
ATOM     22  C   UNL     1      -5.284  -3.196  36.140  1.00  0.00    -0.000 C 
BRANCH  22  23
ATOM     23  C   UNL     1      -5.736  -1.999  36.997  1.00  0.00    -0.000 C 
BRANCH  23  24
ATOM     24  C   UNL     1      -4.984  -1.893  38.343  1.00  0.00    -0.000 C 
BRANCH  24  25
ATOM     25  C   UNL     1      -3.852  -0.852  38.335  1.00  0.00    -0.000 C 
BRANCH  25  26
ATOM     26  C   UNL     1      -3.989   0.165  37.190  1.00  0.00    -0.000 C 
BRANCH  26  27
ATOM     27  C   UNL     1      -2.773   1.097  37.072  1.00  0.00    -0.000 C 
BRANCH  27  28
ATOM     28  C   UNL     1      -1.534   0.551  37.797  1.00  0.00    -0.000 C 
BRANCH  28  29
ATOM     29  C   UNL     1      -0.590   1.689  38.204  1.00  0.00    -0.003 C 
ATOM     30  C   UNL     1      -0.912   2.970  37.441  1.00  0.00     0.004 C 
ENDBRANCH  28  29
ENDBRANCH  27  28
ENDBRANCH  26  27
ENDBRANCH  25  26
ENDBRANCH  24  25
ENDBRANCH  23  24
ENDBRANCH  22  23
ENDBRANCH  21  22
ENDBRANCH  20  21
ENDBRANCH  19  20
ENDBRANCH  18  19
ENDBRANCH  17  18
ENDBRANCH   1  17
TORSDOF 26
ENDMDL
MODEL 3
REMARK VINA RESULT:    -3.244      1.541      2.470
REMARK INTER + INTRA:         -13.456
REMARK INTER:                  -8.519
REMARK INTRA:                  -4.937
REMARK UNBOUND:                -5.281
REMARK SMILES CCCCCCCCCCCCCCCCCCCCCCCCCCCC(=O)[O-]
REMARK SMILES IDX 15 1 16 2 17 3 18 4 19 5 20 6 21 7 22 8 23 9 24 10 25 11
REMARK SMILES IDX 26 12 27 13 28 14 29 15 30 16 14 17 13 18 12 19 11 20 10 21
REMARK SMILES IDX 9 22 8 23 7 24 6 25 5 26 4 27 3 28 2 29 1 30
REMARK H PARENT
REMARK Flexibility Score: inf
ROOT
ATOM      1  C   UNL     1      -4.717  -2.130  34.427  1.00  0.00     0.000 C 
ENDROOT
BRANCH   1   2
ATOM      2  C   UNL     1      -5.390  -3.196  35.312  1.00  0.00     0.000 C 
BRANCH   2   3
ATOM      3  C   UNL     1      -5.440  -2.856  36.814  1.00  0.00     0.000 C 
BRANCH   3   4
ATOM      4  C   UNL     1      -6.272  -1.597  37.110  1.00  0.00     0.000 C 
BRANCH   4   5
ATOM      5  C   UNL     1      -5.554  -0.610  38.047  1.00  0.00     0.000 C 
BRANCH   5   6
ATOM      6  C   UNL     1      -4.212  -1.106  38.618  1.00  0.00     0.000 C 
BRANCH   6   7
ATOM      7  C   UNL     1      -3.018  -0.234  38.195  1.00  0.00     0.000 C 
BRANCH   7   8
ATOM      8  C   UNL     1      -3.487   0.975  37.370  1.00  0.00     0.000 C 
BRANCH   8   9
ATOM      9  C   UNL     1      -2.815   1.059  35.986  1.00  0.00     0.000 C 
BRANCH   9  10
ATOM     10  C   UNL     1      -3.773   1.423  34.828  1.00  0.00     0.000 C 
BRANCH  10  11
ATOM     11  C   UNL     1      -5.231   1.663  35.265  1.00  0.00     0.000 C 
BRANCH  11  12
ATOM     12  C   UNL     1      -6.297   1.137  34.291  1.00  0.00     0.006 C 
BRANCH  12  13
ATOM     13  C   UNL     1      -6.242   1.827  32.918  1.00  0.00     0.053 C 
BRANCH  13  14
ATOM     14  C   UNL     1      -7.564   1.762  32.216  1.00  0.00     0.041 C 
ATOM     15  O   UNL     1      -8.622   1.531  32.860  1.00  0.00    -0.550 OA
ATOM     16  O   UNL     1      -7.618   1.899  30.833  1.00  0.00    -0.550 OA
ENDBRANCH  13  14
ENDBRANCH  12  13
ENDBRANCH  11  12
ENDBRANCH  10  11
ENDBRANCH   9  10
ENDBRANCH   8   9
ENDBRANCH   7   8
ENDBRANCH   6   7
ENDBRANCH   5   6
ENDBRANCH   4   5
ENDBRANCH   3   4
ENDBRANCH   2   3
ENDBRANCH   1   2
BRANCH   1  17
ATOM     17  C   UNL     1      -3.354  -2.581  33.879  1.00  0.00     0.000 C 
BRANCH  17  18
ATOM     18  C   UNL     1      -2.207  -2.011  34.726  1.00  0.00     0.000 C 
BRANCH  18  19
ATOM     19  C   UNL     1      -1.779  -2.969  35.854  1.00  0.00     0.000 C 
BRANCH  19  20
ATOM     20  C   UNL     1      -0.535  -2.493  36.634  1.00  0.00     0.000 C 
BRANCH  20  21
ATOM     21  C   UNL     1       0.717  -2.301  35.757  1.00  0.00     0.000 C 
BRANCH  21  22
ATOM     22  C   UNL     1       1.462  -0.990  36.069  1.00  0.00    -0.000 C 
BRANCH  22  23
ATOM     23  C   UNL     1       0.822   0.220  35.364  1.00  0.00    -0.000 C 
BRANCH  23  24
ATOM     24  C   UNL     1       0.739   0.058  33.829  1.00  0.00    -0.000 C 
BRANCH  24  25
ATOM     25  C   UNL     1      -0.479   0.758  33.203  1.00  0.00    -0.000 C 
BRANCH  25  26
ATOM     26  C   UNL     1      -0.937   0.096  31.894  1.00  0.00    -0.000 C 
BRANCH  26  27
ATOM     27  C   UNL     1      -0.677   0.973  30.659  1.00  0.00    -0.000 C 
BRANCH  27  28
ATOM     28  C   UNL     1       0.754   0.832  30.121  1.00  0.00    -0.000 C 
BRANCH  28  29
ATOM     29  C   UNL     1       1.240  -0.618  30.228  1.00  0.00    -0.003 C 
ATOM     30  C   UNL     1       2.698  -0.743  29.795  1.00  0.00     0.004 C 
ENDBRANCH  28  29
ENDBRANCH  27  28
ENDBRANCH  26  27
ENDBRANCH  25  26
ENDBRANCH  24  25
ENDBRANCH  23  24
ENDBRANCH  22  23
ENDBRANCH  21  22
ENDBRANCH  20  21
ENDBRANCH  19  20
ENDBRANCH  18  19
ENDBRANCH  17  18
ENDBRANCH   1  17
TORSDOF 26
ENDMDL
MODEL 4
REMARK VINA RESULT:    -3.243      3.891      6.960
REMARK INTER + INTRA:         -13.453
REMARK INTER:                  -7.410
REMARK INTRA:                  -6.043
REMARK UNBOUND:                -5.281
REMARK SMILES CCCCCCCCCCCCCCCCCCCCCCCCCCCC(=O)[O-]
REMARK SMILES IDX 15 1 16 2 17 3 18 4 19 5 20 6 21 7 22 8 23 9 24 10 25 11
REMARK SMILES IDX 26 12 27 13 28 14 29 15 30 16 14 17 13 18 12 19 11 20 10 21
REMARK SMILES IDX 9 22 8 23 7 24 6 25 5 26 4 27 3 28 2 29 1 30
REMARK H PARENT
REMARK Flexibility Score: inf
ROOT
ATOM      1  C   UNL     1      -3.482  -3.241  34.091  1.00  0.00     0.000 C 
ENDROOT
BRANCH   1   2
ATOM      2  C   UNL     1      -3.686  -1.722  33.929  1.00  0.00     0.000 C 
BRANCH   2   3
ATOM      3  C   UNL     1      -2.694  -0.845  34.716  1.00  0.00     0.000 C 
BRANCH   3   4
ATOM      4  C   UNL     1      -1.454  -1.624  35.185  1.00  0.00     0.000 C 
BRANCH   4   5
ATOM      5  C   UNL     1      -1.306  -1.651  36.717  1.00  0.00     0.000 C 
BRANCH   5   6
ATOM      6  C   UNL     1      -2.230  -0.686  37.482  1.00  0.00     0.000 C 
BRANCH   6   7
ATOM      7  C   UNL     1      -1.505   0.576  37.980  1.00  0.00     0.000 C 
BRANCH   7   8
ATOM      8  C   UNL     1      -2.086   1.838  37.324  1.00  0.00     0.000 C 
BRANCH   8   9
ATOM      9  C   UNL     1      -1.366   2.226  36.018  1.00  0.00     0.000 C 
BRANCH   9  10
ATOM     10  C   UNL     1       0.129   1.832  35.968  1.00  0.00     0.000 C 
BRANCH  10  11
ATOM     11  C   UNL     1       0.673   1.596  34.546  1.00  0.00     0.000 C 
BRANCH  11  12
ATOM     12  C   UNL     1       1.493   0.307  34.369  1.00  0.00     0.006 C 
BRANCH  12  13
ATOM     13  C   UNL     1       2.040  -0.238  35.697  1.00  0.00     0.053 C 
BRANCH  13  14
ATOM     14  C   UNL     1       2.715  -1.564  35.512  1.00  0.00     0.041 C 
ATOM     15  O   UNL     1       2.147  -2.488  34.872  1.00  0.00    -0.550 OA
ATOM     16  O   UNL     1       3.953  -1.796  36.100  1.00  0.00    -0.550 OA
ENDBRANCH  13  14
ENDBRANCH  12  13
ENDBRANCH  11  12
ENDBRANCH  10  11
ENDBRANCH   9  10
ENDBRANCH   8   9
ENDBRANCH   7   8
ENDBRANCH   6   7
ENDBRANCH   5   6
ENDBRANCH   4   5
ENDBRANCH   3   4
ENDBRANCH   2   3
ENDBRANCH   1   2
BRANCH   1  17
ATOM     17  C   UNL     1      -4.110  -3.793  35.380  1.00  0.00     0.000 C 
BRANCH  17  18
ATOM     18  C   UNL     1      -5.358  -2.987  35.771  1.00  0.00     0.000 C 
BRANCH  18  19
ATOM     19  C   UNL     1      -5.319  -2.523  37.239  1.00  0.00     0.000 C 
BRANCH  19  20
ATOM     20  C   UNL     1      -5.985  -1.150  37.473  1.00  0.00     0.000 C 
BRANCH  20  21
ATOM     21  C   UNL     1      -6.117  -0.294  36.199  1.00  0.00     0.000 C 
BRANCH  21  22
ATOM     22  C   UNL     1      -5.739   1.180  36.435  1.00  0.00    -0.000 C 
BRANCH  22  23
ATOM     23  C   UNL     1      -5.102   1.819  35.187  1.00  0.00    -0.000 C 
BRANCH  23  24
ATOM     24  C   UNL     1      -5.770   1.376  33.866  1.00  0.00    -0.000 C 
BRANCH  24  25
ATOM     25  C   UNL     1      -4.920   1.673  32.618  1.00  0.00    -0.000 C 
BRANCH  25  26
ATOM     26  C   UNL     1      -3.558   2.296  32.962  1.00  0.00    -0.000 C 
BRANCH  26  27
ATOM     27  C   UNL     1      -2.556   2.219  31.799  1.00  0.00    -0.000 C 
BRANCH  27  28
ATOM     28  C   UNL     1      -1.661   0.973  31.868  1.00  0.00    -0.000 C 
BRANCH  28  29
ATOM     29  C   UNL     1      -0.556   1.031  30.808  1.00  0.00    -0.003 C 
ATOM     30  C   UNL     1       0.291  -0.238  30.825  1.00  0.00     0.004 C 
ENDBRANCH  28  29
ENDBRANCH  27  28
ENDBRANCH  26  27
ENDBRANCH  25  26
ENDBRANCH  24  25
ENDBRANCH  23  24
ENDBRANCH  22  23
ENDBRANCH  21  22
ENDBRANCH  20  21
ENDBRANCH  19  20
ENDBRANCH  18  19
ENDBRANCH  17  18
ENDBRANCH   1  17
TORSDOF 26
ENDMDL
MODEL 5
REMARK VINA RESULT:    -3.243      3.967      7.517
REMARK INTER + INTRA:         -13.453
REMARK INTER:                  -8.199
REMARK INTRA:                  -5.254
REMARK UNBOUND:                -5.281
REMARK SMILES CCCCCCCCCCCCCCCCCCCCCCCCCCCC(=O)[O-]
REMARK SMILES IDX 15 1 16 2 17 3 18 4 19 5 20 6 21 7 22 8 23 9 24 10 25 11
REMARK SMILES IDX 26 12 27 13 28 14 29 15 30 16 14 17 13 18 12 19 11 20 10 21
REMARK SMILES IDX 9 22 8 23 7 24 6 25 5 26 4 27 3 28 2 29 1 30
REMARK H PARENT
REMARK Flexibility Score: inf
ROOT
ATOM      1  C   UNL     1      -1.651  -2.525  35.356  1.00  0.00     0.000 C 
ENDROOT
BRANCH   1   2
ATOM      2  C   UNL     1      -0.603  -2.351  36.472  1.00  0.00     0.000 C 
BRANCH   2   3
ATOM      3  C   UNL     1       0.822  -2.807  36.103  1.00  0.00     0.000 C 
BRANCH   3   4
ATOM      4  C   UNL     1       1.727  -1.639  35.676  1.00  0.00     0.000 C 
BRANCH   4   5
ATOM      5  C   UNL     1       1.192  -0.269  36.128  1.00  0.00     0.000 C 
BRANCH   5   6
ATOM      6  C   UNL     1       1.409   0.882  35.127  1.00  0.00     0.000 C 
BRANCH   6   7
ATOM      7  C   UNL     1       0.142   1.720  34.889  1.00  0.00     0.000 C 
BRANCH   7   8
ATOM      8  C   UNL     1      -0.326   1.605  33.429  1.00  0.00     0.000 C 
BRANCH   8   9
ATOM      9  C   UNL     1      -0.924   0.225  33.095  1.00  0.00     0.000 C 
BRANCH   9  10
ATOM     10  C   UNL     1      -0.863  -0.155  31.597  1.00  0.00     0.000 C 
BRANCH  10  11
ATOM     11  C   UNL     1       0.362   0.407  30.851  1.00  0.00     0.000 C 
BRANCH  11  12
ATOM     12  C   UNL     1       1.510  -0.593  30.639  1.00  0.00     0.006 C 
BRANCH  12  13
ATOM     13  C   UNL     1       2.391  -0.764  31.887  1.00  0.00     0.053 C 
BRANCH  13  14
ATOM     14  C   UNL     1       3.208  -2.018  31.816  1.00  0.00     0.041 C 
ATOM     15  O   UNL     1       3.151  -2.874  32.739  1.00  0.00    -0.550 OA
ATOM     16  O   UNL     1       4.081  -2.213  30.752  1.00  0.00    -0.550 OA
ENDBRANCH  13  14
ENDBRANCH  12  13
ENDBRANCH  11  12
ENDBRANCH  10  11
ENDBRANCH   9  10
ENDBRANCH   8   9
ENDBRANCH   7   8
ENDBRANCH   6   7
ENDBRANCH   5   6
ENDBRANCH   4   5
ENDBRANCH   3   4
ENDBRANCH   2   3
ENDBRANCH   1   2
BRANCH   1  17
ATOM     17  C   UNL     1      -2.926  -3.232  35.838  1.00  0.00     0.000 C 
BRANCH  17  18
ATOM     18  C   UNL     1      -3.983  -3.277  34.724  1.00  0.00     0.000 C 
BRANCH  18  19
ATOM     19  C   UNL     1      -5.384  -2.882  35.228  1.00  0.00     0.000 C 
BRANCH  19  20
ATOM     20  C   UNL     1      -5.476  -2.750  36.764  1.00  0.00     0.000 C 
BRANCH  20  21
ATOM     21  C   UNL     1      -6.415  -1.625  37.239  1.00  0.00     0.000 C 
BRANCH  21  22
ATOM     22  C   UNL     1      -5.768  -0.729  38.312  1.00  0.00    -0.000 C 
BRANCH  22  23
ATOM     23  C   UNL     1      -4.364  -1.222  38.706  1.00  0.00    -0.000 C 
BRANCH  23  24
ATOM     24  C   UNL     1      -3.236  -0.253  38.285  1.00  0.00    -0.000 C 
BRANCH  24  25
ATOM     25  C   UNL     1      -3.691   0.818  37.279  1.00  0.00    -0.000 C 
BRANCH  25  26
ATOM     26  C   UNL     1      -3.248   0.508  35.840  1.00  0.00    -0.000 C 
BRANCH  26  27
ATOM     27  C   UNL     1      -4.344   0.798  34.803  1.00  0.00    -0.000 C 
BRANCH  27  28
ATOM     28  C   UNL     1      -5.592   1.443  35.423  1.00  0.00    -0.000 C 
BRANCH  28  29
ATOM     29  C   UNL     1      -6.826   1.209  34.544  1.00  0.00    -0.003 C 
ATOM     30  C   UNL     1      -6.586   0.078  33.548  1.00  0.00     0.004 C 
ENDBRANCH  28  29
ENDBRANCH  27  28
ENDBRANCH  26  27
ENDBRANCH  25  26
ENDBRANCH  24  25
ENDBRANCH  23  24
ENDBRANCH  22  23
ENDBRANCH  21  22
ENDBRANCH  20  21
ENDBRANCH  19  20
ENDBRANCH  18  19
ENDBRANCH  17  18
ENDBRANCH   1  17
TORSDOF 26
ENDMDL
MODEL 6
REMARK VINA RESULT:    -3.182      1.504      2.805
REMARK INTER + INTRA:         -13.301
REMARK INTER:                  -7.836
REMARK INTRA:                  -5.465
REMARK UNBOUND:                -5.281
REMARK SMILES CCCCCCCCCCCCCCCCCCCCCCCCCCCC(=O)[O-]
REMARK SMILES IDX 15 1 16 2 17 3 18 4 19 5 20 6 21 7 22 8 23 9 24 10 25 11
REMARK SMILES IDX 26 12 27 13 28 14 29 15 30 16 14 17 13 18 12 19 11 20 10 21
REMARK SMILES IDX 9 22 8 23 7 24 6 25 5 26 4 27 3 28 2 29 1 30
REMARK H PARENT
REMARK Flexibility Score: inf
ROOT
ATOM      1  C   UNL     1      -2.630  -1.858  34.512  1.00  0.00     0.000 C 
ENDROOT
BRANCH   1   2
ATOM      2  C   UNL     1      -3.683  -2.858  33.997  1.00  0.00     0.000 C 
BRANCH   2   3
ATOM      3  C   UNL     1      -5.070  -2.739  34.655  1.00  0.00     0.000 C 
BRANCH   3   4
ATOM      4  C   UNL     1      -5.120  -3.372  36.055  1.00  0.00     0.000 C 
BRANCH   4   5
ATOM      5  C   UNL     1      -5.377  -2.343  37.171  1.00  0.00     0.000 C 
BRANCH   5   6
ATOM      6  C   UNL     1      -6.451  -1.287  36.854  1.00  0.00     0.000 C 
BRANCH   6   7
ATOM      7  C   UNL     1      -5.956   0.155  37.054  1.00  0.00     0.000 C 
BRANCH   7   8
ATOM      8  C   UNL     1      -6.182   0.994  35.787  1.00  0.00     0.000 C 
BRANCH   8   9
ATOM      9  C   UNL     1      -4.943   1.056  34.874  1.00  0.00     0.000 C 
BRANCH   9  10
ATOM     10  C   UNL     1      -5.202   0.634  33.409  1.00  0.00     0.000 C 
BRANCH  10  11
ATOM     11  C   UNL     1      -4.810   1.698  32.366  1.00  0.00     0.000 C 
BRANCH  11  12
ATOM     12  C   UNL     1      -5.924   2.691  31.998  1.00  0.00     0.006 C 
BRANCH  12  13
ATOM     13  C   UNL     1      -7.193   1.997  31.478  1.00  0.00     0.053 C 
BRANCH  13  14
ATOM     14  C   UNL     1      -8.343   2.173  32.423  1.00  0.00     0.041 C 
ATOM     15  O   UNL     1      -8.192   2.797  33.507  1.00  0.00    -0.550 OA
ATOM     16  O   UNL     1      -9.572   1.593  32.129  1.00  0.00    -0.550 OA
ENDBRANCH  13  14
ENDBRANCH  12  13
ENDBRANCH  11  12
ENDBRANCH  10  11
ENDBRANCH   9  10
ENDBRANCH   8   9
ENDBRANCH   7   8
ENDBRANCH   6   7
ENDBRANCH   5   6
ENDBRANCH   4   5
ENDBRANCH   3   4
ENDBRANCH   2   3
ENDBRANCH   1   2
BRANCH   1  17
ATOM     17  C   UNL     1      -1.550  -2.521  35.380  1.00  0.00     0.000 C 
BRANCH  17  18
ATOM     18  C   UNL     1      -1.387  -1.779  36.715  1.00  0.00     0.000 C 
BRANCH  18  19
ATOM     19  C   UNL     1      -2.284  -0.529  36.805  1.00  0.00     0.000 C 
BRANCH  19  20
ATOM     20  C   UNL     1      -2.541  -0.053  38.251  1.00  0.00     0.000 C 
BRANCH  20  21
ATOM     21  C   UNL     1      -1.626   1.102  38.700  1.00  0.00     0.000 C 
BRANCH  21  22
ATOM     22  C   UNL     1      -1.201   2.009  37.530  1.00  0.00    -0.000 C 
BRANCH  22  23
ATOM     23  C   UNL     1       0.318   2.255  37.513  1.00  0.00    -0.000 C 
BRANCH  23  24
ATOM     24  C   UNL     1       0.942   2.125  36.105  1.00  0.00    -0.000 C 
BRANCH  24  25
ATOM     25  C   UNL     1       1.131   0.668  35.650  1.00  0.00    -0.000 C 
BRANCH  25  26
ATOM     26  C   UNL     1       0.542   0.400  34.256  1.00  0.00    -0.000 C 
BRANCH  26  27
ATOM     27  C   UNL     1      -0.736   1.209  33.983  1.00  0.00    -0.000 C 
BRANCH  27  28
ATOM     28  C   UNL     1      -1.029   1.370  32.484  1.00  0.00    -0.000 C 
BRANCH  28  29
ATOM     29  C   UNL     1      -0.999   0.013  31.771  1.00  0.00    -0.003 C 
ATOM     30  C   UNL     1       0.120  -0.039  30.735  1.00  0.00     0.004 C 
ENDBRANCH  28  29
ENDBRANCH  27  28
ENDBRANCH  26  27
ENDBRANCH  25  26
ENDBRANCH  24  25
ENDBRANCH  23  24
ENDBRANCH  22  23
ENDBRANCH  21  22
ENDBRANCH  20  21
ENDBRANCH  19  20
ENDBRANCH  18  19
ENDBRANCH  17  18
ENDBRANCH   1  17
TORSDOF 26
ENDMDL
MODEL 7
REMARK VINA RESULT:    -3.171      2.713      6.690
REMARK INTER + INTRA:         -13.272
REMARK INTER:                  -7.681
REMARK INTRA:                  -5.591
REMARK UNBOUND:                -5.281
REMARK SMILES CCCCCCCCCCCCCCCCCCCCCCCCCCCC(=O)[O-]
REMARK SMILES IDX 15 1 16 2 17 3 18 4 19 5 20 6 21 7 22 8 23 9 24 10 25 11
REMARK SMILES IDX 26 12 27 13 28 14 29 15 30 16 14 17 13 18 12 19 11 20 10 21
REMARK SMILES IDX 9 22 8 23 7 24 6 25 5 26 4 27 3 28 2 29 1 30
REMARK H PARENT
REMARK Flexibility Score: inf
ROOT
ATOM      1  C   UNL     1      -4.228  -3.105  34.794  1.00  0.00     0.000 C 
ENDROOT
BRANCH   1   2
ATOM      2  C   UNL     1      -3.115  -2.517  33.905  1.00  0.00     0.000 C 
BRANCH   2   3
ATOM      3  C   UNL     1      -1.886  -1.986  34.667  1.00  0.00     0.000 C 
BRANCH   3   4
ATOM      4  C   UNL     1      -1.493  -2.878  35.856  1.00  0.00     0.000 C 
BRANCH   4   5
ATOM      5  C   UNL     1      -0.228  -2.387  36.583  1.00  0.00     0.000 C 
BRANCH   5   6
ATOM      6  C   UNL     1       0.136  -0.910  36.340  1.00  0.00     0.000 C 
BRANCH   6   7
ATOM      7  C   UNL     1       1.633  -0.695  36.068  1.00  0.00     0.000 C 
BRANCH   7   8
ATOM      8  C   UNL     1       2.286  -1.983  35.542  1.00  0.00     0.000 C 
BRANCH   8   9
ATOM      9  C   UNL     1       2.759  -1.868  34.080  1.00  0.00     0.000 C 
BRANCH   9  10
ATOM     10  C   UNL     1       2.564  -0.469  33.451  1.00  0.00     0.000 C 
BRANCH  10  11
ATOM     11  C   UNL     1       1.514  -0.423  32.325  1.00  0.00     0.000 C 
BRANCH  11  12
ATOM     12  C   UNL     1       0.157   0.179  32.725  1.00  0.00     0.006 C 
BRANCH  12  13
ATOM     13  C   UNL     1      -0.908   0.031  31.626  1.00  0.00     0.053 C 
BRANCH  13  14
ATOM     14  C   UNL     1      -0.886   1.193  30.679  1.00  0.00     0.041 C 
ATOM     15  O   UNL     1      -0.212   1.141  29.616  1.00  0.00    -0.550 OA
ATOM     16  O   UNL     1      -1.567   2.361  31.004  1.00  0.00    -0.550 OA
ENDBRANCH  13  14
ENDBRANCH  12  13
ENDBRANCH  11  12
ENDBRANCH  10  11
ENDBRANCH   9  10
ENDBRANCH   8   9
ENDBRANCH   7   8
ENDBRANCH   6   7
ENDBRANCH   5   6
ENDBRANCH   4   5
ENDBRANCH   3   4
ENDBRANCH   2   3
ENDBRANCH   1   2
BRANCH   1  17
ATOM     17  C   UNL     1      -5.418  -2.151  34.969  1.00  0.00     0.000 C 
BRANCH  17  18
ATOM     18  C   UNL     1      -5.847  -2.073  36.442  1.00  0.00     0.000 C 
BRANCH  18  19
ATOM     19  C   UNL     1      -4.701  -2.436  37.406  1.00  0.00     0.000 C 
BRANCH  19  20
ATOM     20  C   UNL     1      -4.227  -1.255  38.279  1.00  0.00     0.000 C 
BRANCH  20  21
ATOM     21  C   UNL     1      -3.532  -0.131  37.487  1.00  0.00     0.000 C 
BRANCH  21  22
ATOM     22  C   UNL     1      -4.377   1.155  37.421  1.00  0.00    -0.000 C 
BRANCH  22  23
ATOM     23  C   UNL     1      -4.410   1.751  36.002  1.00  0.00    -0.000 C 
BRANCH  23  24
ATOM     24  C   UNL     1      -3.392   1.096  35.040  1.00  0.00    -0.000 C 
BRANCH  24  25
ATOM     25  C   UNL     1      -3.867   1.056  33.578  1.00  0.00    -0.000 C 
BRANCH  25  26
ATOM     26  C   UNL     1      -5.165   1.848  33.352  1.00  0.00    -0.000 C 
BRANCH  26  27
ATOM     27  C   UNL     1      -6.216   1.056  32.559  1.00  0.00    -0.000 C 
BRANCH  27  28
ATOM     28  C   UNL     1      -7.289   0.425  33.459  1.00  0.00    -0.000 C 
BRANCH  28  29
ATOM     29  C   UNL     1      -7.856   1.456  34.442  1.00  0.00    -0.003 C 
ATOM     30  C   UNL     1      -8.005   0.862  35.839  1.00  0.00     0.004 C 
ENDBRANCH  28  29
ENDBRANCH  27  28
ENDBRANCH  26  27
ENDBRANCH  25  26
ENDBRANCH  24  25
ENDBRANCH  23  24
ENDBRANCH  22  23
ENDBRANCH  21  22
ENDBRANCH  20  21
ENDBRANCH  19  20
ENDBRANCH  18  19
ENDBRANCH  17  18
ENDBRANCH   1  17
TORSDOF 26
ENDMDL
MODEL 8
REMARK VINA RESULT:    -3.164      4.011      7.573
REMARK INTER + INTRA:         -13.254
REMARK INTER:                  -7.909
REMARK INTRA:                  -5.345
REMARK UNBOUND:                -5.281
REMARK SMILES CCCCCCCCCCCCCCCCCCCCCCCCCCCC(=O)[O-]
REMARK SMILES IDX 15 1 16 2 17 3 18 4 19 5 20 6 21 7 22 8 23 9 24 10 25 11
REMARK SMILES IDX 26 12 27 13 28 14 29 15 30 16 14 17 13 18 12 19 11 20 10 21
REMARK SMILES IDX 9 22 8 23 7 24 6 25 5 26 4 27 3 28 2 29 1 30
REMARK H PARENT
REMARK Flexibility Score: inf
ROOT
ATOM      1  C   UNL     1      -2.368  -3.128  35.582  1.00  0.00     0.000 C 
ENDROOT
BRANCH   1   2
ATOM      2  C   UNL     1      -1.218  -2.261  36.129  1.00  0.00     0.000 C 
BRANCH   2   3
ATOM      3  C   UNL     1      -1.651  -1.134  37.085  1.00  0.00     0.000 C 
BRANCH   3   4
ATOM      4  C   UNL     1      -0.843   0.159  36.884  1.00  0.00     0.000 C 
BRANCH   4   5
ATOM      5  C   UNL     1      -1.715   1.351  36.452  1.00  0.00     0.000 C 
BRANCH   5   6
ATOM      6  C   UNL     1      -3.125   0.985  35.954  1.00  0.00     0.000 C 
BRANCH   6   7
ATOM      7  C   UNL     1      -3.233   0.952  34.421  1.00  0.00     0.000 C 
BRANCH   7   8
ATOM      8  C   UNL     1      -2.165   1.849  33.776  1.00  0.00     0.000 C 
BRANCH   8   9
ATOM      9  C   UNL     1      -1.378   1.142  32.656  1.00  0.00     0.000 C 
BRANCH   9  10
ATOM     10  C   UNL     1      -0.580  -0.100  33.117  1.00  0.00     0.000 C 
BRANCH  10  11
ATOM     11  C   UNL     1       0.867   0.204  33.550  1.00  0.00     0.000 C 
BRANCH  11  12
ATOM     12  C   UNL     1       1.606  -0.967  34.217  1.00  0.00     0.006 C 
BRANCH  12  13
ATOM     13  C   UNL     1       3.102  -0.684  34.431  1.00  0.00     0.053 C 
BRANCH  13  14
ATOM     14  C   UNL     1       3.506  -0.910  35.857  1.00  0.00     0.041 C 
ATOM     15  O   UNL     1       4.349  -1.799  36.150  1.00  0.00    -0.550 OA
ATOM     16  O   UNL     1       2.904  -0.173  36.869  1.00  0.00    -0.550 OA
ENDBRANCH  13  14
ENDBRANCH  12  13
ENDBRANCH  11  12
ENDBRANCH  10  11
ENDBRANCH   9  10
ENDBRANCH   8   9
ENDBRANCH   7   8
ENDBRANCH   6   7
ENDBRANCH   5   6
ENDBRANCH   4   5
ENDBRANCH   3   4
ENDBRANCH   2   3
ENDBRANCH   1   2
BRANCH   1  17
ATOM     17  C   UNL     1      -3.026  -2.528  34.331  1.00  0.00     0.000 C 
BRANCH  17  18
ATOM     18  C   UNL     1      -4.558  -2.553  34.450  1.00  0.00     0.000 C 
BRANCH  18  19
ATOM     19  C   UNL     1      -5.033  -3.254  35.737  1.00  0.00     0.000 C 
BRANCH  19  20
ATOM     20  C   UNL     1      -5.742  -2.310  36.732  1.00  0.00     0.000 C 
BRANCH  20  21
ATOM     21  C   UNL     1      -4.997  -2.138  38.069  1.00  0.00     0.000 C 
BRANCH  21  22
ATOM     22  C   UNL     1      -5.082  -0.700  38.613  1.00  0.00    -0.000 C 
BRANCH  22  23
ATOM     23  C   UNL     1      -6.513  -0.138  38.536  1.00  0.00    -0.000 C 
BRANCH  23  24
ATOM     24  C   UNL     1      -6.638   1.091  37.606  1.00  0.00    -0.000 C 
BRANCH  24  25
ATOM     25  C   UNL     1      -8.052   1.284  37.031  1.00  0.00    -0.000 C 
BRANCH  25  26
ATOM     26  C   UNL     1      -8.106   1.081  35.508  1.00  0.00    -0.000 C 
BRANCH  26  27
ATOM     27  C   UNL     1      -6.742   0.709  34.907  1.00  0.00    -0.000 C 
BRANCH  27  28
ATOM     28  C   UNL     1      -6.847   0.211  33.458  1.00  0.00    -0.000 C 
BRANCH  28  29
ATOM     29  C   UNL     1      -7.061   1.380  32.490  1.00  0.00    -0.003 C 
ATOM     30  C   UNL     1      -5.733   1.879  31.927  1.00  0.00     0.004 C 
ENDBRANCH  28  29
ENDBRANCH  27  28
ENDBRANCH  26  27
ENDBRANCH  25  26
ENDBRANCH  24  25
ENDBRANCH  23  24
ENDBRANCH  22  23
ENDBRANCH  21  22
ENDBRANCH  20  21
ENDBRANCH  19  20
ENDBRANCH  18  19
ENDBRANCH  17  18
ENDBRANCH   1  17
TORSDOF 26
ENDMDL
MODEL 9
REMARK VINA RESULT:    -3.146      4.025      7.433
REMARK INTER + INTRA:         -13.210
REMARK INTER:                  -7.869
REMARK INTRA:                  -5.342
REMARK UNBOUND:                -5.281
REMARK SMILES CCCCCCCCCCCCCCCCCCCCCCCCCCCC(=O)[O-]
REMARK SMILES IDX 15 1 16 2 17 3 18 4 19 5 20 6 21 7 22 8 23 9 24 10 25 11
REMARK SMILES IDX 26 12 27 13 28 14 29 15 30 16 14 17 13 18 12 19 11 20 10 21
REMARK SMILES IDX 9 22 8 23 7 24 6 25 5 26 4 27 3 28 2 29 1 30
REMARK H PARENT
REMARK Flexibility Score: inf
ROOT
ATOM      1  C   UNL     1      -4.626  -2.741  34.187  1.00  0.00     0.000 C 
ENDROOT
BRANCH   1   2
ATOM      2  C   UNL     1      -3.148  -2.411  33.905  1.00  0.00     0.000 C 
BRANCH   2   3
ATOM      3  C   UNL     1      -2.252  -2.324  35.156  1.00  0.00     0.000 C 
BRANCH   3   4
ATOM      4  C   UNL     1      -2.223  -0.915  35.770  1.00  0.00     0.000 C 
BRANCH   4   5
ATOM      5  C   UNL     1      -1.766  -0.910  37.239  1.00  0.00     0.000 C 
BRANCH   5   6
ATOM      6  C   UNL     1      -1.670   0.482  37.891  1.00  0.00     0.000 C 
BRANCH   6   7
ATOM      7  C   UNL     1      -2.496   1.550  37.156  1.00  0.00     0.000 C 
BRANCH   7   8
ATOM      8  C   UNL     1      -1.603   2.711  36.689  1.00  0.00     0.000 C 
BRANCH   8   9
ATOM      9  C   UNL     1      -0.721   2.346  35.480  1.00  0.00     0.000 C 
BRANCH   9  10
ATOM     10  C   UNL     1       0.798   2.494  35.725  1.00  0.00     0.000 C 
BRANCH  10  11
ATOM     11  C   UNL     1       1.497   1.195  36.168  1.00  0.00     0.000 C 
BRANCH  11  12
ATOM     12  C   UNL     1       1.324   0.004  35.213  1.00  0.00     0.006 C 
BRANCH  12  13
ATOM     13  C   UNL     1       1.586  -1.349  35.893  1.00  0.00     0.053 C 
BRANCH  13  14
ATOM     14  C   UNL     1       2.870  -1.963  35.423  1.00  0.00     0.041 C 
ATOM     15  O   UNL     1       3.947  -1.745  36.039  1.00  0.00    -0.550 OA
ATOM     16  O   UNL     1       2.884  -2.731  34.265  1.00  0.00    -0.550 OA
ENDBRANCH  13  14
ENDBRANCH  12  13
ENDBRANCH  11  12
ENDBRANCH  10  11
ENDBRANCH   9  10
ENDBRANCH   8   9
ENDBRANCH   7   8
ENDBRANCH   6   7
ENDBRANCH   5   6
ENDBRANCH   4   5
ENDBRANCH   3   4
ENDBRANCH   2   3
ENDBRANCH   1   2
BRANCH   1  17
ATOM     17  C   UNL     1      -4.820  -3.571  35.465  1.00  0.00     0.000 C 
BRANCH  17  18
ATOM     18  C   UNL     1      -5.723  -2.834  36.466  1.00  0.00     0.000 C 
BRANCH  18  19
ATOM     19  C   UNL     1      -4.966  -2.416  37.741  1.00  0.00     0.000 C 
BRANCH  19  20
ATOM     20  C   UNL     1      -5.354  -1.016  38.262  1.00  0.00     0.000 C 
BRANCH  20  21
ATOM     21  C   UNL     1      -6.653  -0.459  37.650  1.00  0.00     0.000 C 
BRANCH  21  22
ATOM     22  C   UNL     1      -6.434   0.870  36.904  1.00  0.00    -0.000 C 
BRANCH  22  23
ATOM     23  C   UNL     1      -5.668   0.672  35.583  1.00  0.00    -0.000 C 
BRANCH  23  24
ATOM     24  C   UNL     1      -6.574   0.220  34.415  1.00  0.00    -0.000 C 
BRANCH  24  25
ATOM     25  C   UNL     1      -7.453   1.347  33.848  1.00  0.00    -0.000 C 
BRANCH  25  26
ATOM     26  C   UNL     1      -7.229   1.576  32.344  1.00  0.00    -0.000 C 
BRANCH  26  27
ATOM     27  C   UNL     1      -5.747   1.504  31.944  1.00  0.00    -0.000 C 
BRANCH  27  28
ATOM     28  C   UNL     1      -5.049   2.870  32.007  1.00  0.00    -0.000 C 
BRANCH  28  29
ATOM     29  C   UNL     1      -3.566   2.712  32.364  1.00  0.00    -0.003 C 
ATOM     30  C   UNL     1      -3.286   1.333  32.953  1.00  0.00     0.004 C 
ENDBRANCH  28  29
ENDBRANCH  27  28
ENDBRANCH  26  27
ENDBRANCH  25  26
ENDBRANCH  24  25
ENDBRANCH  23  24
ENDBRANCH  22  23
ENDBRANCH  21  22
ENDBRANCH  20  21
ENDBRANCH  19  20
ENDBRANCH  18  19
ENDBRANCH  17  18
ENDBRANCH   1  17
TORSDOF 26
ENDMDL
