MODEL 1
REMARK VINA RESULT:    -3.311      0.000      0.000
REMARK INTER + INTRA:          -7.315
REMARK INTER:                  -5.634
REMARK INTRA:                  -1.680
REMARK UNBOUND:                -1.680
REMARK SMILES CCCCCCCCCCCCCC(=O)[O-]
REMARK SMILES IDX 8 1 9 2 10 3 11 4 12 5 13 6 14 7 15 8 16 9 7 10 6 11 5 12
REMARK SMILES IDX 4 13 3 14 2 15 1 16
REMARK H PARENT
REMARK Flexibility Score: inf
ROOT
ATOM      1  C   UNL     1      63.268  32.652  59.438  1.00  0.00     0.000 C 
ENDROOT
BRANCH   1   2
ATOM      2  C   UNL     1      63.922  32.856  60.813  1.00  0.00     0.000 C 
BRANCH   2   3
ATOM      3  C   UNL     1      64.090  34.350  61.124  1.00  0.00     0.000 C 
BRANCH   3   4
ATOM      4  C   UNL     1      63.220  35.251  60.229  1.00  0.00     0.000 C 
BRANCH   4   5
ATOM      5  C   UNL     1      62.029  35.926  60.940  1.00  0.00     0.006 C 
BRANCH   5   6
ATOM      6  C   UNL     1      60.653  35.563  60.361  1.00  0.00     0.053 C 
BRANCH   6   7
ATOM      7  C   UNL     1      60.637  35.629  58.865  1.00  0.00     0.041 C 
ATOM      8  O   UNL     1      60.432  34.589  58.186  1.00  0.00    -0.550 OA
ATOM      9  O   UNL     1      60.815  36.847  58.220  1.00  0.00    -0.550 OA
ENDBRANCH   6   7
ENDBRANCH   5   6
ENDBRANCH   4   5
ENDBRANCH   3   4
ENDBRANCH   2   3
ENDBRANCH   1   2
BRANCH   1  10
ATOM     10  C   UNL     1      62.099  31.656  59.487  1.00  0.00     0.000 C 
BRANCH  10  11
ATOM     11  C   UNL     1      61.085  31.986  60.597  1.00  0.00    -0.000 C 
BRANCH  11  12
ATOM     12  C   UNL     1      60.789  30.767  61.497  1.00  0.00    -0.000 C 
BRANCH  12  13
ATOM     13  C   UNL     1      62.001  29.836  61.694  1.00  0.00    -0.000 C 
BRANCH  13  14
ATOM     14  C   UNL     1      61.864  28.450  61.041  1.00  0.00    -0.000 C 
BRANCH  14  15
ATOM     15  C   UNL     1      63.221  27.828  60.680  1.00  0.00    -0.003 C 
ATOM     16  C   UNL     1      64.319  28.888  60.650  1.00  0.00     0.004 C 
ENDBRANCH  14  15
ENDBRANCH  13  14
ENDBRANCH  12  13
ENDBRANCH  11  12
ENDBRANCH  10  11
ENDBRANCH   1  10
TORSDOF 12
ENDMDL
MODEL 2
REMARK VINA RESULT:    -3.294      2.920      5.657
REMARK INTER + INTRA:          -7.285
REMARK INTER:                  -5.468
REMARK INTRA:                  -1.817
REMARK UNBOUND:                -1.680
REMARK SMILES CCCCCCCCCCCCCC(=O)[O-]
REMARK SMILES IDX 8 1 9 2 10 3 11 4 12 5 13 6 14 7 15 8 16 9 7 10 6 11 5 12
REMARK SMILES IDX 4 13 3 14 2 15 1 16
REMARK H PARENT
REMARK Flexibility Score: inf
ROOT
ATOM      1  C   UNL     1      62.631  35.587  61.009  1.00  0.00     0.000 C 
ENDROOT
BRANCH   1   2
ATOM      2  C   UNL     1      61.511  34.732  60.398  1.00  0.00     0.000 C 
BRANCH   2   3
ATOM      3  C   UNL     1      61.859  33.238  60.475  1.00  0.00     0.000 C 
BRANCH   3   4
ATOM      4  C   UNL     1      61.011  32.375  59.523  1.00  0.00     0.000 C 
BRANCH   4   5
ATOM      5  C   UNL     1      60.615  30.989  60.073  1.00  0.00     0.006 C 
BRANCH   5   6
ATOM      6  C   UNL     1      61.150  30.687  61.482  1.00  0.00     0.053 C 
BRANCH   6   7
ATOM      7  C   UNL     1      62.230  29.651  61.462  1.00  0.00     0.041 C 
ATOM      8  O   UNL     1      63.439  29.993  61.551  1.00  0.00    -0.550 OA
ATOM      9  O   UNL     1      61.901  28.303  61.382  1.00  0.00    -0.550 OA
ENDBRANCH   6   7
ENDBRANCH   5   6
ENDBRANCH   4   5
ENDBRANCH   3   4
ENDBRANCH   2   3
ENDBRANCH   1   2
BRANCH   1  10
ATOM     10  C   UNL     1      63.891  34.765  61.325  1.00  0.00     0.000 C 
BRANCH  10  11
ATOM     11  C   UNL     1      65.187  35.486  60.916  1.00  0.00    -0.000 C 
BRANCH  11  12
ATOM     12  C   UNL     1      65.122  36.028  59.472  1.00  0.00    -0.000 C 
BRANCH  12  13
ATOM     13  C   UNL     1      65.411  34.962  58.398  1.00  0.00    -0.000 C 
BRANCH  13  14
ATOM     14  C   UNL     1      64.163  34.384  57.709  1.00  0.00    -0.000 C 
BRANCH  14  15
ATOM     15  C   UNL     1      64.239  32.862  57.524  1.00  0.00    -0.003 C 
ATOM     16  C   UNL     1      64.908  32.197  58.723  1.00  0.00     0.004 C 
ENDBRANCH  14  15
ENDBRANCH  13  14
ENDBRANCH  12  13
ENDBRANCH  11  12
ENDBRANCH  10  11
ENDBRANCH   1  10
TORSDOF 12
ENDMDL
MODEL 3
REMARK VINA RESULT:    -3.258     12.379     14.616
REMARK INTER + INTRA:          -7.224
REMARK INTER:                  -6.623
REMARK INTRA:                  -0.601
REMARK UNBOUND:                -1.680
REMARK SMILES CCCCCCCCCCCCCC(=O)[O-]
REMARK SMILES IDX 8 1 9 2 10 3 11 4 12 5 13 6 14 7 15 8 16 9 7 10 6 11 5 12
REMARK SMILES IDX 4 13 3 14 2 15 1 16
REMARK H PARENT
REMARK Flexibility Score: inf
ROOT
ATOM      1  C   UNL     1      61.165  26.616  50.275  1.00  0.00     0.000 C 
ENDROOT
BRANCH   1   2
ATOM      2  C   UNL     1      61.198  25.600  51.427  1.00  0.00     0.000 C 
BRANCH   2   3
ATOM      3  C   UNL     1      61.804  24.267  50.964  1.00  0.00     0.000 C 
BRANCH   3   4
ATOM      4  C   UNL     1      60.753  23.295  50.397  1.00  0.00     0.000 C 
BRANCH   4   5
ATOM      5  C   UNL     1      61.323  21.994  49.794  1.00  0.00     0.006 C 
BRANCH   5   6
ATOM      6  C   UNL     1      60.341  20.813  49.786  1.00  0.00     0.053 C 
BRANCH   6   7
ATOM      7  C   UNL     1      60.945  19.577  50.378  1.00  0.00     0.041 C 
ATOM      8  O   UNL     1      60.357  18.469  50.268  1.00  0.00    -0.550 OA
ATOM      9  O   UNL     1      62.174  19.642  51.023  1.00  0.00    -0.550 OA
ENDBRANCH   6   7
ENDBRANCH   5   6
ENDBRANCH   4   5
ENDBRANCH   3   4
ENDBRANCH   2   3
ENDBRANCH   1   2
BRANCH   1  10
ATOM     10  C   UNL     1      59.735  27.049  49.915  1.00  0.00     0.000 C 
BRANCH  10  11
ATOM     11  C   UNL     1      59.634  28.551  49.596  1.00  0.00    -0.000 C 
BRANCH  11  12
ATOM     12  C   UNL     1      58.387  29.200  50.235  1.00  0.00    -0.000 C 
BRANCH  12  13
ATOM     13  C   UNL     1      57.334  28.180  50.710  1.00  0.00    -0.000 C 
BRANCH  13  14
ATOM     14  C   UNL     1      55.925  28.758  50.926  1.00  0.00    -0.000 C 
BRANCH  14  15
ATOM     15  C   UNL     1      54.814  27.760  50.572  1.00  0.00    -0.003 C 
ATOM     16  C   UNL     1      55.396  26.396  50.215  1.00  0.00     0.004 C 
ENDBRANCH  14  15
ENDBRANCH  13  14
ENDBRANCH  12  13
ENDBRANCH  11  12
ENDBRANCH  10  11
ENDBRANCH   1  10
TORSDOF 12
ENDMDL
MODEL 4
REMARK VINA RESULT:    -3.235      2.825      5.880
REMARK INTER + INTRA:          -7.184
REMARK INTER:                  -5.907
REMARK INTRA:                  -1.277
REMARK UNBOUND:                -1.680
REMARK SMILES CCCCCCCCCCCCCC(=O)[O-]
REMARK SMILES IDX 8 1 9 2 10 3 11 4 12 5 13 6 14 7 15 8 16 9 7 10 6 11 5 12
REMARK SMILES IDX 4 13 3 14 2 15 1 16
REMARK H PARENT
REMARK Flexibility Score: inf
ROOT
ATOM      1  C   UNL     1      60.904  34.152  57.600  1.00  0.00     0.000 C 
ENDROOT
BRANCH   1   2
ATOM      2  C   UNL     1      60.307  32.790  57.213  1.00  0.00     0.000 C 
BRANCH   2   3
ATOM      3  C   UNL     1      60.065  31.924  58.458  1.00  0.00     0.000 C 
BRANCH   3   4
ATOM      4  C   UNL     1      61.346  31.679  59.276  1.00  0.00     0.000 C 
BRANCH   4   5
ATOM      5  C   UNL     1      61.172  31.772  60.806  1.00  0.00     0.006 C 
BRANCH   5   6
ATOM      6  C   UNL     1      60.911  30.427  61.501  1.00  0.00     0.053 C 
BRANCH   6   7
ATOM      7  C   UNL     1      62.127  29.553  61.507  1.00  0.00     0.041 C 
ATOM      8  O   UNL     1      63.273  30.062  61.616  1.00  0.00    -0.550 OA
ATOM      9  O   UNL     1      61.993  28.172  61.427  1.00  0.00    -0.550 OA
ENDBRANCH   6   7
ENDBRANCH   5   6
ENDBRANCH   4   5
ENDBRANCH   3   4
ENDBRANCH   2   3
ENDBRANCH   1   2
BRANCH   1  10
ATOM     10  C   UNL     1      59.831  35.158  58.043  1.00  0.00     0.000 C 
BRANCH  10  11
ATOM     11  C   UNL     1      60.318  36.087  59.169  1.00  0.00    -0.000 C 
BRANCH  11  12
ATOM     12  C   UNL     1      60.787  35.299  60.411  1.00  0.00    -0.000 C 
BRANCH  12  13
ATOM     13  C   UNL     1      62.176  35.725  60.925  1.00  0.00    -0.000 C 
BRANCH  13  14
ATOM     14  C   UNL     1      63.274  34.657  60.780  1.00  0.00    -0.000 C 
BRANCH  14  15
ATOM     15  C   UNL     1      64.569  35.034  61.514  1.00  0.00    -0.003 C 
ATOM     16  C   UNL     1      64.525  36.483  61.992  1.00  0.00     0.004 C 
ENDBRANCH  14  15
ENDBRANCH  13  14
ENDBRANCH  12  13
ENDBRANCH  11  12
ENDBRANCH  10  11
ENDBRANCH   1  10
TORSDOF 12
ENDMDL
MODEL 5
REMARK VINA RESULT:    -3.162     11.426     13.003
REMARK INTER + INTRA:          -7.061
REMARK INTER:                  -5.511
REMARK INTRA:                  -1.550
REMARK UNBOUND:                -1.680
REMARK SMILES CCCCCCCCCCCCCC(=O)[O-]
REMARK SMILES IDX 8 1 9 2 10 3 11 4 12 5 13 6 14 7 15 8 16 9 7 10 6 11 5 12
REMARK SMILES IDX 4 13 3 14 2 15 1 16
REMARK H PARENT
REMARK Flexibility Score: inf
ROOT
ATOM      1  C   UNL     1      57.193  27.447  52.149  1.00  0.00     0.000 C 
ENDROOT
BRANCH   1   2
ATOM      2  C   UNL     1      57.112  28.595  51.131  1.00  0.00     0.000 C 
BRANCH   2   3
ATOM      3  C   UNL     1      58.439  29.364  51.067  1.00  0.00     0.000 C 
BRANCH   3   4
ATOM      4  C   UNL     1      59.144  29.234  49.705  1.00  0.00     0.000 C 
BRANCH   4   5
ATOM      5  C   UNL     1      59.844  27.881  49.458  1.00  0.00     0.006 C 
BRANCH   5   6
ATOM      6  C   UNL     1      60.687  27.376  50.639  1.00  0.00     0.053 C 
BRANCH   6   7
ATOM      7  C   UNL     1      60.738  25.881  50.694  1.00  0.00     0.041 C 
ATOM      8  O   UNL     1      59.672  25.210  50.688  1.00  0.00    -0.550 OA
ATOM      9  O   UNL     1      61.963  25.226  50.716  1.00  0.00    -0.550 OA
ENDBRANCH   6   7
ENDBRANCH   5   6
ENDBRANCH   4   5
ENDBRANCH   3   4
ENDBRANCH   2   3
ENDBRANCH   1   2
BRANCH   1  10
ATOM     10  C   UNL     1      56.225  26.300  51.819  1.00  0.00     0.000 C 
BRANCH  10  11
ATOM     11  C   UNL     1      56.253  25.911  50.330  1.00  0.00    -0.000 C 
BRANCH  11  12
ATOM     12  C   UNL     1      54.866  26.049  49.666  1.00  0.00    -0.000 C 
BRANCH  12  13
ATOM     13  C   UNL     1      53.799  26.676  50.584  1.00  0.00    -0.000 C 
BRANCH  13  14
ATOM     14  C   UNL     1      53.483  28.153  50.294  1.00  0.00    -0.000 C 
BRANCH  14  15
ATOM     15  C   UNL     1      53.272  28.977  51.572  1.00  0.00    -0.003 C 
ATOM     16  C   UNL     1      54.037  30.296  51.507  1.00  0.00     0.004 C 
ENDBRANCH  14  15
ENDBRANCH  13  14
ENDBRANCH  12  13
ENDBRANCH  11  12
ENDBRANCH  10  11
ENDBRANCH   1  10
TORSDOF 12
ENDMDL
MODEL 6
REMARK VINA RESULT:    -3.149     11.222     12.681
REMARK INTER + INTRA:          -7.039
REMARK INTER:                  -5.637
REMARK INTRA:                  -1.402
REMARK UNBOUND:                -1.680
REMARK SMILES CCCCCCCCCCCCCC(=O)[O-]
REMARK SMILES IDX 8 1 9 2 10 3 11 4 12 5 13 6 14 7 15 8 16 9 7 10 6 11 5 12
REMARK SMILES IDX 4 13 3 14 2 15 1 16
REMARK H PARENT
REMARK Flexibility Score: inf
ROOT
ATOM      1  C   UNL     1      56.565  28.461  52.615  1.00  0.00     0.000 C 
ENDROOT
BRANCH   1   2
ATOM      2  C   UNL     1      57.847  29.019  51.980  1.00  0.00     0.000 C 
BRANCH   2   3
ATOM      3  C   UNL     1      57.847  28.799  50.460  1.00  0.00     0.000 C 
BRANCH   3   4
ATOM      4  C   UNL     1      59.193  29.155  49.802  1.00  0.00     0.000 C 
BRANCH   4   5
ATOM      5  C   UNL     1      60.133  27.958  49.548  1.00  0.00     0.006 C 
BRANCH   5   6
ATOM      6  C   UNL     1      59.529  26.589  49.897  1.00  0.00     0.053 C 
BRANCH   6   7
ATOM      7  C   UNL     1      60.319  25.880  50.953  1.00  0.00     0.041 C 
ATOM      8  O   UNL     1      59.836  25.718  52.105  1.00  0.00    -0.550 OA
ATOM      9  O   UNL     1      61.575  25.365  50.655  1.00  0.00    -0.550 OA
ENDBRANCH   6   7
ENDBRANCH   5   6
ENDBRANCH   4   5
ENDBRANCH   3   4
ENDBRANCH   2   3
ENDBRANCH   1   2
BRANCH   1  10
ATOM     10  C   UNL     1      55.671  29.565  53.201  1.00  0.00     0.000 C 
BRANCH  10  11
ATOM     11  C   UNL     1      54.275  29.604  52.554  1.00  0.00    -0.000 C 
BRANCH  11  12
ATOM     12  C   UNL     1      54.348  29.688  51.015  1.00  0.00    -0.000 C 
BRANCH  12  13
ATOM     13  C   UNL     1      53.435  28.676  50.296  1.00  0.00    -0.000 C 
BRANCH  13  14
ATOM     14  C   UNL     1      53.425  27.265  50.908  1.00  0.00    -0.000 C 
BRANCH  14  15
ATOM     15  C   UNL     1      53.952  26.196  49.941  1.00  0.00    -0.003 C 
ATOM     16  C   UNL     1      55.468  26.058  50.049  1.00  0.00     0.004 C 
ENDBRANCH  14  15
ENDBRANCH  13  14
ENDBRANCH  12  13
ENDBRANCH  11  12
ENDBRANCH  10  11
ENDBRANCH   1  10
TORSDOF 12
ENDMDL
MODEL 7
REMARK VINA RESULT:    -3.148     10.622     11.996
REMARK INTER + INTRA:          -7.037
REMARK INTER:                  -5.084
REMARK INTRA:                  -1.954
REMARK UNBOUND:                -1.680
REMARK SMILES CCCCCCCCCCCCCC(=O)[O-]
REMARK SMILES IDX 8 1 9 2 10 3 11 4 12 5 13 6 14 7 15 8 16 9 7 10 6 11 5 12
REMARK SMILES IDX 4 13 3 14 2 15 1 16
REMARK H PARENT
REMARK Flexibility Score: inf
ROOT
ATOM      1  C   UNL     1      57.157  29.664  52.836  1.00  0.00     0.000 C 
ENDROOT
BRANCH   1   2
ATOM      2  C   UNL     1      58.331  28.856  52.263  1.00  0.00     0.000 C 
BRANCH   2   3
ATOM      3  C   UNL     1      59.186  29.722  51.325  1.00  0.00     0.000 C 
BRANCH   3   4
ATOM      4  C   UNL     1      59.023  29.341  49.842  1.00  0.00     0.000 C 
BRANCH   4   5
ATOM      5  C   UNL     1      59.532  27.934  49.468  1.00  0.00     0.006 C 
BRANCH   5   6
ATOM      6  C   UNL     1      60.974  27.640  49.912  1.00  0.00     0.053 C 
BRANCH   6   7
ATOM      7  C   UNL     1      61.059  26.417  50.772  1.00  0.00     0.041 C 
ATOM      8  O   UNL     1      60.788  25.285  50.293  1.00  0.00    -0.550 OA
ATOM      9  O   UNL     1      61.471  26.524  52.095  1.00  0.00    -0.550 OA
ENDBRANCH   6   7
ENDBRANCH   5   6
ENDBRANCH   4   5
ENDBRANCH   3   4
ENDBRANCH   2   3
ENDBRANCH   1   2
BRANCH   1  10
ATOM     10  C   UNL     1      55.794  29.051  52.480  1.00  0.00     0.000 C 
BRANCH  10  11
ATOM     11  C   UNL     1      55.429  29.237  50.997  1.00  0.00    -0.000 C 
BRANCH  11  12
ATOM     12  C   UNL     1      54.654  28.027  50.432  1.00  0.00    -0.000 C 
BRANCH  12  13
ATOM     13  C   UNL     1      55.150  26.670  50.967  1.00  0.00    -0.000 C 
BRANCH  13  14
ATOM     14  C   UNL     1      56.465  26.171  50.343  1.00  0.00    -0.000 C 
BRANCH  14  15
ATOM     15  C   UNL     1      57.420  25.563  51.380  1.00  0.00    -0.003 C 
ATOM     16  C   UNL     1      56.754  25.469  52.750  1.00  0.00     0.004 C 
ENDBRANCH  14  15
ENDBRANCH  13  14
ENDBRANCH  12  13
ENDBRANCH  11  12
ENDBRANCH  10  11
ENDBRANCH   1  10
TORSDOF 12
ENDMDL
MODEL 8
REMARK VINA RESULT:    -3.114      1.793      3.228
REMARK INTER + INTRA:          -6.979
REMARK INTER:                  -4.948
REMARK INTRA:                  -2.031
REMARK UNBOUND:                -1.680
REMARK SMILES CCCCCCCCCCCCCC(=O)[O-]
REMARK SMILES IDX 8 1 9 2 10 3 11 4 12 5 13 6 14 7 15 8 16 9 7 10 6 11 5 12
REMARK SMILES IDX 4 13 3 14 2 15 1 16
REMARK H PARENT
REMARK Flexibility Score: inf
ROOT
ATOM      1  C   UNL     1      64.309  30.191  58.765  1.00  0.00     0.000 C 
ENDROOT
BRANCH   1   2
ATOM      2  C   UNL     1      64.834  30.837  60.056  1.00  0.00     0.000 C 
BRANCH   2   3
ATOM      3  C   UNL     1      64.170  32.201  60.296  1.00  0.00     0.000 C 
BRANCH   3   4
ATOM      4  C   UNL     1      63.749  32.901  58.991  1.00  0.00     0.000 C 
BRANCH   4   5
ATOM      5  C   UNL     1      62.610  33.931  59.140  1.00  0.00     0.006 C 
BRANCH   5   6
ATOM      6  C   UNL     1      62.154  34.171  60.588  1.00  0.00     0.053 C 
BRANCH   6   7
ATOM      7  C   UNL     1      62.444  35.567  61.044  1.00  0.00     0.041 C 
ATOM      8  O   UNL     1      61.539  36.442  61.022  1.00  0.00    -0.550 OA
ATOM      9  O   UNL     1      63.705  35.895  61.526  1.00  0.00    -0.550 OA
ENDBRANCH   6   7
ENDBRANCH   5   6
ENDBRANCH   4   5
ENDBRANCH   3   4
ENDBRANCH   2   3
ENDBRANCH   1   2
BRANCH   1  10
ATOM     10  C   UNL     1      63.944  28.710  58.956  1.00  0.00     0.000 C 
BRANCH  10  11
ATOM     11  C   UNL     1      64.075  28.252  60.420  1.00  0.00    -0.000 C 
BRANCH  11  12
ATOM     12  C   UNL     1      62.835  27.467  60.898  1.00  0.00    -0.000 C 
BRANCH  12  13
ATOM     13  C   UNL     1      61.569  28.335  61.037  1.00  0.00    -0.000 C 
BRANCH  13  14
ATOM     14  C   UNL     1      61.785  29.685  61.742  1.00  0.00    -0.000 C 
BRANCH  14  15
ATOM     15  C   UNL     1      60.822  30.773  61.247  1.00  0.00    -0.003 C 
ATOM     16  C   UNL     1      60.576  30.646  59.746  1.00  0.00     0.004 C 
ENDBRANCH  14  15
ENDBRANCH  13  14
ENDBRANCH  12  13
ENDBRANCH  11  12
ENDBRANCH  10  11
ENDBRANCH   1  10
TORSDOF 12
ENDMDL
MODEL 9
REMARK VINA RESULT:    -3.103     11.633     13.184
REMARK INTER + INTRA:          -6.960
REMARK INTER:                  -5.578
REMARK INTRA:                  -1.381
REMARK UNBOUND:                -1.680
REMARK SMILES CCCCCCCCCCCCCC(=O)[O-]
REMARK SMILES IDX 8 1 9 2 10 3 11 4 12 5 13 6 14 7 15 8 16 9 7 10 6 11 5 12
REMARK SMILES IDX 4 13 3 14 2 15 1 16
REMARK H PARENT
REMARK Flexibility Score: inf
ROOT
ATOM      1  C   UNL     1      57.432  28.770  51.243  1.00  0.00     0.000 C 
ENDROOT
BRANCH   1   2
ATOM      2  C   UNL     1      56.376  27.774  50.740  1.00  0.00     0.000 C 
BRANCH   2   3
ATOM      3  C   UNL     1      54.979  28.410  50.740  1.00  0.00     0.000 C 
BRANCH   3   4
ATOM      4  C   UNL     1      53.918  27.528  50.057  1.00  0.00     0.000 C 
BRANCH   4   5
ATOM      5  C   UNL     1      54.294  26.038  49.923  1.00  0.00     0.006 C 
BRANCH   5   6
ATOM      6  C   UNL     1      53.261  25.065  50.514  1.00  0.00     0.053 C 
BRANCH   6   7
ATOM      7  C   UNL     1      53.629  24.626  51.897  1.00  0.00     0.041 C 
ATOM      8  O   UNL     1      54.311  25.379  52.641  1.00  0.00    -0.550 OA
ATOM      9  O   UNL     1      53.190  23.399  52.378  1.00  0.00    -0.550 OA
ENDBRANCH   6   7
ENDBRANCH   5   6
ENDBRANCH   4   5
ENDBRANCH   3   4
ENDBRANCH   2   3
ENDBRANCH   1   2
BRANCH   1  10
ATOM     10  C   UNL     1      58.326  29.299  50.110  1.00  0.00     0.000 C 
BRANCH  10  11
ATOM     11  C   UNL     1      59.812  28.962  50.322  1.00  0.00    -0.000 C 
BRANCH  11  12
ATOM     12  C   UNL     1      60.231  27.679  49.574  1.00  0.00    -0.000 C 
BRANCH  12  13
ATOM     13  C   UNL     1      60.513  26.484  50.505  1.00  0.00    -0.000 C 
BRANCH  13  14
ATOM     14  C   UNL     1      59.328  25.523  50.702  1.00  0.00    -0.000 C 
BRANCH  14  15
ATOM     15  C   UNL     1      58.859  25.452  52.162  1.00  0.00    -0.003 C 
ATOM     16  C   UNL     1      59.703  26.359  53.053  1.00  0.00     0.004 C 
ENDBRANCH  14  15
ENDBRANCH  13  14
ENDBRANCH  12  13
ENDBRANCH  11  12
ENDBRANCH  10  11
ENDBRANCH   1  10
TORSDOF 12
ENDMDL
