MODEL 1
REMARK VINA RESULT:    -5.723      0.000      0.000
REMARK INTER + INTRA:         -18.958
REMARK INTER:                 -15.090
REMARK INTRA:                  -3.868
REMARK UNBOUND:                -3.868
REMARK SMILES CCCCCCCCCCCCCCCCCCCCCCCCCCCCCC(=O)[O-]
REMARK SMILES IDX 16 1 17 2 18 3 19 4 20 5 21 6 22 7 23 8 24 9 25 10 26 11
REMARK SMILES IDX 27 12 28 13 29 14 30 15 31 16 32 17 15 18 14 19 13 20 12 21
REMARK SMILES IDX 11 22 10 23 9 24 8 25 7 26 6 27 5 28 4 29 3 30 2 31 1 32
REMARK H PARENT
REMARK Flexibility Score: inf
ROOT
ATOM      1  C   UNL     1      89.671 326.290 200.843  1.00  0.00     0.000 C 
ENDROOT
BRANCH   1   2
ATOM      2  C   UNL     1      88.394 325.959 201.633  1.00  0.00     0.000 C 
BRANCH   2   3
ATOM      3  C   UNL     1      88.576 324.750 202.568  1.00  0.00     0.000 C 
BRANCH   3   4
ATOM      4  C   UNL     1      87.733 323.539 202.139  1.00  0.00     0.000 C 
BRANCH   4   5
ATOM      5  C   UNL     1      86.453 323.315 202.967  1.00  0.00     0.000 C 
BRANCH   5   6
ATOM      6  C   UNL     1      86.499 323.948 204.374  1.00  0.00     0.000 C 
BRANCH   6   7
ATOM      7  C   UNL     1      87.364 323.139 205.359  1.00  0.00     0.000 C 
BRANCH   7   8
ATOM      8  C   UNL     1      87.464 323.824 206.739  1.00  0.00     0.000 C 
BRANCH   8   9
ATOM      9  C   UNL     1      87.150 325.329 206.708  1.00  0.00     0.000 C 
BRANCH   9  10
ATOM     10  C   UNL     1      88.361 326.205 207.062  1.00  0.00     0.000 C 
BRANCH  10  11
ATOM     11  C   UNL     1      89.405 326.178 205.940  1.00  0.00     0.000 C 
BRANCH  11  12
ATOM     12  C   UNL     1      89.212 327.355 204.974  1.00  0.00     0.000 C 
BRANCH  12  13
ATOM     13  C   UNL     1      90.510 327.667 204.220  1.00  0.00     0.006 C 
BRANCH  13  14
ATOM     14  C   UNL     1      91.685 326.866 204.790  1.00  0.00     0.053 C 
BRANCH  14  15
ATOM     15  C   UNL     1      92.469 326.222 203.689  1.00  0.00     0.041 C 
ATOM     16  O   UNL     1      93.527 326.759 203.264  1.00  0.00    -0.550 OA
ATOM     17  O   UNL     1      92.043 325.015 203.146  1.00  0.00    -0.550 OA
ENDBRANCH  14  15
ENDBRANCH  13  14
ENDBRANCH  12  13
ENDBRANCH  11  12
ENDBRANCH  10  11
ENDBRANCH   9  10
ENDBRANCH   8   9
ENDBRANCH   7   8
ENDBRANCH   6   7
ENDBRANCH   5   6
ENDBRANCH   4   5
ENDBRANCH   3   4
ENDBRANCH   2   3
ENDBRANCH   1   2
BRANCH   1  18
ATOM     18  C   UNL     1      90.008 325.218 199.792  1.00  0.00     0.000 C 
BRANCH  18  19
ATOM     19  C   UNL     1      88.909 325.054 198.728  1.00  0.00     0.000 C 
BRANCH  19  20
ATOM     20  C   UNL     1      88.553 326.361 197.991  1.00  0.00     0.000 C 
BRANCH  20  21
ATOM     21  C   UNL     1      87.928 326.103 196.611  1.00  0.00     0.000 C 
BRANCH  21  22
ATOM     22  C   UNL     1      88.906 326.471 195.486  1.00  0.00     0.000 C 
BRANCH  22  23
ATOM     23  C   UNL     1      88.205 326.727 194.144  1.00  0.00     0.000 C 
BRANCH  23  24
ATOM     24  C   UNL     1      86.755 326.221 194.121  1.00  0.00    -0.000 C 
BRANCH  24  25
ATOM     25  C   UNL     1      86.604 325.032 193.161  1.00  0.00    -0.000 C 
BRANCH  25  26
ATOM     26  C   UNL     1      87.852 324.821 192.289  1.00  0.00    -0.000 C 
BRANCH  26  27
ATOM     27  C   UNL     1      87.834 323.465 191.559  1.00  0.00    -0.000 C 
BRANCH  27  28
ATOM     28  C   UNL     1      88.567 322.359 192.335  1.00  0.00    -0.000 C 
BRANCH  28  29
ATOM     29  C   UNL     1      87.622 321.540 193.232  1.00  0.00    -0.000 C 
BRANCH  29  30
ATOM     30  C   UNL     1      88.019 321.588 194.719  1.00  0.00    -0.000 C 
BRANCH  30  31
ATOM     31  C   UNL     1      88.885 322.798 195.120  1.00  0.00    -0.003 C 
ATOM     32  C   UNL     1      89.848 322.489 196.266  1.00  0.00     0.004 C 
ENDBRANCH  30  31
ENDBRANCH  29  30
ENDBRANCH  28  29
ENDBRANCH  27  28
ENDBRANCH  26  27
ENDBRANCH  25  26
ENDBRANCH  24  25
ENDBRANCH  23  24
ENDBRANCH  22  23
ENDBRANCH  21  22
ENDBRANCH  20  21
ENDBRANCH  19  20
ENDBRANCH  18  19
ENDBRANCH   1  18
TORSDOF 28
ENDMDL
MODEL 2
REMARK VINA RESULT:    -5.662      3.901     11.345
REMARK INTER + INTRA:         -18.797
REMARK INTER:                 -15.281
REMARK INTRA:                  -3.515
REMARK UNBOUND:                -3.868
REMARK SMILES CCCCCCCCCCCCCCCCCCCCCCCCCCCCCC(=O)[O-]
REMARK SMILES IDX 16 1 17 2 18 3 19 4 20 5 21 6 22 7 23 8 24 9 25 10 26 11
REMARK SMILES IDX 27 12 28 13 29 14 30 15 31 16 32 17 15 18 14 19 13 20 12 21
REMARK SMILES IDX 11 22 10 23 9 24 8 25 7 26 6 27 5 28 4 29 3 30 2 31 1 32
REMARK H PARENT
REMARK Flexibility Score: inf
ROOT
ATOM      1  C   UNL     1      90.165 323.853 199.215  1.00  0.00     0.000 C 
ENDROOT
BRANCH   1   2
ATOM      2  C   UNL     1      88.872 324.271 198.497  1.00  0.00     0.000 C 
BRANCH   2   3
ATOM      3  C   UNL     1      89.100 324.582 197.008  1.00  0.00     0.000 C 
BRANCH   3   4
ATOM      4  C   UNL     1      88.631 325.994 196.620  1.00  0.00     0.000 C 
BRANCH   4   5
ATOM      5  C   UNL     1      87.133 326.109 196.281  1.00  0.00     0.000 C 
BRANCH   5   6
ATOM      6  C   UNL     1      86.851 326.560 194.832  1.00  0.00     0.000 C 
BRANCH   6   7
ATOM      7  C   UNL     1      88.112 326.532 193.948  1.00  0.00     0.000 C 
BRANCH   7   8
ATOM      8  C   UNL     1      88.035 325.437 192.864  1.00  0.00     0.000 C 
BRANCH   8   9
ATOM      9  C   UNL     1      88.147 324.006 193.418  1.00  0.00     0.000 C 
BRANCH   9  10
ATOM     10  C   UNL     1      86.981 323.102 192.992  1.00  0.00     0.000 C 
BRANCH  10  11
ATOM     11  C   UNL     1      86.409 323.544 191.640  1.00  0.00     0.000 C 
BRANCH  11  12
ATOM     12  C   UNL     1      85.960 322.337 190.806  1.00  0.00     0.000 C 
BRANCH  12  13
ATOM     13  C   UNL     1      86.763 322.240 189.503  1.00  0.00     0.006 C 
BRANCH  13  14
ATOM     14  C   UNL     1      88.214 321.833 189.779  1.00  0.00     0.053 C 
BRANCH  14  15
ATOM     15  C   UNL     1      89.162 322.809 189.155  1.00  0.00     0.041 C 
ATOM     16  O   UNL     1      88.958 324.049 189.260  1.00  0.00    -0.550 OA
ATOM     17  O   UNL     1      90.286 322.351 188.476  1.00  0.00    -0.550 OA
ENDBRANCH  14  15
ENDBRANCH  13  14
ENDBRANCH  12  13
ENDBRANCH  11  12
ENDBRANCH  10  11
ENDBRANCH   9  10
ENDBRANCH   8   9
ENDBRANCH   7   8
ENDBRANCH   6   7
ENDBRANCH   5   6
ENDBRANCH   4   5
ENDBRANCH   3   4
ENDBRANCH   2   3
ENDBRANCH   1   2
BRANCH   1  18
ATOM     18  C   UNL     1      90.565 324.836 200.329  1.00  0.00     0.000 C 
BRANCH  18  19
ATOM     19  C   UNL     1      89.637 326.060 200.411  1.00  0.00     0.000 C 
BRANCH  19  20
ATOM     20  C   UNL     1      88.828 326.144 201.722  1.00  0.00     0.000 C 
BRANCH  20  21
ATOM     21  C   UNL     1      89.641 326.758 202.872  1.00  0.00     0.000 C 
BRANCH  21  22
ATOM     22  C   UNL     1      90.153 325.670 203.827  1.00  0.00     0.000 C 
BRANCH  22  23
ATOM     23  C   UNL     1      90.315 326.168 205.271  1.00  0.00     0.000 C 
BRANCH  23  24
ATOM     24  C   UNL     1      89.089 326.945 205.775  1.00  0.00    -0.000 C 
BRANCH  24  25
ATOM     25  C   UNL     1      88.455 326.244 206.985  1.00  0.00    -0.000 C 
BRANCH  25  26
ATOM     26  C   UNL     1      87.119 325.568 206.636  1.00  0.00    -0.000 C 
BRANCH  26  27
ATOM     27  C   UNL     1      87.240 324.034 206.567  1.00  0.00    -0.000 C 
BRANCH  27  28
ATOM     28  C   UNL     1      86.505 323.431 205.359  1.00  0.00    -0.000 C 
BRANCH  28  29
ATOM     29  C   UNL     1      87.163 323.808 204.019  1.00  0.00    -0.000 C 
BRANCH  29  30
ATOM     30  C   UNL     1      86.170 323.793 202.841  1.00  0.00    -0.000 C 
BRANCH  30  31
ATOM     31  C   UNL     1      86.454 322.724 201.768  1.00  0.00    -0.003 C 
ATOM     32  C   UNL     1      87.917 322.281 201.740  1.00  0.00     0.004 C 
ENDBRANCH  30  31
ENDBRANCH  29  30
ENDBRANCH  28  29
ENDBRANCH  27  28
ENDBRANCH  26  27
ENDBRANCH  25  26
ENDBRANCH  24  25
ENDBRANCH  23  24
ENDBRANCH  22  23
ENDBRANCH  21  22
ENDBRANCH  20  21
ENDBRANCH  19  20
ENDBRANCH  18  19
ENDBRANCH   1  18
TORSDOF 28
ENDMDL
MODEL 3
REMARK VINA RESULT:    -5.646      1.938     10.203
REMARK INTER + INTRA:         -18.756
REMARK INTER:                 -15.216
REMARK INTRA:                  -3.541
REMARK UNBOUND:                -3.868
REMARK SMILES CCCCCCCCCCCCCCCCCCCCCCCCCCCCCC(=O)[O-]
REMARK SMILES IDX 16 1 17 2 18 3 19 4 20 5 21 6 22 7 23 8 24 9 25 10 26 11
REMARK SMILES IDX 27 12 28 13 29 14 30 15 31 16 32 17 15 18 14 19 13 20 12 21
REMARK SMILES IDX 11 22 10 23 9 24 8 25 7 26 6 27 5 28 4 29 3 30 2 31 1 32
REMARK H PARENT
REMARK Flexibility Score: inf
ROOT
ATOM      1  C   UNL     1      88.884 325.584 199.004  1.00  0.00     0.000 C 
ENDROOT
BRANCH   1   2
ATOM      2  C   UNL     1      88.529 326.494 197.817  1.00  0.00     0.000 C 
BRANCH   2   3
ATOM      3  C   UNL     1      87.835 325.729 196.676  1.00  0.00     0.000 C 
BRANCH   3   4
ATOM      4  C   UNL     1      86.623 326.486 196.109  1.00  0.00     0.000 C 
BRANCH   4   5
ATOM      5  C   UNL     1      86.670 326.738 194.589  1.00  0.00     0.000 C 
BRANCH   5   6
ATOM      6  C   UNL     1      88.048 326.463 193.951  1.00  0.00     0.000 C 
BRANCH   6   7
ATOM      7  C   UNL     1      88.000 325.341 192.898  1.00  0.00     0.000 C 
BRANCH   7   8
ATOM      8  C   UNL     1      86.642 324.607 192.894  1.00  0.00     0.000 C 
BRANCH   8   9
ATOM      9  C   UNL     1      86.455 323.655 191.701  1.00  0.00     0.000 C 
BRANCH   9  10
ATOM     10  C   UNL     1      87.575 322.611 191.581  1.00  0.00     0.000 C 
BRANCH  10  11
ATOM     11  C   UNL     1      87.589 321.679 192.798  1.00  0.00     0.000 C 
BRANCH  11  12
ATOM     12  C   UNL     1      88.929 321.757 193.541  1.00  0.00     0.000 C 
BRANCH  12  13
ATOM     13  C   UNL     1      88.759 322.423 194.912  1.00  0.00     0.006 C 
BRANCH  13  14
ATOM     14  C   UNL     1      89.873 321.998 195.874  1.00  0.00     0.053 C 
BRANCH  14  15
ATOM     15  C   UNL     1      89.494 322.307 197.289  1.00  0.00     0.041 C 
ATOM     16  O   UNL     1      88.280 322.359 197.625  1.00  0.00    -0.550 OA
ATOM     17  O   UNL     1      90.482 322.515 198.245  1.00  0.00    -0.550 OA
ENDBRANCH  14  15
ENDBRANCH  13  14
ENDBRANCH  12  13
ENDBRANCH  11  12
ENDBRANCH  10  11
ENDBRANCH   9  10
ENDBRANCH   8   9
ENDBRANCH   7   8
ENDBRANCH   6   7
ENDBRANCH   5   6
ENDBRANCH   4   5
ENDBRANCH   3   4
ENDBRANCH   2   3
ENDBRANCH   1   2
BRANCH   1  18
ATOM     18  C   UNL     1      89.549 326.353 200.158  1.00  0.00     0.000 C 
BRANCH  18  19
ATOM     19  C   UNL     1      88.839 326.145 201.507  1.00  0.00     0.000 C 
BRANCH  19  20
ATOM     20  C   UNL     1      89.775 326.248 202.729  1.00  0.00     0.000 C 
BRANCH  20  21
ATOM     21  C   UNL     1      89.252 327.232 203.786  1.00  0.00     0.000 C 
BRANCH  21  22
ATOM     22  C   UNL     1      90.295 327.463 204.888  1.00  0.00     0.000 C 
BRANCH  22  23
ATOM     23  C   UNL     1      90.079 326.562 206.114  1.00  0.00     0.000 C 
BRANCH  23  24
ATOM     24  C   UNL     1      88.614 326.519 206.573  1.00  0.00    -0.000 C 
BRANCH  24  25
ATOM     25  C   UNL     1      88.096 325.074 206.622  1.00  0.00    -0.000 C 
BRANCH  25  26
ATOM     26  C   UNL     1      86.587 324.982 206.340  1.00  0.00    -0.000 C 
BRANCH  26  27
ATOM     27  C   UNL     1      86.213 323.705 205.567  1.00  0.00    -0.000 C 
BRANCH  27  28
ATOM     28  C   UNL     1      87.116 323.459 204.347  1.00  0.00    -0.000 C 
BRANCH  28  29
ATOM     29  C   UNL     1      86.431 323.832 203.020  1.00  0.00    -0.000 C 
BRANCH  29  30
ATOM     30  C   UNL     1      86.364 322.653 202.031  1.00  0.00    -0.000 C 
BRANCH  30  31
ATOM     31  C   UNL     1      87.380 322.719 200.874  1.00  0.00    -0.003 C 
ATOM     32  C   UNL     1      88.802 322.361 201.308  1.00  0.00     0.004 C 
ENDBRANCH  30  31
ENDBRANCH  29  30
ENDBRANCH  28  29
ENDBRANCH  27  28
ENDBRANCH  26  27
ENDBRANCH  25  26
ENDBRANCH  24  25
ENDBRANCH  23  24
ENDBRANCH  22  23
ENDBRANCH  21  22
ENDBRANCH  20  21
ENDBRANCH  19  20
ENDBRANCH  18  19
ENDBRANCH   1  18
TORSDOF 28
ENDMDL
MODEL 4
REMARK VINA RESULT:    -5.629      4.369     11.157
REMARK INTER + INTRA:         -18.712
REMARK INTER:                 -15.944
REMARK INTRA:                  -2.767
REMARK UNBOUND:                -3.868
REMARK SMILES CCCCCCCCCCCCCCCCCCCCCCCCCCCCCC(=O)[O-]
REMARK SMILES IDX 16 1 17 2 18 3 19 4 20 5 21 6 22 7 23 8 24 9 25 10 26 11
REMARK SMILES IDX 27 12 28 13 29 14 30 15 31 16 32 17 15 18 14 19 13 20 12 21
REMARK SMILES IDX 11 22 10 23 9 24 8 25 7 26 6 27 5 28 4 29 3 30 2 31 1 32
REMARK H PARENT
REMARK Flexibility Score: inf
ROOT
ATOM      1  C   UNL     1      90.504 326.182 200.774  1.00  0.00     0.000 C 
ENDROOT
BRANCH   1   2
ATOM      2  C   UNL     1      89.036 325.950 200.382  1.00  0.00     0.000 C 
BRANCH   2   3
ATOM      3  C   UNL     1      88.888 325.411 198.948  1.00  0.00     0.000 C 
BRANCH   3   4
ATOM      4  C   UNL     1      88.581 326.519 197.928  1.00  0.00     0.000 C 
BRANCH   4   5
ATOM      5  C   UNL     1      88.082 326.018 196.559  1.00  0.00     0.000 C 
BRANCH   5   6
ATOM      6  C   UNL     1      89.000 326.400 195.379  1.00  0.00     0.000 C 
BRANCH   6   7
ATOM      7  C   UNL     1      88.211 326.857 194.138  1.00  0.00     0.000 C 
BRANCH   7   8
ATOM      8  C   UNL     1      86.730 326.429 194.203  1.00  0.00     0.000 C 
BRANCH   8   9
ATOM      9  C   UNL     1      86.434 325.107 193.475  1.00  0.00     0.000 C 
BRANCH   9  10
ATOM     10  C   UNL     1      87.530 324.713 192.473  1.00  0.00     0.000 C 
BRANCH  10  11
ATOM     11  C   UNL     1      88.062 323.305 192.766  1.00  0.00     0.000 C 
BRANCH  11  12
ATOM     12  C   UNL     1      88.408 322.562 191.470  1.00  0.00     0.000 C 
BRANCH  12  13
ATOM     13  C   UNL     1      88.164 323.451 190.244  1.00  0.00     0.006 C 
BRANCH  13  14
ATOM     14  C   UNL     1      88.633 322.761 188.960  1.00  0.00     0.053 C 
BRANCH  14  15
ATOM     15  C   UNL     1      87.595 321.801 188.468  1.00  0.00     0.041 C 
ATOM     16  O   UNL     1      86.372 322.102 188.527  1.00  0.00    -0.550 OA
ATOM     17  O   UNL     1      87.978 320.581 187.922  1.00  0.00    -0.550 OA
ENDBRANCH  14  15
ENDBRANCH  13  14
ENDBRANCH  12  13
ENDBRANCH  11  12
ENDBRANCH  10  11
ENDBRANCH   9  10
ENDBRANCH   8   9
ENDBRANCH   7   8
ENDBRANCH   6   7
ENDBRANCH   5   6
ENDBRANCH   4   5
ENDBRANCH   3   4
ENDBRANCH   2   3
ENDBRANCH   1   2
BRANCH   1  18
ATOM     18  C   UNL     1      90.652 326.741 202.200  1.00  0.00     0.000 C 
BRANCH  18  19
ATOM     19  C   UNL     1      89.357 326.635 203.023  1.00  0.00     0.000 C 
BRANCH  19  20
ATOM     20  C   UNL     1      89.569 326.102 204.456  1.00  0.00     0.000 C 
BRANCH  20  21
ATOM     21  C   UNL     1      89.329 327.181 205.523  1.00  0.00     0.000 C 
BRANCH  21  22
ATOM     22  C   UNL     1      89.022 326.549 206.887  1.00  0.00     0.000 C 
BRANCH  22  23
ATOM     23  C   UNL     1      88.316 325.189 206.771  1.00  0.00     0.000 C 
BRANCH  23  24
ATOM     24  C   UNL     1      86.790 325.317 206.652  1.00  0.00    -0.000 C 
BRANCH  24  25
ATOM     25  C   UNL     1      86.222 324.253 205.702  1.00  0.00    -0.000 C 
BRANCH  25  26
ATOM     26  C   UNL     1      87.163 323.047 205.543  1.00  0.00    -0.000 C 
BRANCH  26  27
ATOM     27  C   UNL     1      86.966 322.325 204.198  1.00  0.00    -0.000 C 
BRANCH  27  28
ATOM     28  C   UNL     1      87.935 322.816 203.109  1.00  0.00    -0.000 C 
BRANCH  28  29
ATOM     29  C   UNL     1      87.204 323.401 201.888  1.00  0.00    -0.000 C 
BRANCH  29  30
ATOM     30  C   UNL     1      86.637 322.315 200.954  1.00  0.00    -0.000 C 
BRANCH  30  31
ATOM     31  C   UNL     1      87.436 322.097 199.655  1.00  0.00    -0.003 C 
ATOM     32  C   UNL     1      87.434 320.641 199.190  1.00  0.00     0.004 C 
ENDBRANCH  30  31
ENDBRANCH  29  30
ENDBRANCH  28  29
ENDBRANCH  27  28
ENDBRANCH  26  27
ENDBRANCH  25  26
ENDBRANCH  24  25
ENDBRANCH  23  24
ENDBRANCH  22  23
ENDBRANCH  21  22
ENDBRANCH  20  21
ENDBRANCH  19  20
ENDBRANCH  18  19
ENDBRANCH   1  18
TORSDOF 28
ENDMDL
MODEL 5
REMARK VINA RESULT:    -5.608      2.171      3.763
REMARK INTER + INTRA:         -18.656
REMARK INTER:                 -14.810
REMARK INTRA:                  -3.847
REMARK UNBOUND:                -3.868
REMARK SMILES CCCCCCCCCCCCCCCCCCCCCCCCCCCCCC(=O)[O-]
REMARK SMILES IDX 16 1 17 2 18 3 19 4 20 5 21 6 22 7 23 8 24 9 25 10 26 11
REMARK SMILES IDX 27 12 28 13 29 14 30 15 31 16 32 17 15 18 14 19 13 20 12 21
REMARK SMILES IDX 11 22 10 23 9 24 8 25 7 26 6 27 5 28 4 29 3 30 2 31 1 32
REMARK H PARENT
REMARK Flexibility Score: inf
ROOT
ATOM      1  C   UNL     1      89.571 325.701 200.508  1.00  0.00     0.000 C 
ENDROOT
BRANCH   1   2
ATOM      2  C   UNL     1      88.868 326.188 201.786  1.00  0.00     0.000 C 
BRANCH   2   3
ATOM      3  C   UNL     1      89.860 326.519 202.915  1.00  0.00     0.000 C 
BRANCH   3   4
ATOM      4  C   UNL     1      89.191 327.239 204.097  1.00  0.00     0.000 C 
BRANCH   4   5
ATOM      5  C   UNL     1      90.101 327.454 205.322  1.00  0.00     0.000 C 
BRANCH   5   6
ATOM      6  C   UNL     1      90.073 326.289 206.335  1.00  0.00     0.000 C 
BRANCH   6   7
ATOM      7  C   UNL     1      88.736 326.197 207.093  1.00  0.00     0.000 C 
BRANCH   7   8
ATOM      8  C   UNL     1      88.035 324.840 206.870  1.00  0.00     0.000 C 
BRANCH   8   9
ATOM      9  C   UNL     1      86.584 324.965 206.376  1.00  0.00     0.000 C 
BRANCH   9  10
ATOM     10  C   UNL     1      86.219 323.922 205.309  1.00  0.00     0.000 C 
BRANCH  10  11
ATOM     11  C   UNL     1      87.252 323.910 204.176  1.00  0.00     0.000 C 
BRANCH  11  12
ATOM     12  C   UNL     1      86.586 323.628 202.823  1.00  0.00     0.000 C 
BRANCH  12  13
ATOM     13  C   UNL     1      86.982 322.245 202.293  1.00  0.00     0.006 C 
BRANCH  13  14
ATOM     14  C   UNL     1      88.222 322.331 201.397  1.00  0.00     0.053 C 
BRANCH  14  15
ATOM     15  C   UNL     1      88.027 321.529 200.148  1.00  0.00     0.041 C 
ATOM     16  O   UNL     1      87.223 321.922 199.259  1.00  0.00    -0.550 OA
ATOM     17  O   UNL     1      88.749 320.357 199.953  1.00  0.00    -0.550 OA
ENDBRANCH  14  15
ENDBRANCH  13  14
ENDBRANCH  12  13
ENDBRANCH  11  12
ENDBRANCH  10  11
ENDBRANCH   9  10
ENDBRANCH   8   9
ENDBRANCH   7   8
ENDBRANCH   6   7
ENDBRANCH   5   6
ENDBRANCH   4   5
ENDBRANCH   3   4
ENDBRANCH   2   3
ENDBRANCH   1   2
BRANCH   1  18
ATOM     18  C   UNL     1      89.025 326.380 199.240  1.00  0.00     0.000 C 
BRANCH  18  19
ATOM     19  C   UNL     1      88.715 325.381 198.112  1.00  0.00     0.000 C 
BRANCH  19  20
ATOM     20  C   UNL     1      88.010 326.014 196.894  1.00  0.00     0.000 C 
BRANCH  20  21
ATOM     21  C   UNL     1      89.004 326.476 195.817  1.00  0.00     0.000 C 
BRANCH  21  22
ATOM     22  C   UNL     1      88.353 326.468 194.427  1.00  0.00     0.000 C 
BRANCH  22  23
ATOM     23  C   UNL     1      86.931 325.885 194.435  1.00  0.00     0.000 C 
BRANCH  23  24
ATOM     24  C   UNL     1      86.609 325.081 193.167  1.00  0.00    -0.000 C 
BRANCH  24  25
ATOM     25  C   UNL     1      87.886 324.775 192.372  1.00  0.00    -0.000 C 
BRANCH  25  26
ATOM     26  C   UNL     1      87.623 323.849 191.173  1.00  0.00    -0.000 C 
BRANCH  26  27
ATOM     27  C   UNL     1      87.612 322.362 191.572  1.00  0.00    -0.000 C 
BRANCH  27  28
ATOM     28  C   UNL     1      88.911 321.922 192.268  1.00  0.00    -0.000 C 
BRANCH  28  29
ATOM     29  C   UNL     1      88.651 321.227 193.617  1.00  0.00    -0.000 C 
BRANCH  29  30
ATOM     30  C   UNL     1      88.956 322.134 194.824  1.00  0.00    -0.000 C 
BRANCH  30  31
ATOM     31  C   UNL     1      87.728 322.518 195.671  1.00  0.00    -0.003 C 
ATOM     32  C   UNL     1      86.422 321.943 195.123  1.00  0.00     0.004 C 
ENDBRANCH  30  31
ENDBRANCH  29  30
ENDBRANCH  28  29
ENDBRANCH  27  28
ENDBRANCH  26  27
ENDBRANCH  25  26
ENDBRANCH  24  25
ENDBRANCH  23  24
ENDBRANCH  22  23
ENDBRANCH  21  22
ENDBRANCH  20  21
ENDBRANCH  19  20
ENDBRANCH  18  19
ENDBRANCH   1  18
TORSDOF 28
ENDMDL
MODEL 6
REMARK VINA RESULT:    -5.585      1.301      2.295
REMARK INTER + INTRA:         -18.595
REMARK INTER:                 -15.686
REMARK INTRA:                  -2.910
REMARK UNBOUND:                -3.868
REMARK SMILES CCCCCCCCCCCCCCCCCCCCCCCCCCCCCC(=O)[O-]
REMARK SMILES IDX 16 1 17 2 18 3 19 4 20 5 21 6 22 7 23 8 24 9 25 10 26 11
REMARK SMILES IDX 27 12 28 13 29 14 30 15 31 16 32 17 15 18 14 19 13 20 12 21
REMARK SMILES IDX 11 22 10 23 9 24 8 25 7 26 6 27 5 28 4 29 3 30 2 31 1 32
REMARK H PARENT
REMARK Flexibility Score: inf
ROOT
ATOM      1  C   UNL     1      89.763 326.326 200.959  1.00  0.00     0.000 C 
ENDROOT
BRANCH   1   2
ATOM      2  C   UNL     1      88.463 326.006 201.716  1.00  0.00     0.000 C 
BRANCH   2   3
ATOM      3  C   UNL     1      88.609 324.790 202.649  1.00  0.00     0.000 C 
BRANCH   3   4
ATOM      4  C   UNL     1      87.806 323.573 202.163  1.00  0.00     0.000 C 
BRANCH   4   5
ATOM      5  C   UNL     1      86.561 323.238 203.008  1.00  0.00     0.000 C 
BRANCH   5   6
ATOM      6  C   UNL     1      86.546 323.914 204.395  1.00  0.00     0.000 C 
BRANCH   6   7
ATOM      7  C   UNL     1      87.181 323.035 205.489  1.00  0.00     0.000 C 
BRANCH   7   8
ATOM      8  C   UNL     1      87.670 323.870 206.691  1.00  0.00     0.000 C 
BRANCH   8   9
ATOM      9  C   UNL     1      87.111 325.302 206.720  1.00  0.00     0.000 C 
BRANCH   9  10
ATOM     10  C   UNL     1      88.200 326.370 206.905  1.00  0.00     0.000 C 
BRANCH  10  11
ATOM     11  C   UNL     1      88.848 326.732 205.564  1.00  0.00     0.000 C 
BRANCH  11  12
ATOM     12  C   UNL     1      90.284 327.233 205.760  1.00  0.00     0.000 C 
BRANCH  12  13
ATOM     13  C   UNL     1      91.062 327.204 204.438  1.00  0.00     0.006 C 
BRANCH  13  14
ATOM     14  C   UNL     1      91.930 325.946 204.336  1.00  0.00     0.053 C 
BRANCH  14  15
ATOM     15  C   UNL     1      92.920 326.077 203.220  1.00  0.00     0.041 C 
ATOM     16  O   UNL     1      92.804 325.372 202.182  1.00  0.00    -0.550 OA
ATOM     17  O   UNL     1      93.959 326.996 203.316  1.00  0.00    -0.550 OA
ENDBRANCH  14  15
ENDBRANCH  13  14
ENDBRANCH  12  13
ENDBRANCH  11  12
ENDBRANCH  10  11
ENDBRANCH   9  10
ENDBRANCH   8   9
ENDBRANCH   7   8
ENDBRANCH   6   7
ENDBRANCH   5   6
ENDBRANCH   4   5
ENDBRANCH   3   4
ENDBRANCH   2   3
ENDBRANCH   1   2
BRANCH   1  18
ATOM     18  C   UNL     1      90.065 325.304 199.850  1.00  0.00     0.000 C 
BRANCH  18  19
ATOM     19  C   UNL     1      88.879 325.086 198.895  1.00  0.00     0.000 C 
BRANCH  19  20
ATOM     20  C   UNL     1      88.543 326.315 198.025  1.00  0.00     0.000 C 
BRANCH  20  21
ATOM     21  C   UNL     1      87.942 325.923 196.667  1.00  0.00     0.000 C 
BRANCH  21  22
ATOM     22  C   UNL     1      88.790 326.471 195.510  1.00  0.00     0.000 C 
BRANCH  22  23
ATOM     23  C   UNL     1      87.960 326.781 194.254  1.00  0.00     0.000 C 
BRANCH  23  24
ATOM     24  C   UNL     1      86.587 326.093 194.261  1.00  0.00    -0.000 C 
BRANCH  24  25
ATOM     25  C   UNL     1      86.516 324.999 193.186  1.00  0.00    -0.000 C 
BRANCH  25  26
ATOM     26  C   UNL     1      87.885 324.718 192.544  1.00  0.00    -0.000 C 
BRANCH  26  27
ATOM     27  C   UNL     1      88.259 323.225 192.595  1.00  0.00    -0.000 C 
BRANCH  27  28
ATOM     28  C   UNL     1      88.151 322.536 191.224  1.00  0.00    -0.000 C 
BRANCH  28  29
ATOM     29  C   UNL     1      88.246 323.531 190.054  1.00  0.00    -0.000 C 
BRANCH  29  30
ATOM     30  C   UNL     1      89.097 322.998 188.885  1.00  0.00    -0.000 C 
BRANCH  30  31
ATOM     31  C   UNL     1      90.036 321.832 189.247  1.00  0.00    -0.003 C 
ATOM     32  C   UNL     1      91.432 321.981 188.642  1.00  0.00     0.004 C 
ENDBRANCH  30  31
ENDBRANCH  29  30
ENDBRANCH  28  29
ENDBRANCH  27  28
ENDBRANCH  26  27
ENDBRANCH  25  26
ENDBRANCH  24  25
ENDBRANCH  23  24
ENDBRANCH  22  23
ENDBRANCH  21  22
ENDBRANCH  20  21
ENDBRANCH  19  20
ENDBRANCH  18  19
ENDBRANCH   1  18
TORSDOF 28
ENDMDL
MODEL 7
REMARK VINA RESULT:    -5.534      2.425      9.687
REMARK INTER + INTRA:         -18.461
REMARK INTER:                 -14.539
REMARK INTRA:                  -3.923
REMARK UNBOUND:                -3.868
REMARK SMILES CCCCCCCCCCCCCCCCCCCCCCCCCCCCCC(=O)[O-]
REMARK SMILES IDX 16 1 17 2 18 3 19 4 20 5 21 6 22 7 23 8 24 9 25 10 26 11
REMARK SMILES IDX 27 12 28 13 29 14 30 15 31 16 32 17 15 18 14 19 13 20 12 21
REMARK SMILES IDX 11 22 10 23 9 24 8 25 7 26 6 27 5 28 4 29 3 30 2 31 1 32
REMARK H PARENT
REMARK Flexibility Score: inf
ROOT
ATOM      1  C   UNL     1      90.036 326.437 201.241  1.00  0.00     0.000 C 
ENDROOT
BRANCH   1   2
ATOM      2  C   UNL     1      88.880 325.923 200.368  1.00  0.00     0.000 C 
BRANCH   2   3
ATOM      3  C   UNL     1      88.933 326.478 198.934  1.00  0.00     0.000 C 
BRANCH   3   4
ATOM      4  C   UNL     1      88.524 325.435 197.881  1.00  0.00     0.000 C 
BRANCH   4   5
ATOM      5  C   UNL     1      87.917 326.020 196.591  1.00  0.00     0.000 C 
BRANCH   5   6
ATOM      6  C   UNL     1      88.960 326.351 195.503  1.00  0.00     0.000 C 
BRANCH   6   7
ATOM      7  C   UNL     1      88.312 326.824 194.188  1.00  0.00     0.000 C 
BRANCH   7   8
ATOM      8  C   UNL     1      86.801 326.515 194.142  1.00  0.00     0.000 C 
BRANCH   8   9
ATOM      9  C   UNL     1      86.454 325.233 193.366  1.00  0.00     0.000 C 
BRANCH   9  10
ATOM     10  C   UNL     1      87.669 324.602 192.670  1.00  0.00     0.000 C 
BRANCH  10  11
ATOM     11  C   UNL     1      87.933 323.188 193.202  1.00  0.00     0.000 C 
BRANCH  11  12
ATOM     12  C   UNL     1      86.986 322.845 194.359  1.00  0.00     0.000 C 
BRANCH  12  13
ATOM     13  C   UNL     1      87.763 322.293 195.560  1.00  0.00     0.006 C 
BRANCH  13  14
ATOM     14  C   UNL     1      89.248 322.661 195.473  1.00  0.00     0.053 C 
BRANCH  14  15
ATOM     15  C   UNL     1      90.103 321.506 195.891  1.00  0.00     0.041 C 
ATOM     16  O   UNL     1      90.390 320.597 195.066  1.00  0.00    -0.550 OA
ATOM     17  O   UNL     1      90.604 321.443 197.187  1.00  0.00    -0.550 OA
ENDBRANCH  14  15
ENDBRANCH  13  14
ENDBRANCH  12  13
ENDBRANCH  11  12
ENDBRANCH  10  11
ENDBRANCH   9  10
ENDBRANCH   8   9
ENDBRANCH   7   8
ENDBRANCH   6   7
ENDBRANCH   5   6
ENDBRANCH   4   5
ENDBRANCH   3   4
ENDBRANCH   2   3
ENDBRANCH   1   2
BRANCH   1  18
ATOM     18  C   UNL     1      89.646 326.563 202.723  1.00  0.00     0.000 C 
BRANCH  18  19
ATOM     19  C   UNL     1      90.756 327.186 203.586  1.00  0.00     0.000 C 
BRANCH  19  20
ATOM     20  C   UNL     1      90.393 327.306 205.081  1.00  0.00     0.000 C 
BRANCH  20  21
ATOM     21  C   UNL     1      88.949 326.869 205.368  1.00  0.00     0.000 C 
BRANCH  21  22
ATOM     22  C   UNL     1      88.767 326.509 206.850  1.00  0.00     0.000 C 
BRANCH  22  23
ATOM     23  C   UNL     1      88.088 325.145 207.055  1.00  0.00     0.000 C 
BRANCH  23  24
ATOM     24  C   UNL     1      86.727 325.044 206.350  1.00  0.00    -0.000 C 
BRANCH  24  25
ATOM     25  C   UNL     1      86.651 323.778 205.485  1.00  0.00    -0.000 C 
BRANCH  25  26
ATOM     26  C   UNL     1      87.806 323.688 204.474  1.00  0.00    -0.000 C 
BRANCH  26  27
ATOM     27  C   UNL     1      87.874 322.314 203.783  1.00  0.00    -0.000 C 
BRANCH  27  28
ATOM     28  C   UNL     1      86.617 321.999 202.956  1.00  0.00    -0.000 C 
BRANCH  28  29
ATOM     29  C   UNL     1      86.540 322.824 201.660  1.00  0.00    -0.000 C 
BRANCH  29  30
ATOM     30  C   UNL     1      86.530 321.947 200.393  1.00  0.00    -0.000 C 
BRANCH  30  31
ATOM     31  C   UNL     1      87.729 322.161 199.449  1.00  0.00    -0.003 C 
ATOM     32  C   UNL     1      89.051 322.340 200.194  1.00  0.00     0.004 C 
ENDBRANCH  30  31
ENDBRANCH  29  30
ENDBRANCH  28  29
ENDBRANCH  27  28
ENDBRANCH  26  27
ENDBRANCH  25  26
ENDBRANCH  24  25
ENDBRANCH  23  24
ENDBRANCH  22  23
ENDBRANCH  21  22
ENDBRANCH  20  21
ENDBRANCH  19  20
ENDBRANCH  18  19
ENDBRANCH   1  18
TORSDOF 28
ENDMDL
MODEL 8
REMARK VINA RESULT:    -5.529      1.384      2.853
REMARK INTER + INTRA:         -18.447
REMARK INTER:                 -14.807
REMARK INTRA:                  -3.640
REMARK UNBOUND:                -3.868
REMARK SMILES CCCCCCCCCCCCCCCCCCCCCCCCCCCCCC(=O)[O-]
REMARK SMILES IDX 16 1 17 2 18 3 19 4 20 5 21 6 22 7 23 8 24 9 25 10 26 11
REMARK SMILES IDX 27 12 28 13 29 14 30 15 31 16 32 17 15 18 14 19 13 20 12 21
REMARK SMILES IDX 11 22 10 23 9 24 8 25 7 26 6 27 5 28 4 29 3 30 2 31 1 32
REMARK H PARENT
REMARK Flexibility Score: inf
ROOT
ATOM      1  C   UNL     1      89.952 324.060 201.650  1.00  0.00     0.000 C 
ENDROOT
BRANCH   1   2
ATOM      2  C   UNL     1      88.588 324.498 202.207  1.00  0.00     0.000 C 
BRANCH   2   3
ATOM      3  C   UNL     1      88.246 323.808 203.538  1.00  0.00     0.000 C 
BRANCH   3   4
ATOM      4  C   UNL     1      86.731 323.699 203.776  1.00  0.00     0.000 C 
BRANCH   4   5
ATOM      5  C   UNL     1      86.295 323.836 205.248  1.00  0.00     0.000 C 
BRANCH   5   6
ATOM      6  C   UNL     1      87.453 324.151 206.217  1.00  0.00     0.000 C 
BRANCH   6   7
ATOM      7  C   UNL     1      87.434 325.611 206.708  1.00  0.00     0.000 C 
BRANCH   7   8
ATOM      8  C   UNL     1      88.779 326.325 206.455  1.00  0.00     0.000 C 
BRANCH   8   9
ATOM      9  C   UNL     1      88.873 326.998 205.075  1.00  0.00     0.000 C 
BRANCH   9  10
ATOM     10  C   UNL     1      90.251 327.620 204.801  1.00  0.00     0.000 C 
BRANCH  10  11
ATOM     11  C   UNL     1      90.752 327.249 203.400  1.00  0.00     0.000 C 
BRANCH  11  12
ATOM     12  C   UNL     1      92.132 326.580 203.465  1.00  0.00     0.000 C 
BRANCH  12  13
ATOM     13  C   UNL     1      92.128 325.406 204.451  1.00  0.00     0.006 C 
BRANCH  13  14
ATOM     14  C   UNL     1      92.934 325.740 205.710  1.00  0.00     0.053 C 
BRANCH  14  15
ATOM     15  C   UNL     1      94.380 325.934 205.374  1.00  0.00     0.041 C 
ATOM     16  O   UNL     1      94.946 327.035 205.613  1.00  0.00    -0.550 OA
ATOM     17  O   UNL     1      95.112 324.891 204.818  1.00  0.00    -0.550 OA
ENDBRANCH  14  15
ENDBRANCH  13  14
ENDBRANCH  12  13
ENDBRANCH  11  12
ENDBRANCH  10  11
ENDBRANCH   9  10
ENDBRANCH   8   9
ENDBRANCH   7   8
ENDBRANCH   6   7
ENDBRANCH   5   6
ENDBRANCH   4   5
ENDBRANCH   3   4
ENDBRANCH   2   3
ENDBRANCH   1   2
BRANCH   1  18
ATOM     18  C   UNL     1      90.378 324.880 200.420  1.00  0.00     0.000 C 
BRANCH  18  19
ATOM     19  C   UNL     1      89.499 326.122 200.193  1.00  0.00     0.000 C 
BRANCH  19  20
ATOM     20  C   UNL     1      88.866 326.191 198.787  1.00  0.00     0.000 C 
BRANCH  20  21
ATOM     21  C   UNL     1      88.870 324.829 198.076  1.00  0.00     0.000 C 
BRANCH  21  22
ATOM     22  C   UNL     1      89.045 325.000 196.561  1.00  0.00     0.000 C 
BRANCH  22  23
ATOM     23  C   UNL     1      88.801 326.441 196.088  1.00  0.00     0.000 C 
BRANCH  23  24
ATOM     24  C   UNL     1      88.499 326.534 194.585  1.00  0.00    -0.000 C 
BRANCH  24  25
ATOM     25  C   UNL     1      87.055 326.995 194.344  1.00  0.00    -0.000 C 
BRANCH  25  26
ATOM     26  C   UNL     1      86.035 325.863 194.548  1.00  0.00    -0.000 C 
BRANCH  26  27
ATOM     27  C   UNL     1      86.092 324.814 193.422  1.00  0.00    -0.000 C 
BRANCH  27  28
ATOM     28  C   UNL     1      86.789 323.513 193.852  1.00  0.00    -0.000 C 
BRANCH  28  29
ATOM     29  C   UNL     1      88.061 323.226 193.035  1.00  0.00    -0.000 C 
BRANCH  29  30
ATOM     30  C   UNL     1      87.999 323.807 191.609  1.00  0.00    -0.000 C 
BRANCH  30  31
ATOM     31  C   UNL     1      88.488 322.856 190.501  1.00  0.00    -0.003 C 
ATOM     32  C   UNL     1      88.676 323.555 189.154  1.00  0.00     0.004 C 
ENDBRANCH  30  31
ENDBRANCH  29  30
ENDBRANCH  28  29
ENDBRANCH  27  28
ENDBRANCH  26  27
ENDBRANCH  25  26
ENDBRANCH  24  25
ENDBRANCH  23  24
ENDBRANCH  22  23
ENDBRANCH  21  22
ENDBRANCH  20  21
ENDBRANCH  19  20
ENDBRANCH  18  19
ENDBRANCH   1  18
TORSDOF 28
ENDMDL
MODEL 9
REMARK VINA RESULT:    -5.529      1.651      3.683
REMARK INTER + INTRA:         -18.447
REMARK INTER:                 -15.254
REMARK INTRA:                  -3.192
REMARK UNBOUND:                -3.868
REMARK SMILES CCCCCCCCCCCCCCCCCCCCCCCCCCCCCC(=O)[O-]
REMARK SMILES IDX 16 1 17 2 18 3 19 4 20 5 21 6 22 7 23 8 24 9 25 10 26 11
REMARK SMILES IDX 27 12 28 13 29 14 30 15 31 16 32 17 15 18 14 19 13 20 12 21
REMARK SMILES IDX 11 22 10 23 9 24 8 25 7 26 6 27 5 28 4 29 3 30 2 31 1 32
REMARK H PARENT
REMARK Flexibility Score: inf
ROOT
ATOM      1  C   UNL     1      89.309 324.752 197.102  1.00  0.00     0.000 C 
ENDROOT
BRANCH   1   2
ATOM      2  C   UNL     1      88.590 324.488 198.435  1.00  0.00     0.000 C 
BRANCH   2   3
ATOM      3  C   UNL     1      89.491 324.754 199.653  1.00  0.00     0.000 C 
BRANCH   3   4
ATOM      4  C   UNL     1      89.186 326.099 200.332  1.00  0.00     0.000 C 
BRANCH   4   5
ATOM      5  C   UNL     1      88.585 325.989 201.747  1.00  0.00     0.000 C 
BRANCH   5   6
ATOM      6  C   UNL     1      88.518 324.545 202.288  1.00  0.00     0.000 C 
BRANCH   6   7
ATOM      7  C   UNL     1      87.118 324.174 202.812  1.00  0.00     0.000 C 
BRANCH   7   8
ATOM      8  C   UNL     1      87.081 322.751 203.409  1.00  0.00     0.000 C 
BRANCH   8   9
ATOM      9  C   UNL     1      86.714 322.715 204.903  1.00  0.00     0.000 C 
BRANCH   9  10
ATOM     10  C   UNL     1      86.452 324.109 205.493  1.00  0.00     0.000 C 
BRANCH  10  11
ATOM     11  C   UNL     1      87.419 324.409 206.644  1.00  0.00     0.000 C 
BRANCH  11  12
ATOM     12  C   UNL     1      87.537 325.919 206.889  1.00  0.00     0.000 C 
BRANCH  12  13
ATOM     13  C   UNL     1      88.972 326.404 206.649  1.00  0.00     0.006 C 
BRANCH  13  14
ATOM     14  C   UNL     1      89.101 327.093 205.287  1.00  0.00     0.053 C 
BRANCH  14  15
ATOM     15  C   UNL     1      90.524 327.477 205.022  1.00  0.00     0.041 C 
ATOM     16  O   UNL     1      90.944 327.581 203.838  1.00  0.00    -0.550 OA
ATOM     17  O   UNL     1      91.382 327.743 206.083  1.00  0.00    -0.550 OA
ENDBRANCH  14  15
ENDBRANCH  13  14
ENDBRANCH  12  13
ENDBRANCH  11  12
ENDBRANCH  10  11
ENDBRANCH   9  10
ENDBRANCH   8   9
ENDBRANCH   7   8
ENDBRANCH   6   7
ENDBRANCH   5   6
ENDBRANCH   4   5
ENDBRANCH   3   4
ENDBRANCH   2   3
ENDBRANCH   1   2
BRANCH   1  18
ATOM     18  C   UNL     1      88.814 326.033 196.409  1.00  0.00     0.000 C 
BRANCH  18  19
ATOM     19  C   UNL     1      87.280 326.115 196.325  1.00  0.00     0.000 C 
BRANCH  19  20
ATOM     20  C   UNL     1      86.746 326.401 194.906  1.00  0.00     0.000 C 
BRANCH  20  21
ATOM     21  C   UNL     1      87.876 326.538 193.873  1.00  0.00     0.000 C 
BRANCH  21  22
ATOM     22  C   UNL     1      87.837 325.387 192.858  1.00  0.00     0.000 C 
BRANCH  22  23
ATOM     23  C   UNL     1      87.381 324.057 193.479  1.00  0.00     0.000 C 
BRANCH  23  24
ATOM     24  C   UNL     1      88.548 323.098 193.759  1.00  0.00    -0.000 C 
BRANCH  24  25
ATOM     25  C   UNL     1      88.487 321.874 192.835  1.00  0.00    -0.000 C 
BRANCH  25  26
ATOM     26  C   UNL     1      87.087 321.238 192.797  1.00  0.00    -0.000 C 
BRANCH  26  27
ATOM     27  C   UNL     1      86.779 320.581 191.439  1.00  0.00    -0.000 C 
BRANCH  27  28
ATOM     28  C   UNL     1      87.974 320.623 190.471  1.00  0.00    -0.000 C 
BRANCH  28  29
ATOM     29  C   UNL     1      87.598 321.191 189.092  1.00  0.00    -0.000 C 
BRANCH  29  30
ATOM     30  C   UNL     1      87.477 322.727 189.091  1.00  0.00    -0.000 C 
BRANCH  30  31
ATOM     31  C   UNL     1      88.743 323.476 189.551  1.00  0.00    -0.003 C 
ATOM     32  C   UNL     1      89.982 323.109 188.735  1.00  0.00     0.004 C 
ENDBRANCH  30  31
ENDBRANCH  29  30
ENDBRANCH  28  29
ENDBRANCH  27  28
ENDBRANCH  26  27
ENDBRANCH  25  26
ENDBRANCH  24  25
ENDBRANCH  23  24
ENDBRANCH  22  23
ENDBRANCH  21  22
ENDBRANCH  20  21
ENDBRANCH  19  20
ENDBRANCH  18  19
ENDBRANCH   1  18
TORSDOF 28
ENDMDL
