MODEL 1
REMARK VINA RESULT:    -4.315      0.000      0.000
REMARK INTER + INTRA:          -5.085
REMARK INTER:                  -4.946
REMARK INTRA:                  -0.139
REMARK UNBOUND:                -0.139
REMARK SMILES O=C([O-])C=Cc1ccc(O)cc1
REMARK SMILES IDX 6 1 7 2 12 3 8 4 11 5 9 6 5 7 4 8 2 9 1 10 3 11 10 12
REMARK H PARENT 10 13
REMARK Flexibility Score: inf
ROOT
ATOM      1  C   UNL     1      28.356  32.213  23.861  1.00  0.00    -0.025 A 
ATOM      2  C   UNL     1      27.944  33.546  24.060  1.00  0.00     0.012 A 
ATOM      3  C   UNL     1      28.896  31.850  22.614  1.00  0.00     0.012 A 
ATOM      4  C   UNL     1      28.093  34.493  23.042  1.00  0.00     0.047 A 
ATOM      5  C   UNL     1      29.044  32.800  21.599  1.00  0.00     0.047 A 
ATOM      6  C   UNL     1      28.645  34.125  21.812  1.00  0.00     0.115 A 
ENDROOT
BRANCH   1   7
ATOM      7  C   UNL     1      28.210  31.166  24.903  1.00  0.00     0.010 C 
ATOM      8  C   UNL     1      27.215  30.269  24.923  1.00  0.00     0.025 C 
BRANCH   8   9
ATOM      9  C   UNL     1      27.103  29.256  25.983  1.00  0.00     0.064 C 
ATOM     10  O   UNL     1      28.146  28.804  26.524  1.00  0.00    -0.545 OA
ATOM     11  O   UNL     1      25.862  28.789  26.402  1.00  0.00    -0.545 OA
ENDBRANCH   8   9
ENDBRANCH   1   7
BRANCH   6  12
ATOM     12  O   UNL     1      28.788  35.079  20.807  1.00  0.00    -0.508 OA
ATOM     13  H   UNL     1      29.507  35.791  20.852  1.00  0.00     0.293 HD
ENDBRANCH   6  12
TORSDOF 3
ENDMDL
MODEL 2
REMARK VINA RESULT:    -4.307      0.189      1.410
REMARK INTER + INTRA:          -5.075
REMARK INTER:                  -4.940
REMARK INTRA:                  -0.135
REMARK UNBOUND:                -0.139
REMARK SMILES O=C([O-])C=Cc1ccc(O)cc1
REMARK SMILES IDX 6 1 7 2 12 3 8 4 11 5 9 6 5 7 4 8 2 9 1 10 3 11 10 12
REMARK H PARENT 10 13
REMARK Flexibility Score: inf
ROOT
ATOM      1  C   UNL     1      28.359  31.998  23.846  1.00  0.00    -0.025 A 
ATOM      2  C   UNL     1      28.926  31.695  22.591  1.00  0.00     0.012 A 
ATOM      3  C   UNL     1      27.985  33.326  24.117  1.00  0.00     0.012 A 
ATOM      4  C   UNL     1      29.090  32.695  21.628  1.00  0.00     0.047 A 
ATOM      5  C   UNL     1      28.150  34.323  23.151  1.00  0.00     0.047 A 
ATOM      6  C   UNL     1      28.701  34.009  21.903  1.00  0.00     0.115 A 
ENDROOT
BRANCH   1   7
ATOM      7  C   UNL     1      28.174  30.978  24.907  1.00  0.00     0.010 C 
ATOM      8  C   UNL     1      27.129  30.139  24.961  1.00  0.00     0.025 C 
BRANCH   8   9
ATOM      9  C   UNL     1      26.981  29.150  26.039  1.00  0.00     0.064 C 
ATOM     10  O   UNL     1      28.003  28.599  26.522  1.00  0.00    -0.545 OA
ATOM     11  O   UNL     1      25.726  28.815  26.537  1.00  0.00    -0.545 OA
ENDBRANCH   8   9
ENDBRANCH   1   7
BRANCH   6  12
ATOM     12  O   UNL     1      28.869  34.995  20.932  1.00  0.00    -0.508 OA
ATOM     13  H   UNL     1      29.680  35.601  20.929  1.00  0.00     0.293 HD
ENDBRANCH   6  12
TORSDOF 3
ENDMDL
MODEL 3
REMARK VINA RESULT:    -4.049      1.426      5.995
REMARK INTER + INTRA:          -4.779
REMARK INTER:                  -4.637
REMARK INTRA:                  -0.143
REMARK UNBOUND:                -0.139
REMARK SMILES O=C([O-])C=Cc1ccc(O)cc1
REMARK SMILES IDX 6 1 7 2 12 3 8 4 11 5 9 6 5 7 4 8 2 9 1 10 3 11 10 12
REMARK H PARENT 10 13
REMARK Flexibility Score: inf
ROOT
ATOM      1  C   UNL     1      28.667  31.966  23.035  1.00  0.00    -0.025 A 
ATOM      2  C   UNL     1      29.125  30.791  22.403  1.00  0.00     0.012 A 
ATOM      3  C   UNL     1      28.036  31.859  24.287  1.00  0.00     0.012 A 
ATOM      4  C   UNL     1      28.973  29.548  23.024  1.00  0.00     0.047 A 
ATOM      5  C   UNL     1      27.888  30.614  24.905  1.00  0.00     0.047 A 
ATOM      6  C   UNL     1      28.358  29.455  24.275  1.00  0.00     0.115 A 
ENDROOT
BRANCH   1   7
ATOM      7  C   UNL     1      28.792  33.308  22.415  1.00  0.00     0.010 C 
ATOM      8  C   UNL     1      28.662  33.537  21.101  1.00  0.00     0.025 C 
BRANCH   8   9
ATOM      9  C   UNL     1      28.805  34.884  20.529  1.00  0.00     0.064 C 
ATOM     10  O   UNL     1      29.105  35.849  21.278  1.00  0.00    -0.545 OA
ATOM     11  O   UNL     1      28.618  35.110  19.169  1.00  0.00    -0.545 OA
ENDBRANCH   8   9
ENDBRANCH   1   7
BRANCH   6  12
ATOM     12  O   UNL     1      28.216  28.209  24.883  1.00  0.00    -0.508 OA
ATOM     13  H   UNL     1      28.999  27.574  24.977  1.00  0.00     0.293 HD
ENDBRANCH   6  12
TORSDOF 3
ENDMDL
MODEL 4
REMARK VINA RESULT:    -4.034      1.975      2.595
REMARK INTER + INTRA:          -4.762
REMARK INTER:                  -4.617
REMARK INTRA:                  -0.145
REMARK UNBOUND:                -0.139
REMARK SMILES O=C([O-])C=Cc1ccc(O)cc1
REMARK SMILES IDX 6 1 7 2 12 3 8 4 11 5 9 6 5 7 4 8 2 9 1 10 3 11 10 12
REMARK H PARENT 10 13
REMARK Flexibility Score: inf
ROOT
ATOM      1  C   UNL     1      28.469  29.691  24.117  1.00  0.00    -0.025 A 
ATOM      2  C   UNL     1      27.947  30.777  24.848  1.00  0.00     0.012 A 
ATOM      3  C   UNL     1      29.048  29.937  22.860  1.00  0.00     0.012 A 
ATOM      4  C   UNL     1      28.025  32.077  24.339  1.00  0.00     0.047 A 
ATOM      5  C   UNL     1      29.125  31.238  22.354  1.00  0.00     0.047 A 
ATOM      6  C   UNL     1      28.616  32.312  23.094  1.00  0.00     0.115 A 
ENDROOT
BRANCH   1   7
ATOM      7  C   UNL     1      28.402  28.291  24.606  1.00  0.00     0.010 C 
ATOM      8  C   UNL     1      27.639  27.897  25.636  1.00  0.00     0.025 C 
BRANCH   8   9
ATOM      9  C   UNL     1      27.612  26.500  26.094  1.00  0.00     0.064 C 
ATOM     10  O   UNL     1      28.488  25.695  25.685  1.00  0.00    -0.545 OA
ATOM     11  O   UNL     1      26.634  26.053  26.976  1.00  0.00    -0.545 OA
ENDBRANCH   8   9
ENDBRANCH   1   7
BRANCH   6  12
ATOM     12  O   UNL     1      28.688  33.612  22.600  1.00  0.00    -0.508 OA
ATOM     13  H   UNL     1      28.788  34.409  23.218  1.00  0.00     0.293 HD
ENDBRANCH   6  12
TORSDOF 3
ENDMDL
MODEL 5
REMARK VINA RESULT:    -4.002      2.311      6.751
REMARK INTER + INTRA:          -4.726
REMARK INTER:                  -4.578
REMARK INTRA:                  -0.148
REMARK UNBOUND:                -0.139
REMARK SMILES O=C([O-])C=Cc1ccc(O)cc1
REMARK SMILES IDX 6 1 7 2 12 3 8 4 11 5 9 6 5 7 4 8 2 9 1 10 3 11 10 12
REMARK H PARENT 10 13
REMARK Flexibility Score: inf
ROOT
ATOM      1  C   UNL     1      28.425  34.299  21.746  1.00  0.00    -0.025 A 
ATOM      2  C   UNL     1      28.837  32.960  21.586  1.00  0.00     0.012 A 
ATOM      3  C   UNL     1      27.953  34.717  23.002  1.00  0.00     0.012 A 
ATOM      4  C   UNL     1      28.799  32.074  22.668  1.00  0.00     0.047 A 
ATOM      5  C   UNL     1      27.918  33.828  24.081  1.00  0.00     0.047 A 
ATOM      6  C   UNL     1      28.343  32.505  23.916  1.00  0.00     0.115 A 
ENDROOT
BRANCH   1   7
ATOM      7  C   UNL     1      28.434  35.276  20.629  1.00  0.00     0.010 C 
ATOM      8  C   UNL     1      27.492  36.213  20.451  1.00  0.00     0.025 C 
BRANCH   8   9
ATOM      9  C   UNL     1      27.536  37.155  19.323  1.00  0.00     0.064 C 
ATOM     10  O   UNL     1      28.625  37.702  19.012  1.00  0.00    -0.545 OA
ATOM     11  O   UNL     1      26.392  37.450  18.590  1.00  0.00    -0.545 OA
ENDBRANCH   8   9
ENDBRANCH   1   7
BRANCH   6  12
ATOM     12  O   UNL     1      28.312  31.611  24.984  1.00  0.00    -0.508 OA
ATOM     13  H   UNL     1      27.471  31.097  25.221  1.00  0.00     0.293 HD
ENDBRANCH   6  12
TORSDOF 3
ENDMDL
MODEL 6
REMARK VINA RESULT:    -3.955      7.192      9.496
REMARK INTER + INTRA:          -4.672
REMARK INTER:                  -4.522
REMARK INTRA:                  -0.150
REMARK UNBOUND:                -0.139
REMARK SMILES O=C([O-])C=Cc1ccc(O)cc1
REMARK SMILES IDX 6 1 7 2 12 3 8 4 11 5 9 6 5 7 4 8 2 9 1 10 3 11 10 12
REMARK H PARENT 10 13
REMARK Flexibility Score: inf
ROOT
ATOM      1  C   UNL     1      26.504  40.896  20.504  1.00  0.00    -0.025 A 
ATOM      2  C   UNL     1      26.264  42.227  20.904  1.00  0.00     0.012 A 
ATOM      3  C   UNL     1      27.246  40.665  19.332  1.00  0.00     0.012 A 
ATOM      4  C   UNL     1      26.776  43.293  20.160  1.00  0.00     0.047 A 
ATOM      5  C   UNL     1      27.758  41.735  18.592  1.00  0.00     0.047 A 
ATOM      6  C   UNL     1      27.526  43.052  19.006  1.00  0.00     0.115 A 
ENDROOT
BRANCH   1   7
ATOM      7  C   UNL     1      25.974  39.728  21.250  1.00  0.00     0.010 C 
ATOM      8  C   UNL     1      25.861  38.499  20.728  1.00  0.00     0.025 C 
BRANCH   8   9
ATOM      9  C   UNL     1      25.318  37.372  21.502  1.00  0.00     0.064 C 
ATOM     10  O   UNL     1      24.107  37.057  21.375  1.00  0.00    -0.545 OA
ATOM     11  O   UNL     1      26.124  36.645  22.371  1.00  0.00    -0.545 OA
ENDBRANCH   8   9
ENDBRANCH   1   7
BRANCH   6  12
ATOM     12  O   UNL     1      28.032  44.125  18.275  1.00  0.00    -0.508 OA
ATOM     13  H   UNL     1      28.109  45.051  18.679  1.00  0.00     0.293 HD
ENDBRANCH   6  12
TORSDOF 3
ENDMDL
MODEL 7
REMARK VINA RESULT:    -3.944      7.358      9.616
REMARK INTER + INTRA:          -4.659
REMARK INTER:                  -4.521
REMARK INTRA:                  -0.138
REMARK UNBOUND:                -0.139
REMARK SMILES O=C([O-])C=Cc1ccc(O)cc1
REMARK SMILES IDX 6 1 7 2 12 3 8 4 11 5 9 6 5 7 4 8 2 9 1 10 3 11 10 12
REMARK H PARENT 10 13
REMARK Flexibility Score: inf
ROOT
ATOM      1  C   UNL     1      27.785  39.851  18.710  1.00  0.00    -0.025 A 
ATOM      2  C   UNL     1      28.811  40.154  17.791  1.00  0.00     0.012 A 
ATOM      3  C   UNL     1      27.103  40.908  19.336  1.00  0.00     0.012 A 
ATOM      4  C   UNL     1      29.125  41.483  17.493  1.00  0.00     0.047 A 
ATOM      5  C   UNL     1      27.419  42.236  19.034  1.00  0.00     0.047 A 
ATOM      6  C   UNL     1      28.430  42.527  18.110  1.00  0.00     0.115 A 
ENDROOT
BRANCH   1   7
ATOM      7  C   UNL     1      27.420  38.458  19.070  1.00  0.00     0.010 C 
ATOM      8  C   UNL     1      26.324  37.834  18.617  1.00  0.00     0.025 C 
BRANCH   8   9
ATOM      9  C   UNL     1      25.995  36.456  19.010  1.00  0.00     0.064 C 
ATOM     10  O   UNL     1      26.915  35.674  19.362  1.00  0.00    -0.545 OA
ATOM     11  O   UNL     1      24.681  36.002  19.003  1.00  0.00    -0.545 OA
ENDBRANCH   8   9
ENDBRANCH   1   7
BRANCH   6  12
ATOM     12  O   UNL     1      28.753  43.846  17.802  1.00  0.00    -0.508 OA
ATOM     13  H   UNL     1      29.101  44.485  18.508  1.00  0.00     0.293 HD
ENDBRANCH   6  12
TORSDOF 3
ENDMDL
MODEL 8
REMARK VINA RESULT:    -3.918      1.813      6.036
REMARK INTER + INTRA:          -4.629
REMARK INTER:                  -4.481
REMARK INTRA:                  -0.148
REMARK UNBOUND:                -0.139
REMARK SMILES O=C([O-])C=Cc1ccc(O)cc1
REMARK SMILES IDX 6 1 7 2 12 3 8 4 11 5 9 6 5 7 4 8 2 9 1 10 3 11 10 12
REMARK H PARENT 10 13
REMARK Flexibility Score: inf
ROOT
ATOM      1  C   UNL     1      28.042  29.896  24.577  1.00  0.00    -0.025 A 
ATOM      2  C   UNL     1      28.841  28.736  24.516  1.00  0.00     0.012 A 
ATOM      3  C   UNL     1      26.859  29.865  25.337  1.00  0.00     0.012 A 
ATOM      4  C   UNL     1      28.472  27.585  25.218  1.00  0.00     0.047 A 
ATOM      5  C   UNL     1      26.495  28.711  26.038  1.00  0.00     0.047 A 
ATOM      6  C   UNL     1      27.302  27.569  25.981  1.00  0.00     0.115 A 
ENDROOT
BRANCH   1   7
ATOM      7  C   UNL     1      28.381  31.140  23.843  1.00  0.00     0.010 C 
ATOM      8  C   UNL     1      28.048  32.369  24.264  1.00  0.00     0.025 C 
BRANCH   8   9
ATOM      9  C   UNL     1      28.396  33.574  23.497  1.00  0.00     0.064 C 
ATOM     10  O   UNL     1      28.691  34.635  24.106  1.00  0.00    -0.545 OA
ATOM     11  O   UNL     1      28.407  33.562  22.107  1.00  0.00    -0.545 OA
ENDBRANCH   8   9
ENDBRANCH   1   7
BRANCH   6  12
ATOM     12  O   UNL     1      26.948  26.415  26.677  1.00  0.00    -0.508 OA
ATOM     13  H   UNL     1      26.070  25.940  26.503  1.00  0.00     0.293 HD
ENDBRANCH   6  12
TORSDOF 3
ENDMDL
MODEL 9
REMARK VINA RESULT:    -3.864      7.218      9.395
REMARK INTER + INTRA:          -4.568
REMARK INTER:                  -4.426
REMARK INTRA:                  -0.142
REMARK UNBOUND:                -0.139
REMARK SMILES O=C([O-])C=Cc1ccc(O)cc1
REMARK SMILES IDX 6 1 7 2 12 3 8 4 11 5 9 6 5 7 4 8 2 9 1 10 3 11 10 12
REMARK H PARENT 10 13
REMARK Flexibility Score: inf
ROOT
ATOM      1  C   UNL     1      26.695  40.186  19.830  1.00  0.00    -0.025 A 
ATOM      2  C   UNL     1      26.167  40.475  21.105  1.00  0.00     0.012 A 
ATOM      3  C   UNL     1      27.247  41.234  19.072  1.00  0.00     0.012 A 
ATOM      4  C   UNL     1      26.213  41.777  21.612  1.00  0.00     0.047 A 
ATOM      5  C   UNL     1      27.292  42.534  19.584  1.00  0.00     0.047 A 
ATOM      6  C   UNL     1      26.777  42.808  20.856  1.00  0.00     0.115 A 
ENDROOT
BRANCH   1   7
ATOM      7  C   UNL     1      26.661  38.824  19.240  1.00  0.00     0.010 C 
ATOM      8  C   UNL     1      26.136  37.757  19.858  1.00  0.00     0.025 C 
BRANCH   8   9
ATOM      9  C   UNL     1      26.134  36.423  19.239  1.00  0.00     0.064 C 
ATOM     10  O   UNL     1      27.164  35.705  19.307  1.00  0.00    -0.545 OA
ATOM     11  O   UNL     1      25.008  35.939  18.582  1.00  0.00    -0.545 OA
ENDBRANCH   8   9
ENDBRANCH   1   7
BRANCH   6  12
ATOM     12  O   UNL     1      26.818  44.100  21.375  1.00  0.00    -0.508 OA
ATOM     13  H   UNL     1      27.478  44.360  22.098  1.00  0.00     0.293 HD
ENDBRANCH   6  12
TORSDOF 3
ENDMDL
