MODEL 1
REMARK VINA RESULT:    -3.036      0.000      0.000
REMARK INTER + INTRA:          -4.208
REMARK INTER:                  -4.189
REMARK INTRA:                  -0.018
REMARK UNBOUND:                -0.018
REMARK SMILES CC[C@@H](CC[C@H](C)[C@H]1CC[C@H]2[C@@H]3CC=C4C[C@H](O)CC[C@@]4(C)[C@H]3CC[C@]12C)C(C)C
REMARK SMILES IDX 5 1 4 2 3 3 2 4 1 5 28 6 29 7 30 8 6 9 7 10 8 11 9 12 26 13
REMARK SMILES IDX 10 14 11 15 25 16 27 17 12 18 24 19 23 20 13 21 21 22 14 23
REMARK SMILES IDX 15 24 20 25 22 26 16 27 19 28 17 29 18 30
REMARK H PARENT 18 31
REMARK Flexibility Score: inf
ROOT
ATOM      1  C   UNL     1     -10.214  -7.556  18.967  1.00  0.00     0.004 C 
ENDROOT
BRANCH   1   2
ATOM      2  C   UNL     1      -8.991  -7.959  19.843  1.00  0.00     0.004 C 
BRANCH   2   3
ATOM      3  C   UNL     1      -9.117  -7.858  21.398  1.00  0.00    -0.009 C 
BRANCH   3   4
ATOM      4  C   UNL     1     -10.397  -7.072  21.808  1.00  0.00     0.000 C 
ATOM      5  C   UNL     1     -11.618  -7.974  22.017  1.00  0.00     0.004 C 
ENDBRANCH   3   4
BRANCH   3   6
ATOM      6  C   UNL     1      -7.818  -7.363  22.124  1.00  0.00    -0.014 C 
ATOM      7  C   UNL     1      -6.557  -8.096  21.633  1.00  0.00     0.007 C 
ATOM      8  C   UNL     1      -7.600  -5.850  21.932  1.00  0.00     0.007 C 
ENDBRANCH   3   6
ENDBRANCH   2   3
ENDBRANCH   1   2
BRANCH   1   9
ATOM      9  C   UNL     1     -10.137  -6.255  18.119  1.00  0.00    -0.011 C 
ATOM     10  C   UNL     1     -11.375  -6.099  17.210  1.00  0.00     0.008 C 
BRANCH   9  11
ATOM     11  C   UNL     1      -8.801  -6.035  17.323  1.00  0.00    -0.002 C 
ATOM     12  C   UNL     1      -8.979  -5.004  16.172  1.00  0.00     0.005 C 
ATOM     13  C   UNL     1      -7.553  -5.498  18.094  1.00  0.00    -0.026 C 
ATOM     14  C   UNL     1      -7.643  -4.268  16.005  1.00  0.00     0.005 C 
ATOM     15  C   UNL     1      -6.688  -5.022  16.914  1.00  0.00    -0.001 C 
ATOM     16  C   UNL     1      -6.716  -6.562  18.847  1.00  0.00     0.007 C 
ATOM     17  C   UNL     1      -7.963  -4.337  19.059  1.00  0.00     0.012 C 
ATOM     18  C   UNL     1      -5.380  -4.319  17.346  1.00  0.00     0.000 C 
ATOM     19  C   UNL     1      -5.372  -5.977  19.337  1.00  0.00     0.005 C 
ATOM     20  C   UNL     1      -4.534  -5.305  18.201  1.00  0.00     0.003 C 
ATOM     21  C   UNL     1      -4.556  -3.925  16.113  1.00  0.00     0.031 C 
ATOM     22  C   UNL     1      -3.174  -4.649  18.691  1.00  0.00    -0.008 C 
ATOM     23  C   UNL     1      -3.244  -3.328  16.517  1.00  0.00    -0.027 C 
ATOM     24  C   UNL     1      -2.592  -3.671  17.649  1.00  0.00    -0.065 C 
ATOM     25  C   UNL     1      -3.369  -3.843  20.017  1.00  0.00     0.014 C 
ATOM     26  C   UNL     1      -2.151  -5.792  18.923  1.00  0.00     0.016 C 
ATOM     27  C   UNL     1      -1.357  -2.883  18.033  1.00  0.00     0.063 C 
ATOM     28  C   UNL     1      -2.139  -3.014  20.441  1.00  0.00     0.033 C 
ATOM     29  C   UNL     1      -1.651  -2.088  19.314  1.00  0.00     0.118 C 
BRANCH  29  30
ATOM     30  O   UNL     1      -0.519  -1.365  19.725  1.00  0.00    -0.393 OA
ATOM     31  H   UNL     1       0.258  -1.985  19.712  1.00  0.00     0.210 HD
ENDBRANCH  29  30
ENDBRANCH   9  11
ENDBRANCH   1   9
TORSDOF 7
ENDMDL
MODEL 2
REMARK VINA RESULT:    -1.625      2.957      6.785
REMARK INTER + INTRA:          -2.260
REMARK INTER:                  -3.445
REMARK INTRA:                   1.185
REMARK UNBOUND:                -0.018
REMARK SMILES CC[C@@H](CC[C@H](C)[C@H]1CC[C@H]2[C@@H]3CC=C4C[C@H](O)CC[C@@]4(C)[C@H]3CC[C@]12C)C(C)C
REMARK SMILES IDX 5 1 4 2 3 3 2 4 1 5 28 6 29 7 30 8 6 9 7 10 8 11 9 12 26 13
REMARK SMILES IDX 10 14 11 15 25 16 27 17 12 18 24 19 23 20 13 21 21 22 14 23
REMARK SMILES IDX 15 24 20 25 22 26 16 27 19 28 17 29 18 30
REMARK H PARENT 18 31
REMARK Flexibility Score: inf
ROOT
ATOM      1  C   UNL     1      -1.740  -5.188  18.751  1.00  0.00     0.004 C 
ENDROOT
BRANCH   1   2
ATOM      2  C   UNL     1      -1.657  -5.135  20.305  1.00  0.00     0.004 C 
BRANCH   2   3
ATOM      3  C   UNL     1      -2.709  -5.935  21.140  1.00  0.00    -0.009 C 
BRANCH   3   4
ATOM      4  C   UNL     1      -3.505  -6.925  20.238  1.00  0.00     0.000 C 
ATOM      5  C   UNL     1      -4.184  -8.048  21.029  1.00  0.00     0.004 C 
ENDBRANCH   3   4
BRANCH   3   6
ATOM      6  C   UNL     1      -3.622  -5.048  22.055  1.00  0.00    -0.014 C 
ATOM      7  C   UNL     1      -3.686  -3.586  21.578  1.00  0.00     0.007 C 
ATOM      8  C   UNL     1      -5.061  -5.594  22.125  1.00  0.00     0.007 C 
ENDBRANCH   3   6
ENDBRANCH   2   3
ENDBRANCH   1   2
BRANCH   1   9
ATOM      9  C   UNL     1      -1.733  -3.855  17.950  1.00  0.00    -0.011 C 
ATOM     10  C   UNL     1      -1.092  -2.710  18.763  1.00  0.00     0.008 C 
BRANCH   9  11
ATOM     11  C   UNL     1      -3.108  -3.424  17.325  1.00  0.00    -0.002 C 
ATOM     12  C   UNL     1      -3.121  -3.605  15.781  1.00  0.00     0.005 C 
ATOM     13  C   UNL     1      -4.401  -4.170  17.783  1.00  0.00    -0.026 C 
ATOM     14  C   UNL     1      -4.558  -3.956  15.372  1.00  0.00     0.005 C 
ATOM     15  C   UNL     1      -5.361  -3.774  16.648  1.00  0.00    -0.001 C 
ATOM     16  C   UNL     1      -5.046  -3.659  19.097  1.00  0.00     0.007 C 
ATOM     17  C   UNL     1      -4.148  -5.711  17.859  1.00  0.00     0.012 C 
ATOM     18  C   UNL     1      -6.749  -4.449  16.742  1.00  0.00     0.000 C 
ATOM     19  C   UNL     1      -6.449  -4.269  19.310  1.00  0.00     0.005 C 
ATOM     20  C   UNL     1      -7.411  -4.060  18.095  1.00  0.00     0.003 C 
ATOM     21  C   UNL     1      -7.657  -3.960  15.606  1.00  0.00     0.031 C 
ATOM     22  C   UNL     1      -8.841  -4.726  18.269  1.00  0.00    -0.008 C 
ATOM     23  C   UNL     1      -9.033  -4.534  15.738  1.00  0.00    -0.027 C 
ATOM     24  C   UNL     1      -9.594  -4.844  16.927  1.00  0.00    -0.065 C 
ATOM     25  C   UNL     1      -8.735  -6.167  18.865  1.00  0.00     0.014 C 
ATOM     26  C   UNL     1      -9.670  -3.827  19.224  1.00  0.00     0.016 C 
ATOM     27  C   UNL     1     -10.924  -5.569  16.926  1.00  0.00     0.063 C 
ATOM     28  C   UNL     1     -10.066  -6.949  18.872  1.00  0.00     0.033 C 
ATOM     29  C   UNL     1     -10.720  -6.987  17.481  1.00  0.00     0.118 C 
BRANCH  29  30
ATOM     30  O   UNL     1     -11.938  -7.686  17.527  1.00  0.00    -0.393 OA
ATOM     31  H   UNL     1     -12.670  -7.016  17.571  1.00  0.00     0.210 HD
ENDBRANCH  29  30
ENDBRANCH   9  11
ENDBRANCH   1   9
TORSDOF 7
ENDMDL
MODEL 3
REMARK VINA RESULT:    -0.999      0.981      2.009
REMARK INTER + INTRA:          -1.397
REMARK INTER:                  -1.007
REMARK INTRA:                  -0.389
REMARK UNBOUND:                -0.018
REMARK SMILES CC[C@@H](CC[C@H](C)[C@H]1CC[C@H]2[C@@H]3CC=C4C[C@H](O)CC[C@@]4(C)[C@H]3CC[C@]12C)C(C)C
REMARK SMILES IDX 5 1 4 2 3 3 2 4 1 5 28 6 29 7 30 8 6 9 7 10 8 11 9 12 26 13
REMARK SMILES IDX 10 14 11 15 25 16 27 17 12 18 24 19 23 20 13 21 21 22 14 23
REMARK SMILES IDX 15 24 20 25 22 26 16 27 19 28 17 29 18 30
REMARK H PARENT 18 31
REMARK Flexibility Score: inf
ROOT
ATOM      1  C   UNL     1      -9.555  -5.665  18.993  1.00  0.00     0.004 C 
ENDROOT
BRANCH   1   2
ATOM      2  C   UNL     1      -9.072  -6.989  19.653  1.00  0.00     0.004 C 
BRANCH   2   3
ATOM      3  C   UNL     1      -9.585  -7.342  21.087  1.00  0.00    -0.009 C 
BRANCH   3   4
ATOM      4  C   UNL     1      -8.469  -8.029  21.929  1.00  0.00     0.000 C 
ATOM      5  C   UNL     1      -7.190  -7.190  22.033  1.00  0.00     0.004 C 
ENDBRANCH   3   4
BRANCH   3   6
ATOM      6  C   UNL     1     -10.953  -8.108  21.117  1.00  0.00    -0.014 C 
ATOM      7  C   UNL     1     -11.943  -7.498  22.125  1.00  0.00     0.007 C 
ATOM      8  C   UNL     1     -11.627  -8.125  19.732  1.00  0.00     0.007 C 
ENDBRANCH   3   6
ENDBRANCH   2   3
ENDBRANCH   1   2
BRANCH   1   9
ATOM      9  C   UNL     1      -9.449  -5.510  17.448  1.00  0.00    -0.011 C 
ATOM     10  C   UNL     1     -10.325  -6.548  16.716  1.00  0.00     0.008 C 
BRANCH   9  11
ATOM     11  C   UNL     1      -7.993  -5.462  16.864  1.00  0.00    -0.002 C 
ATOM     12  C   UNL     1      -7.926  -4.631  15.551  1.00  0.00     0.005 C 
ATOM     13  C   UNL     1      -6.858  -4.841  17.738  1.00  0.00    -0.026 C 
ATOM     14  C   UNL     1      -6.542  -3.971  15.496  1.00  0.00     0.005 C 
ATOM     15  C   UNL     1      -5.789  -4.591  16.660  1.00  0.00    -0.001 C 
ATOM     16  C   UNL     1      -6.212  -5.789  18.780  1.00  0.00     0.007 C 
ATOM     17  C   UNL     1      -7.352  -3.526  18.425  1.00  0.00     0.012 C 
ATOM     18  C   UNL     1      -4.531  -3.864  17.188  1.00  0.00     0.000 C 
ATOM     19  C   UNL     1      -4.934  -5.170  19.389  1.00  0.00     0.005 C 
ATOM     20  C   UNL     1      -3.889  -4.718  18.319  1.00  0.00     0.003 C 
ATOM     21  C   UNL     1      -3.498  -3.702  16.065  1.00  0.00     0.031 C 
ATOM     22  C   UNL     1      -2.591  -4.029  18.920  1.00  0.00    -0.008 C 
ATOM     23  C   UNL     1      -2.238  -3.084  16.583  1.00  0.00    -0.027 C 
ATOM     24  C   UNL     1      -1.796  -3.254  17.848  1.00  0.00    -0.065 C 
ATOM     25  C   UNL     1      -2.952  -3.010  20.049  1.00  0.00     0.014 C 
ATOM     26  C   UNL     1      -1.684  -5.147  19.497  1.00  0.00     0.016 C 
ATOM     27  C   UNL     1      -0.597  -2.448  18.304  1.00  0.00     0.063 C 
ATOM     28  C   UNL     1      -1.763  -2.158  20.537  1.00  0.00     0.033 C 
ATOM     29  C   UNL     1      -1.049  -1.445  19.376  1.00  0.00     0.118 C 
BRANCH  29  30
ATOM     30  O   UNL     1       0.040  -0.696  19.851  1.00  0.00    -0.393 OA
ATOM     31  H   UNL     1       0.706  -1.333  20.224  1.00  0.00     0.210 HD
ENDBRANCH  29  30
ENDBRANCH   9  11
ENDBRANCH   1   9
TORSDOF 7
ENDMDL
