MODEL 1
REMARK VINA RESULT:    -5.850      0.000      0.000
REMARK INTER + INTRA:          -7.196
REMARK INTER:                  -7.047
REMARK INTRA:                  -0.149
REMARK UNBOUND:                -0.149
REMARK SMILES O=c1c(O)c(-c2ccc(O)c(O)c2)oc2cc(O)cc(O)c12
REMARK SMILES IDX 5 1 3 2 2 3 1 4 22 5 20 6 19 7 17 8 16 9 15 10 14 11 6 12
REMARK SMILES IDX 7 13 8 14 9 15 13 16 11 17 10 18 12 20 4 22 21 24 18 26
REMARK H PARENT 10 19 12 21 4 23 21 25 18 27
REMARK Flexibility Score: inf
ROOT
ATOM      1  C   UNL     1      -4.955 -40.055 216.330  1.00  0.00     0.180 A 
ATOM      2  C   UNL     1      -5.926 -40.771 215.607  1.00  0.00     0.208 A 
ATOM      3  C   UNL     1      -5.644 -41.158 214.287  1.00  0.00     0.238 A 
ATOM      4  O   UNL     1      -6.545 -41.733 213.622  1.00  0.00    -0.285 OA
ATOM      5  C   UNL     1      -4.375 -40.876 213.725  1.00  0.00     0.111 A 
ATOM      6  C   UNL     1      -3.965 -41.260 212.412  1.00  0.00     0.134 A 
ATOM      7  C   UNL     1      -2.723 -40.833 211.924  1.00  0.00     0.093 A 
ATOM      8  C   UNL     1      -1.853 -40.091 212.719  1.00  0.00     0.123 A 
ATOM      9  C   UNL     1      -2.221 -39.756 214.023  1.00  0.00     0.094 A 
ATOM     10  C   UNL     1      -3.468 -40.134 214.526  1.00  0.00     0.146 A 
ATOM     11  O   UNL     1      -3.787 -39.777 215.764  1.00  0.00    -0.452 OA
ENDROOT
BRANCH   1  12
ATOM     12  C   UNL     1      -5.183 -39.600 217.719  1.00  0.00     0.025 A 
ATOM     13  C   UNL     1      -5.191 -38.233 218.051  1.00  0.00     0.016 A 
ATOM     14  C   UNL     1      -5.385 -37.829 219.374  1.00  0.00     0.051 A 
ATOM     15  C   UNL     1      -5.559 -38.782 220.385  1.00  0.00     0.157 A 
ATOM     16  C   UNL     1      -5.337 -40.551 218.741  1.00  0.00     0.062 A 
ATOM     17  C   UNL     1      -5.531 -40.146 220.070  1.00  0.00     0.158 A 
BRANCH  15  18
ATOM     18  O   UNL     1      -5.754 -38.382 221.706  1.00  0.00    -0.504 OA
ATOM     19  H   UNL     1      -4.991 -38.025 222.270  1.00  0.00     0.293 HD
ENDBRANCH  15  18
BRANCH  17  20
ATOM     20  O   UNL     1      -5.697 -41.092 221.079  1.00  0.00    -0.504 OA
ATOM     21  H   UNL     1      -4.978 -41.773 221.292  1.00  0.00     0.293 HD
ENDBRANCH  17  20
ENDBRANCH   1  12
BRANCH   2  22
ATOM     22  O   UNL     1      -7.143 -41.108 216.206  1.00  0.00    -0.502 OA
ATOM     23  H   UNL     1      -8.024 -41.067 215.708  1.00  0.00     0.293 HD
ENDBRANCH   2  22
BRANCH   6  24
ATOM     24  O   UNL     1      -4.719 -42.076 211.562  1.00  0.00    -0.507 OA
ATOM     25  H   UNL     1      -5.287 -41.744 210.798  1.00  0.00     0.293 HD
ENDBRANCH   6  24
BRANCH   8  26
ATOM     26  O   UNL     1      -0.618 -39.697 212.207  1.00  0.00    -0.508 OA
ATOM     27  H   UNL     1      -0.433 -39.695 211.211  1.00  0.00     0.293 HD
ENDBRANCH   8  26
TORSDOF 6
ENDMDL
MODEL 2
REMARK VINA RESULT:    -5.662      2.869      7.285
REMARK INTER + INTRA:          -6.970
REMARK INTER:                  -6.662
REMARK INTRA:                  -0.308
REMARK UNBOUND:                -0.149
REMARK SMILES O=c1c(O)c(-c2ccc(O)c(O)c2)oc2cc(O)cc(O)c12
REMARK SMILES IDX 5 1 3 2 2 3 1 4 22 5 20 6 19 7 17 8 16 9 15 10 14 11 6 12
REMARK SMILES IDX 7 13 8 14 9 15 13 16 11 17 10 18 12 20 4 22 21 24 18 26
REMARK H PARENT 10 19 12 21 4 23 21 25 18 27
REMARK Flexibility Score: inf
ROOT
ATOM      1  C   UNL     1      -5.078 -39.633 218.094  1.00  0.00     0.180 A 
ATOM      2  C   UNL     1      -3.788 -40.158 218.286  1.00  0.00     0.208 A 
ATOM      3  C   UNL     1      -3.235 -40.149 219.577  1.00  0.00     0.238 A 
ATOM      4  O   UNL     1      -2.052 -40.551 219.729  1.00  0.00    -0.285 OA
ATOM      5  C   UNL     1      -3.999 -39.670 220.669  1.00  0.00     0.111 A 
ATOM      6  C   UNL     1      -3.556 -39.655 222.026  1.00  0.00     0.134 A 
ATOM      7  C   UNL     1      -4.358 -39.058 223.008  1.00  0.00     0.093 A 
ATOM      8  C   UNL     1      -5.610 -38.533 222.695  1.00  0.00     0.123 A 
ATOM      9  C   UNL     1      -6.076 -38.592 221.381  1.00  0.00     0.094 A 
ATOM     10  C   UNL     1      -5.285 -39.145 220.372  1.00  0.00     0.146 A 
ATOM     11  O   UNL     1      -5.758 -39.161 219.132  1.00  0.00    -0.452 OA
ENDROOT
BRANCH   1  12
ATOM     12  C   UNL     1      -5.723 -39.594 216.762  1.00  0.00     0.025 A 
ATOM     13  C   UNL     1      -5.407 -38.595 215.824  1.00  0.00     0.016 A 
ATOM     14  C   UNL     1      -6.046 -38.564 214.582  1.00  0.00     0.051 A 
ATOM     15  C   UNL     1      -7.018 -39.521 214.265  1.00  0.00     0.157 A 
ATOM     16  C   UNL     1      -6.714 -40.538 216.447  1.00  0.00     0.062 A 
ATOM     17  C   UNL     1      -7.355 -40.507 215.200  1.00  0.00     0.158 A 
BRANCH  15  18
ATOM     18  O   UNL     1      -7.657 -39.494 213.027  1.00  0.00    -0.504 OA
ATOM     19  H   UNL     1      -7.153 -39.676 212.167  1.00  0.00     0.293 HD
ENDBRANCH  15  18
BRANCH  17  20
ATOM     20  O   UNL     1      -8.328 -41.454 214.884  1.00  0.00    -0.504 OA
ATOM     21  H   UNL     1      -9.289 -41.187 214.705  1.00  0.00     0.293 HD
ENDBRANCH  17  20
ENDBRANCH   1  12
BRANCH   2  22
ATOM     22  O   UNL     1      -3.080 -40.697 217.209  1.00  0.00    -0.502 OA
ATOM     23  H   UNL     1      -3.232 -40.397 216.254  1.00  0.00     0.293 HD
ENDBRANCH   2  22
BRANCH   6  24
ATOM     24  O   UNL     1      -2.360 -40.231 222.467  1.00  0.00    -0.507 OA
ATOM     25  H   UNL     1      -1.970 -40.117 223.390  1.00  0.00     0.293 HD
ENDBRANCH   6  24
BRANCH   8  26
ATOM     26  O   UNL     1      -6.388 -37.963 223.700  1.00  0.00    -0.508 OA
ATOM     27  H   UNL     1      -6.014 -37.786 224.625  1.00  0.00     0.293 HD
ENDBRANCH   8  26
TORSDOF 6
ENDMDL
MODEL 3
REMARK VINA RESULT:    -5.451      1.523      2.226
REMARK INTER + INTRA:          -6.716
REMARK INTER:                  -6.384
REMARK INTRA:                  -0.332
REMARK UNBOUND:                -0.149
REMARK SMILES O=c1c(O)c(-c2ccc(O)c(O)c2)oc2cc(O)cc(O)c12
REMARK SMILES IDX 5 1 3 2 2 3 1 4 22 5 20 6 19 7 17 8 16 9 15 10 14 11 6 12
REMARK SMILES IDX 7 13 8 14 9 15 13 16 11 17 10 18 12 20 4 22 21 24 18 26
REMARK H PARENT 10 19 12 21 4 23 21 25 18 27
REMARK Flexibility Score: inf
ROOT
ATOM      1  C   UNL     1      -5.547 -39.989 218.396  1.00  0.00     0.180 A 
ATOM      2  C   UNL     1      -6.605 -40.492 217.620  1.00  0.00     0.208 A 
ATOM      3  C   UNL     1      -6.423 -40.641 216.235  1.00  0.00     0.238 A 
ATOM      4  O   UNL     1      -7.398 -41.021 215.536  1.00  0.00    -0.285 OA
ATOM      5  C   UNL     1      -5.168 -40.339 215.653  1.00  0.00     0.111 A 
ATOM      6  C   UNL     1      -4.857 -40.495 214.268  1.00  0.00     0.134 A 
ATOM      7  C   UNL     1      -3.615 -40.064 213.786  1.00  0.00     0.093 A 
ATOM      8  C   UNL     1      -2.650 -39.542 214.645  1.00  0.00     0.123 A 
ATOM      9  C   UNL     1      -2.923 -39.436 216.010  1.00  0.00     0.094 A 
ATOM     10  C   UNL     1      -4.166 -39.822 216.516  1.00  0.00     0.146 A 
ATOM     11  O   UNL     1      -4.392 -39.684 217.816  1.00  0.00    -0.452 OA
ENDROOT
BRANCH   1  12
ATOM     12  C   UNL     1      -5.667 -39.790 219.858  1.00  0.00     0.025 A 
ATOM     13  C   UNL     1      -6.182 -38.596 220.396  1.00  0.00     0.016 A 
ATOM     14  C   UNL     1      -6.263 -38.422 221.780  1.00  0.00     0.051 A 
ATOM     15  C   UNL     1      -5.819 -39.430 222.645  1.00  0.00     0.157 A 
ATOM     16  C   UNL     1      -5.203 -40.787 220.731  1.00  0.00     0.062 A 
ATOM     17  C   UNL     1      -5.285 -40.613 222.120  1.00  0.00     0.158 A 
BRANCH  15  18
ATOM     18  O   UNL     1      -5.899 -39.260 224.026  1.00  0.00    -0.504 OA
ATOM     19  H   UNL     1      -6.781 -39.339 224.519  1.00  0.00     0.293 HD
ENDBRANCH  15  18
BRANCH  17  20
ATOM     20  O   UNL     1      -4.837 -41.611 222.984  1.00  0.00    -0.504 OA
ATOM     21  H   UNL     1      -4.105 -42.257 222.714  1.00  0.00     0.293 HD
ENDBRANCH  17  20
ENDBRANCH   1  12
BRANCH   2  22
ATOM     22  O   UNL     1      -7.810 -40.857 218.225  1.00  0.00    -0.502 OA
ATOM     23  H   UNL     1      -8.093 -40.502 219.131  1.00  0.00     0.293 HD
ENDBRANCH   2  22
BRANCH   6  24
ATOM     24  O   UNL     1      -5.714 -41.086 213.333  1.00  0.00    -0.507 OA
ATOM     25  H   UNL     1      -5.918 -40.712 212.419  1.00  0.00     0.293 HD
ENDBRANCH   6  24
BRANCH   8  26
ATOM     26  O   UNL     1      -1.418 -39.139 214.135  1.00  0.00    -0.508 OA
ATOM     27  H   UNL     1      -1.336 -38.341 213.515  1.00  0.00     0.293 HD
ENDBRANCH   8  26
TORSDOF 6
ENDMDL
MODEL 4
REMARK VINA RESULT:    -5.103      1.529      6.804
REMARK INTER + INTRA:          -6.297
REMARK INTER:                  -6.347
REMARK INTRA:                   0.050
REMARK UNBOUND:                -0.149
REMARK SMILES O=c1c(O)c(-c2ccc(O)c(O)c2)oc2cc(O)cc(O)c12
REMARK SMILES IDX 5 1 3 2 2 3 1 4 22 5 20 6 19 7 17 8 16 9 15 10 14 11 6 12
REMARK SMILES IDX 7 13 8 14 9 15 13 16 11 17 10 18 12 20 4 22 21 24 18 26
REMARK H PARENT 10 19 12 21 4 23 21 25 18 27
REMARK Flexibility Score: inf
ROOT
ATOM      1  C   UNL     1      -4.082 -40.731 215.065  1.00  0.00     0.180 A 
ATOM      2  C   UNL     1      -5.488 -40.724 215.099  1.00  0.00     0.208 A 
ATOM      3  C   UNL     1      -6.138 -40.542 216.331  1.00  0.00     0.238 A 
ATOM      4  O   UNL     1      -7.394 -40.612 216.365  1.00  0.00    -0.285 OA
ATOM      5  C   UNL     1      -5.377 -40.313 217.503  1.00  0.00     0.111 A 
ATOM      6  C   UNL     1      -5.931 -40.072 218.797  1.00  0.00     0.134 A 
ATOM      7  C   UNL     1      -5.080 -39.964 219.904  1.00  0.00     0.093 A 
ATOM      8  C   UNL     1      -3.695 -40.025 219.756  1.00  0.00     0.123 A 
ATOM      9  C   UNL     1      -3.141 -40.205 218.488  1.00  0.00     0.094 A 
ATOM     10  C   UNL     1      -3.964 -40.355 217.370  1.00  0.00     0.146 A 
ATOM     11  O   UNL     1      -3.396 -40.546 216.186  1.00  0.00    -0.452 OA
ENDROOT
BRANCH   1  12
ATOM     12  C   UNL     1      -3.325 -40.931 213.809  1.00  0.00     0.025 A 
ATOM     13  C   UNL     1      -3.678 -41.939 212.893  1.00  0.00     0.016 A 
ATOM     14  C   UNL     1      -2.933 -42.124 211.725  1.00  0.00     0.051 A 
ATOM     15  C   UNL     1      -1.820 -41.316 211.463  1.00  0.00     0.157 A 
ATOM     16  C   UNL     1      -2.196 -40.139 213.550  1.00  0.00     0.062 A 
ATOM     17  C   UNL     1      -1.448 -40.324 212.377  1.00  0.00     0.158 A 
BRANCH  15  18
ATOM     18  O   UNL     1      -1.076 -41.498 210.298  1.00  0.00    -0.504 OA
ATOM     19  H   UNL     1      -1.493 -41.390 209.381  1.00  0.00     0.293 HD
ENDBRANCH  15  18
BRANCH  17  20
ATOM     20  O   UNL     1      -0.336 -39.526 212.116  1.00  0.00    -0.504 OA
ATOM     21  H   UNL     1       0.567 -39.930 211.895  1.00  0.00     0.293 HD
ENDBRANCH  17  20
ENDBRANCH   1  12
BRANCH   2  22
ATOM     22  O   UNL     1      -6.221 -40.875 213.919  1.00  0.00    -0.502 OA
ATOM     23  H   UNL     1      -5.779 -40.993 213.016  1.00  0.00     0.293 HD
ENDBRANCH   2  22
BRANCH   6  24
ATOM     24  O   UNL     1      -7.298 -39.906 219.046  1.00  0.00    -0.507 OA
ATOM     25  H   UNL     1      -7.685 -39.419 219.840  1.00  0.00     0.293 HD
ENDBRANCH   6  24
BRANCH   8  26
ATOM     26  O   UNL     1      -2.878 -39.895 220.877  1.00  0.00    -0.508 OA
ATOM     27  H   UNL     1      -3.057 -40.415 221.728  1.00  0.00     0.293 HD
ENDBRANCH   8  26
TORSDOF 6
ENDMDL
MODEL 5
REMARK VINA RESULT:    -5.094      1.461      2.913
REMARK INTER + INTRA:          -6.286
REMARK INTER:                  -5.963
REMARK INTRA:                  -0.323
REMARK UNBOUND:                -0.149
REMARK SMILES O=c1c(O)c(-c2ccc(O)c(O)c2)oc2cc(O)cc(O)c12
REMARK SMILES IDX 5 1 3 2 2 3 1 4 22 5 20 6 19 7 17 8 16 9 15 10 14 11 6 12
REMARK SMILES IDX 7 13 8 14 9 15 13 16 11 17 10 18 12 20 4 22 21 24 18 26
REMARK H PARENT 10 19 12 21 4 23 21 25 18 27
REMARK Flexibility Score: inf
ROOT
ATOM      1  C   UNL     1      -4.627 -40.369 216.925  1.00  0.00     0.180 A 
ATOM      2  C   UNL     1      -3.291 -40.607 216.556  1.00  0.00     0.208 A 
ATOM      3  C   UNL     1      -3.019 -41.112 215.274  1.00  0.00     0.238 A 
ATOM      4  O   UNL     1      -1.828 -41.392 214.977  1.00  0.00    -0.285 OA
ATOM      5  C   UNL     1      -4.078 -41.320 214.358  1.00  0.00     0.111 A 
ATOM      6  C   UNL     1      -3.913 -41.787 213.018  1.00  0.00     0.134 A 
ATOM      7  C   UNL     1      -5.044 -42.057 212.237  1.00  0.00     0.093 A 
ATOM      8  C   UNL     1      -6.328 -41.819 212.722  1.00  0.00     0.123 A 
ATOM      9  C   UNL     1      -6.499 -41.311 214.010  1.00  0.00     0.094 A 
ATOM     10  C   UNL     1      -5.394 -41.067 214.828  1.00  0.00     0.146 A 
ATOM     11  O   UNL     1      -5.602 -40.605 216.054  1.00  0.00    -0.452 OA
ENDROOT
BRANCH   1  12
ATOM     12  C   UNL     1      -4.996 -39.851 218.261  1.00  0.00     0.025 A 
ATOM     13  C   UNL     1      -5.093 -38.470 218.511  1.00  0.00     0.016 A 
ATOM     14  C   UNL     1      -5.419 -38.005 219.787  1.00  0.00     0.051 A 
ATOM     15  C   UNL     1      -5.639 -38.909 220.834  1.00  0.00     0.157 A 
ATOM     16  C   UNL     1      -5.196 -40.752 219.320  1.00  0.00     0.062 A 
ATOM     17  C   UNL     1      -5.524 -40.285 220.601  1.00  0.00     0.158 A 
BRANCH  15  18
ATOM     18  O   UNL     1      -5.966 -38.448 222.108  1.00  0.00    -0.504 OA
ATOM     19  H   UNL     1      -6.907 -38.526 222.474  1.00  0.00     0.293 HD
ENDBRANCH  15  18
BRANCH  17  20
ATOM     20  O   UNL     1      -5.736 -41.182 221.646  1.00  0.00    -0.504 OA
ATOM     21  H   UNL     1      -5.035 -41.339 222.361  1.00  0.00     0.293 HD
ENDBRANCH  17  20
ENDBRANCH   1  12
BRANCH   2  22
ATOM     22  O   UNL     1      -2.254 -40.322 217.447  1.00  0.00    -0.502 OA
ATOM     23  H   UNL     1      -2.317 -40.526 218.438  1.00  0.00     0.293 HD
ENDBRANCH   2  22
BRANCH   6  24
ATOM     24  O   UNL     1      -2.672 -41.975 212.401  1.00  0.00    -0.507 OA
ATOM     25  H   UNL     1      -2.456 -41.719 211.450  1.00  0.00     0.293 HD
ENDBRANCH   6  24
BRANCH   8  26
ATOM     26  O   UNL     1      -7.430 -42.082 211.911  1.00  0.00    -0.508 OA
ATOM     27  H   UNL     1      -7.975 -42.930 212.015  1.00  0.00     0.293 HD
ENDBRANCH   8  26
TORSDOF 6
ENDMDL
MODEL 6
REMARK VINA RESULT:    -4.982      3.076      7.229
REMARK INTER + INTRA:          -6.151
REMARK INTER:                  -5.995
REMARK INTRA:                  -0.156
REMARK UNBOUND:                -0.149
REMARK SMILES O=c1c(O)c(-c2ccc(O)c(O)c2)oc2cc(O)cc(O)c12
REMARK SMILES IDX 5 1 3 2 2 3 1 4 22 5 20 6 19 7 17 8 16 9 15 10 14 11 6 12
REMARK SMILES IDX 7 13 8 14 9 15 13 16 11 17 10 18 12 20 4 22 21 24 18 26
REMARK H PARENT 10 19 12 21 4 23 21 25 18 27
REMARK Flexibility Score: inf
ROOT
ATOM      1  C   UNL     1      -5.216 -39.472 219.327  1.00  0.00     0.180 A 
ATOM      2  C   UNL     1      -6.023 -38.965 220.361  1.00  0.00     0.208 A 
ATOM      3  C   UNL     1      -5.450 -38.737 221.622  1.00  0.00     0.238 A 
ATOM      4  O   UNL     1      -6.194 -38.355 222.563  1.00  0.00    -0.285 OA
ATOM      5  C   UNL     1      -4.066 -38.965 221.820  1.00  0.00     0.111 A 
ATOM      6  C   UNL     1      -3.370 -38.725 223.044  1.00  0.00     0.134 A 
ATOM      7  C   UNL     1      -2.022 -39.088 223.154  1.00  0.00     0.093 A 
ATOM      8  C   UNL     1      -1.328 -39.620 222.069  1.00  0.00     0.123 A 
ATOM      9  C   UNL     1      -1.984 -39.807 220.852  1.00  0.00     0.094 A 
ATOM     10  C   UNL     1      -3.338 -39.492 220.721  1.00  0.00     0.146 A 
ATOM     11  O   UNL     1      -3.929 -39.705 219.552  1.00  0.00    -0.452 OA
ENDROOT
BRANCH   1  12
ATOM     12  C   UNL     1      -5.750 -39.752 217.975  1.00  0.00     0.025 A 
ATOM     13  C   UNL     1      -5.335 -39.008 216.855  1.00  0.00     0.016 A 
ATOM     14  C   UNL     1      -5.871 -39.275 215.593  1.00  0.00     0.051 A 
ATOM     15  C   UNL     1      -6.837 -40.276 215.434  1.00  0.00     0.157 A 
ATOM     16  C   UNL     1      -6.734 -40.739 217.812  1.00  0.00     0.062 A 
ATOM     17  C   UNL     1      -7.273 -41.007 216.545  1.00  0.00     0.158 A 
BRANCH  15  18
ATOM     18  O   UNL     1      -7.373 -40.545 214.175  1.00  0.00    -0.504 OA
ATOM     19  H   UNL     1      -8.365 -40.708 214.045  1.00  0.00     0.293 HD
ENDBRANCH  15  18
BRANCH  17  20
ATOM     20  O   UNL     1      -8.239 -41.998 216.384  1.00  0.00    -0.504 OA
ATOM     21  H   UNL     1      -8.278 -42.805 216.996  1.00  0.00     0.293 HD
ENDBRANCH  17  20
ENDBRANCH   1  12
BRANCH   2  22
ATOM     22  O   UNL     1      -7.369 -38.675 220.125  1.00  0.00    -0.502 OA
ATOM     23  H   UNL     1      -8.096 -39.377 220.190  1.00  0.00     0.293 HD
ENDBRANCH   2  22
BRANCH   6  24
ATOM     24  O   UNL     1      -3.943 -38.116 224.165  1.00  0.00    -0.507 OA
ATOM     25  H   UNL     1      -3.580 -37.295 224.625  1.00  0.00     0.293 HD
ENDBRANCH   6  24
BRANCH   8  26
ATOM     26  O   UNL     1       0.018 -39.953 222.209  1.00  0.00    -0.508 OA
ATOM     27  H   UNL     1       0.589 -39.555 222.945  1.00  0.00     0.293 HD
ENDBRANCH   8  26
TORSDOF 6
ENDMDL
MODEL 7
REMARK VINA RESULT:    -4.892      1.506      2.294
REMARK INTER + INTRA:          -6.042
REMARK INTER:                  -5.730
REMARK INTRA:                  -0.312
REMARK UNBOUND:                -0.149
REMARK SMILES O=c1c(O)c(-c2ccc(O)c(O)c2)oc2cc(O)cc(O)c12
REMARK SMILES IDX 5 1 3 2 2 3 1 4 22 5 20 6 19 7 17 8 16 9 15 10 14 11 6 12
REMARK SMILES IDX 7 13 8 14 9 15 13 16 11 17 10 18 12 20 4 22 21 24 18 26
REMARK H PARENT 10 19 12 21 4 23 21 25 18 27
REMARK Flexibility Score: inf
ROOT
ATOM      1  C   UNL     1      -5.684 -40.661 217.379  1.00  0.00     0.180 A 
ATOM      2  C   UNL     1      -6.979 -41.000 216.951  1.00  0.00     0.208 A 
ATOM      3  C   UNL     1      -7.199 -41.264 215.590  1.00  0.00     0.238 A 
ATOM      4  O   UNL     1      -8.375 -41.493 215.202  1.00  0.00    -0.285 OA
ATOM      5  C   UNL     1      -6.113 -41.242 214.682  1.00  0.00     0.111 A 
ATOM      6  C   UNL     1      -6.212 -41.538 213.289  1.00  0.00     0.134 A 
ATOM      7  C   UNL     1      -5.088 -41.381 212.467  1.00  0.00     0.093 A 
ATOM      8  C   UNL     1      -3.856 -41.001 212.997  1.00  0.00     0.123 A 
ATOM      9  C   UNL     1      -3.735 -40.764 214.367  1.00  0.00     0.094 A 
ATOM     10  C   UNL     1      -4.845 -40.874 215.206  1.00  0.00     0.146 A 
ATOM     11  O   UNL     1      -4.691 -40.618 216.499  1.00  0.00    -0.452 OA
ENDROOT
BRANCH   1  12
ATOM     12  C   UNL     1      -5.375 -40.355 218.794  1.00  0.00     0.025 A 
ATOM     13  C   UNL     1      -5.124 -41.378 219.727  1.00  0.00     0.016 A 
ATOM     14  C   UNL     1      -4.858 -41.065 221.063  1.00  0.00     0.051 A 
ATOM     15  C   UNL     1      -4.854 -39.731 221.488  1.00  0.00     0.157 A 
ATOM     16  C   UNL     1      -5.391 -39.021 219.231  1.00  0.00     0.062 A 
ATOM     17  C   UNL     1      -5.125 -38.707 220.572  1.00  0.00     0.158 A 
BRANCH  15  18
ATOM     18  O   UNL     1      -4.589 -39.416 222.819  1.00  0.00    -0.504 OA
ATOM     19  H   UNL     1      -3.641 -39.322 223.163  1.00  0.00     0.293 HD
ENDBRANCH  15  18
BRANCH  17  20
ATOM     20  O   UNL     1      -5.127 -37.381 221.000  1.00  0.00    -0.504 OA
ATOM     21  H   UNL     1      -5.172 -36.611 220.342  1.00  0.00     0.293 HD
ENDBRANCH  17  20
ENDBRANCH   1  12
BRANCH   2  22
ATOM     22  O   UNL     1      -8.024 -41.091 217.875  1.00  0.00    -0.502 OA
ATOM     23  H   UNL     1      -7.913 -41.534 218.779  1.00  0.00     0.293 HD
ENDBRANCH   2  22
BRANCH   6  24
ATOM     24  O   UNL     1      -7.373 -42.010 212.668  1.00  0.00    -0.507 OA
ATOM     25  H   UNL     1      -8.234 -42.229 213.145  1.00  0.00     0.293 HD
ENDBRANCH   6  24
BRANCH   8  26
ATOM     26  O   UNL     1      -2.755 -40.872 212.153  1.00  0.00    -0.508 OA
ATOM     27  H   UNL     1      -1.908 -41.408 212.301  1.00  0.00     0.293 HD
ENDBRANCH   8  26
TORSDOF 6
ENDMDL
MODEL 8
REMARK VINA RESULT:    -4.851      3.902      7.101
REMARK INTER + INTRA:          -5.994
REMARK INTER:                  -5.681
REMARK INTRA:                  -0.313
REMARK UNBOUND:                -0.149
REMARK SMILES O=c1c(O)c(-c2ccc(O)c(O)c2)oc2cc(O)cc(O)c12
REMARK SMILES IDX 5 1 3 2 2 3 1 4 22 5 20 6 19 7 17 8 16 9 15 10 14 11 6 12
REMARK SMILES IDX 7 13 8 14 9 15 13 16 11 17 10 18 12 20 4 22 21 24 18 26
REMARK H PARENT 10 19 12 21 4 23 21 25 18 27
REMARK Flexibility Score: inf
ROOT
ATOM      1  C   UNL     1      -4.578 -37.660 222.459  1.00  0.00     0.180 A 
ATOM      2  C   UNL     1      -3.602 -38.590 222.859  1.00  0.00     0.208 A 
ATOM      3  C   UNL     1      -3.195 -39.582 221.952  1.00  0.00     0.238 A 
ATOM      4  O   UNL     1      -2.376 -40.455 222.342  1.00  0.00    -0.285 OA
ATOM      5  C   UNL     1      -3.725 -39.599 220.639  1.00  0.00     0.111 A 
ATOM      6  C   UNL     1      -3.351 -40.531 219.624  1.00  0.00     0.134 A 
ATOM      7  C   UNL     1      -4.022 -40.518 218.394  1.00  0.00     0.093 A 
ATOM      8  C   UNL     1      -5.005 -39.570 218.119  1.00  0.00     0.123 A 
ATOM      9  C   UNL     1      -5.340 -38.619 219.085  1.00  0.00     0.094 A 
ATOM     10  C   UNL     1      -4.718 -38.630 220.335  1.00  0.00     0.146 A 
ATOM     11  O   UNL     1      -5.081 -37.722 221.231  1.00  0.00    -0.452 OA
ENDROOT
BRANCH   1  12
ATOM     12  C   UNL     1      -5.069 -36.595 223.361  1.00  0.00     0.025 A 
ATOM     13  C   UNL     1      -4.373 -35.382 223.510  1.00  0.00     0.016 A 
ATOM     14  C   UNL     1      -4.843 -34.400 224.387  1.00  0.00     0.051 A 
ATOM     15  C   UNL     1      -6.006 -34.622 225.135  1.00  0.00     0.157 A 
ATOM     16  C   UNL     1      -6.222 -36.819 224.130  1.00  0.00     0.062 A 
ATOM     17  C   UNL     1      -6.695 -35.834 225.010  1.00  0.00     0.158 A 
BRANCH  15  18
ATOM     18  O   UNL     1      -6.479 -33.644 226.009  1.00  0.00    -0.504 OA
ATOM     19  H   UNL     1      -5.935 -32.816 226.222  1.00  0.00     0.293 HD
ENDBRANCH  15  18
BRANCH  17  20
ATOM     20  O   UNL     1      -7.848 -36.054 225.762  1.00  0.00    -0.504 OA
ATOM     21  H   UNL     1      -8.283 -35.310 226.294  1.00  0.00     0.293 HD
ENDBRANCH  17  20
ENDBRANCH   1  12
BRANCH   2  22
ATOM     22  O   UNL     1      -3.034 -38.509 224.133  1.00  0.00    -0.502 OA
ATOM     23  H   UNL     1      -3.124 -39.251 224.816  1.00  0.00     0.293 HD
ENDBRANCH   2  22
BRANCH   6  24
ATOM     24  O   UNL     1      -2.320 -41.466 219.760  1.00  0.00    -0.507 OA
ATOM     25  H   UNL     1      -1.465 -41.312 220.272  1.00  0.00     0.293 HD
ENDBRANCH   6  24
BRANCH   8  26
ATOM     26  O   UNL     1      -5.639 -39.575 216.879  1.00  0.00    -0.508 OA
ATOM     27  H   UNL     1      -6.312 -38.862 216.623  1.00  0.00     0.293 HD
ENDBRANCH   8  26
TORSDOF 6
ENDMDL
