MODEL 1
REMARK VINA RESULT:    -4.029      0.000      0.000
REMARK INTER + INTRA:          -7.414
REMARK INTER:                  -6.384
REMARK INTRA:                  -1.030
REMARK UNBOUND:                -1.030
REMARK SMILES CCCCCCCCCCCC(=O)[O-]
REMARK SMILES IDX 7 1 8 2 9 3 10 4 11 5 12 6 13 7 14 8 6 9 5 10 4 11 3 12 2 13
REMARK SMILES IDX 1 14
REMARK H PARENT
REMARK Flexibility Score: inf
ROOT
ATOM      1  C   UNL     1     163.807 176.276 151.617  1.00  0.00     0.000 C 
ENDROOT
BRANCH   1   2
ATOM      2  C   UNL     1     162.531 175.889 150.853  1.00  0.00     0.000 C 
BRANCH   2   3
ATOM      3  C   UNL     1     161.653 177.101 150.512  1.00  0.00     0.000 C 
BRANCH   3   4
ATOM      4  C   UNL     1     160.323 177.047 151.274  1.00  0.00     0.006 C 
BRANCH   4   5
ATOM      5  C   UNL     1     160.266 178.125 152.361  1.00  0.00     0.053 C 
BRANCH   5   6
ATOM      6  C   UNL     1     160.719 177.568 153.674  1.00  0.00     0.041 C 
ATOM      7  O   UNL     1     161.657 178.122 154.306  1.00  0.00    -0.550 OA
ATOM      8  O   UNL     1     160.074 176.469 154.223  1.00  0.00    -0.550 OA
ENDBRANCH   5   6
ENDBRANCH   4   5
ENDBRANCH   3   4
ENDBRANCH   2   3
ENDBRANCH   1   2
BRANCH   1   9
ATOM      9  C   UNL     1     164.107 177.781 151.543  1.00  0.00     0.000 C 
BRANCH   9  10
ATOM     10  C   UNL     1     165.617 178.038 151.477  1.00  0.00    -0.000 C 
BRANCH  10  11
ATOM     11  C   UNL     1     166.127 177.964 150.033  1.00  0.00    -0.000 C 
BRANCH  11  12
ATOM     12  C   UNL     1     167.358 177.057 149.928  1.00  0.00    -0.000 C 
BRANCH  12  13
ATOM     13  C   UNL     1     166.990 175.698 149.322  1.00  0.00    -0.003 C 
ATOM     14  C   UNL     1     167.378 174.555 150.255  1.00  0.00     0.004 C 
ENDBRANCH  12  13
ENDBRANCH  11  12
ENDBRANCH  10  11
ENDBRANCH   9  10
ENDBRANCH   1   9
TORSDOF 10
ENDMDL
MODEL 2
REMARK VINA RESULT:    -4.009     10.511     12.352
REMARK INTER + INTRA:          -7.382
REMARK INTER:                  -6.321
REMARK INTRA:                  -1.061
REMARK UNBOUND:                -1.030
REMARK SMILES CCCCCCCCCCCC(=O)[O-]
REMARK SMILES IDX 7 1 8 2 9 3 10 4 11 5 12 6 13 7 14 8 6 9 5 10 4 11 3 12 2 13
REMARK SMILES IDX 1 14
REMARK H PARENT
REMARK Flexibility Score: inf
ROOT
ATOM      1  C   UNL     1     173.304 176.386 151.146  1.00  0.00     0.000 C 
ENDROOT
BRANCH   1   2
ATOM      2  C   UNL     1     174.156 177.432 150.409  1.00  0.00     0.000 C 
BRANCH   2   3
ATOM      3  C   UNL     1     175.214 178.078 151.316  1.00  0.00     0.000 C 
BRANCH   3   4
ATOM      4  C   UNL     1     174.735 178.124 152.772  1.00  0.00     0.006 C 
BRANCH   4   5
ATOM      5  C   UNL     1     175.880 177.810 153.738  1.00  0.00     0.053 C 
BRANCH   5   6
ATOM      6  C   UNL     1     175.558 176.599 154.556  1.00  0.00     0.041 C 
ATOM      7  O   UNL     1     174.363 176.334 154.851  1.00  0.00    -0.550 OA
ATOM      8  O   UNL     1     176.572 175.736 154.951  1.00  0.00    -0.550 OA
ENDBRANCH   5   6
ENDBRANCH   4   5
ENDBRANCH   3   4
ENDBRANCH   2   3
ENDBRANCH   1   2
BRANCH   1   9
ATOM      9  C   UNL     1     173.702 174.944 150.794  1.00  0.00     0.000 C 
BRANCH   9  10
ATOM     10  C   UNL     1     174.714 174.392 151.804  1.00  0.00    -0.000 C 
BRANCH  10  11
ATOM     11  C   UNL     1     176.095 174.215 151.162  1.00  0.00    -0.000 C 
BRANCH  11  12
ATOM     12  C   UNL     1     176.544 172.750 151.215  1.00  0.00    -0.000 C 
BRANCH  12  13
ATOM     13  C   UNL     1     176.803 172.204 149.806  1.00  0.00    -0.003 C 
ATOM     14  C   UNL     1     175.683 171.266 149.364  1.00  0.00     0.004 C 
ENDBRANCH  12  13
ENDBRANCH  11  12
ENDBRANCH  10  11
ENDBRANCH   9  10
ENDBRANCH   1   9
TORSDOF 10
ENDMDL
MODEL 3
REMARK VINA RESULT:    -3.970     11.093     12.895
REMARK INTER + INTRA:          -7.320
REMARK INTER:                  -5.770
REMARK INTRA:                  -1.550
REMARK UNBOUND:                -1.030
REMARK SMILES CCCCCCCCCCCC(=O)[O-]
REMARK SMILES IDX 7 1 8 2 9 3 10 4 11 5 12 6 13 7 14 8 6 9 5 10 4 11 3 12 2 13
REMARK SMILES IDX 1 14
REMARK H PARENT
REMARK Flexibility Score: inf
ROOT
ATOM      1  C   UNL     1     173.022 175.424 151.314  1.00  0.00     0.000 C 
ENDROOT
BRANCH   1   2
ATOM      2  C   UNL     1     174.038 174.278 151.447  1.00  0.00     0.000 C 
BRANCH   2   3
ATOM      3  C   UNL     1     175.449 174.683 150.996  1.00  0.00     0.000 C 
BRANCH   3   4
ATOM      4  C   UNL     1     176.516 173.852 151.721  1.00  0.00     0.006 C 
BRANCH   4   5
ATOM      5  C   UNL     1     175.893 173.011 152.839  1.00  0.00     0.053 C 
BRANCH   5   6
ATOM      6  C   UNL     1     176.958 172.318 153.628  1.00  0.00     0.041 C 
ATOM      7  O   UNL     1     177.280 171.132 153.351  1.00  0.00    -0.550 OA
ATOM      8  O   UNL     1     177.629 172.996 154.636  1.00  0.00    -0.550 OA
ENDBRANCH   5   6
ENDBRANCH   4   5
ENDBRANCH   3   4
ENDBRANCH   2   3
ENDBRANCH   1   2
BRANCH   1   9
ATOM      9  C   UNL     1     173.641 176.699 150.721  1.00  0.00     0.000 C 
BRANCH   9  10
ATOM     10  C   UNL     1     173.160 177.945 151.473  1.00  0.00    -0.000 C 
BRANCH  10  11
ATOM     11  C   UNL     1     173.638 177.929 152.930  1.00  0.00    -0.000 C 
BRANCH  11  12
ATOM     12  C   UNL     1     175.157 178.125 153.013  1.00  0.00    -0.000 C 
BRANCH  12  13
ATOM     13  C   UNL     1     175.812 177.001 153.824  1.00  0.00    -0.003 C 
ATOM     14  C   UNL     1     174.767 176.192 154.588  1.00  0.00     0.004 C 
ENDBRANCH  12  13
ENDBRANCH  11  12
ENDBRANCH  10  11
ENDBRANCH   9  10
ENDBRANCH   1   9
TORSDOF 10
ENDMDL
MODEL 4
REMARK VINA RESULT:    -3.955      2.156      2.788
REMARK INTER + INTRA:          -7.297
REMARK INTER:                  -6.568
REMARK INTRA:                  -0.729
REMARK UNBOUND:                -1.030
REMARK SMILES CCCCCCCCCCCC(=O)[O-]
REMARK SMILES IDX 7 1 8 2 9 3 10 4 11 5 12 6 13 7 14 8 6 9 5 10 4 11 3 12 2 13
REMARK SMILES IDX 1 14
REMARK H PARENT
REMARK Flexibility Score: inf
ROOT
ATOM      1  C   UNL     1     162.479 176.570 150.931  1.00  0.00     0.000 C 
ENDROOT
BRANCH   1   2
ATOM      2  C   UNL     1     161.050 176.990 150.553  1.00  0.00     0.000 C 
BRANCH   2   3
ATOM      3  C   UNL     1     160.158 177.222 151.781  1.00  0.00     0.000 C 
BRANCH   3   4
ATOM      4  C   UNL     1     160.093 175.966 152.658  1.00  0.00     0.006 C 
BRANCH   4   5
ATOM      5  C   UNL     1     159.311 174.848 151.961  1.00  0.00     0.053 C 
BRANCH   5   6
ATOM      6  C   UNL     1     159.986 173.529 152.170  1.00  0.00     0.041 C 
ATOM      7  O   UNL     1     161.150 173.337 151.730  1.00  0.00    -0.550 OA
ATOM      8  O   UNL     1     159.349 172.529 152.893  1.00  0.00    -0.550 OA
ENDBRANCH   5   6
ENDBRANCH   4   5
ENDBRANCH   3   4
ENDBRANCH   2   3
ENDBRANCH   1   2
BRANCH   1   9
ATOM      9  C   UNL     1     163.443 177.762 151.023  1.00  0.00     0.000 C 
BRANCH   9  10
ATOM     10  C   UNL     1     164.395 177.609 152.214  1.00  0.00    -0.000 C 
BRANCH  10  11
ATOM     11  C   UNL     1     165.858 177.741 151.773  1.00  0.00    -0.000 C 
BRANCH  11  12
ATOM     12  C   UNL     1     165.956 178.035 150.271  1.00  0.00    -0.000 C 
BRANCH  12  13
ATOM     13  C   UNL     1     167.002 177.136 149.603  1.00  0.00    -0.003 C 
ATOM     14  C   UNL     1     168.192 176.895 150.526  1.00  0.00     0.004 C 
ENDBRANCH  12  13
ENDBRANCH  11  12
ENDBRANCH  10  11
ENDBRANCH   9  10
ENDBRANCH   1   9
TORSDOF 10
ENDMDL
MODEL 5
REMARK VINA RESULT:    -3.797      3.193      6.385
REMARK INTER + INTRA:          -7.046
REMARK INTER:                  -6.361
REMARK INTRA:                  -0.684
REMARK UNBOUND:                -1.030
REMARK SMILES CCCCCCCCCCCC(=O)[O-]
REMARK SMILES IDX 7 1 8 2 9 3 10 4 11 5 12 6 13 7 14 8 6 9 5 10 4 11 3 12 2 13
REMARK SMILES IDX 1 14
REMARK H PARENT
REMARK Flexibility Score: inf
ROOT
ATOM      1  C   UNL     1     164.503 177.537 152.307  1.00  0.00     0.000 C 
ENDROOT
BRANCH   1   2
ATOM      2  C   UNL     1     165.994 177.691 151.966  1.00  0.00     0.000 C 
BRANCH   2   3
ATOM      3  C   UNL     1     166.254 177.736 150.454  1.00  0.00     0.000 C 
BRANCH   3   4
ATOM      4  C   UNL     1     167.522 176.951 150.091  1.00  0.00     0.006 C 
BRANCH   4   5
ATOM      5  C   UNL     1     167.240 175.932 148.983  1.00  0.00     0.053 C 
BRANCH   5   6
ATOM      6  C   UNL     1     167.014 174.573 149.567  1.00  0.00     0.041 C 
ATOM      7  O   UNL     1     167.975 173.932 150.068  1.00  0.00    -0.550 OA
ATOM      8  O   UNL     1     165.735 174.035 149.601  1.00  0.00    -0.550 OA
ENDBRANCH   5   6
ENDBRANCH   4   5
ENDBRANCH   3   4
ENDBRANCH   2   3
ENDBRANCH   1   2
BRANCH   1   9
ATOM      9  C   UNL     1     163.595 177.710 151.080  1.00  0.00     0.000 C 
BRANCH   9  10
ATOM     10  C   UNL     1     162.706 176.477 150.877  1.00  0.00    -0.000 C 
BRANCH  10  11
ATOM     11  C   UNL     1     161.261 176.883 150.567  1.00  0.00    -0.000 C 
BRANCH  11  12
ATOM     12  C   UNL     1     160.544 177.379 151.829  1.00  0.00    -0.000 C 
BRANCH  12  13
ATOM     13  C   UNL     1     160.142 176.206 152.729  1.00  0.00    -0.003 C 
ATOM     14  C   UNL     1     159.440 175.113 151.928  1.00  0.00     0.004 C 
ENDBRANCH  12  13
ENDBRANCH  11  12
ENDBRANCH  10  11
ENDBRANCH   9  10
ENDBRANCH   1   9
TORSDOF 10
ENDMDL
MODEL 6
REMARK VINA RESULT:    -3.775      7.755     10.782
REMARK INTER + INTRA:          -7.011
REMARK INTER:                  -6.204
REMARK INTRA:                  -0.807
REMARK UNBOUND:                -1.030
REMARK SMILES CCCCCCCCCCCC(=O)[O-]
REMARK SMILES IDX 7 1 8 2 9 3 10 4 11 5 12 6 13 7 14 8 6 9 5 10 4 11 3 12 2 13
REMARK SMILES IDX 1 14
REMARK H PARENT
REMARK Flexibility Score: inf
ROOT
ATOM      1  C   UNL     1     174.015 175.596 150.816  1.00  0.00     0.000 C 
ENDROOT
BRANCH   1   2
ATOM      2  C   UNL     1     174.742 176.948 150.741  1.00  0.00     0.000 C 
BRANCH   2   3
ATOM      3  C   UNL     1     173.874 178.115 151.233  1.00  0.00     0.000 C 
BRANCH   3   4
ATOM      4  C   UNL     1     172.820 177.630 152.237  1.00  0.00     0.006 C 
BRANCH   4   5
ATOM      5  C   UNL     1     171.423 178.125 151.849  1.00  0.00     0.053 C 
BRANCH   5   6
ATOM      6  C   UNL     1     170.389 177.105 152.208  1.00  0.00     0.041 C 
ATOM      7  O   UNL     1     170.383 175.983 151.637  1.00  0.00    -0.550 OA
ATOM      8  O   UNL     1     169.462 177.375 153.206  1.00  0.00    -0.550 OA
ENDBRANCH   5   6
ENDBRANCH   4   5
ENDBRANCH   3   4
ENDBRANCH   2   3
ENDBRANCH   1   2
BRANCH   1   9
ATOM      9  C   UNL     1     174.846 174.515 151.525  1.00  0.00     0.000 C 
BRANCH   9  10
ATOM     10  C   UNL     1     176.344 174.725 151.278  1.00  0.00    -0.000 C 
BRANCH  10  11
ATOM     11  C   UNL     1     176.916 173.622 150.380  1.00  0.00    -0.000 C 
BRANCH  11  12
ATOM     12  C   UNL     1     176.480 172.234 150.866  1.00  0.00    -0.000 C 
BRANCH  12  13
ATOM     13  C   UNL     1     176.221 171.294 149.683  1.00  0.00    -0.003 C 
ATOM     14  C   UNL     1     174.761 171.354 149.242  1.00  0.00     0.004 C 
ENDBRANCH  12  13
ENDBRANCH  11  12
ENDBRANCH  10  11
ENDBRANCH   9  10
ENDBRANCH   1   9
TORSDOF 10
ENDMDL
MODEL 7
REMARK VINA RESULT:    -3.766     10.284     12.720
REMARK INTER + INTRA:          -6.998
REMARK INTER:                  -5.631
REMARK INTRA:                  -1.367
REMARK UNBOUND:                -1.030
REMARK SMILES CCCCCCCCCCCC(=O)[O-]
REMARK SMILES IDX 7 1 8 2 9 3 10 4 11 5 12 6 13 7 14 8 6 9 5 10 4 11 3 12 2 13
REMARK SMILES IDX 1 14
REMARK H PARENT
REMARK Flexibility Score: inf
ROOT
ATOM      1  C   UNL     1     173.371 178.107 151.461  1.00  0.00     0.000 C 
ENDROOT
BRANCH   1   2
ATOM      2  C   UNL     1     174.319 177.534 150.396  1.00  0.00     0.000 C 
BRANCH   2   3
ATOM      3  C   UNL     1     175.476 176.729 151.004  1.00  0.00     0.000 C 
BRANCH   3   4
ATOM      4  C   UNL     1     175.250 175.222 150.825  1.00  0.00     0.006 C 
BRANCH   4   5
ATOM      5  C   UNL     1     176.384 174.416 151.465  1.00  0.00     0.053 C 
BRANCH   5   6
ATOM      6  C   UNL     1     177.036 173.531 150.449  1.00  0.00     0.041 C 
ATOM      7  O   UNL     1     176.571 172.384 150.219  1.00  0.00    -0.550 OA
ATOM      8  O   UNL     1     178.125 173.992 149.722  1.00  0.00    -0.550 OA
ENDBRANCH   5   6
ENDBRANCH   4   5
ENDBRANCH   3   4
ENDBRANCH   2   3
ENDBRANCH   1   2
BRANCH   1   9
ATOM      9  C   UNL     1     172.264 177.120 151.862  1.00  0.00     0.000 C 
BRANCH   9  10
ATOM     10  C   UNL     1     171.764 177.403 153.283  1.00  0.00    -0.000 C 
BRANCH  10  11
ATOM     11  C   UNL     1     172.926 177.427 154.284  1.00  0.00    -0.000 C 
BRANCH  11  12
ATOM     12  C   UNL     1     173.542 176.032 154.445  1.00  0.00    -0.000 C 
BRANCH  12  13
ATOM     13  C   UNL     1     175.068 176.117 154.566  1.00  0.00    -0.003 C 
ATOM     14  C   UNL     1     175.550 177.561 154.453  1.00  0.00     0.004 C 
ENDBRANCH  12  13
ENDBRANCH  11  12
ENDBRANCH  10  11
ENDBRANCH   9  10
ENDBRANCH   1   9
TORSDOF 10
ENDMDL
MODEL 8
REMARK VINA RESULT:    -3.739     10.528     12.376
REMARK INTER + INTRA:          -6.955
REMARK INTER:                  -5.518
REMARK INTRA:                  -1.437
REMARK UNBOUND:                -1.030
REMARK SMILES CCCCCCCCCCCC(=O)[O-]
REMARK SMILES IDX 7 1 8 2 9 3 10 4 11 5 12 6 13 7 14 8 6 9 5 10 4 11 3 12 2 13
REMARK SMILES IDX 1 14
REMARK H PARENT
REMARK Flexibility Score: inf
ROOT
ATOM      1  C   UNL     1     174.859 177.000 150.757  1.00  0.00     0.000 C 
ENDROOT
BRANCH   1   2
ATOM      2  C   UNL     1     175.502 178.125 151.584  1.00  0.00     0.000 C 
BRANCH   2   3
ATOM      3  C   UNL     1     175.076 178.093 153.059  1.00  0.00     0.000 C 
BRANCH   3   4
ATOM      4  C   UNL     1     175.884 177.048 153.840  1.00  0.00     0.006 C 
BRANCH   4   5
ATOM      5  C   UNL     1     174.968 175.966 154.419  1.00  0.00     0.053 C 
BRANCH   5   6
ATOM      6  C   UNL     1     175.778 174.852 155.003  1.00  0.00     0.041 C 
ATOM      7  O   UNL     1     175.385 173.660 154.897  1.00  0.00    -0.550 OA
ATOM      8  O   UNL     1     176.992 175.124 155.620  1.00  0.00    -0.550 OA
ENDBRANCH   5   6
ENDBRANCH   4   5
ENDBRANCH   3   4
ENDBRANCH   2   3
ENDBRANCH   1   2
BRANCH   1   9
ATOM      9  C   UNL     1     173.331 176.955 150.905  1.00  0.00     0.000 C 
BRANCH   9  10
ATOM     10  C   UNL     1     172.867 175.582 151.405  1.00  0.00    -0.000 C 
BRANCH  10  11
ATOM     11  C   UNL     1     173.552 174.452 150.627  1.00  0.00    -0.000 C 
BRANCH  11  12
ATOM     12  C   UNL     1     174.321 173.520 151.572  1.00  0.00    -0.000 C 
BRANCH  12  13
ATOM     13  C   UNL     1     175.661 173.100 150.959  1.00  0.00    -0.003 C 
ATOM     14  C   UNL     1     176.787 174.027 151.409  1.00  0.00     0.004 C 
ENDBRANCH  12  13
ENDBRANCH  11  12
ENDBRANCH  10  11
ENDBRANCH   9  10
ENDBRANCH   1   9
TORSDOF 10
ENDMDL
MODEL 9
REMARK VINA RESULT:    -3.719      2.812      6.059
REMARK INTER + INTRA:          -6.922
REMARK INTER:                  -5.818
REMARK INTRA:                  -1.104
REMARK UNBOUND:                -1.030
REMARK SMILES CCCCCCCCCCCC(=O)[O-]
REMARK SMILES IDX 7 1 8 2 9 3 10 4 11 5 12 6 13 7 14 8 6 9 5 10 4 11 3 12 2 13
REMARK SMILES IDX 1 14
REMARK H PARENT
REMARK Flexibility Score: inf
ROOT
ATOM      1  C   UNL     1     164.057 176.489 151.185  1.00  0.00     0.000 C 
ENDROOT
BRANCH   1   2
ATOM      2  C   UNL     1     164.383 177.928 150.754  1.00  0.00     0.000 C 
BRANCH   2   3
ATOM      3  C   UNL     1     165.851 178.104 150.343  1.00  0.00     0.000 C 
BRANCH   3   4
ATOM      4  C   UNL     1     166.598 176.765 150.385  1.00  0.00     0.006 C 
BRANCH   4   5
ATOM      5  C   UNL     1     168.057 176.961 150.807  1.00  0.00     0.053 C 
BRANCH   5   6
ATOM      6  C   UNL     1     168.174 176.961 152.299  1.00  0.00     0.041 C 
ATOM      7  O   UNL     1     169.203 177.430 152.853  1.00  0.00    -0.550 OA
ATOM      8  O   UNL     1     167.127 176.489 153.079  1.00  0.00    -0.550 OA
ENDBRANCH   5   6
ENDBRANCH   4   5
ENDBRANCH   3   4
ENDBRANCH   2   3
ENDBRANCH   1   2
BRANCH   1   9
ATOM      9  C   UNL     1     163.623 176.395 152.656  1.00  0.00     0.000 C 
BRANCH   9  10
ATOM     10  C   UNL     1     163.052 177.730 153.147  1.00  0.00    -0.000 C 
BRANCH  10  11
ATOM     11  C   UNL     1     161.660 177.542 153.763  1.00  0.00    -0.000 C 
BRANCH  11  12
ATOM     12  C   UNL     1     160.572 178.124 152.853  1.00  0.00    -0.000 C 
BRANCH  12  13
ATOM     13  C   UNL     1     160.134 177.101 151.798  1.00  0.00    -0.003 C 
ATOM     14  C   UNL     1     160.492 177.573 150.391  1.00  0.00     0.004 C 
ENDBRANCH  12  13
ENDBRANCH  11  12
ENDBRANCH  10  11
ENDBRANCH   9  10
ENDBRANCH   1   9
TORSDOF 10
ENDMDL
