MODEL 1
REMARK VINA RESULT:   -10.253      0.000      0.000
REMARK INTER + INTRA:         -11.341
REMARK INTER:                 -11.152
REMARK INTRA:                  -0.189
REMARK UNBOUND:                -0.189
REMARK SMILES C[C@H]1[C@H](C)CC[C@]2(C(=O)[O-])CC[C@]3(C)C(=CC[C@H]4[C@@]5(C)CC[C@@H](O)C(C)(C)[C@@H]5CC[C@]43C)[C@H]12
REMARK SMILES IDX 7 1 6 2 11 3 33 4 5 5 12 6 15 7 2 8 3 9 13 10 16 11 1 12
REMARK SMILES IDX 4 13 14 14 31 15 17 16 18 17 30 18 32 19 19 20 29 21 28 22
REMARK SMILES IDX 21 23 20 24 25 25 22 26 23 27 26 28 27 29 8 30 9 31 10 32
REMARK SMILES IDX 24 33
REMARK H PARENT 24 34
REMARK Flexibility Score: inf
ROOT
ATOM      1  C   UNL     1     168.494 145.957 148.042  1.00  0.00     0.017 C 
ATOM      2  C   UNL     1     169.068 144.502 148.015  1.00  0.00     0.014 C 
ATOM      3  C   UNL     1     169.595 146.895 147.499  1.00  0.00     0.014 C 
ATOM      4  C   UNL     1     168.114 146.414 149.500  1.00  0.00     0.030 C 
ATOM      5  C   UNL     1     168.479 143.624 149.123  1.00  0.00     0.004 C 
ATOM      6  C   UNL     1     169.188 148.373 147.518  1.00  0.00     0.013 C 
ATOM      7  C   UNL     1     167.933 147.944 149.645  1.00  0.00    -0.063 C 
ATOM      8  C   UNL     1     169.040 145.732 150.560  1.00  0.00    -0.003 C 
ATOM      9  C   UNL     1     168.793 144.182 150.543  1.00  0.00    -0.011 C 
ATOM     10  C   UNL     1     168.842 148.988 148.923  1.00  0.00    -0.006 C 
ATOM     11  C   UNL     1     166.950 148.352 150.473  1.00  0.00    -0.027 C 
ATOM     12  C   UNL     1     168.837 146.292 151.987  1.00  0.00     0.008 C 
ATOM     13  C   UNL     1     169.946 143.411 151.225  1.00  0.00     0.008 C 
ATOM     14  C   UNL     1     170.162 149.041 149.743  1.00  0.00     0.017 C 
ATOM     15  C   UNL     1     168.152 150.506 148.777  1.00  0.00    -0.020 C 
ATOM     16  C   UNL     1     166.631 149.778 150.657  1.00  0.00     0.032 C 
ATOM     17  C   UNL     1     166.639 150.473 149.258  1.00  0.00     0.006 C 
ATOM     18  C   UNL     1     168.896 151.612 149.625  1.00  0.00     0.008 C 
ATOM     19  C   UNL     1     168.266 150.999 147.294  1.00  0.00     0.012 C 
ATOM     20  C   UNL     1     165.859 151.868 149.293  1.00  0.00    -0.025 C 
ATOM     21  C   UNL     1     168.171 152.982 149.718  1.00  0.00     0.005 C 
ATOM     22  C   UNL     1     166.698 152.855 150.195  1.00  0.00     0.003 C 
ATOM     23  C   UNL     1     164.392 151.655 149.863  1.00  0.00     0.010 C 
ATOM     24  C   UNL     1     165.650 152.447 147.855  1.00  0.00     0.012 C 
ATOM     25  C   UNL     1     165.997 154.222 150.572  1.00  0.00    -0.006 C 
ATOM     26  C   UNL     1     164.071 152.544 151.068  1.00  0.00     0.033 C 
ATOM     27  C   UNL     1     164.435 154.005 150.750  1.00  0.00     0.120 C 
ATOM     28  C   UNL     1     166.211 155.329 149.507  1.00  0.00     0.014 C 
ATOM     29  C   UNL     1     166.625 154.750 151.898  1.00  0.00     0.014 C 
ENDROOT
BRANCH   1  30
ATOM     30  C   UNL     1     167.257 145.998 147.133  1.00  0.00     0.048 C 
ATOM     31  O   UNL     1     167.380 145.951 145.875  1.00  0.00    -0.550 OA
ATOM     32  O   UNL     1     165.986 146.214 147.671  1.00  0.00    -0.550 OA
ENDBRANCH   1  30
BRANCH  27  33
ATOM     33  O   UNL     1     163.862 154.886 151.688  1.00  0.00    -0.393 OA
ATOM     34  H   UNL     1     164.071 155.812 151.396  1.00  0.00     0.210 HD
ENDBRANCH  27  33
TORSDOF 2
ENDMDL
MODEL 2
REMARK VINA RESULT:    -9.142      2.063      7.969
REMARK INTER + INTRA:         -10.133
REMARK INTER:                 -10.053
REMARK INTRA:                  -0.079
REMARK UNBOUND:                -0.189
REMARK SMILES C[C@H]1[C@H](C)CC[C@]2(C(=O)[O-])CC[C@]3(C)C(=CC[C@H]4[C@@]5(C)CC[C@@H](O)C(C)(C)[C@@H]5CC[C@]43C)[C@H]12
REMARK SMILES IDX 7 1 6 2 11 3 33 4 5 5 12 6 15 7 2 8 3 9 13 10 16 11 1 12
REMARK SMILES IDX 4 13 14 14 31 15 17 16 18 17 30 18 32 19 19 20 29 21 28 22
REMARK SMILES IDX 21 23 20 24 25 25 22 26 23 27 26 28 27 29 8 30 9 31 10 32
REMARK SMILES IDX 24 33
REMARK H PARENT 24 34
REMARK Flexibility Score: inf
ROOT
ATOM      1  C   UNL     1     167.056 153.360 149.550  1.00  0.00     0.017 C 
ATOM      2  C   UNL     1     166.504 154.730 150.064  1.00  0.00     0.014 C 
ATOM      3  C   UNL     1     166.900 153.349 148.014  1.00  0.00     0.014 C 
ATOM      4  C   UNL     1     166.259 152.142 150.149  1.00  0.00     0.030 C 
ATOM      5  C   UNL     1     165.915 154.628 151.475  1.00  0.00     0.004 C 
ATOM      6  C   UNL     1     167.355 152.033 147.373  1.00  0.00     0.013 C 
ATOM      7  C   UNL     1     166.482 150.815 149.382  1.00  0.00    -0.063 C 
ATOM      8  C   UNL     1     164.770 152.529 150.426  1.00  0.00    -0.003 C 
ATOM      9  C   UNL     1     164.719 153.633 151.540  1.00  0.00    -0.011 C 
ATOM     10  C   UNL     1     166.599 150.732 147.828  1.00  0.00    -0.006 C 
ATOM     11  C   UNL     1     166.539 149.696 150.132  1.00  0.00    -0.027 C 
ATOM     12  C   UNL     1     163.897 151.317 150.831  1.00  0.00     0.008 C 
ATOM     13  C   UNL     1     163.358 154.366 151.559  1.00  0.00     0.008 C 
ATOM     14  C   UNL     1     165.144 150.829 147.287  1.00  0.00     0.017 C 
ATOM     15  C   UNL     1     167.365 149.350 147.276  1.00  0.00    -0.020 C 
ATOM     16  C   UNL     1     166.807 148.376 149.538  1.00  0.00     0.032 C 
ATOM     17  C   UNL     1     167.960 148.524 148.495  1.00  0.00     0.006 C 
ATOM     18  C   UNL     1     166.406 148.386 146.472  1.00  0.00     0.008 C 
ATOM     19  C   UNL     1     168.485 149.739 146.253  1.00  0.00     0.012 C 
ATOM     20  C   UNL     1     168.628 147.112 148.156  1.00  0.00    -0.025 C 
ATOM     21  C   UNL     1     166.991 146.987 146.138  1.00  0.00     0.005 C 
ATOM     22  C   UNL     1     167.551 146.253 147.388  1.00  0.00     0.003 C 
ATOM     23  C   UNL     1     169.100 146.401 149.496  1.00  0.00     0.010 C 
ATOM     24  C   UNL     1     169.933 147.281 147.311  1.00  0.00     0.012 C 
ATOM     25  C   UNL     1     167.907 144.728 147.163  1.00  0.00    -0.006 C 
ATOM     26  C   UNL     1     168.519 144.996 149.678  1.00  0.00     0.033 C 
ATOM     27  C   UNL     1     168.735 144.172 148.397  1.00  0.00     0.120 C 
ATOM     28  C   UNL     1     168.735 144.479 145.875  1.00  0.00     0.014 C 
ATOM     29  C   UNL     1     166.577 143.929 147.000  1.00  0.00     0.014 C 
ENDROOT
BRANCH   1  30
ATOM     30  C   UNL     1     168.539 153.268 149.940  1.00  0.00     0.048 C 
ATOM     31  O   UNL     1     168.878 152.972 151.122  1.00  0.00    -0.550 OA
ATOM     32  O   UNL     1     169.537 153.629 149.031  1.00  0.00    -0.550 OA
ENDBRANCH   1  30
BRANCH  27  33
ATOM     33  O   UNL     1     168.515 142.800 148.633  1.00  0.00    -0.393 OA
ATOM     34  H   UNL     1     167.663 142.553 148.186  1.00  0.00     0.210 HD
ENDBRANCH  27  33
TORSDOF 2
ENDMDL
MODEL 3
REMARK VINA RESULT:    -9.097      2.593      8.070
REMARK INTER + INTRA:         -10.083
REMARK INTER:                  -9.834
REMARK INTRA:                  -0.249
REMARK UNBOUND:                -0.189
REMARK SMILES C[C@H]1[C@H](C)CC[C@]2(C(=O)[O-])CC[C@]3(C)C(=CC[C@H]4[C@@]5(C)CC[C@@H](O)C(C)(C)[C@@H]5CC[C@]43C)[C@H]12
REMARK SMILES IDX 7 1 6 2 11 3 33 4 5 5 12 6 15 7 2 8 3 9 13 10 16 11 1 12
REMARK SMILES IDX 4 13 14 14 31 15 17 16 18 17 30 18 32 19 19 20 29 21 28 22
REMARK SMILES IDX 21 23 20 24 25 25 22 26 23 27 26 28 27 29 8 30 9 31 10 32
REMARK SMILES IDX 24 33
REMARK H PARENT 24 34
REMARK Flexibility Score: inf
ROOT
ATOM      1  C   UNL     1     167.091 150.609 148.108  1.00  0.00     0.017 C 
ATOM      2  C   UNL     1     166.406 151.879 147.505  1.00  0.00     0.014 C 
ATOM      3  C   UNL     1     167.804 149.877 146.950  1.00  0.00     0.014 C 
ATOM      4  C   UNL     1     166.044 149.628 148.758  1.00  0.00     0.030 C 
ATOM      5  C   UNL     1     165.136 152.272 148.264  1.00  0.00     0.004 C 
ATOM      6  C   UNL     1     168.480 148.573 147.388  1.00  0.00     0.013 C 
ATOM      7  C   UNL     1     166.595 148.202 148.998  1.00  0.00    -0.063 C 
ATOM      8  C   UNL     1     164.666 149.714 148.025  1.00  0.00    -0.003 C 
ATOM      9  C   UNL     1     164.059 151.147 148.227  1.00  0.00    -0.011 C 
ATOM     10  C   UNL     1     167.543 147.468 147.998  1.00  0.00    -0.006 C 
ATOM     11  C   UNL     1     166.183 147.586 150.125  1.00  0.00    -0.027 C 
ATOM     12  C   UNL     1     163.664 148.635 148.497  1.00  0.00     0.008 C 
ATOM     13  C   UNL     1     162.945 151.448 147.200  1.00  0.00     0.008 C 
ATOM     14  C   UNL     1     166.630 146.949 146.852  1.00  0.00     0.017 C 
ATOM     15  C   UNL     1     168.427 146.223 148.686  1.00  0.00    -0.020 C 
ATOM     16  C   UNL     1     166.676 146.252 150.506  1.00  0.00     0.032 C 
ATOM     17  C   UNL     1     168.217 146.202 150.261  1.00  0.00     0.006 C 
ATOM     18  C   UNL     1     168.027 144.799 148.135  1.00  0.00     0.008 C 
ATOM     19  C   UNL     1     169.940 146.382 148.316  1.00  0.00     0.012 C 
ATOM     20  C   UNL     1     168.901 145.003 151.066  1.00  0.00    -0.025 C 
ATOM     21  C   UNL     1     168.639 143.592 148.897  1.00  0.00     0.005 C 
ATOM     22  C   UNL     1     168.388 143.654 150.429  1.00  0.00     0.003 C 
ATOM     23  C   UNL     1     168.529 145.104 152.607  1.00  0.00     0.010 C 
ATOM     24  C   UNL     1     170.462 145.097 151.024  1.00  0.00     0.012 C 
ATOM     25  C   UNL     1     168.743 142.330 151.219  1.00  0.00    -0.006 C 
ATOM     26  C   UNL     1     167.883 143.831 153.163  1.00  0.00     0.033 C 
ATOM     27  C   UNL     1     168.733 142.606 152.781  1.00  0.00     0.120 C 
ATOM     28  C   UNL     1     170.130 141.750 150.841  1.00  0.00     0.014 C 
ATOM     29  C   UNL     1     167.688 141.240 150.855  1.00  0.00     0.014 C 
ENDROOT
BRANCH   1  30
ATOM     30  C   UNL     1     168.110 151.071 149.160  1.00  0.00     0.048 C 
ATOM     31  O   UNL     1     167.793 151.131 150.383  1.00  0.00    -0.550 OA
ATOM     32  O   UNL     1     169.364 151.551 148.773  1.00  0.00    -0.550 OA
ENDBRANCH   1  30
BRANCH  27  33
ATOM     33  O   UNL     1     168.361 141.476 153.536  1.00  0.00    -0.393 OA
ATOM     34  H   UNL     1     169.137 141.226 154.102  1.00  0.00     0.210 HD
ENDBRANCH  27  33
TORSDOF 2
ENDMDL
MODEL 4
REMARK VINA RESULT:    -7.847      5.904     10.302
REMARK INTER + INTRA:          -8.723
REMARK INTER:                  -8.641
REMARK INTRA:                  -0.082
REMARK UNBOUND:                -0.189
REMARK SMILES C[C@H]1[C@H](C)CC[C@]2(C(=O)[O-])CC[C@]3(C)C(=CC[C@H]4[C@@]5(C)CC[C@@H](O)C(C)(C)[C@@H]5CC[C@]43C)[C@H]12
REMARK SMILES IDX 7 1 6 2 11 3 33 4 5 5 12 6 15 7 2 8 3 9 13 10 16 11 1 12
REMARK SMILES IDX 4 13 14 14 31 15 17 16 18 17 30 18 32 19 19 20 29 21 28 22
REMARK SMILES IDX 21 23 20 24 25 25 22 26 23 27 26 28 27 29 8 30 9 31 10 32
REMARK SMILES IDX 24 33
REMARK H PARENT 24 34
REMARK Flexibility Score: inf
ROOT
ATOM      1  C   UNL     1     172.803 142.672 157.923  1.00  0.00     0.017 C 
ATOM      2  C   UNL     1     173.765 142.636 159.156  1.00  0.00     0.014 C 
ATOM      3  C   UNL     1     173.031 141.369 157.124  1.00  0.00     0.014 C 
ATOM      4  C   UNL     1     173.096 143.900 156.982  1.00  0.00     0.030 C 
ATOM      5  C   UNL     1     174.203 144.038 159.593  1.00  0.00     0.004 C 
ATOM      6  C   UNL     1     172.186 141.291 155.848  1.00  0.00     0.013 C 
ATOM      7  C   UNL     1     172.472 143.766 155.572  1.00  0.00    -0.063 C 
ATOM      8  C   UNL     1     174.610 144.290 157.025  1.00  0.00    -0.003 C 
ATOM      9  C   UNL     1     174.976 144.787 158.468  1.00  0.00    -0.011 C 
ATOM     10  C   UNL     1     172.421 142.421 154.780  1.00  0.00    -0.006 C 
ATOM     11  C   UNL     1     171.991 144.900 155.023  1.00  0.00    -0.027 C 
ATOM     12  C   UNL     1     174.987 145.361 155.976  1.00  0.00     0.008 C 
ATOM     13  C   UNL     1     176.503 144.773 158.708  1.00  0.00     0.008 C 
ATOM     14  C   UNL     1     173.847 142.218 154.196  1.00  0.00     0.017 C 
ATOM     15  C   UNL     1     171.257 142.383 153.578  1.00  0.00    -0.020 C 
ATOM     16  C   UNL     1     171.317 144.904 153.713  1.00  0.00     0.032 C 
ATOM     17  C   UNL     1     170.346 143.683 153.649  1.00  0.00     0.006 C 
ATOM     18  C   UNL     1     171.867 142.310 152.124  1.00  0.00     0.008 C 
ATOM     19  C   UNL     1     170.398 141.080 153.715  1.00  0.00     0.012 C 
ATOM     20  C   UNL     1     169.252 143.864 152.499  1.00  0.00    -0.025 C 
ATOM     21  C   UNL     1     170.854 142.508 150.963  1.00  0.00     0.005 C 
ATOM     22  C   UNL     1     170.007 143.802 151.115  1.00  0.00     0.003 C 
ATOM     23  C   UNL     1     168.489 145.245 152.690  1.00  0.00     0.010 C 
ATOM     24  C   UNL     1     168.134 142.774 152.589  1.00  0.00     0.012 C 
ATOM     25  C   UNL     1     169.160 144.200 149.840  1.00  0.00    -0.006 C 
ATOM     26  C   UNL     1     168.539 146.145 151.452  1.00  0.00     0.033 C 
ATOM     27  C   UNL     1     168.123 145.343 150.207  1.00  0.00     0.120 C 
ATOM     28  C   UNL     1     168.370 143.008 149.238  1.00  0.00     0.014 C 
ATOM     29  C   UNL     1     170.139 144.692 148.730  1.00  0.00     0.014 C 
ENDROOT
BRANCH   1  30
ATOM     30  C   UNL     1     171.360 142.736 158.445  1.00  0.00     0.048 C 
ATOM     31  O   UNL     1     170.951 141.910 159.312  1.00  0.00    -0.550 OA
ATOM     32  O   UNL     1     170.439 143.624 157.884  1.00  0.00    -0.550 OA
ENDBRANCH   1  30
BRANCH  27  33
ATOM     33  O   UNL     1     167.843 146.198 149.123  1.00  0.00    -0.393 OA
ATOM     34  H   UNL     1     168.711 146.499 148.747  1.00  0.00     0.210 HD
ENDBRANCH  27  33
TORSDOF 2
ENDMDL
MODEL 5
REMARK VINA RESULT:    -7.630     12.280     16.489
REMARK INTER + INTRA:          -8.488
REMARK INTER:                  -8.531
REMARK INTRA:                   0.043
REMARK UNBOUND:                -0.189
REMARK SMILES C[C@H]1[C@H](C)CC[C@]2(C(=O)[O-])CC[C@]3(C)C(=CC[C@H]4[C@@]5(C)CC[C@@H](O)C(C)(C)[C@@H]5CC[C@]43C)[C@H]12
REMARK SMILES IDX 7 1 6 2 11 3 33 4 5 5 12 6 15 7 2 8 3 9 13 10 16 11 1 12
REMARK SMILES IDX 4 13 14 14 31 15 17 16 18 17 30 18 32 19 19 20 29 21 28 22
REMARK SMILES IDX 21 23 20 24 25 25 22 26 23 27 26 28 27 29 8 30 9 31 10 32
REMARK SMILES IDX 24 33
REMARK H PARENT 24 34
REMARK Flexibility Score: inf
ROOT
ATOM      1  C   UNL     1     164.778 159.098 164.537  1.00  0.00     0.017 C 
ATOM      2  C   UNL     1     165.666 158.951 165.816  1.00  0.00     0.014 C 
ATOM      3  C   UNL     1     163.790 157.910 164.524  1.00  0.00     0.014 C 
ATOM      4  C   UNL     1     165.635 159.057 163.217  1.00  0.00     0.030 C 
ATOM      5  C   UNL     1     167.069 159.531 165.620  1.00  0.00     0.004 C 
ATOM      6  C   UNL     1     162.884 157.895 163.287  1.00  0.00     0.013 C 
ATOM      7  C   UNL     1     164.800 158.790 161.941  1.00  0.00    -0.063 C 
ATOM      8  C   UNL     1     166.905 158.164 163.401  1.00  0.00    -0.003 C 
ATOM      9  C   UNL     1     167.846 158.815 164.475  1.00  0.00    -0.011 C 
ATOM     10  C   UNL     1     163.602 157.789 161.893  1.00  0.00    -0.006 C 
ATOM     11  C   UNL     1     165.182 159.451 160.830  1.00  0.00    -0.027 C 
ATOM     12  C   UNL     1     167.677 157.933 162.081  1.00  0.00     0.008 C 
ATOM     13  C   UNL     1     168.878 157.803 165.023  1.00  0.00     0.008 C 
ATOM     14  C   UNL     1     164.236 156.373 161.805  1.00  0.00     0.017 C 
ATOM     15  C   UNL     1     162.537 158.062 160.630  1.00  0.00    -0.020 C 
ATOM     16  C   UNL     1     164.439 159.336 159.563  1.00  0.00     0.032 C 
ATOM     17  C   UNL     1     162.911 159.408 159.875  1.00  0.00     0.006 C 
ATOM     18  C   UNL     1     162.533 156.902 159.559  1.00  0.00     0.008 C 
ATOM     19  C   UNL     1     161.070 158.105 161.176  1.00  0.00     0.012 C 
ATOM     20  C   UNL     1     162.063 159.764 158.567  1.00  0.00    -0.025 C 
ATOM     21  C   UNL     1     161.747 157.201 158.254  1.00  0.00     0.005 C 
ATOM     22  C   UNL     1     162.176 158.536 157.583  1.00  0.00     0.003 C 
ATOM     23  C   UNL     1     162.618 161.098 157.908  1.00  0.00     0.010 C 
ATOM     24  C   UNL     1     160.571 160.080 158.917  1.00  0.00     0.012 C 
ATOM     25  C   UNL     1     161.615 158.760 156.121  1.00  0.00    -0.006 C 
ATOM     26  C   UNL     1     163.009 160.934 156.437  1.00  0.00     0.033 C 
ATOM     27  C   UNL     1     161.863 160.259 155.664  1.00  0.00     0.120 C 
ATOM     28  C   UNL     1     160.097 158.464 156.000  1.00  0.00     0.014 C 
ATOM     29  C   UNL     1     162.341 157.772 155.157  1.00  0.00     0.014 C 
ENDROOT
BRANCH   1  30
ATOM     30  C   UNL     1     164.017 160.428 164.635  1.00  0.00     0.048 C 
ATOM     31  O   UNL     1     163.621 160.863 165.755  1.00  0.00    -0.550 OA
ATOM     32  O   UNL     1     163.640 161.119 163.481  1.00  0.00    -0.550 OA
ENDBRANCH   1  30
BRANCH  27  33
ATOM     33  O   UNL     1     162.045 160.385 154.273  1.00  0.00    -0.393 OA
ATOM     34  H   UNL     1     162.964 160.071 154.061  1.00  0.00     0.210 HD
ENDBRANCH  27  33
TORSDOF 2
ENDMDL
MODEL 6
REMARK VINA RESULT:    -7.627      4.605      9.769
REMARK INTER + INTRA:          -8.484
REMARK INTER:                  -8.381
REMARK INTRA:                  -0.103
REMARK UNBOUND:                -0.189
REMARK SMILES C[C@H]1[C@H](C)CC[C@]2(C(=O)[O-])CC[C@]3(C)C(=CC[C@H]4[C@@]5(C)CC[C@@H](O)C(C)(C)[C@@H]5CC[C@]43C)[C@H]12
REMARK SMILES IDX 7 1 6 2 11 3 33 4 5 5 12 6 15 7 2 8 3 9 13 10 16 11 1 12
REMARK SMILES IDX 4 13 14 14 31 15 17 16 18 17 30 18 32 19 19 20 29 21 28 22
REMARK SMILES IDX 21 23 20 24 25 25 22 26 23 27 26 28 27 29 8 30 9 31 10 32
REMARK SMILES IDX 24 33
REMARK H PARENT 24 34
REMARK Flexibility Score: inf
ROOT
ATOM      1  C   UNL     1     168.886 145.319 149.688  1.00  0.00     0.017 C 
ATOM      2  C   UNL     1     167.873 145.925 148.662  1.00  0.00     0.014 C 
ATOM      3  C   UNL     1     168.767 143.782 149.599  1.00  0.00     0.014 C 
ATOM      4  C   UNL     1     168.569 145.767 151.164  1.00  0.00     0.030 C 
ATOM      5  C   UNL     1     167.339 147.290 149.108  1.00  0.00     0.004 C 
ATOM      6  C   UNL     1     169.672 143.050 150.597  1.00  0.00     0.013 C 
ATOM      7  C   UNL     1     169.263 144.897 152.240  1.00  0.00    -0.063 C 
ATOM      8  C   UNL     1     167.036 146.003 151.360  1.00  0.00    -0.003 C 
ATOM      9  C   UNL     1     166.577 147.207 150.464  1.00  0.00    -0.011 C 
ATOM     10  C   UNL     1     169.424 143.349 152.119  1.00  0.00    -0.006 C 
ATOM     11  C   UNL     1     169.706 145.547 153.336  1.00  0.00    -0.027 C 
ATOM     12  C   UNL     1     166.649 146.255 152.836  1.00  0.00     0.008 C 
ATOM     13  C   UNL     1     165.045 147.224 150.267  1.00  0.00     0.008 C 
ATOM     14  C   UNL     1     168.039 142.748 152.491  1.00  0.00     0.017 C 
ATOM     15  C   UNL     1     170.642 142.715 153.077  1.00  0.00    -0.020 C 
ATOM     16  C   UNL     1     170.437 144.851 154.409  1.00  0.00     0.032 C 
ATOM     17  C   UNL     1     171.475 143.884 153.757  1.00  0.00     0.006 C 
ATOM     18  C   UNL     1     170.103 141.783 154.232  1.00  0.00     0.008 C 
ATOM     19  C   UNL     1     171.564 141.788 152.215  1.00  0.00     0.012 C 
ATOM     20  C   UNL     1     172.609 143.455 154.798  1.00  0.00    -0.025 C 
ATOM     21  C   UNL     1     171.155 141.355 155.291  1.00  0.00     0.005 C 
ATOM     22  C   UNL     1     171.922 142.560 155.902  1.00  0.00     0.003 C 
ATOM     23  C   UNL     1     173.285 144.747 155.427  1.00  0.00     0.010 C 
ATOM     24  C   UNL     1     173.780 142.693 154.093  1.00  0.00     0.012 C 
ATOM     25  C   UNL     1     172.803 142.219 157.170  1.00  0.00    -0.006 C 
ATOM     26  C   UNL     1     173.242 144.775 156.957  1.00  0.00     0.033 C 
ATOM     27  C   UNL     1     173.758 143.438 157.517  1.00  0.00     0.120 C 
ATOM     28  C   UNL     1     173.684 140.957 156.978  1.00  0.00     0.014 C 
ATOM     29  C   UNL     1     171.850 141.920 158.368  1.00  0.00     0.014 C 
ENDROOT
BRANCH   1  30
ATOM     30  C   UNL     1     170.298 145.772 149.287  1.00  0.00     0.048 C 
ATOM     31  O   UNL     1     170.713 146.929 149.584  1.00  0.00    -0.550 OA
ATOM     32  O   UNL     1     171.103 144.962 148.482  1.00  0.00    -0.550 OA
ENDBRANCH   1  30
BRANCH  27  33
ATOM     33  O   UNL     1     174.040 143.540 158.894  1.00  0.00    -0.393 OA
ATOM     34  H   UNL     1     174.149 144.504 159.107  1.00  0.00     0.210 HD
ENDBRANCH  27  33
TORSDOF 2
ENDMDL
MODEL 7
REMARK VINA RESULT:    -7.597      2.570      4.177
REMARK INTER + INTRA:          -8.452
REMARK INTER:                  -8.823
REMARK INTRA:                   0.371
REMARK UNBOUND:                -0.189
REMARK SMILES C[C@H]1[C@H](C)CC[C@]2(C(=O)[O-])CC[C@]3(C)C(=CC[C@H]4[C@@]5(C)CC[C@@H](O)C(C)(C)[C@@H]5CC[C@]43C)[C@H]12
REMARK SMILES IDX 7 1 6 2 11 3 33 4 5 5 12 6 15 7 2 8 3 9 13 10 16 11 1 12
REMARK SMILES IDX 4 13 14 14 31 15 17 16 18 17 30 18 32 19 19 20 29 21 28 22
REMARK SMILES IDX 21 23 20 24 25 25 22 26 23 27 26 28 27 29 8 30 9 31 10 32
REMARK SMILES IDX 24 33
REMARK H PARENT 24 34
REMARK Flexibility Score: inf
ROOT
ATOM      1  C   UNL     1     169.258 143.020 150.969  1.00  0.00     0.017 C 
ATOM      2  C   UNL     1     169.937 141.986 151.926  1.00  0.00     0.014 C 
ATOM      3  C   UNL     1     170.354 143.558 150.022  1.00  0.00     0.014 C 
ATOM      4  C   UNL     1     168.633 144.231 151.758  1.00  0.00     0.030 C 
ATOM      5  C   UNL     1     169.258 141.930 153.298  1.00  0.00     0.004 C 
ATOM      6  C   UNL     1     169.839 144.630 149.054  1.00  0.00     0.013 C 
ATOM      7  C   UNL     1     168.319 145.458 150.867  1.00  0.00    -0.063 C 
ATOM      8  C   UNL     1     169.440 144.525 153.065  1.00  0.00    -0.003 C 
ATOM      9  C   UNL     1     169.315 143.300 154.038  1.00  0.00    -0.011 C 
ATOM     10  C   UNL     1     169.244 145.932 149.702  1.00  0.00    -0.006 C 
ATOM     11  C   UNL     1     167.196 146.141 151.169  1.00  0.00    -0.027 C 
ATOM     12  C   UNL     1     168.987 145.822 153.774  1.00  0.00     0.008 C 
ATOM     13  C   UNL     1     170.409 143.322 155.129  1.00  0.00     0.008 C 
ATOM     14  C   UNL     1     170.419 146.693 150.377  1.00  0.00     0.017 C 
ATOM     15  C   UNL     1     168.471 146.888 148.565  1.00  0.00    -0.020 C 
ATOM     16  C   UNL     1     166.747 147.291 150.366  1.00  0.00     0.032 C 
ATOM     17  C   UNL     1     166.910 146.936 148.854  1.00  0.00     0.006 C 
ATOM     18  C   UNL     1     168.996 148.376 148.543  1.00  0.00     0.008 C 
ATOM     19  C   UNL     1     168.766 146.341 147.127  1.00  0.00     0.012 C 
ATOM     20  C   UNL     1     166.031 147.898 147.928  1.00  0.00    -0.025 C 
ATOM     21  C   UNL     1     168.165 149.366 147.682  1.00  0.00     0.005 C 
ATOM     22  C   UNL     1     166.651 149.346 148.031  1.00  0.00     0.003 C 
ATOM     23  C   UNL     1     164.516 147.873 148.404  1.00  0.00     0.010 C 
ATOM     24  C   UNL     1     165.995 147.397 146.447  1.00  0.00     0.012 C 
ATOM     25  C   UNL     1     165.802 150.515 147.388  1.00  0.00    -0.006 C 
ATOM     26  C   UNL     1     163.955 149.261 148.724  1.00  0.00     0.033 C 
ATOM     27  C   UNL     1     164.252 150.225 147.562  1.00  0.00     0.120 C 
ATOM     28  C   UNL     1     166.087 150.715 145.876  1.00  0.00     0.014 C 
ATOM     29  C   UNL     1     166.185 151.851 148.095  1.00  0.00     0.014 C 
ENDROOT
BRANCH   1  30
ATOM     30  C   UNL     1     168.170 142.288 150.171  1.00  0.00     0.048 C 
ATOM     31  O   UNL     1     167.368 141.498 150.748  1.00  0.00    -0.550 OA
ATOM     32  O   UNL     1     168.124 142.383 148.778  1.00  0.00    -0.550 OA
ENDBRANCH   1  30
BRANCH  27  33
ATOM     33  O   UNL     1     163.482 151.400 147.668  1.00  0.00    -0.393 OA
ATOM     34  H   UNL     1     163.231 151.678 146.748  1.00  0.00     0.210 HD
ENDBRANCH  27  33
TORSDOF 2
ENDMDL
MODEL 8
REMARK VINA RESULT:    -7.463      2.465      8.049
REMARK INTER + INTRA:          -8.306
REMARK INTER:                  -8.103
REMARK INTRA:                  -0.204
REMARK UNBOUND:                -0.189
REMARK SMILES C[C@H]1[C@H](C)CC[C@]2(C(=O)[O-])CC[C@]3(C)C(=CC[C@H]4[C@@]5(C)CC[C@@H](O)C(C)(C)[C@@H]5CC[C@]43C)[C@H]12
REMARK SMILES IDX 7 1 6 2 11 3 33 4 5 5 12 6 15 7 2 8 3 9 13 10 16 11 1 12
REMARK SMILES IDX 4 13 14 14 31 15 17 16 18 17 30 18 32 19 19 20 29 21 28 22
REMARK SMILES IDX 21 23 20 24 25 25 22 26 23 27 26 28 27 29 8 30 9 31 10 32
REMARK SMILES IDX 24 33
REMARK H PARENT 24 34
REMARK Flexibility Score: inf
ROOT
ATOM      1  C   UNL     1     167.320 151.311 148.477  1.00  0.00     0.017 C 
ATOM      2  C   UNL     1     166.634 152.702 148.274  1.00  0.00     0.014 C 
ATOM      3  C   UNL     1     167.187 150.534 147.149  1.00  0.00     0.014 C 
ATOM      4  C   UNL     1     166.632 150.477 149.622  1.00  0.00     0.030 C 
ATOM      5  C   UNL     1     166.037 153.252 149.573  1.00  0.00     0.004 C 
ATOM      6  C   UNL     1     167.773 149.119 147.219  1.00  0.00     0.013 C 
ATOM      7  C   UNL     1     166.990 148.971 149.595  1.00  0.00    -0.063 C 
ATOM      8  C   UNL     1     165.109 150.816 149.724  1.00  0.00    -0.003 C 
ATOM      9  C   UNL     1     164.939 152.315 150.157  1.00  0.00    -0.011 C 
ATOM     10  C   UNL     1     167.136 148.147 148.277  1.00  0.00    -0.006 C 
ATOM     11  C   UNL     1     167.142 148.373 150.794  1.00  0.00    -0.027 C 
ATOM     12  C   UNL     1     164.349 149.886 150.699  1.00  0.00     0.008 C 
ATOM     13  C   UNL     1     163.516 152.838 149.861  1.00  0.00     0.008 C 
ATOM     14  C   UNL     1     165.687 147.837 147.808  1.00  0.00     0.017 C 
ATOM     15  C   UNL     1     168.037 146.746 148.446  1.00  0.00    -0.020 C 
ATOM     16  C   UNL     1     167.540 146.961 150.913  1.00  0.00     0.032 C 
ATOM     17  C   UNL     1     168.689 146.681 149.893  1.00  0.00     0.006 C 
ATOM     18  C   UNL     1     167.185 145.432 148.249  1.00  0.00     0.008 C 
ATOM     19  C   UNL     1     169.130 146.682 147.326  1.00  0.00     0.012 C 
ATOM     20  C   UNL     1     169.492 145.350 150.265  1.00  0.00    -0.025 C 
ATOM     21  C   UNL     1     167.903 144.107 148.623  1.00  0.00     0.005 C 
ATOM     22  C   UNL     1     168.512 144.132 150.052  1.00  0.00     0.003 C 
ATOM     23  C   UNL     1     170.010 145.432 151.765  1.00  0.00     0.010 C 
ATOM     24  C   UNL     1     170.788 145.198 149.402  1.00  0.00     0.012 C 
ATOM     25  C   UNL     1     169.013 142.731 150.591  1.00  0.00    -0.006 C 
ATOM     26  C   UNL     1     169.561 144.251 152.630  1.00  0.00     0.033 C 
ATOM     27  C   UNL     1     169.872 142.928 151.909  1.00  0.00     0.120 C 
ATOM     28  C   UNL     1     169.879 141.958 149.562  1.00  0.00     0.014 C 
ATOM     29  C   UNL     1     167.766 141.841 150.884  1.00  0.00     0.014 C 
ENDROOT
BRANCH   1  30
ATOM     30  C   UNL     1     168.799 151.554 148.812  1.00  0.00     0.048 C 
ATOM     31  O   UNL     1     169.168 151.734 150.008  1.00  0.00    -0.550 OA
ATOM     32  O   UNL     1     169.743 151.704 147.793  1.00  0.00    -0.550 OA
ENDBRANCH   1  30
BRANCH  27  33
ATOM     33  O   UNL     1     169.779 141.835 152.794  1.00  0.00    -0.393 OA
ATOM     34  H   UNL     1     170.675 141.702 153.201  1.00  0.00     0.210 HD
ENDBRANCH  27  33
TORSDOF 2
ENDMDL
