MODEL 1
REMARK VINA RESULT:    -7.876      0.000      0.000
REMARK INTER + INTRA:          -9.767
REMARK INTER:                  -9.487
REMARK INTRA:                  -0.280
REMARK UNBOUND:                -0.280
REMARK SMILES O=c1c(O)c(-c2ccc(O)c(O)c2)oc2cc(O)cc(O)c12
REMARK SMILES IDX 5 1 3 2 2 3 1 4 22 5 20 6 19 7 17 8 16 9 15 10 14 11 6 12
REMARK SMILES IDX 7 13 8 14 9 15 13 16 11 17 10 18 12 20 4 22 21 24 18 26
REMARK H PARENT 10 19 12 21 4 23 21 25 18 27
REMARK Flexibility Score: inf
ROOT
ATOM      1  C   UNL     1     -35.932  -5.695 -16.370  1.00  0.00     0.180 A 
ATOM      2  C   UNL     1     -36.483  -5.090 -17.513  1.00  0.00     0.208 A 
ATOM      3  C   UNL     1     -35.668  -4.268 -18.307  1.00  0.00     0.238 A 
ATOM      4  O   UNL     1     -36.153  -3.772 -19.359  1.00  0.00    -0.285 OA
ATOM      5  C   UNL     1     -34.318  -4.048 -17.942  1.00  0.00     0.111 A 
ATOM      6  C   UNL     1     -33.414  -3.202 -18.651  1.00  0.00     0.134 A 
ATOM      7  C   UNL     1     -32.066  -3.162 -18.274  1.00  0.00     0.093 A 
ATOM      8  C   UNL     1     -31.605  -3.886 -17.172  1.00  0.00     0.123 A 
ATOM      9  C   UNL     1     -32.493  -4.668 -16.437  1.00  0.00     0.094 A 
ATOM     10  C   UNL     1     -33.835  -4.757 -16.812  1.00  0.00     0.146 A 
ATOM     11  O   UNL     1     -34.646  -5.522 -16.089  1.00  0.00    -0.452 OA
ENDROOT
BRANCH   1  12
ATOM     12  C   UNL     1     -36.734  -6.554 -15.470  1.00  0.00     0.025 A 
ATOM     13  C   UNL     1     -36.522  -7.940 -15.468  1.00  0.00     0.016 A 
ATOM     14  C   UNL     1     -37.253  -8.766 -14.613  1.00  0.00     0.051 A 
ATOM     15  C   UNL     1     -38.197  -8.226 -13.733  1.00  0.00     0.157 A 
ATOM     16  C   UNL     1     -37.665  -6.006 -14.571  1.00  0.00     0.062 A 
ATOM     17  C   UNL     1     -38.401  -6.826 -13.707  1.00  0.00     0.158 A 
BRANCH  15  18
ATOM     18  O   UNL     1     -38.900  -9.107 -12.908  1.00  0.00    -0.504 OA
ATOM     19  H   UNL     1     -38.786 -10.110 -12.926  1.00  0.00     0.293 HD
ENDBRANCH  15  18
BRANCH  17  20
ATOM     20  O   UNL     1     -39.311  -6.213 -12.841  1.00  0.00    -0.504 OA
ATOM     21  H   UNL     1     -39.441  -5.214 -12.775  1.00  0.00     0.293 HD
ENDBRANCH  17  20
ENDBRANCH   1  12
BRANCH   2  22
ATOM     22  O   UNL     1     -37.813  -5.337 -17.867  1.00  0.00    -0.502 OA
ATOM     23  H   UNL     1     -38.373  -6.047 -17.413  1.00  0.00     0.293 HD
ENDBRANCH   2  22
BRANCH   6  24
ATOM     24  O   UNL     1     -33.792  -2.367 -19.707  1.00  0.00    -0.507 OA
ATOM     25  H   UNL     1     -34.669  -2.428 -20.202  1.00  0.00     0.293 HD
ENDBRANCH   6  24
BRANCH   8  26
ATOM     26  O   UNL     1     -30.265  -3.828 -16.794  1.00  0.00    -0.508 OA
ATOM     27  H   UNL     1     -29.989  -3.813 -15.820  1.00  0.00     0.293 HD
ENDBRANCH   8  26
TORSDOF 6
ENDMDL
MODEL 2
REMARK VINA RESULT:    -7.719      1.920      7.008
REMARK INTER + INTRA:          -9.579
REMARK INTER:                  -9.342
REMARK INTRA:                  -0.237
REMARK UNBOUND:                -0.280
REMARK SMILES O=c1c(O)c(-c2ccc(O)c(O)c2)oc2cc(O)cc(O)c12
REMARK SMILES IDX 5 1 3 2 2 3 1 4 22 5 20 6 19 7 17 8 16 9 15 10 14 11 6 12
REMARK SMILES IDX 7 13 8 14 9 15 13 16 11 17 10 18 12 20 4 22 21 24 18 26
REMARK H PARENT 10 19 12 21 4 23 21 25 18 27
REMARK Flexibility Score: inf
ROOT
ATOM      1  C   UNL     1     -34.746  -3.841 -17.061  1.00  0.00     0.180 A 
ATOM      2  C   UNL     1     -35.690  -2.956 -16.512  1.00  0.00     0.208 A 
ATOM      3  C   UNL     1     -36.775  -3.480 -15.792  1.00  0.00     0.238 A 
ATOM      4  O   UNL     1     -37.588  -2.681 -15.257  1.00  0.00    -0.285 OA
ATOM      5  C   UNL     1     -36.912  -4.882 -15.643  1.00  0.00     0.111 A 
ATOM      6  C   UNL     1     -37.993  -5.523 -14.968  1.00  0.00     0.134 A 
ATOM      7  C   UNL     1     -37.958  -6.908 -14.768  1.00  0.00     0.093 A 
ATOM      8  C   UNL     1     -36.912  -7.683 -15.277  1.00  0.00     0.123 A 
ATOM      9  C   UNL     1     -35.882  -7.073 -15.989  1.00  0.00     0.094 A 
ATOM     10  C   UNL     1     -35.871  -5.688 -16.172  1.00  0.00     0.146 A 
ATOM     11  O   UNL     1     -34.865  -5.146 -16.849  1.00  0.00    -0.452 OA
ENDROOT
BRANCH   1  12
ATOM     12  C   UNL     1     -33.589  -3.365 -17.854  1.00  0.00     0.025 A 
ATOM     13  C   UNL     1     -32.291  -3.532 -17.349  1.00  0.00     0.016 A 
ATOM     14  C   UNL     1     -31.186  -3.109 -18.090  1.00  0.00     0.051 A 
ATOM     15  C   UNL     1     -31.351  -2.527 -19.351  1.00  0.00     0.157 A 
ATOM     16  C   UNL     1     -33.757  -2.802 -19.130  1.00  0.00     0.062 A 
ATOM     17  C   UNL     1     -32.654  -2.377 -19.881  1.00  0.00     0.158 A 
BRANCH  15  18
ATOM     18  O   UNL     1     -30.205  -2.119 -20.037  1.00  0.00    -0.504 OA
ATOM     19  H   UNL     1     -29.785  -2.638 -20.794  1.00  0.00     0.293 HD
ENDBRANCH  15  18
BRANCH  17  20
ATOM     20  O   UNL     1     -32.896  -1.824 -21.141  1.00  0.00    -0.504 OA
ATOM     21  H   UNL     1     -33.810  -1.551 -21.471  1.00  0.00     0.293 HD
ENDBRANCH  17  20
ENDBRANCH   1  12
BRANCH   2  22
ATOM     22  O   UNL     1     -35.525  -1.575 -16.653  1.00  0.00    -0.502 OA
ATOM     23  H   UNL     1     -36.082  -0.905 -16.138  1.00  0.00     0.293 HD
ENDBRANCH   2  22
BRANCH   6  24
ATOM     24  O   UNL     1     -39.129  -4.854 -14.503  1.00  0.00    -0.507 OA
ATOM     25  H   UNL     1     -40.024  -4.849 -14.969  1.00  0.00     0.293 HD
ENDBRANCH   6  24
BRANCH   8  26
ATOM     26  O   UNL     1     -36.893  -9.063 -15.087  1.00  0.00    -0.508 OA
ATOM     27  H   UNL     1     -36.666  -9.472 -14.189  1.00  0.00     0.293 HD
ENDBRANCH   8  26
TORSDOF 6
ENDMDL
MODEL 3
REMARK VINA RESULT:    -7.631      1.056      1.575
REMARK INTER + INTRA:          -9.473
REMARK INTER:                  -9.272
REMARK INTRA:                  -0.201
REMARK UNBOUND:                -0.280
REMARK SMILES O=c1c(O)c(-c2ccc(O)c(O)c2)oc2cc(O)cc(O)c12
REMARK SMILES IDX 5 1 3 2 2 3 1 4 22 5 20 6 19 7 17 8 16 9 15 10 14 11 6 12
REMARK SMILES IDX 7 13 8 14 9 15 13 16 11 17 10 18 12 20 4 22 21 24 18 26
REMARK H PARENT 10 19 12 21 4 23 21 25 18 27
REMARK Flexibility Score: inf
ROOT
ATOM      1  C   UNL     1     -36.533  -5.068 -16.331  1.00  0.00     0.180 A 
ATOM      2  C   UNL     1     -36.960  -4.518 -17.552  1.00  0.00     0.208 A 
ATOM      3  C   UNL     1     -36.017  -3.898 -18.386  1.00  0.00     0.238 A 
ATOM      4  O   UNL     1     -36.396  -3.455 -19.503  1.00  0.00    -0.285 OA
ATOM      5  C   UNL     1     -34.661  -3.820 -17.983  1.00  0.00     0.111 A 
ATOM      6  C   UNL     1     -33.629  -3.180 -18.731  1.00  0.00     0.134 A 
ATOM      7  C   UNL     1     -32.301  -3.278 -18.299  1.00  0.00     0.093 A 
ATOM      8  C   UNL     1     -31.977  -3.938 -17.110  1.00  0.00     0.123 A 
ATOM      9  C   UNL     1     -32.986  -4.515 -16.343  1.00  0.00     0.094 A 
ATOM     10  C   UNL     1     -34.315  -4.466 -16.767  1.00  0.00     0.146 A 
ATOM     11  O   UNL     1     -35.244  -5.038 -16.010  1.00  0.00    -0.452 OA
ENDROOT
BRANCH   1  12
ATOM     12  C   UNL     1     -37.472  -5.716 -15.387  1.00  0.00     0.025 A 
ATOM     13  C   UNL     1     -37.795  -5.073 -14.184  1.00  0.00     0.016 A 
ATOM     14  C   UNL     1     -38.694  -5.657 -13.290  1.00  0.00     0.051 A 
ATOM     15  C   UNL     1     -39.300  -6.883 -13.584  1.00  0.00     0.157 A 
ATOM     16  C   UNL     1     -38.096  -6.936 -15.698  1.00  0.00     0.062 A 
ATOM     17  C   UNL     1     -39.002  -7.529 -14.808  1.00  0.00     0.158 A 
BRANCH  15  18
ATOM     18  O   UNL     1     -40.185  -7.416 -12.645  1.00  0.00    -0.504 OA
ATOM     19  H   UNL     1     -39.896  -7.861 -11.786  1.00  0.00     0.293 HD
ENDBRANCH  15  18
BRANCH  17  20
ATOM     20  O   UNL     1     -39.583  -8.743 -15.180  1.00  0.00    -0.504 OA
ATOM     21  H   UNL     1     -40.558  -8.854 -15.416  1.00  0.00     0.293 HD
ENDBRANCH  17  20
ENDBRANCH   1  12
BRANCH   2  22
ATOM     22  O   UNL     1     -38.299  -4.624 -17.940  1.00  0.00    -0.502 OA
ATOM     23  H   UNL     1     -38.585  -4.623 -18.911  1.00  0.00     0.293 HD
ENDBRANCH   2  22
BRANCH   6  24
ATOM     24  O   UNL     1     -33.856  -2.417 -19.880  1.00  0.00    -0.507 OA
ATOM     25  H   UNL     1     -34.705  -1.907 -20.072  1.00  0.00     0.293 HD
ENDBRANCH   6  24
BRANCH   8  26
ATOM     26  O   UNL     1     -30.654  -4.018 -16.680  1.00  0.00    -0.508 OA
ATOM     27  H   UNL     1     -29.914  -4.337 -17.294  1.00  0.00     0.293 HD
ENDBRANCH   8  26
TORSDOF 6
ENDMDL
MODEL 4
REMARK VINA RESULT:    -7.520      2.281      7.218
REMARK INTER + INTRA:          -9.339
REMARK INTER:                  -9.080
REMARK INTRA:                  -0.259
REMARK UNBOUND:                -0.280
REMARK SMILES O=c1c(O)c(-c2ccc(O)c(O)c2)oc2cc(O)cc(O)c12
REMARK SMILES IDX 5 1 3 2 2 3 1 4 22 5 20 6 19 7 17 8 16 9 15 10 14 11 6 12
REMARK SMILES IDX 7 13 8 14 9 15 13 16 11 17 10 18 12 20 4 22 21 24 18 26
REMARK H PARENT 10 19 12 21 4 23 21 25 18 27
REMARK Flexibility Score: inf
ROOT
ATOM      1  C   UNL     1     -34.294  -3.827 -16.965  1.00  0.00     0.180 A 
ATOM      2  C   UNL     1     -34.509  -5.204 -16.781  1.00  0.00     0.208 A 
ATOM      3  C   UNL     1     -35.523  -5.623 -15.906  1.00  0.00     0.238 A 
ATOM      4  O   UNL     1     -35.746  -6.857 -15.786  1.00  0.00    -0.285 OA
ATOM      5  C   UNL     1     -36.300  -4.662 -15.214  1.00  0.00     0.111 A 
ATOM      6  C   UNL     1     -37.326  -4.975 -14.274  1.00  0.00     0.134 A 
ATOM      7  C   UNL     1     -38.119  -3.946 -13.749  1.00  0.00     0.093 A 
ATOM      8  C   UNL     1     -37.877  -2.611 -14.080  1.00  0.00     0.123 A 
ATOM      9  C   UNL     1     -36.838  -2.291 -14.951  1.00  0.00     0.094 A 
ATOM     10  C   UNL     1     -36.055  -3.298 -15.520  1.00  0.00     0.146 A 
ATOM     11  O   UNL     1     -35.082  -2.950 -16.353  1.00  0.00    -0.452 OA
ENDROOT
BRANCH   1  12
ATOM     12  C   UNL     1     -33.228  -3.308 -17.852  1.00  0.00     0.025 A 
ATOM     13  C   UNL     1     -31.890  -3.381 -17.438  1.00  0.00     0.016 A 
ATOM     14  C   UNL     1     -30.868  -2.917 -18.268  1.00  0.00     0.051 A 
ATOM     15  C   UNL     1     -31.157  -2.385 -19.529  1.00  0.00     0.157 A 
ATOM     16  C   UNL     1     -33.520  -2.797 -19.128  1.00  0.00     0.062 A 
ATOM     17  C   UNL     1     -32.501  -2.331 -19.968  1.00  0.00     0.158 A 
BRANCH  15  18
ATOM     18  O   UNL     1     -30.090  -1.932 -20.307  1.00  0.00    -0.504 OA
ATOM     19  H   UNL     1     -29.765  -2.393 -21.144  1.00  0.00     0.293 HD
ENDBRANCH  15  18
BRANCH  17  20
ATOM     20  O   UNL     1     -32.865  -1.834 -21.222  1.00  0.00    -0.504 OA
ATOM     21  H   UNL     1     -33.544  -2.272 -21.827  1.00  0.00     0.293 HD
ENDBRANCH  17  20
ENDBRANCH   1  12
BRANCH   2  22
ATOM     22  O   UNL     1     -33.744  -6.136 -17.489  1.00  0.00    -0.502 OA
ATOM     23  H   UNL     1     -32.740  -6.205 -17.385  1.00  0.00     0.293 HD
ENDBRANCH   2  22
BRANCH   6  24
ATOM     24  O   UNL     1     -37.589  -6.266 -13.805  1.00  0.00    -0.507 OA
ATOM     25  H   UNL     1     -38.376  -6.517 -13.227  1.00  0.00     0.293 HD
ENDBRANCH   6  24
BRANCH   8  26
ATOM     26  O   UNL     1     -38.660  -1.592 -13.540  1.00  0.00    -0.508 OA
ATOM     27  H   UNL     1     -38.517  -0.622 -13.795  1.00  0.00     0.293 HD
ENDBRANCH   8  26
TORSDOF 6
ENDMDL
MODEL 5
REMARK VINA RESULT:    -7.473      4.592      7.764
REMARK INTER + INTRA:          -9.282
REMARK INTER:                  -9.056
REMARK INTRA:                  -0.226
REMARK UNBOUND:                -0.280
REMARK SMILES O=c1c(O)c(-c2ccc(O)c(O)c2)oc2cc(O)cc(O)c12
REMARK SMILES IDX 5 1 3 2 2 3 1 4 22 5 20 6 19 7 17 8 16 9 15 10 14 11 6 12
REMARK SMILES IDX 7 13 8 14 9 15 13 16 11 17 10 18 12 20 4 22 21 24 18 26
REMARK H PARENT 10 19 12 21 4 23 21 25 18 27
REMARK Flexibility Score: inf
ROOT
ATOM      1  C   UNL     1     -37.823  -4.100 -12.293  1.00  0.00     0.180 A 
ATOM      2  C   UNL     1     -36.635  -4.665 -12.787  1.00  0.00     0.208 A 
ATOM      3  C   UNL     1     -36.681  -5.939 -13.374  1.00  0.00     0.238 A 
ATOM      4  O   UNL     1     -35.624  -6.418 -13.864  1.00  0.00    -0.285 OA
ATOM      5  C   UNL     1     -37.910  -6.639 -13.447  1.00  0.00     0.111 A 
ATOM      6  C   UNL     1     -38.065  -7.951 -13.984  1.00  0.00     0.134 A 
ATOM      7  C   UNL     1     -39.348  -8.493 -14.124  1.00  0.00     0.093 A 
ATOM      8  C   UNL     1     -40.477  -7.796 -13.685  1.00  0.00     0.123 A 
ATOM      9  C   UNL     1     -40.329  -6.538 -13.104  1.00  0.00     0.094 A 
ATOM     10  C   UNL     1     -39.065  -5.957 -12.985  1.00  0.00     0.146 A 
ATOM     11  O   UNL     1     -38.971  -4.752 -12.434  1.00  0.00    -0.452 OA
ENDROOT
BRANCH   1  12
ATOM     12  C   UNL     1     -37.850  -2.772 -11.638  1.00  0.00     0.025 A 
ATOM     13  C   UNL     1     -37.998  -2.691 -10.246  1.00  0.00     0.016 A 
ATOM     14  C   UNL     1     -38.005  -1.450  -9.607  1.00  0.00     0.051 A 
ATOM     15  C   UNL     1     -37.851  -0.268 -10.339  1.00  0.00     0.157 A 
ATOM     16  C   UNL     1     -37.671  -1.588 -12.374  1.00  0.00     0.062 A 
ATOM     17  C   UNL     1     -37.674  -0.339 -11.741  1.00  0.00     0.158 A 
BRANCH  15  18
ATOM     18  O   UNL     1     -37.874   0.940  -9.640  1.00  0.00    -0.504 OA
ATOM     19  H   UNL     1     -38.544   1.676  -9.807  1.00  0.00     0.293 HD
ENDBRANCH  15  18
BRANCH  17  20
ATOM     20  O   UNL     1     -37.493   0.796 -12.536  1.00  0.00    -0.504 OA
ATOM     21  H   UNL     1     -38.115   1.066 -13.284  1.00  0.00     0.293 HD
ENDBRANCH  17  20
ENDBRANCH   1  12
BRANCH   2  22
ATOM     22  O   UNL     1     -35.436  -3.949 -12.724  1.00  0.00    -0.502 OA
ATOM     23  H   UNL     1     -35.278  -3.106 -13.263  1.00  0.00     0.293 HD
ENDBRANCH   2  22
BRANCH   6  24
ATOM     24  O   UNL     1     -36.997  -8.769 -14.367  1.00  0.00    -0.507 OA
ATOM     25  H   UNL     1     -36.634  -9.533 -13.818  1.00  0.00     0.293 HD
ENDBRANCH   6  24
BRANCH   8  26
ATOM     26  O   UNL     1     -41.749  -8.349 -13.813  1.00  0.00    -0.508 OA
ATOM     27  H   UNL     1     -42.583  -7.776 -13.777  1.00  0.00     0.293 HD
ENDBRANCH   8  26
TORSDOF 6
ENDMDL
MODEL 6
REMARK VINA RESULT:    -7.405      1.861      3.643
REMARK INTER + INTRA:          -9.200
REMARK INTER:                  -9.033
REMARK INTRA:                  -0.167
REMARK UNBOUND:                -0.280
REMARK SMILES O=c1c(O)c(-c2ccc(O)c(O)c2)oc2cc(O)cc(O)c12
REMARK SMILES IDX 5 1 3 2 2 3 1 4 22 5 20 6 19 7 17 8 16 9 15 10 14 11 6 12
REMARK SMILES IDX 7 13 8 14 9 15 13 16 11 17 10 18 12 20 4 22 21 24 18 26
REMARK H PARENT 10 19 12 21 4 23 21 25 18 27
REMARK Flexibility Score: inf
ROOT
ATOM      1  C   UNL     1     -36.633  -5.054 -15.131  1.00  0.00     0.180 A 
ATOM      2  C   UNL     1     -35.325  -4.716 -14.740  1.00  0.00     0.208 A 
ATOM      3  C   UNL     1     -34.341  -4.553 -15.726  1.00  0.00     0.238 A 
ATOM      4  O   UNL     1     -33.185  -4.198 -15.374  1.00  0.00    -0.285 OA
ATOM      5  C   UNL     1     -34.670  -4.745 -17.090  1.00  0.00     0.111 A 
ATOM      6  C   UNL     1     -33.742  -4.644 -18.169  1.00  0.00     0.134 A 
ATOM      7  C   UNL     1     -34.206  -4.725 -19.488  1.00  0.00     0.093 A 
ATOM      8  C   UNL     1     -35.554  -4.967 -19.765  1.00  0.00     0.123 A 
ATOM      9  C   UNL     1     -36.457  -5.126 -18.716  1.00  0.00     0.094 A 
ATOM     10  C   UNL     1     -36.030  -5.015 -17.391  1.00  0.00     0.146 A 
ATOM     11  O   UNL     1     -36.926  -5.163 -16.421  1.00  0.00    -0.452 OA
ENDROOT
BRANCH   1  12
ATOM     12  C   UNL     1     -37.719  -5.267 -14.147  1.00  0.00     0.025 A 
ATOM     13  C   UNL     1     -38.194  -4.182 -13.397  1.00  0.00     0.016 A 
ATOM     14  C   UNL     1     -39.231  -4.358 -12.479  1.00  0.00     0.051 A 
ATOM     15  C   UNL     1     -39.824  -5.612 -12.302  1.00  0.00     0.157 A 
ATOM     16  C   UNL     1     -38.327  -6.524 -13.990  1.00  0.00     0.062 A 
ATOM     17  C   UNL     1     -39.370  -6.709 -13.073  1.00  0.00     0.158 A 
BRANCH  15  18
ATOM     18  O   UNL     1     -40.852  -5.722 -11.364  1.00  0.00    -0.504 OA
ATOM     19  H   UNL     1     -41.723  -5.215 -11.419  1.00  0.00     0.293 HD
ENDBRANCH  15  18
BRANCH  17  20
ATOM     20  O   UNL     1     -39.927  -7.986 -12.966  1.00  0.00    -0.504 OA
ATOM     21  H   UNL     1     -39.911  -8.672 -13.707  1.00  0.00     0.293 HD
ENDBRANCH  17  20
ENDBRANCH   1  12
BRANCH   2  22
ATOM     22  O   UNL     1     -35.027  -4.512 -13.389  1.00  0.00    -0.502 OA
ATOM     23  H   UNL     1     -35.640  -4.820 -12.645  1.00  0.00     0.293 HD
ENDBRANCH   2  22
BRANCH   6  24
ATOM     24  O   UNL     1     -32.363  -4.495 -18.002  1.00  0.00    -0.507 OA
ATOM     25  H   UNL     1     -31.902  -3.626 -17.778  1.00  0.00     0.293 HD
ENDBRANCH   6  24
BRANCH   8  26
ATOM     26  O   UNL     1     -36.004  -5.062 -21.080  1.00  0.00    -0.508 OA
ATOM     27  H   UNL     1     -36.553  -4.325 -21.507  1.00  0.00     0.293 HD
ENDBRANCH   8  26
TORSDOF 6
ENDMDL
MODEL 7
REMARK VINA RESULT:    -7.171      1.547      6.737
REMARK INTER + INTRA:          -8.919
REMARK INTER:                  -8.604
REMARK INTRA:                  -0.314
REMARK UNBOUND:                -0.280
REMARK SMILES O=c1c(O)c(-c2ccc(O)c(O)c2)oc2cc(O)cc(O)c12
REMARK SMILES IDX 5 1 3 2 2 3 1 4 22 5 20 6 19 7 17 8 16 9 15 10 14 11 6 12
REMARK SMILES IDX 7 13 8 14 9 15 13 16 11 17 10 18 12 20 4 22 21 24 18 26
REMARK H PARENT 10 19 12 21 4 23 21 25 18 27
REMARK Flexibility Score: inf
ROOT
ATOM      1  C   UNL     1     -36.094  -4.879 -17.134  1.00  0.00     0.180 A 
ATOM      2  C   UNL     1     -37.342  -4.232 -17.097  1.00  0.00     0.208 A 
ATOM      3  C   UNL     1     -38.331  -4.713 -16.226  1.00  0.00     0.238 A 
ATOM      4  O   UNL     1     -39.428  -4.096 -16.157  1.00  0.00    -0.285 OA
ATOM      5  C   UNL     1     -38.069  -5.843 -15.415  1.00  0.00     0.111 A 
ATOM      6  C   UNL     1     -39.013  -6.439 -14.526  1.00  0.00     0.134 A 
ATOM      7  C   UNL     1     -38.603  -7.474 -13.676  1.00  0.00     0.093 A 
ATOM      8  C   UNL     1     -37.300  -7.978 -13.731  1.00  0.00     0.123 A 
ATOM      9  C   UNL     1     -36.389  -7.442 -14.638  1.00  0.00     0.094 A 
ATOM     10  C   UNL     1     -36.758  -6.384 -15.472  1.00  0.00     0.146 A 
ATOM     11  O   UNL     1     -35.856  -5.896 -16.315  1.00  0.00    -0.452 OA
ENDROOT
BRANCH   1  12
ATOM     12  C   UNL     1     -35.009  -4.446 -18.044  1.00  0.00     0.025 A 
ATOM     13  C   UNL     1     -35.004  -4.892 -19.373  1.00  0.00     0.016 A 
ATOM     14  C   UNL     1     -34.001  -4.479 -20.253  1.00  0.00     0.051 A 
ATOM     15  C   UNL     1     -32.996  -3.603 -19.830  1.00  0.00     0.157 A 
ATOM     16  C   UNL     1     -34.015  -3.547 -17.622  1.00  0.00     0.062 A 
ATOM     17  C   UNL     1     -33.006  -3.125 -18.499  1.00  0.00     0.158 A 
BRANCH  15  18
ATOM     18  O   UNL     1     -32.019  -3.234 -20.757  1.00  0.00    -0.504 OA
ATOM     19  H   UNL     1     -31.543  -3.884 -21.365  1.00  0.00     0.293 HD
ENDBRANCH  15  18
BRANCH  17  20
ATOM     20  O   UNL     1     -32.049  -2.233 -18.010  1.00  0.00    -0.504 OA
ATOM     21  H   UNL     1     -31.184  -2.018 -18.485  1.00  0.00     0.293 HD
ENDBRANCH  17  20
ENDBRANCH   1  12
BRANCH   2  22
ATOM     22  O   UNL     1     -37.572  -3.104 -17.890  1.00  0.00    -0.502 OA
ATOM     23  H   UNL     1     -36.841  -2.664 -18.435  1.00  0.00     0.293 HD
ENDBRANCH   2  22
BRANCH   6  24
ATOM     24  O   UNL     1     -40.360  -6.074 -14.459  1.00  0.00    -0.507 OA
ATOM     25  H   UNL     1     -40.982  -6.025 -15.251  1.00  0.00     0.293 HD
ENDBRANCH   6  24
BRANCH   8  26
ATOM     26  O   UNL     1     -36.905  -9.019 -12.893  1.00  0.00    -0.508 OA
ATOM     27  H   UNL     1     -36.322  -8.854 -12.082  1.00  0.00     0.293 HD
ENDBRANCH   8  26
TORSDOF 6
ENDMDL
MODEL 8
REMARK VINA RESULT:    -7.145      2.082      7.113
REMARK INTER + INTRA:          -8.888
REMARK INTER:                  -8.571
REMARK INTRA:                  -0.316
REMARK UNBOUND:                -0.280
REMARK SMILES O=c1c(O)c(-c2ccc(O)c(O)c2)oc2cc(O)cc(O)c12
REMARK SMILES IDX 5 1 3 2 2 3 1 4 22 5 20 6 19 7 17 8 16 9 15 10 14 11 6 12
REMARK SMILES IDX 7 13 8 14 9 15 13 16 11 17 10 18 12 20 4 22 21 24 18 26
REMARK H PARENT 10 19 12 21 4 23 21 25 18 27
REMARK Flexibility Score: inf
ROOT
ATOM      1  C   UNL     1     -36.393  -4.923 -15.363  1.00  0.00     0.180 A 
ATOM      2  C   UNL     1     -36.906  -6.228 -15.472  1.00  0.00     0.208 A 
ATOM      3  C   UNL     1     -37.972  -6.610 -14.642  1.00  0.00     0.238 A 
ATOM      4  O   UNL     1     -38.463  -7.762 -14.782  1.00  0.00    -0.285 OA
ATOM      5  C   UNL     1     -38.501  -5.691 -13.704  1.00  0.00     0.111 A 
ATOM      6  C   UNL     1     -39.554  -5.985 -12.787  1.00  0.00     0.134 A 
ATOM      7  C   UNL     1     -40.086  -4.961 -11.994  1.00  0.00     0.093 A 
ATOM      8  C   UNL     1     -39.558  -3.667 -12.039  1.00  0.00     0.123 A 
ATOM      9  C   UNL     1     -38.490  -3.386 -12.889  1.00  0.00     0.094 A 
ATOM     10  C   UNL     1     -37.964  -4.378 -13.718  1.00  0.00     0.146 A 
ATOM     11  O   UNL     1     -36.953  -4.064 -14.520  1.00  0.00    -0.452 OA
ENDROOT
BRANCH   1  12
ATOM     12  C   UNL     1     -35.254  -4.454 -16.185  1.00  0.00     0.025 A 
ATOM     13  C   UNL     1     -33.943  -4.730 -15.771  1.00  0.00     0.016 A 
ATOM     14  C   UNL     1     -32.857  -4.315 -16.542  1.00  0.00     0.051 A 
ATOM     15  C   UNL     1     -33.055  -3.632 -17.747  1.00  0.00     0.157 A 
ATOM     16  C   UNL     1     -35.458  -3.789 -17.406  1.00  0.00     0.062 A 
ATOM     17  C   UNL     1     -34.373  -3.371 -18.188  1.00  0.00     0.158 A 
BRANCH  15  18
ATOM     18  O   UNL     1     -31.925  -3.238 -18.467  1.00  0.00    -0.504 OA
ATOM     19  H   UNL     1     -31.734  -2.286 -18.742  1.00  0.00     0.293 HD
ENDBRANCH  15  18
BRANCH  17  20
ATOM     20  O   UNL     1     -34.650  -2.713 -19.389  1.00  0.00    -0.504 OA
ATOM     21  H   UNL     1     -33.941  -2.349 -20.010  1.00  0.00     0.293 HD
ENDBRANCH  17  20
ENDBRANCH   1  12
BRANCH   2  22
ATOM     22  O   UNL     1     -36.383  -7.112 -16.419  1.00  0.00    -0.502 OA
ATOM     23  H   UNL     1     -35.981  -6.797 -17.293  1.00  0.00     0.293 HD
ENDBRANCH   2  22
BRANCH   6  24
ATOM     24  O   UNL     1     -40.089  -7.263 -12.597  1.00  0.00    -0.507 OA
ATOM     25  H   UNL     1     -40.974  -7.575 -12.966  1.00  0.00     0.293 HD
ENDBRANCH   6  24
BRANCH   8  26
ATOM     26  O   UNL     1     -40.082  -2.658 -11.236  1.00  0.00    -0.508 OA
ATOM     27  H   UNL     1     -40.972  -2.221 -11.446  1.00  0.00     0.293 HD
ENDBRANCH   8  26
TORSDOF 6
ENDMDL
