MODEL 1
REMARK VINA RESULT:    -4.178      0.000      0.000
REMARK INTER + INTRA:         -13.646
REMARK INTER:                  -9.551
REMARK INTRA:                  -4.094
REMARK UNBOUND:                -4.094
REMARK SMILES CCCCCCCCCCCCCCCCCCCCCCCC(=O)[O-]
REMARK SMILES IDX 13 1 14 2 15 3 16 4 17 5 18 6 19 7 20 8 21 9 22 10 23 11
REMARK SMILES IDX 24 12 25 13 26 14 12 15 11 16 10 17 9 18 8 19 7 20 6 21 5 22
REMARK SMILES IDX 4 23 3 24 2 25 1 26
REMARK H PARENT
REMARK Flexibility Score: inf
ROOT
ATOM      1  C   UNL     1      -5.217  -7.224 -16.242  1.00  0.00     0.000 C 
ENDROOT
BRANCH   1   2
ATOM      2  C   UNL     1      -3.968  -7.376 -17.124  1.00  0.00     0.000 C 
BRANCH   2   3
ATOM      3  C   UNL     1      -4.268  -7.164 -18.616  1.00  0.00     0.000 C 
BRANCH   3   4
ATOM      4  C   UNL     1      -3.104  -7.605 -19.521  1.00  0.00     0.000 C 
BRANCH   4   5
ATOM      5  C   UNL     1      -1.741  -7.545 -18.809  1.00  0.00     0.000 C 
BRANCH   5   6
ATOM      6  C   UNL     1      -0.731  -8.623 -19.251  1.00  0.00     0.000 C 
BRANCH   6   7
ATOM      7  C   UNL     1      -1.015  -9.264 -20.624  1.00  0.00     0.000 C 
BRANCH   7   8
ATOM      8  C   UNL     1      -0.346  -8.560 -21.817  1.00  0.00     0.000 C 
BRANCH   8   9
ATOM      9  C   UNL     1      -1.318  -8.310 -22.983  1.00  0.00     0.000 C 
BRANCH   9  10
ATOM     10  C   UNL     1      -2.428  -9.372 -23.070  1.00  0.00     0.006 C 
BRANCH  10  11
ATOM     11  C   UNL     1      -2.073 -10.585 -23.945  1.00  0.00     0.053 C 
BRANCH  11  12
ATOM     12  C   UNL     1      -2.091 -10.248 -25.404  1.00  0.00     0.041 C 
ATOM     13  O   UNL     1      -3.137  -9.793 -25.937  1.00  0.00    -0.550 OA
ATOM     14  O   UNL     1      -0.961 -10.466 -26.182  1.00  0.00    -0.550 OA
ENDBRANCH  11  12
ENDBRANCH  10  11
ENDBRANCH   9  10
ENDBRANCH   8   9
ENDBRANCH   7   8
ENDBRANCH   6   7
ENDBRANCH   5   6
ENDBRANCH   4   5
ENDBRANCH   3   4
ENDBRANCH   2   3
ENDBRANCH   1   2
BRANCH   1  15
ATOM     15  C   UNL     1      -5.196  -8.229 -15.084  1.00  0.00     0.000 C 
BRANCH  15  16
ATOM     16  C   UNL     1      -6.288  -9.291 -15.257  1.00  0.00     0.000 C 
BRANCH  16  17
ATOM     17  C   UNL     1      -5.741 -10.695 -14.970  1.00  0.00     0.000 C 
BRANCH  17  18
ATOM     18  C   UNL     1      -5.737 -11.554 -16.244  1.00  0.00    -0.000 C 
BRANCH  18  19
ATOM     19  C   UNL     1      -5.465 -10.732 -17.515  1.00  0.00    -0.000 C 
BRANCH  19  20
ATOM     20  C   UNL     1      -4.029 -10.911 -18.037  1.00  0.00    -0.000 C 
BRANCH  20  21
ATOM     21  C   UNL     1      -3.065 -11.462 -16.970  1.00  0.00    -0.000 C 
BRANCH  21  22
ATOM     22  C   UNL     1      -2.073 -10.433 -16.395  1.00  0.00    -0.000 C 
BRANCH  22  23
ATOM     23  C   UNL     1      -2.181 -10.286 -14.868  1.00  0.00    -0.000 C 
BRANCH  23  24
ATOM     24  C   UNL     1      -1.565  -8.976 -14.348  1.00  0.00    -0.000 C 
BRANCH  24  25
ATOM     25  C   UNL     1      -0.562  -8.311 -15.309  1.00  0.00    -0.003 C 
ATOM     26  C   UNL     1      -0.744  -6.796 -15.409  1.00  0.00     0.004 C 
ENDBRANCH  24  25
ENDBRANCH  23  24
ENDBRANCH  22  23
ENDBRANCH  21  22
ENDBRANCH  20  21
ENDBRANCH  19  20
ENDBRANCH  18  19
ENDBRANCH  17  18
ENDBRANCH  16  17
ENDBRANCH  15  16
ENDBRANCH   1  15
TORSDOF 22
ENDMDL
MODEL 2
REMARK VINA RESULT:    -4.069      1.300      3.358
REMARK INTER + INTRA:         -13.397
REMARK INTER:                  -9.087
REMARK INTRA:                  -4.310
REMARK UNBOUND:                -4.094
REMARK SMILES CCCCCCCCCCCCCCCCCCCCCCCC(=O)[O-]
REMARK SMILES IDX 13 1 14 2 15 3 16 4 17 5 18 6 19 7 20 8 21 9 22 10 23 11
REMARK SMILES IDX 24 12 25 13 26 14 12 15 11 16 10 17 9 18 8 19 7 20 6 21 5 22
REMARK SMILES IDX 4 23 3 24 2 25 1 26
REMARK H PARENT
REMARK Flexibility Score: inf
ROOT
ATOM      1  C   UNL     1      -3.768  -6.810 -17.127  1.00  0.00     0.000 C 
ENDROOT
BRANCH   1   2
ATOM      2  C   UNL     1      -4.267  -7.365 -18.470  1.00  0.00     0.000 C 
BRANCH   2   3
ATOM      3  C   UNL     1      -4.509  -8.881 -18.431  1.00  0.00     0.000 C 
BRANCH   3   4
ATOM      4  C   UNL     1      -3.786  -9.624 -19.567  1.00  0.00     0.000 C 
BRANCH   4   5
ATOM      5  C   UNL     1      -2.603 -10.473 -19.066  1.00  0.00     0.000 C 
BRANCH   5   6
ATOM      6  C   UNL     1      -1.328  -9.673 -18.730  1.00  0.00     0.000 C 
BRANCH   6   7
ATOM      7  C   UNL     1      -0.530  -9.169 -19.949  1.00  0.00     0.000 C 
BRANCH   7   8
ATOM      8  C   UNL     1      -0.608  -7.651 -20.189  1.00  0.00     0.000 C 
BRANCH   8   9
ATOM      9  C   UNL     1      -1.686  -7.265 -21.217  1.00  0.00     0.000 C 
BRANCH   9  10
ATOM     10  C   UNL     1      -1.444  -7.900 -22.598  1.00  0.00     0.006 C 
BRANCH  10  11
ATOM     11  C   UNL     1      -2.518  -8.916 -23.020  1.00  0.00     0.053 C 
BRANCH  11  12
ATOM     12  C   UNL     1      -2.484  -9.187 -24.493  1.00  0.00     0.041 C 
ATOM     13  O   UNL     1      -3.409  -9.845 -25.038  1.00  0.00    -0.550 OA
ATOM     14  O   UNL     1      -1.414  -8.740 -25.258  1.00  0.00    -0.550 OA
ENDBRANCH  11  12
ENDBRANCH  10  11
ENDBRANCH   9  10
ENDBRANCH   8   9
ENDBRANCH   7   8
ENDBRANCH   6   7
ENDBRANCH   5   6
ENDBRANCH   4   5
ENDBRANCH   3   4
ENDBRANCH   2   3
ENDBRANCH   1   2
BRANCH   1  15
ATOM     15  C   UNL     1      -2.276  -6.462 -17.198  1.00  0.00     0.000 C 
BRANCH  15  16
ATOM     16  C   UNL     1      -1.479  -7.235 -16.141  1.00  0.00     0.000 C 
BRANCH  16  17
ATOM     17  C   UNL     1      -2.355  -8.289 -15.453  1.00  0.00     0.000 C 
BRANCH  17  18
ATOM     18  C   UNL     1      -1.668  -8.835 -14.191  1.00  0.00    -0.000 C 
BRANCH  18  19
ATOM     19  C   UNL     1      -1.699 -10.370 -14.113  1.00  0.00    -0.000 C 
BRANCH  19  20
ATOM     20  C   UNL     1      -2.262 -11.015 -15.391  1.00  0.00    -0.000 C 
BRANCH  20  21
ATOM     21  C   UNL     1      -3.541 -11.835 -15.136  1.00  0.00    -0.000 C 
BRANCH  21  22
ATOM     22  C   UNL     1      -4.559 -11.830 -16.291  1.00  0.00    -0.000 C 
BRANCH  22  23
ATOM     23  C   UNL     1      -5.919 -11.237 -15.888  1.00  0.00    -0.000 C 
BRANCH  23  24
ATOM     24  C   UNL     1      -6.052 -11.023 -14.370  1.00  0.00    -0.000 C 
BRANCH  24  25
ATOM     25  C   UNL     1      -6.557  -9.628 -13.959  1.00  0.00    -0.003 C 
ATOM     26  C   UNL     1      -5.808  -8.491 -14.655  1.00  0.00     0.004 C 
ENDBRANCH  24  25
ENDBRANCH  23  24
ENDBRANCH  22  23
ENDBRANCH  21  22
ENDBRANCH  20  21
ENDBRANCH  19  20
ENDBRANCH  18  19
ENDBRANCH  17  18
ENDBRANCH  16  17
ENDBRANCH  15  16
ENDBRANCH   1  15
TORSDOF 22
ENDMDL
MODEL 3
REMARK VINA RESULT:    -4.048      2.158      4.375
REMARK INTER + INTRA:         -13.349
REMARK INTER:                  -9.109
REMARK INTRA:                  -4.240
REMARK UNBOUND:                -4.094
REMARK SMILES CCCCCCCCCCCCCCCCCCCCCCCC(=O)[O-]
REMARK SMILES IDX 13 1 14 2 15 3 16 4 17 5 18 6 19 7 20 8 21 9 22 10 23 11
REMARK SMILES IDX 24 12 25 13 26 14 12 15 11 16 10 17 9 18 8 19 7 20 6 21 5 22
REMARK SMILES IDX 4 23 3 24 2 25 1 26
REMARK H PARENT
REMARK Flexibility Score: inf
ROOT
ATOM      1  C   UNL     1      -3.752  -6.785 -17.129  1.00  0.00     0.000 C 
ENDROOT
BRANCH   1   2
ATOM      2  C   UNL     1      -4.435  -7.325 -18.395  1.00  0.00     0.000 C 
BRANCH   2   3
ATOM      3  C   UNL     1      -3.751  -8.587 -18.944  1.00  0.00     0.000 C 
BRANCH   3   4
ATOM      4  C   UNL     1      -4.615  -9.848 -18.773  1.00  0.00     0.000 C 
BRANCH   4   5
ATOM      5  C   UNL     1      -3.891 -10.966 -18.002  1.00  0.00     0.000 C 
BRANCH   5   6
ATOM      6  C   UNL     1      -2.538 -11.396 -18.603  1.00  0.00     0.000 C 
BRANCH   6   7
ATOM      7  C   UNL     1      -1.297 -10.997 -17.779  1.00  0.00     0.000 C 
BRANCH   7   8
ATOM      8  C   UNL     1      -0.051 -10.651 -18.613  1.00  0.00     0.000 C 
BRANCH   8   9
ATOM      9  C   UNL     1      -0.034  -9.186 -19.079  1.00  0.00     0.000 C 
BRANCH   9  10
ATOM     10  C   UNL     1      -0.478  -9.023 -20.544  1.00  0.00     0.006 C 
BRANCH  10  11
ATOM     11  C   UNL     1      -0.396  -7.581 -21.071  1.00  0.00     0.053 C 
BRANCH  11  12
ATOM     12  C   UNL     1      -1.621  -7.194 -21.841  1.00  0.00     0.041 C 
ATOM     13  O   UNL     1      -2.473  -8.066 -22.156  1.00  0.00    -0.550 OA
ATOM     14  O   UNL     1      -1.806  -5.875 -22.234  1.00  0.00    -0.550 OA
ENDBRANCH  11  12
ENDBRANCH  10  11
ENDBRANCH   9  10
ENDBRANCH   8   9
ENDBRANCH   7   8
ENDBRANCH   6   7
ENDBRANCH   5   6
ENDBRANCH   4   5
ENDBRANCH   3   4
ENDBRANCH   2   3
ENDBRANCH   1   2
BRANCH   1  15
ATOM     15  C   UNL     1      -2.254  -7.110 -17.132  1.00  0.00     0.000 C 
BRANCH  15  16
ATOM     16  C   UNL     1      -1.810  -7.670 -15.776  1.00  0.00     0.000 C 
BRANCH  16  17
ATOM     17  C   UNL     1      -0.283  -7.803 -15.707  1.00  0.00     0.000 C 
BRANCH  17  18
ATOM     18  C   UNL     1       0.125  -9.024 -14.869  1.00  0.00    -0.000 C 
BRANCH  18  19
ATOM     19  C   UNL     1      -0.593  -9.080 -13.510  1.00  0.00    -0.000 C 
BRANCH  19  20
ATOM     20  C   UNL     1      -1.284 -10.431 -13.262  1.00  0.00    -0.000 C 
BRANCH  20  21
ATOM     21  C   UNL     1      -2.149 -10.891 -14.450  1.00  0.00    -0.000 C 
BRANCH  21  22
ATOM     22  C   UNL     1      -3.346 -11.785 -14.077  1.00  0.00    -0.000 C 
BRANCH  22  23
ATOM     23  C   UNL     1      -4.700 -11.083 -14.271  1.00  0.00    -0.000 C 
BRANCH  23  24
ATOM     24  C   UNL     1      -4.557  -9.588 -14.606  1.00  0.00    -0.000 C 
BRANCH  24  25
ATOM     25  C   UNL     1      -5.870  -8.886 -14.992  1.00  0.00    -0.003 C 
ATOM     26  C   UNL     1      -7.097  -9.787 -14.843  1.00  0.00     0.004 C 
ENDBRANCH  24  25
ENDBRANCH  23  24
ENDBRANCH  22  23
ENDBRANCH  21  22
ENDBRANCH  20  21
ENDBRANCH  19  20
ENDBRANCH  18  19
ENDBRANCH  17  18
ENDBRANCH  16  17
ENDBRANCH  15  16
ENDBRANCH   1  15
TORSDOF 22
ENDMDL
MODEL 4
REMARK VINA RESULT:    -3.866      3.706      7.706
REMARK INTER + INTRA:         -12.932
REMARK INTER:                  -8.927
REMARK INTRA:                  -4.005
REMARK UNBOUND:                -4.094
REMARK SMILES CCCCCCCCCCCCCCCCCCCCCCCC(=O)[O-]
REMARK SMILES IDX 13 1 14 2 15 3 16 4 17 5 18 6 19 7 20 8 21 9 22 10 23 11
REMARK SMILES IDX 24 12 25 13 26 14 12 15 11 16 10 17 9 18 8 19 7 20 6 21 5 22
REMARK SMILES IDX 4 23 3 24 2 25 1 26
REMARK H PARENT
REMARK Flexibility Score: inf
ROOT
ATOM      1  C   UNL     1      -4.044  -6.793 -17.003  1.00  0.00     0.000 C 
ENDROOT
BRANCH   1   2
ATOM      2  C   UNL     1      -4.764  -8.046 -17.523  1.00  0.00     0.000 C 
BRANCH   2   3
ATOM      3  C   UNL     1      -4.600  -8.238 -19.039  1.00  0.00     0.000 C 
BRANCH   3   4
ATOM      4  C   UNL     1      -3.995  -9.605 -19.400  1.00  0.00     0.000 C 
BRANCH   4   5
ATOM      5  C   UNL     1      -4.081 -10.618 -18.244  1.00  0.00     0.000 C 
BRANCH   5   6
ATOM      6  C   UNL     1      -2.787 -11.415 -17.982  1.00  0.00     0.000 C 
BRANCH   6   7
ATOM      7  C   UNL     1      -2.378 -11.533 -16.500  1.00  0.00     0.000 C 
BRANCH   7   8
ATOM      8  C   UNL     1      -3.151 -10.612 -15.540  1.00  0.00     0.000 C 
BRANCH   8   9
ATOM      9  C   UNL     1      -3.580 -11.326 -14.247  1.00  0.00     0.000 C 
BRANCH   9  10
ATOM     10  C   UNL     1      -5.083 -11.655 -14.220  1.00  0.00     0.006 C 
BRANCH  10  11
ATOM     11  C   UNL     1      -5.925 -10.840 -15.215  1.00  0.00     0.053 C 
BRANCH  11  12
ATOM     12  C   UNL     1      -6.705  -9.757 -14.535  1.00  0.00     0.041 C 
ATOM     13  O   UNL     1      -7.901  -9.953 -14.198  1.00  0.00    -0.550 OA
ATOM     14  O   UNL     1      -6.117  -8.521 -14.300  1.00  0.00    -0.550 OA
ENDBRANCH  11  12
ENDBRANCH  10  11
ENDBRANCH   9  10
ENDBRANCH   8   9
ENDBRANCH   7   8
ENDBRANCH   6   7
ENDBRANCH   5   6
ENDBRANCH   4   5
ENDBRANCH   3   4
ENDBRANCH   2   3
ENDBRANCH   1   2
BRANCH   1  15
ATOM     15  C   UNL     1      -2.588  -6.756 -17.485  1.00  0.00     0.000 C 
BRANCH  15  16
ATOM     16  C   UNL     1      -1.658  -7.446 -16.480  1.00  0.00     0.000 C 
BRANCH  16  17
ATOM     17  C   UNL     1      -0.610  -8.305 -17.199  1.00  0.00     0.000 C 
BRANCH  17  18
ATOM     18  C   UNL     1      -0.804  -8.248 -18.722  1.00  0.00    -0.000 C 
BRANCH  18  19
ATOM     19  C   UNL     1      -0.104  -9.403 -19.455  1.00  0.00    -0.000 C 
BRANCH  19  20
ATOM     20  C   UNL     1      -0.503  -9.490 -20.938  1.00  0.00    -0.000 C 
BRANCH  20  21
ATOM     21  C   UNL     1      -1.237  -8.231 -21.437  1.00  0.00    -0.000 C 
BRANCH  21  22
ATOM     22  C   UNL     1      -2.262  -8.477 -22.559  1.00  0.00    -0.000 C 
BRANCH  22  23
ATOM     23  C   UNL     1      -2.023  -9.797 -23.310  1.00  0.00    -0.000 C 
BRANCH  23  24
ATOM     24  C   UNL     1      -3.089 -10.077 -24.384  1.00  0.00    -0.000 C 
BRANCH  24  25
ATOM     25  C   UNL     1      -2.721  -9.595 -25.798  1.00  0.00    -0.003 C 
ATOM     26  C   UNL     1      -1.956 -10.642 -26.607  1.00  0.00     0.004 C 
ENDBRANCH  24  25
ENDBRANCH  23  24
ENDBRANCH  22  23
ENDBRANCH  21  22
ENDBRANCH  20  21
ENDBRANCH  19  20
ENDBRANCH  18  19
ENDBRANCH  17  18
ENDBRANCH  16  17
ENDBRANCH  15  16
ENDBRANCH   1  15
TORSDOF 22
ENDMDL
MODEL 5
REMARK VINA RESULT:    -3.794      1.180      3.349
REMARK INTER + INTRA:         -12.768
REMARK INTER:                  -8.802
REMARK INTRA:                  -3.966
REMARK UNBOUND:                -4.094
REMARK SMILES CCCCCCCCCCCCCCCCCCCCCCCC(=O)[O-]
REMARK SMILES IDX 13 1 14 2 15 3 16 4 17 5 18 6 19 7 20 8 21 9 22 10 23 11
REMARK SMILES IDX 24 12 25 13 26 14 12 15 11 16 10 17 9 18 8 19 7 20 6 21 5 22
REMARK SMILES IDX 4 23 3 24 2 25 1 26
REMARK H PARENT
REMARK Flexibility Score: inf
ROOT
ATOM      1  C   UNL     1      -4.141  -7.220 -18.694  1.00  0.00     0.000 C 
ENDROOT
BRANCH   1   2
ATOM      2  C   UNL     1      -3.315  -8.287 -19.429  1.00  0.00     0.000 C 
BRANCH   2   3
ATOM      3  C   UNL     1      -2.532  -7.714 -20.620  1.00  0.00     0.000 C 
BRANCH   3   4
ATOM      4  C   UNL     1      -1.051  -7.465 -20.289  1.00  0.00     0.000 C 
BRANCH   4   5
ATOM      5  C   UNL     1      -0.121  -8.547 -20.868  1.00  0.00     0.000 C 
BRANCH   5   6
ATOM      6  C   UNL     1      -0.170  -9.902 -20.135  1.00  0.00     0.000 C 
BRANCH   6   7
ATOM      7  C   UNL     1      -0.908 -11.028 -20.887  1.00  0.00     0.000 C 
BRANCH   7   8
ATOM      8  C   UNL     1      -0.375 -11.319 -22.301  1.00  0.00     0.000 C 
BRANCH   8   9
ATOM      9  C   UNL     1      -1.498 -11.497 -23.336  1.00  0.00     0.000 C 
BRANCH   9  10
ATOM     10  C   UNL     1      -2.006 -10.157 -23.898  1.00  0.00     0.006 C 
BRANCH  10  11
ATOM     11  C   UNL     1      -1.074  -9.517 -24.939  1.00  0.00     0.053 C 
BRANCH  11  12
ATOM     12  C   UNL     1      -1.591  -9.688 -26.335  1.00  0.00     0.041 C 
ATOM     13  O   UNL     1      -0.875  -9.369 -27.320  1.00  0.00    -0.550 OA
ATOM     14  O   UNL     1      -2.876 -10.172 -26.546  1.00  0.00    -0.550 OA
ENDBRANCH  11  12
ENDBRANCH  10  11
ENDBRANCH   9  10
ENDBRANCH   8   9
ENDBRANCH   7   8
ENDBRANCH   6   7
ENDBRANCH   5   6
ENDBRANCH   4   5
ENDBRANCH   3   4
ENDBRANCH   2   3
ENDBRANCH   1   2
BRANCH   1  15
ATOM     15  C   UNL     1      -3.734  -7.129 -17.219  1.00  0.00     0.000 C 
BRANCH  15  16
ATOM     16  C   UNL     1      -2.306  -6.591 -17.074  1.00  0.00     0.000 C 
BRANCH  16  17
ATOM     17  C   UNL     1      -1.402  -7.607 -16.366  1.00  0.00     0.000 C 
BRANCH  17  18
ATOM     18  C   UNL     1      -2.173  -8.353 -15.266  1.00  0.00    -0.000 C 
BRANCH  18  19
ATOM     19  C   UNL     1      -2.027  -9.880 -15.368  1.00  0.00    -0.000 C 
BRANCH  19  20
ATOM     20  C   UNL     1      -1.837 -10.360 -16.817  1.00  0.00    -0.000 C 
BRANCH  20  21
ATOM     21  C   UNL     1      -2.609 -11.656 -17.127  1.00  0.00    -0.000 C 
BRANCH  21  22
ATOM     22  C   UNL     1      -3.903 -11.464 -17.940  1.00  0.00    -0.000 C 
BRANCH  22  23
ATOM     23  C   UNL     1      -5.168 -11.493 -17.066  1.00  0.00    -0.000 C 
BRANCH  23  24
ATOM     24  C   UNL     1      -5.578 -10.098 -16.562  1.00  0.00    -0.000 C 
BRANCH  24  25
ATOM     25  C   UNL     1      -5.722  -9.983 -15.034  1.00  0.00    -0.003 C 
ATOM     26  C   UNL     1      -5.885  -8.541 -14.555  1.00  0.00     0.004 C 
ENDBRANCH  24  25
ENDBRANCH  23  24
ENDBRANCH  22  23
ENDBRANCH  21  22
ENDBRANCH  20  21
ENDBRANCH  19  20
ENDBRANCH  18  19
ENDBRANCH  17  18
ENDBRANCH  16  17
ENDBRANCH  15  16
ENDBRANCH   1  15
TORSDOF 22
ENDMDL
MODEL 6
REMARK VINA RESULT:    -3.749     15.250     18.484
REMARK INTER + INTRA:         -12.666
REMARK INTER:                  -9.210
REMARK INTRA:                  -3.456
REMARK UNBOUND:                -4.094
REMARK SMILES CCCCCCCCCCCCCCCCCCCCCCCC(=O)[O-]
REMARK SMILES IDX 13 1 14 2 15 3 16 4 17 5 18 6 19 7 20 8 21 9 22 10 23 11
REMARK SMILES IDX 24 12 25 13 26 14 12 15 11 16 10 17 9 18 8 19 7 20 6 21 5 22
REMARK SMILES IDX 4 23 3 24 2 25 1 26
REMARK H PARENT
REMARK Flexibility Score: inf
ROOT
ATOM      1  C   UNL     1     -15.373  -1.571 -17.549  1.00  0.00     0.000 C 
ENDROOT
BRANCH   1   2
ATOM      2  C   UNL     1     -15.686  -2.013 -16.112  1.00  0.00     0.000 C 
BRANCH   2   3
ATOM      3  C   UNL     1     -17.157  -1.786 -15.730  1.00  0.00     0.000 C 
BRANCH   3   4
ATOM      4  C   UNL     1     -17.629  -0.352 -16.023  1.00  0.00     0.000 C 
BRANCH   4   5
ATOM      5  C   UNL     1     -18.720  -0.294 -17.108  1.00  0.00     0.000 C 
BRANCH   5   6
ATOM      6  C   UNL     1     -19.618  -1.544 -17.190  1.00  0.00     0.000 C 
BRANCH   6   7
ATOM      7  C   UNL     1     -19.743  -2.171 -18.594  1.00  0.00     0.000 C 
BRANCH   7   8
ATOM      8  C   UNL     1     -19.621  -3.704 -18.630  1.00  0.00     0.000 C 
BRANCH   8   9
ATOM      9  C   UNL     1     -19.466  -4.323 -17.230  1.00  0.00     0.000 C 
BRANCH   9  10
ATOM     10  C   UNL     1     -18.126  -5.057 -17.051  1.00  0.00     0.006 C 
BRANCH  10  11
ATOM     11  C   UNL     1     -18.131  -6.116 -15.937  1.00  0.00     0.053 C 
BRANCH  11  12
ATOM     12  C   UNL     1     -16.819  -6.181 -15.217  1.00  0.00     0.041 C 
ATOM     13  O   UNL     1     -16.150  -7.247 -15.213  1.00  0.00    -0.550 OA
ATOM     14  O   UNL     1     -16.350  -5.071 -14.526  1.00  0.00    -0.550 OA
ENDBRANCH  11  12
ENDBRANCH  10  11
ENDBRANCH   9  10
ENDBRANCH   8   9
ENDBRANCH   7   8
ENDBRANCH   6   7
ENDBRANCH   5   6
ENDBRANCH   4   5
ENDBRANCH   3   4
ENDBRANCH   2   3
ENDBRANCH   1   2
BRANCH   1  15
ATOM     15  C   UNL     1     -15.504  -2.746 -18.526  1.00  0.00     0.000 C 
BRANCH  15  16
ATOM     16  C   UNL     1     -16.357  -2.361 -19.740  1.00  0.00     0.000 C 
BRANCH  16  17
ATOM     17  C   UNL     1     -16.243  -0.861 -20.039  1.00  0.00     0.000 C 
BRANCH  17  18
ATOM     18  C   UNL     1     -17.502  -0.347 -20.756  1.00  0.00    -0.000 C 
BRANCH  18  19
ATOM     19  C   UNL     1     -17.486  -0.637 -22.266  1.00  0.00    -0.000 C 
BRANCH  19  20
ATOM     20  C   UNL     1     -18.699  -1.465 -22.721  1.00  0.00    -0.000 C 
BRANCH  20  21
ATOM     21  C   UNL     1     -19.995  -0.636 -22.807  1.00  0.00    -0.000 C 
BRANCH  21  22
ATOM     22  C   UNL     1     -20.040   0.384 -23.959  1.00  0.00    -0.000 C 
BRANCH  22  23
ATOM     23  C   UNL     1     -19.964   1.841 -23.472  1.00  0.00    -0.000 C 
BRANCH  23  24
ATOM     24  C   UNL     1     -18.637   2.527 -23.841  1.00  0.00    -0.000 C 
BRANCH  24  25
ATOM     25  C   UNL     1     -18.782   3.767 -24.741  1.00  0.00    -0.003 C 
ATOM     26  C   UNL     1     -17.538   4.656 -24.739  1.00  0.00     0.004 C 
ENDBRANCH  24  25
ENDBRANCH  23  24
ENDBRANCH  22  23
ENDBRANCH  21  22
ENDBRANCH  20  21
ENDBRANCH  19  20
ENDBRANCH  18  19
ENDBRANCH  17  18
ENDBRANCH  16  17
ENDBRANCH  15  16
ENDBRANCH   1  15
TORSDOF 22
ENDMDL
MODEL 7
REMARK VINA RESULT:    -3.747     15.334     17.784
REMARK INTER + INTRA:         -12.661
REMARK INTER:                  -9.672
REMARK INTRA:                  -2.989
REMARK UNBOUND:                -4.094
REMARK SMILES CCCCCCCCCCCCCCCCCCCCCCCC(=O)[O-]
REMARK SMILES IDX 13 1 14 2 15 3 16 4 17 5 18 6 19 7 20 8 21 9 22 10 23 11
REMARK SMILES IDX 24 12 25 13 26 14 12 15 11 16 10 17 9 18 8 19 7 20 6 21 5 22
REMARK SMILES IDX 4 23 3 24 2 25 1 26
REMARK H PARENT
REMARK Flexibility Score: inf
ROOT
ATOM      1  C   UNL     1     -14.871  -1.603 -18.066  1.00  0.00     0.000 C 
ENDROOT
BRANCH   1   2
ATOM      2  C   UNL     1     -15.666  -1.165 -19.305  1.00  0.00     0.000 C 
BRANCH   2   3
ATOM      3  C   UNL     1     -16.524  -2.298 -19.889  1.00  0.00     0.000 C 
BRANCH   3   4
ATOM      4  C   UNL     1     -17.656  -1.776 -20.791  1.00  0.00     0.000 C 
BRANCH   4   5
ATOM      5  C   UNL     1     -17.322  -0.424 -21.446  1.00  0.00     0.000 C 
BRANCH   5   6
ATOM      6  C   UNL     1     -17.408  -0.410 -22.985  1.00  0.00     0.000 C 
BRANCH   6   7
ATOM      7  C   UNL     1     -18.636  -1.127 -23.580  1.00  0.00     0.000 C 
BRANCH   7   8
ATOM      8  C   UNL     1     -19.681  -0.196 -24.220  1.00  0.00     0.000 C 
BRANCH   8   9
ATOM      9  C   UNL     1     -19.866   1.117 -23.440  1.00  0.00     0.000 C 
BRANCH   9  10
ATOM     10  C   UNL     1     -19.580   2.362 -24.298  1.00  0.00     0.006 C 
BRANCH  10  11
ATOM     11  C   UNL     1     -18.232   3.037 -23.998  1.00  0.00     0.053 C 
BRANCH  11  12
ATOM     12  C   UNL     1     -18.187   4.448 -24.500  1.00  0.00     0.041 C 
ATOM     13  O   UNL     1     -19.251   5.104 -24.643  1.00  0.00    -0.550 OA
ATOM     14  O   UNL     1     -16.970   5.026 -24.838  1.00  0.00    -0.550 OA
ENDBRANCH  11  12
ENDBRANCH  10  11
ENDBRANCH   9  10
ENDBRANCH   8   9
ENDBRANCH   7   8
ENDBRANCH   6   7
ENDBRANCH   5   6
ENDBRANCH   4   5
ENDBRANCH   3   4
ENDBRANCH   2   3
ENDBRANCH   1   2
BRANCH   1  15
ATOM     15  C   UNL     1     -15.767  -2.361 -17.079  1.00  0.00     0.000 C 
BRANCH  15  16
ATOM     16  C   UNL     1     -15.475  -1.938 -15.634  1.00  0.00     0.000 C 
BRANCH  16  17
ATOM     17  C   UNL     1     -16.773  -1.631 -14.877  1.00  0.00     0.000 C 
BRANCH  17  18
ATOM     18  C   UNL     1     -17.684  -0.708 -15.701  1.00  0.00    -0.000 C 
BRANCH  18  19
ATOM     19  C   UNL     1     -19.176  -0.913 -15.392  1.00  0.00    -0.000 C 
BRANCH  19  20
ATOM     20  C   UNL     1     -19.743  -2.187 -16.041  1.00  0.00    -0.000 C 
BRANCH  20  21
ATOM     21  C   UNL     1     -19.309  -2.359 -17.509  1.00  0.00    -0.000 C 
BRANCH  21  22
ATOM     22  C   UNL     1     -19.438  -3.790 -18.063  1.00  0.00    -0.000 C 
BRANCH  22  23
ATOM     23  C   UNL     1     -19.348  -4.866 -16.968  1.00  0.00    -0.000 C 
BRANCH  23  24
ATOM     24  C   UNL     1     -17.915  -5.385 -16.757  1.00  0.00    -0.000 C 
BRANCH  24  25
ATOM     25  C   UNL     1     -17.362  -5.186 -15.334  1.00  0.00    -0.003 C 
ATOM     26  C   UNL     1     -16.711  -6.446 -14.764  1.00  0.00     0.004 C 
ENDBRANCH  24  25
ENDBRANCH  23  24
ENDBRANCH  22  23
ENDBRANCH  21  22
ENDBRANCH  20  21
ENDBRANCH  19  20
ENDBRANCH  18  19
ENDBRANCH  17  18
ENDBRANCH  16  17
ENDBRANCH  15  16
ENDBRANCH   1  15
TORSDOF 22
ENDMDL
MODEL 8
REMARK VINA RESULT:    -3.566      1.297      3.663
REMARK INTER + INTRA:         -12.247
REMARK INTER:                  -9.037
REMARK INTRA:                  -3.210
REMARK UNBOUND:                -4.094
REMARK SMILES CCCCCCCCCCCCCCCCCCCCCCCC(=O)[O-]
REMARK SMILES IDX 13 1 14 2 15 3 16 4 17 5 18 6 19 7 20 8 21 9 22 10 23 11
REMARK SMILES IDX 24 12 25 13 26 14 12 15 11 16 10 17 9 18 8 19 7 20 6 21 5 22
REMARK SMILES IDX 4 23 3 24 2 25 1 26
REMARK H PARENT
REMARK Flexibility Score: inf
ROOT
ATOM      1  C   UNL     1      -2.241  -8.251 -16.896  1.00  0.00     0.000 C 
ENDROOT
BRANCH   1   2
ATOM      2  C   UNL     1      -2.855  -6.948 -17.429  1.00  0.00     0.000 C 
BRANCH   2   3
ATOM      3  C   UNL     1      -3.929  -7.194 -18.499  1.00  0.00     0.000 C 
BRANCH   3   4
ATOM      4  C   UNL     1      -3.450  -8.144 -19.610  1.00  0.00     0.000 C 
BRANCH   4   5
ATOM      5  C   UNL     1      -2.271  -7.570 -20.417  1.00  0.00     0.000 C 
BRANCH   5   6
ATOM      6  C   UNL     1      -1.086  -8.538 -20.610  1.00  0.00     0.000 C 
BRANCH   6   7
ATOM      7  C   UNL     1      -1.410 -10.027 -20.379  1.00  0.00     0.000 C 
BRANCH   7   8
ATOM      8  C   UNL     1      -0.998 -10.964 -21.527  1.00  0.00     0.000 C 
BRANCH   8   9
ATOM      9  C   UNL     1      -1.405 -10.427 -22.910  1.00  0.00     0.000 C 
BRANCH   9  10
ATOM     10  C   UNL     1      -1.788 -11.546 -23.894  1.00  0.00     0.006 C 
BRANCH  10  11
ATOM     11  C   UNL     1      -1.339 -11.295 -25.342  1.00  0.00     0.053 C 
BRANCH  11  12
ATOM     12  C   UNL     1      -1.971 -10.066 -25.920  1.00  0.00     0.041 C 
ATOM     13  O   UNL     1      -1.302  -9.294 -26.655  1.00  0.00    -0.550 OA
ATOM     14  O   UNL     1      -3.292  -9.758 -25.620  1.00  0.00    -0.550 OA
ENDBRANCH  11  12
ENDBRANCH  10  11
ENDBRANCH   9  10
ENDBRANCH   8   9
ENDBRANCH   7   8
ENDBRANCH   6   7
ENDBRANCH   5   6
ENDBRANCH   4   5
ENDBRANCH   3   4
ENDBRANCH   2   3
ENDBRANCH   1   2
BRANCH   1  15
ATOM     15  C   UNL     1      -0.739  -8.083 -16.632  1.00  0.00     0.000 C 
BRANCH  15  16
ATOM     16  C   UNL     1      -0.483  -7.606 -15.198  1.00  0.00     0.000 C 
BRANCH  16  17
ATOM     17  C   UNL     1      -1.460  -8.262 -14.215  1.00  0.00     0.000 C 
BRANCH  17  18
ATOM     18  C   UNL     1      -0.709  -9.121 -13.185  1.00  0.00    -0.000 C 
BRANCH  18  19
ATOM     19  C   UNL     1      -1.134 -10.598 -13.220  1.00  0.00    -0.000 C 
BRANCH  19  20
ATOM     20  C   UNL     1      -2.062 -10.918 -14.405  1.00  0.00    -0.000 C 
BRANCH  20  21
ATOM     21  C   UNL     1      -3.207 -11.876 -14.028  1.00  0.00    -0.000 C 
BRANCH  21  22
ATOM     22  C   UNL     1      -4.623 -11.289 -14.178  1.00  0.00    -0.000 C 
BRANCH  22  23
ATOM     23  C   UNL     1      -4.689 -10.137 -15.194  1.00  0.00    -0.000 C 
BRANCH  23  24
ATOM     24  C   UNL     1      -5.842 -10.294 -16.201  1.00  0.00    -0.000 C 
BRANCH  24  25
ATOM     25  C   UNL     1      -5.399 -10.550 -17.653  1.00  0.00    -0.003 C 
ATOM     26  C   UNL     1      -4.087 -11.328 -17.749  1.00  0.00     0.004 C 
ENDBRANCH  24  25
ENDBRANCH  23  24
ENDBRANCH  22  23
ENDBRANCH  21  22
ENDBRANCH  20  21
ENDBRANCH  19  20
ENDBRANCH  18  19
ENDBRANCH  17  18
ENDBRANCH  16  17
ENDBRANCH  15  16
ENDBRANCH   1  15
TORSDOF 22
ENDMDL
MODEL 9
REMARK VINA RESULT:    -3.555     16.769     19.075
REMARK INTER + INTRA:         -12.222
REMARK INTER:                  -9.110
REMARK INTRA:                  -3.112
REMARK UNBOUND:                -4.094
REMARK SMILES CCCCCCCCCCCCCCCCCCCCCCCC(=O)[O-]
REMARK SMILES IDX 13 1 14 2 15 3 16 4 17 5 18 6 19 7 20 8 21 9 22 10 23 11
REMARK SMILES IDX 24 12 25 13 26 14 12 15 11 16 10 17 9 18 8 19 7 20 6 21 5 22
REMARK SMILES IDX 4 23 3 24 2 25 1 26
REMARK H PARENT
REMARK Flexibility Score: inf
ROOT
ATOM      1  C   UNL     1     -18.202   0.291 -20.586  1.00  0.00     0.000 C 
ENDROOT
BRANCH   1   2
ATOM      2  C   UNL     1     -17.035  -0.705 -20.520  1.00  0.00     0.000 C 
BRANCH   2   3
ATOM      3  C   UNL     1     -16.974  -1.628 -21.747  1.00  0.00     0.000 C 
BRANCH   3   4
ATOM      4  C   UNL     1     -17.535  -0.962 -23.015  1.00  0.00     0.000 C 
BRANCH   4   5
ATOM      5  C   UNL     1     -18.798  -1.664 -23.546  1.00  0.00     0.000 C 
BRANCH   5   6
ATOM      6  C   UNL     1     -20.087  -0.821 -23.473  1.00  0.00     0.000 C 
BRANCH   6   7
ATOM      7  C   UNL     1     -20.057   0.495 -24.275  1.00  0.00     0.000 C 
BRANCH   7   8
ATOM      8  C   UNL     1     -19.977   1.772 -23.420  1.00  0.00     0.000 C 
BRANCH   8   9
ATOM      9  C   UNL     1     -19.683   3.030 -24.254  1.00  0.00     0.000 C 
BRANCH   9  10
ATOM     10  C   UNL     1     -19.187   4.209 -23.397  1.00  0.00     0.006 C 
BRANCH  10  11
ATOM     11  C   UNL     1     -19.332   5.582 -24.070  1.00  0.00     0.053 C 
BRANCH  11  12
ATOM     12  C   UNL     1     -18.216   5.857 -25.031  1.00  0.00     0.041 C 
ATOM     13  O   UNL     1     -17.130   5.227 -24.938  1.00  0.00    -0.550 OA
ATOM     14  O   UNL     1     -18.366   6.831 -26.010  1.00  0.00    -0.550 OA
ENDBRANCH  11  12
ENDBRANCH  10  11
ENDBRANCH   9  10
ENDBRANCH   8   9
ENDBRANCH   7   8
ENDBRANCH   6   7
ENDBRANCH   5   6
ENDBRANCH   4   5
ENDBRANCH   3   4
ENDBRANCH   2   3
ENDBRANCH   1   2
BRANCH   1  15
ATOM     15  C   UNL     1     -19.268  -0.042 -19.535  1.00  0.00     0.000 C 
BRANCH  15  16
ATOM     16  C   UNL     1     -19.928  -1.393 -19.830  1.00  0.00     0.000 C 
BRANCH  16  17
ATOM     17  C   UNL     1     -19.903  -2.301 -18.593  1.00  0.00     0.000 C 
BRANCH  17  18
ATOM     18  C   UNL     1     -18.812  -3.375 -18.723  1.00  0.00    -0.000 C 
BRANCH  18  19
ATOM     19  C   UNL     1     -17.965  -3.519 -17.448  1.00  0.00    -0.000 C 
BRANCH  19  20
ATOM     20  C   UNL     1     -16.732  -2.599 -17.451  1.00  0.00    -0.000 C 
BRANCH  20  21
ATOM     21  C   UNL     1     -16.957  -1.290 -16.670  1.00  0.00    -0.000 C 
BRANCH  21  22
ATOM     22  C   UNL     1     -17.397  -1.473 -15.206  1.00  0.00    -0.000 C 
BRANCH  22  23
ATOM     23  C   UNL     1     -18.396  -0.400 -14.742  1.00  0.00    -0.000 C 
BRANCH  23  24
ATOM     24  C   UNL     1     -19.260   0.149 -15.891  1.00  0.00    -0.000 C 
BRANCH  24  25
ATOM     25  C   UNL     1     -18.879   1.563 -16.365  1.00  0.00    -0.003 C 
ATOM     26  C   UNL     1     -18.261   2.418 -15.258  1.00  0.00     0.004 C 
ENDBRANCH  24  25
ENDBRANCH  23  24
ENDBRANCH  22  23
ENDBRANCH  21  22
ENDBRANCH  20  21
ENDBRANCH  19  20
ENDBRANCH  18  19
ENDBRANCH  17  18
ENDBRANCH  16  17
ENDBRANCH  15  16
ENDBRANCH   1  15
TORSDOF 22
ENDMDL
