MODEL 1
REMARK VINA RESULT:    -4.122      0.000      0.000
REMARK INTER + INTRA:         -13.221
REMARK INTER:                  -9.424
REMARK INTRA:                  -3.798
REMARK UNBOUND:                -3.798
REMARK SMILES CCCCCCCCCCCCCCCCCCCCCCCC(=O)[O-]
REMARK SMILES IDX 13 1 14 2 15 3 16 4 17 5 18 6 19 7 20 8 21 9 22 10 23 11
REMARK SMILES IDX 24 12 25 13 26 14 12 15 11 16 10 17 9 18 8 19 7 20 6 21 5 22
REMARK SMILES IDX 4 23 3 24 2 25 1 26
REMARK H PARENT
REMARK Flexibility Score: inf
ROOT
ATOM      1  C   UNL     1     -45.841 -52.709  37.510  1.00  0.00     0.000 C 
ENDROOT
BRANCH   1   2
ATOM      2  C   UNL     1     -45.090 -51.419  37.116  1.00  0.00     0.000 C 
BRANCH   2   3
ATOM      3  C   UNL     1     -45.972 -50.166  37.259  1.00  0.00     0.000 C 
BRANCH   3   4
ATOM      4  C   UNL     1     -45.174 -48.860  37.110  1.00  0.00     0.000 C 
BRANCH   4   5
ATOM      5  C   UNL     1     -43.683 -49.040  37.429  1.00  0.00     0.000 C 
BRANCH   5   6
ATOM      6  C   UNL     1     -43.280 -48.221  38.661  1.00  0.00     0.000 C 
BRANCH   6   7
ATOM      7  C   UNL     1     -44.518 -47.647  39.367  1.00  0.00     0.000 C 
BRANCH   7   8
ATOM      8  C   UNL     1     -44.187 -46.435  40.253  1.00  0.00     0.000 C 
BRANCH   8   9
ATOM      9  C   UNL     1     -42.675 -46.211  40.407  1.00  0.00     0.000 C 
BRANCH   9  10
ATOM     10  C   UNL     1     -42.383 -44.820  40.982  1.00  0.00     0.006 C 
BRANCH  10  11
ATOM     11  C   UNL     1     -40.876 -44.583  41.111  1.00  0.00     0.053 C 
BRANCH  11  12
ATOM     12  C   UNL     1     -40.450 -44.683  42.542  1.00  0.00     0.041 C 
ATOM     13  O   UNL     1     -40.277 -45.812  43.074  1.00  0.00    -0.550 OA
ATOM     14  O   UNL     1     -40.193 -43.529  43.272  1.00  0.00    -0.550 OA
ENDBRANCH  11  12
ENDBRANCH  10  11
ENDBRANCH   9  10
ENDBRANCH   8   9
ENDBRANCH   7   8
ENDBRANCH   6   7
ENDBRANCH   5   6
ENDBRANCH   4   5
ENDBRANCH   3   4
ENDBRANCH   2   3
ENDBRANCH   1   2
BRANCH   1  15
ATOM     15  C   UNL     1     -47.362 -52.619  37.305  1.00  0.00     0.000 C 
BRANCH  15  16
ATOM     16  C   UNL     1     -48.144 -53.592  38.202  1.00  0.00     0.000 C 
BRANCH  16  17
ATOM     17  C   UNL     1     -47.228 -54.485  39.060  1.00  0.00     0.000 C 
BRANCH  17  18
ATOM     18  C   UNL     1     -47.638 -54.601  40.540  1.00  0.00    -0.000 C 
BRANCH  18  19
ATOM     19  C   UNL     1     -48.604 -53.487  40.981  1.00  0.00    -0.000 C 
BRANCH  19  20
ATOM     20  C   UNL     1     -47.939 -52.467  41.918  1.00  0.00    -0.000 C 
BRANCH  20  21
ATOM     21  C   UNL     1     -47.903 -51.047  41.327  1.00  0.00    -0.000 C 
BRANCH  21  22
ATOM     22  C   UNL     1     -46.512 -50.657  40.795  1.00  0.00    -0.000 C 
BRANCH  22  23
ATOM     23  C   UNL     1     -45.356 -51.559  41.269  1.00  0.00    -0.000 C 
BRANCH  23  24
ATOM     24  C   UNL     1     -44.010 -51.201  40.617  1.00  0.00    -0.000 C 
BRANCH  24  25
ATOM     25  C   UNL     1     -42.901 -50.968  41.655  1.00  0.00    -0.003 C 
ATOM     26  C   UNL     1     -42.927 -49.557  42.243  1.00  0.00     0.004 C 
ENDBRANCH  24  25
ENDBRANCH  23  24
ENDBRANCH  22  23
ENDBRANCH  21  22
ENDBRANCH  20  21
ENDBRANCH  19  20
ENDBRANCH  18  19
ENDBRANCH  17  18
ENDBRANCH  16  17
ENDBRANCH  15  16
ENDBRANCH   1  15
TORSDOF 22
ENDMDL
MODEL 2
REMARK VINA RESULT:    -4.099      4.949      8.323
REMARK INTER + INTRA:         -13.169
REMARK INTER:                  -8.562
REMARK INTRA:                  -4.608
REMARK UNBOUND:                -3.798
REMARK SMILES CCCCCCCCCCCCCCCCCCCCCCCC(=O)[O-]
REMARK SMILES IDX 13 1 14 2 15 3 16 4 17 5 18 6 19 7 20 8 21 9 22 10 23 11
REMARK SMILES IDX 24 12 25 13 26 14 12 15 11 16 10 17 9 18 8 19 7 20 6 21 5 22
REMARK SMILES IDX 4 23 3 24 2 25 1 26
REMARK H PARENT
REMARK Flexibility Score: inf
ROOT
ATOM      1  C   UNL     1     -44.278 -51.826  38.978  1.00  0.00     0.000 C 
ENDROOT
BRANCH   1   2
ATOM      2  C   UNL     1     -44.493 -52.925  40.040  1.00  0.00     0.000 C 
BRANCH   2   3
ATOM      3  C   UNL     1     -45.057 -52.360  41.356  1.00  0.00     0.000 C 
BRANCH   3   4
ATOM      4  C   UNL     1     -45.734 -50.992  41.171  1.00  0.00     0.000 C 
BRANCH   4   5
ATOM      5  C   UNL     1     -47.258 -51.104  41.014  1.00  0.00     0.000 C 
BRANCH   5   6
ATOM      6  C   UNL     1     -47.795 -52.350  41.726  1.00  0.00     0.000 C 
BRANCH   6   7
ATOM      7  C   UNL     1     -48.498 -53.289  40.733  1.00  0.00     0.000 C 
BRANCH   7   8
ATOM      8  C   UNL     1     -48.179 -52.949  39.268  1.00  0.00     0.000 C 
BRANCH   8   9
ATOM      9  C   UNL     1     -47.775 -54.185  38.449  1.00  0.00     0.000 C 
BRANCH   9  10
ATOM     10  C   UNL     1     -47.254 -55.300  39.363  1.00  0.00     0.006 C 
BRANCH  10  11
ATOM     11  C   UNL     1     -46.380 -56.286  38.583  1.00  0.00     0.053 C 
BRANCH  11  12
ATOM     12  C   UNL     1     -47.078 -57.600  38.433  1.00  0.00     0.041 C 
ATOM     13  O   UNL     1     -48.335 -57.645  38.364  1.00  0.00    -0.550 OA
ATOM     14  O   UNL     1     -46.338 -58.771  38.315  1.00  0.00    -0.550 OA
ENDBRANCH  11  12
ENDBRANCH  10  11
ENDBRANCH   9  10
ENDBRANCH   8   9
ENDBRANCH   7   8
ENDBRANCH   6   7
ENDBRANCH   5   6
ENDBRANCH   4   5
ENDBRANCH   3   4
ENDBRANCH   2   3
ENDBRANCH   1   2
BRANCH   1  15
ATOM     15  C   UNL     1     -44.784 -52.219  37.580  1.00  0.00     0.000 C 
BRANCH  15  16
ATOM     16  C   UNL     1     -45.250 -51.010  36.752  1.00  0.00     0.000 C 
BRANCH  16  17
ATOM     17  C   UNL     1     -46.670 -50.544  37.118  1.00  0.00     0.000 C 
BRANCH  17  18
ATOM     18  C   UNL     1     -46.781 -49.064  37.530  1.00  0.00    -0.000 C 
BRANCH  18  19
ATOM     19  C   UNL     1     -45.419 -48.348  37.552  1.00  0.00    -0.000 C 
BRANCH  19  20
ATOM     20  C   UNL     1     -44.886 -48.137  38.978  1.00  0.00    -0.000 C 
BRANCH  20  21
ATOM     21  C   UNL     1     -43.355 -48.261  39.069  1.00  0.00    -0.000 C 
BRANCH  21  22
ATOM     22  C   UNL     1     -42.684 -48.394  37.690  1.00  0.00    -0.000 C 
BRANCH  22  23
ATOM     23  C   UNL     1     -41.719 -49.588  37.548  1.00  0.00    -0.000 C 
BRANCH  23  24
ATOM     24  C   UNL     1     -41.661 -50.144  36.114  1.00  0.00    -0.000 C 
BRANCH  24  25
ATOM     25  C   UNL     1     -41.778 -49.038  35.053  1.00  0.00    -0.003 C 
ATOM     26  C   UNL     1     -43.092 -49.101  34.274  1.00  0.00     0.004 C 
ENDBRANCH  24  25
ENDBRANCH  23  24
ENDBRANCH  22  23
ENDBRANCH  21  22
ENDBRANCH  20  21
ENDBRANCH  19  20
ENDBRANCH  18  19
ENDBRANCH  17  18
ENDBRANCH  16  17
ENDBRANCH  15  16
ENDBRANCH   1  15
TORSDOF 22
ENDMDL
MODEL 3
REMARK VINA RESULT:    -4.082      2.573      6.329
REMARK INTER + INTRA:         -13.131
REMARK INTER:                  -9.451
REMARK INTRA:                  -3.679
REMARK UNBOUND:                -3.798
REMARK SMILES CCCCCCCCCCCCCCCCCCCCCCCC(=O)[O-]
REMARK SMILES IDX 13 1 14 2 15 3 16 4 17 5 18 6 19 7 20 8 21 9 22 10 23 11
REMARK SMILES IDX 24 12 25 13 26 14 12 15 11 16 10 17 9 18 8 19 7 20 6 21 5 22
REMARK SMILES IDX 4 23 3 24 2 25 1 26
REMARK H PARENT
REMARK Flexibility Score: inf
ROOT
ATOM      1  C   UNL     1     -46.061 -53.244  37.479  1.00  0.00     0.000 C 
ENDROOT
BRANCH   1   2
ATOM      2  C   UNL     1     -46.395 -54.439  38.398  1.00  0.00     0.000 C 
BRANCH   2   3
ATOM      3  C   UNL     1     -47.865 -54.432  38.851  1.00  0.00     0.000 C 
BRANCH   3   4
ATOM      4  C   UNL     1     -48.014 -54.362  40.380  1.00  0.00     0.000 C 
BRANCH   4   5
ATOM      5  C   UNL     1     -48.964 -53.242  40.830  1.00  0.00     0.000 C 
BRANCH   5   6
ATOM      6  C   UNL     1     -48.429 -52.535  42.080  1.00  0.00     0.000 C 
BRANCH   6   7
ATOM      7  C   UNL     1     -48.121 -51.058  41.786  1.00  0.00     0.000 C 
BRANCH   7   8
ATOM      8  C   UNL     1     -47.091 -50.881  40.658  1.00  0.00     0.000 C 
BRANCH   8   9
ATOM      9  C   UNL     1     -45.648 -50.817  41.181  1.00  0.00     0.000 C 
BRANCH   9  10
ATOM     10  C   UNL     1     -44.780 -51.897  40.525  1.00  0.00     0.006 C 
BRANCH  10  11
ATOM     11  C   UNL     1     -43.316 -51.454  40.445  1.00  0.00     0.053 C 
BRANCH  11  12
ATOM     12  C   UNL     1     -42.626 -52.129  39.303  1.00  0.00     0.041 C 
ATOM     13  O   UNL     1     -42.138 -51.444  38.364  1.00  0.00    -0.550 OA
ATOM     14  O   UNL     1     -42.473 -53.510  39.300  1.00  0.00    -0.550 OA
ENDBRANCH  11  12
ENDBRANCH  10  11
ENDBRANCH   9  10
ENDBRANCH   8   9
ENDBRANCH   7   8
ENDBRANCH   6   7
ENDBRANCH   5   6
ENDBRANCH   4   5
ENDBRANCH   3   4
ENDBRANCH   2   3
ENDBRANCH   1   2
BRANCH   1  15
ATOM     15  C   UNL     1     -47.259 -52.313  37.226  1.00  0.00     0.000 C 
BRANCH  15  16
ATOM     16  C   UNL     1     -46.853 -50.834  37.119  1.00  0.00     0.000 C 
BRANCH  16  17
ATOM     17  C   UNL     1     -45.327 -50.630  37.117  1.00  0.00     0.000 C 
BRANCH  17  18
ATOM     18  C   UNL     1     -44.867 -49.188  36.834  1.00  0.00    -0.000 C 
BRANCH  18  19
ATOM     19  C   UNL     1     -45.594 -48.147  37.703  1.00  0.00    -0.000 C 
BRANCH  19  20
ATOM     20  C   UNL     1     -44.940 -47.969  39.082  1.00  0.00    -0.000 C 
BRANCH  20  21
ATOM     21  C   UNL     1     -43.406 -48.075  39.034  1.00  0.00    -0.000 C 
BRANCH  21  22
ATOM     22  C   UNL     1     -42.735 -47.633  40.347  1.00  0.00    -0.000 C 
BRANCH  22  23
ATOM     23  C   UNL     1     -42.087 -46.235  40.308  1.00  0.00    -0.000 C 
BRANCH  23  24
ATOM     24  C   UNL     1     -42.499 -45.351  41.498  1.00  0.00    -0.000 C 
BRANCH  24  25
ATOM     25  C   UNL     1     -41.386 -44.377  41.915  1.00  0.00    -0.003 C 
ATOM     26  C   UNL     1     -40.973 -43.430  40.788  1.00  0.00     0.004 C 
ENDBRANCH  24  25
ENDBRANCH  23  24
ENDBRANCH  22  23
ENDBRANCH  21  22
ENDBRANCH  20  21
ENDBRANCH  19  20
ENDBRANCH  18  19
ENDBRANCH  17  18
ENDBRANCH  16  17
ENDBRANCH  15  16
ENDBRANCH   1  15
TORSDOF 22
ENDMDL
MODEL 4
REMARK VINA RESULT:    -4.062      1.425      2.798
REMARK INTER + INTRA:         -13.084
REMARK INTER:                  -9.676
REMARK INTRA:                  -3.408
REMARK UNBOUND:                -3.798
REMARK SMILES CCCCCCCCCCCCCCCCCCCCCCCC(=O)[O-]
REMARK SMILES IDX 13 1 14 2 15 3 16 4 17 5 18 6 19 7 20 8 21 9 22 10 23 11
REMARK SMILES IDX 24 12 25 13 26 14 12 15 11 16 10 17 9 18 8 19 7 20 6 21 5 22
REMARK SMILES IDX 4 23 3 24 2 25 1 26
REMARK H PARENT
REMARK Flexibility Score: inf
ROOT
ATOM      1  C   UNL     1     -46.399 -50.070  37.107  1.00  0.00     0.000 C 
ENDROOT
BRANCH   1   2
ATOM      2  C   UNL     1     -45.764 -48.726  37.522  1.00  0.00     0.000 C 
BRANCH   2   3
ATOM      3  C   UNL     1     -44.240 -48.712  37.310  1.00  0.00     0.000 C 
BRANCH   3   4
ATOM      4  C   UNL     1     -43.475 -48.202  38.542  1.00  0.00     0.000 C 
BRANCH   4   5
ATOM      5  C   UNL     1     -44.404 -47.875  39.721  1.00  0.00     0.000 C 
BRANCH   5   6
ATOM      6  C   UNL     1     -44.369 -46.379  40.052  1.00  0.00     0.000 C 
BRANCH   6   7
ATOM      7  C   UNL     1     -42.927 -45.905  40.295  1.00  0.00     0.000 C 
BRANCH   7   8
ATOM      8  C   UNL     1     -42.629 -45.652  41.782  1.00  0.00     0.000 C 
BRANCH   8   9
ATOM      9  C   UNL     1     -41.522 -44.608  41.994  1.00  0.00     0.000 C 
BRANCH   9  10
ATOM     10  C   UNL     1     -40.224 -45.275  42.466  1.00  0.00     0.006 C 
BRANCH  10  11
ATOM     11  C   UNL     1     -39.312 -45.604  41.281  1.00  0.00     0.053 C 
BRANCH  11  12
ATOM     12  C   UNL     1     -39.395 -47.058  40.943  1.00  0.00     0.041 C 
ATOM     13  O   UNL     1     -39.639 -47.421  39.761  1.00  0.00    -0.550 OA
ATOM     14  O   UNL     1     -39.153 -48.015  41.921  1.00  0.00    -0.550 OA
ENDBRANCH  11  12
ENDBRANCH  10  11
ENDBRANCH   9  10
ENDBRANCH   8   9
ENDBRANCH   7   8
ENDBRANCH   6   7
ENDBRANCH   5   6
ENDBRANCH   4   5
ENDBRANCH   3   4
ENDBRANCH   2   3
ENDBRANCH   1   2
BRANCH   1  15
ATOM     15  C   UNL     1     -45.376 -51.207  36.946  1.00  0.00     0.000 C 
BRANCH  15  16
ATOM     16  C   UNL     1     -45.970 -52.592  37.249  1.00  0.00     0.000 C 
BRANCH  16  17
ATOM     17  C   UNL     1     -47.509 -52.595  37.262  1.00  0.00     0.000 C 
BRANCH  17  18
ATOM     18  C   UNL     1     -48.148 -53.668  38.162  1.00  0.00    -0.000 C 
BRANCH  18  19
ATOM     19  C   UNL     1     -47.160 -54.254  39.186  1.00  0.00    -0.000 C 
BRANCH  19  20
ATOM     20  C   UNL     1     -47.803 -54.481  40.563  1.00  0.00    -0.000 C 
BRANCH  20  21
ATOM     21  C   UNL     1     -48.835 -53.401  40.927  1.00  0.00    -0.000 C 
BRANCH  21  22
ATOM     22  C   UNL     1     -48.343 -52.451  42.034  1.00  0.00    -0.000 C 
BRANCH  22  23
ATOM     23  C   UNL     1     -48.146 -50.987  41.596  1.00  0.00    -0.000 C 
BRANCH  23  24
ATOM     24  C   UNL     1     -47.002 -50.812  40.583  1.00  0.00    -0.000 C 
BRANCH  24  25
ATOM     25  C   UNL     1     -45.618 -50.872  41.248  1.00  0.00    -0.003 C 
ATOM     26  C   UNL     1     -44.686 -51.888  40.588  1.00  0.00     0.004 C 
ENDBRANCH  24  25
ENDBRANCH  23  24
ENDBRANCH  22  23
ENDBRANCH  21  22
ENDBRANCH  20  21
ENDBRANCH  19  20
ENDBRANCH  18  19
ENDBRANCH  17  18
ENDBRANCH  16  17
ENDBRANCH  15  16
ENDBRANCH   1  15
TORSDOF 22
ENDMDL
MODEL 5
REMARK VINA RESULT:    -4.032      1.809      3.978
REMARK INTER + INTRA:         -13.015
REMARK INTER:                  -8.826
REMARK INTRA:                  -4.189
REMARK UNBOUND:                -3.798
REMARK SMILES CCCCCCCCCCCCCCCCCCCCCCCC(=O)[O-]
REMARK SMILES IDX 13 1 14 2 15 3 16 4 17 5 18 6 19 7 20 8 21 9 22 10 23 11
REMARK SMILES IDX 24 12 25 13 26 14 12 15 11 16 10 17 9 18 8 19 7 20 6 21 5 22
REMARK SMILES IDX 4 23 3 24 2 25 1 26
REMARK H PARENT
REMARK Flexibility Score: inf
ROOT
ATOM      1  C   UNL     1     -44.702 -52.333  38.302  1.00  0.00     0.000 C 
ENDROOT
BRANCH   1   2
ATOM      2  C   UNL     1     -45.860 -52.689  37.346  1.00  0.00     0.000 C 
BRANCH   2   3
ATOM      3  C   UNL     1     -47.001 -51.659  37.404  1.00  0.00     0.000 C 
BRANCH   3   4
ATOM      4  C   UNL     1     -46.659 -50.354  36.665  1.00  0.00     0.000 C 
BRANCH   4   5
ATOM      5  C   UNL     1     -46.802 -49.114  37.559  1.00  0.00     0.000 C 
BRANCH   5   6
ATOM      6  C   UNL     1     -45.456 -48.399  37.729  1.00  0.00     0.000 C 
BRANCH   6   7
ATOM      7  C   UNL     1     -44.418 -48.941  36.735  1.00  0.00     0.000 C 
BRANCH   7   8
ATOM      8  C   UNL     1     -42.972 -48.748  37.223  1.00  0.00     0.000 C 
BRANCH   8   9
ATOM      9  C   UNL     1     -42.815 -49.022  38.726  1.00  0.00     0.000 C 
BRANCH   9  10
ATOM     10  C   UNL     1     -42.036 -47.893  39.410  1.00  0.00     0.006 C 
BRANCH  10  11
ATOM     11  C   UNL     1     -42.769 -47.397  40.659  1.00  0.00     0.053 C 
BRANCH  11  12
ATOM     12  C   UNL     1     -43.357 -46.042  40.419  1.00  0.00     0.041 C 
ATOM     13  O   UNL     1     -44.592 -45.917  40.204  1.00  0.00    -0.550 OA
ATOM     14  O   UNL     1     -42.550 -44.913  40.486  1.00  0.00    -0.550 OA
ENDBRANCH  11  12
ENDBRANCH  10  11
ENDBRANCH   9  10
ENDBRANCH   8   9
ENDBRANCH   7   8
ENDBRANCH   6   7
ENDBRANCH   5   6
ENDBRANCH   4   5
ENDBRANCH   3   4
ENDBRANCH   2   3
ENDBRANCH   1   2
BRANCH   1  15
ATOM     15  C   UNL     1     -45.006 -52.650  39.776  1.00  0.00     0.000 C 
BRANCH  15  16
ATOM     16  C   UNL     1     -44.496 -51.565  40.738  1.00  0.00     0.000 C 
BRANCH  16  17
ATOM     17  C   UNL     1     -45.496 -50.408  40.921  1.00  0.00     0.000 C 
BRANCH  17  18
ATOM     18  C   UNL     1     -46.971 -50.784  40.693  1.00  0.00    -0.000 C 
BRANCH  18  19
ATOM     19  C   UNL     1     -47.703 -51.150  41.996  1.00  0.00    -0.000 C 
BRANCH  19  20
ATOM     20  C   UNL     1     -47.903 -52.665  42.156  1.00  0.00    -0.000 C 
BRANCH  20  21
ATOM     21  C   UNL     1     -49.080 -53.203  41.324  1.00  0.00    -0.000 C 
BRANCH  21  22
ATOM     22  C   UNL     1     -48.638 -53.783  39.968  1.00  0.00    -0.000 C 
BRANCH  22  23
ATOM     23  C   UNL     1     -47.741 -55.033  40.056  1.00  0.00    -0.000 C 
BRANCH  23  24
ATOM     24  C   UNL     1     -47.431 -55.646  38.679  1.00  0.00    -0.000 C 
BRANCH  24  25
ATOM     25  C   UNL     1     -46.322 -56.708  38.748  1.00  0.00    -0.003 C 
ATOM     26  C   UNL     1     -45.271 -56.399  39.814  1.00  0.00     0.004 C 
ENDBRANCH  24  25
ENDBRANCH  23  24
ENDBRANCH  22  23
ENDBRANCH  21  22
ENDBRANCH  20  21
ENDBRANCH  19  20
ENDBRANCH  18  19
ENDBRANCH  17  18
ENDBRANCH  16  17
ENDBRANCH  15  16
ENDBRANCH   1  15
TORSDOF 22
ENDMDL
MODEL 6
REMARK VINA RESULT:    -4.002      1.221      3.430
REMARK INTER + INTRA:         -12.947
REMARK INTER:                  -9.041
REMARK INTRA:                  -3.907
REMARK UNBOUND:                -3.798
REMARK SMILES CCCCCCCCCCCCCCCCCCCCCCCC(=O)[O-]
REMARK SMILES IDX 13 1 14 2 15 3 16 4 17 5 18 6 19 7 20 8 21 9 22 10 23 11
REMARK SMILES IDX 24 12 25 13 26 14 12 15 11 16 10 17 9 18 8 19 7 20 6 21 5 22
REMARK SMILES IDX 4 23 3 24 2 25 1 26
REMARK H PARENT
REMARK Flexibility Score: inf
ROOT
ATOM      1  C   UNL     1     -45.636 -51.224  41.611  1.00  0.00     0.000 C 
ENDROOT
BRANCH   1   2
ATOM      2  C   UNL     1     -44.860 -52.197  40.698  1.00  0.00     0.000 C 
BRANCH   2   3
ATOM      3  C   UNL     1     -43.578 -51.563  40.130  1.00  0.00     0.000 C 
BRANCH   3   4
ATOM      4  C   UNL     1     -43.562 -50.032  40.269  1.00  0.00     0.000 C 
BRANCH   4   5
ATOM      5  C   UNL     1     -42.500 -49.369  39.377  1.00  0.00     0.000 C 
BRANCH   5   6
ATOM      6  C   UNL     1     -42.908 -47.940  39.005  1.00  0.00     0.000 C 
BRANCH   6   7
ATOM      7  C   UNL     1     -44.201 -47.531  39.728  1.00  0.00     0.000 C 
BRANCH   7   8
ATOM      8  C   UNL     1     -44.211 -46.048  40.134  1.00  0.00     0.000 C 
BRANCH   8   9
ATOM      9  C   UNL     1     -43.243 -45.744  41.287  1.00  0.00     0.000 C 
BRANCH   9  10
ATOM     10  C   UNL     1     -42.154 -44.761  40.843  1.00  0.00     0.006 C 
BRANCH  10  11
ATOM     11  C   UNL     1     -40.867 -44.965  41.648  1.00  0.00     0.053 C 
BRANCH  11  12
ATOM     12  C   UNL     1     -40.380 -46.373  41.510  1.00  0.00     0.041 C 
ATOM     13  O   UNL     1     -39.928 -46.781  40.407  1.00  0.00    -0.550 OA
ATOM     14  O   UNL     1     -40.375 -47.218  42.612  1.00  0.00    -0.550 OA
ENDBRANCH  11  12
ENDBRANCH  10  11
ENDBRANCH   9  10
ENDBRANCH   8   9
ENDBRANCH   7   8
ENDBRANCH   6   7
ENDBRANCH   5   6
ENDBRANCH   4   5
ENDBRANCH   3   4
ENDBRANCH   2   3
ENDBRANCH   1   2
BRANCH   1  15
ATOM     15  C   UNL     1     -47.094 -51.007  41.175  1.00  0.00     0.000 C 
BRANCH  15  16
ATOM     16  C   UNL     1     -48.076 -51.960  41.875  1.00  0.00     0.000 C 
BRANCH  16  17
ATOM     17  C   UNL     1     -48.761 -52.937  40.902  1.00  0.00     0.000 C 
BRANCH  17  18
ATOM     18  C   UNL     1     -48.028 -54.276  40.704  1.00  0.00    -0.000 C 
BRANCH  18  19
ATOM     19  C   UNL     1     -47.446 -54.435  39.289  1.00  0.00    -0.000 C 
BRANCH  19  20
ATOM     20  C   UNL     1     -48.009 -53.402  38.300  1.00  0.00    -0.000 C 
BRANCH  20  21
ATOM     21  C   UNL     1     -46.910 -52.656  37.524  1.00  0.00    -0.000 C 
BRANCH  21  22
ATOM     22  C   UNL     1     -47.172 -51.142  37.421  1.00  0.00    -0.000 C 
BRANCH  22  23
ATOM     23  C   UNL     1     -45.958 -50.248  37.736  1.00  0.00    -0.000 C 
BRANCH  23  24
ATOM     24  C   UNL     1     -45.458 -49.463  36.510  1.00  0.00    -0.000 C 
BRANCH  24  25
ATOM     25  C   UNL     1     -44.095 -49.965  36.010  1.00  0.00    -0.003 C 
ATOM     26  C   UNL     1     -43.235 -48.850  35.414  1.00  0.00     0.004 C 
ENDBRANCH  24  25
ENDBRANCH  23  24
ENDBRANCH  22  23
ENDBRANCH  21  22
ENDBRANCH  20  21
ENDBRANCH  19  20
ENDBRANCH  18  19
ENDBRANCH  17  18
ENDBRANCH  16  17
ENDBRANCH  15  16
ENDBRANCH   1  15
TORSDOF 22
ENDMDL
MODEL 7
REMARK VINA RESULT:    -3.982      2.953      3.557
REMARK INTER + INTRA:         -12.900
REMARK INTER:                  -8.189
REMARK INTRA:                  -4.711
REMARK UNBOUND:                -3.798
REMARK SMILES CCCCCCCCCCCCCCCCCCCCCCCC(=O)[O-]
REMARK SMILES IDX 13 1 14 2 15 3 16 4 17 5 18 6 19 7 20 8 21 9 22 10 23 11
REMARK SMILES IDX 24 12 25 13 26 14 12 15 11 16 10 17 9 18 8 19 7 20 6 21 5 22
REMARK SMILES IDX 4 23 3 24 2 25 1 26
REMARK H PARENT
REMARK Flexibility Score: inf
ROOT
ATOM      1  C   UNL     1     -44.455 -53.632  37.241  1.00  0.00     0.000 C 
ENDROOT
BRANCH   1   2
ATOM      2  C   UNL     1     -44.209 -52.135  37.522  1.00  0.00     0.000 C 
BRANCH   2   3
ATOM      3  C   UNL     1     -43.905 -51.344  36.237  1.00  0.00     0.000 C 
BRANCH   3   4
ATOM      4  C   UNL     1     -44.774 -50.083  36.099  1.00  0.00     0.000 C 
BRANCH   4   5
ATOM      5  C   UNL     1     -46.135 -50.224  36.797  1.00  0.00     0.000 C 
BRANCH   5   6
ATOM      6  C   UNL     1     -46.465 -48.973  37.619  1.00  0.00     0.000 C 
BRANCH   6   7
ATOM      7  C   UNL     1     -45.241 -48.049  37.727  1.00  0.00     0.000 C 
BRANCH   7   8
ATOM      8  C   UNL     1     -44.647 -48.016  39.145  1.00  0.00     0.000 C 
BRANCH   8   9
ATOM      9  C   UNL     1     -43.393 -48.892  39.280  1.00  0.00     0.000 C 
BRANCH   9  10
ATOM     10  C   UNL     1     -42.173 -48.203  38.658  1.00  0.00     0.006 C 
BRANCH  10  11
ATOM     11  C   UNL     1     -41.341 -49.192  37.838  1.00  0.00     0.053 C 
BRANCH  11  12
ATOM     12  C   UNL     1     -40.922 -48.577  36.541  1.00  0.00     0.041 C 
ATOM     13  O   UNL     1     -41.737 -48.502  35.582  1.00  0.00    -0.550 OA
ATOM     14  O   UNL     1     -39.649 -48.037  36.406  1.00  0.00    -0.550 OA
ENDBRANCH  11  12
ENDBRANCH  10  11
ENDBRANCH   9  10
ENDBRANCH   8   9
ENDBRANCH   7   8
ENDBRANCH   6   7
ENDBRANCH   5   6
ENDBRANCH   4   5
ENDBRANCH   3   4
ENDBRANCH   2   3
ENDBRANCH   1   2
BRANCH   1  15
ATOM     15  C   UNL     1     -45.689 -54.196  37.965  1.00  0.00     0.000 C 
BRANCH  15  16
ATOM     16  C   UNL     1     -46.981 -53.438  37.621  1.00  0.00     0.000 C 
BRANCH  16  17
ATOM     17  C   UNL     1     -48.073 -53.594  38.695  1.00  0.00     0.000 C 
BRANCH  17  18
ATOM     18  C   UNL     1     -47.724 -54.566  39.837  1.00  0.00    -0.000 C 
BRANCH  18  19
ATOM     19  C   UNL     1     -48.367 -54.168  41.177  1.00  0.00    -0.000 C 
BRANCH  19  20
ATOM     20  C   UNL     1     -48.972 -52.755  41.145  1.00  0.00    -0.000 C 
BRANCH  20  21
ATOM     21  C   UNL     1     -48.229 -51.766  42.059  1.00  0.00    -0.000 C 
BRANCH  21  22
ATOM     22  C   UNL     1     -47.523 -50.643  41.277  1.00  0.00    -0.000 C 
BRANCH  22  23
ATOM     23  C   UNL     1     -46.258 -51.077  40.514  1.00  0.00    -0.000 C 
BRANCH  23  24
ATOM     24  C   UNL     1     -45.103 -51.481  41.447  1.00  0.00    -0.000 C 
BRANCH  24  25
ATOM     25  C   UNL     1     -44.806 -52.987  41.393  1.00  0.00    -0.003 C 
ATOM     26  C   UNL     1     -44.697 -53.621  42.780  1.00  0.00     0.004 C 
ENDBRANCH  24  25
ENDBRANCH  23  24
ENDBRANCH  22  23
ENDBRANCH  21  22
ENDBRANCH  20  21
ENDBRANCH  19  20
ENDBRANCH  18  19
ENDBRANCH  17  18
ENDBRANCH  16  17
ENDBRANCH  15  16
ENDBRANCH   1  15
TORSDOF 22
ENDMDL
MODEL 8
REMARK VINA RESULT:    -3.971      1.770      4.622
REMARK INTER + INTRA:         -12.877
REMARK INTER:                  -9.691
REMARK INTRA:                  -3.185
REMARK UNBOUND:                -3.798
REMARK SMILES CCCCCCCCCCCCCCCCCCCCCCCC(=O)[O-]
REMARK SMILES IDX 13 1 14 2 15 3 16 4 17 5 18 6 19 7 20 8 21 9 22 10 23 11
REMARK SMILES IDX 24 12 25 13 26 14 12 15 11 16 10 17 9 18 8 19 7 20 6 21 5 22
REMARK SMILES IDX 4 23 3 24 2 25 1 26
REMARK H PARENT
REMARK Flexibility Score: inf
ROOT
ATOM      1  C   UNL     1     -48.755 -53.576  40.899  1.00  0.00     0.000 C 
ENDROOT
BRANCH   1   2
ATOM      2  C   UNL     1     -48.272 -52.638  42.025  1.00  0.00     0.000 C 
BRANCH   2   3
ATOM      3  C   UNL     1     -48.141 -51.180  41.551  1.00  0.00     0.000 C 
BRANCH   3   4
ATOM      4  C   UNL     1     -46.693 -50.798  41.202  1.00  0.00     0.000 C 
BRANCH   4   5
ATOM      5  C   UNL     1     -45.661 -51.590  42.019  1.00  0.00     0.000 C 
BRANCH   5   6
ATOM      6  C   UNL     1     -44.278 -51.538  41.358  1.00  0.00     0.000 C 
BRANCH   6   7
ATOM      7  C   UNL     1     -44.355 -50.869  39.977  1.00  0.00     0.000 C 
BRANCH   7   8
ATOM      8  C   UNL     1     -43.748 -49.457  39.966  1.00  0.00     0.000 C 
BRANCH   8   9
ATOM      9  C   UNL     1     -42.713 -49.251  41.083  1.00  0.00     0.000 C 
BRANCH   9  10
ATOM     10  C   UNL     1     -41.923 -47.955  40.864  1.00  0.00     0.006 C 
BRANCH  10  11
ATOM     11  C   UNL     1     -42.689 -46.990  39.955  1.00  0.00     0.053 C 
BRANCH  11  12
ATOM     12  C   UNL     1     -43.313 -45.895  40.760  1.00  0.00     0.041 C 
ATOM     13  O   UNL     1     -44.445 -45.440  40.441  1.00  0.00    -0.550 OA
ATOM     14  O   UNL     1     -42.671 -45.412  41.893  1.00  0.00    -0.550 OA
ENDBRANCH  11  12
ENDBRANCH  10  11
ENDBRANCH   9  10
ENDBRANCH   8   9
ENDBRANCH   7   8
ENDBRANCH   6   7
ENDBRANCH   5   6
ENDBRANCH   4   5
ENDBRANCH   3   4
ENDBRANCH   2   3
ENDBRANCH   1   2
BRANCH   1  15
ATOM     15  C   UNL     1     -47.664 -54.532  40.389  1.00  0.00     0.000 C 
BRANCH  15  16
ATOM     16  C   UNL     1     -47.601 -54.600  38.854  1.00  0.00     0.000 C 
BRANCH  16  17
ATOM     17  C   UNL     1     -47.915 -53.252  38.180  1.00  0.00     0.000 C 
BRANCH  17  18
ATOM     18  C   UNL     1     -46.684 -52.386  37.856  1.00  0.00    -0.000 C 
BRANCH  18  19
ATOM     19  C   UNL     1     -47.017 -51.194  36.941  1.00  0.00    -0.000 C 
BRANCH  19  20
ATOM     20  C   UNL     1     -47.039 -49.857  37.699  1.00  0.00    -0.000 C 
BRANCH  20  21
ATOM     21  C   UNL     1     -45.977 -48.866  37.194  1.00  0.00    -0.000 C 
BRANCH  21  22
ATOM     22  C   UNL     1     -44.804 -49.559  36.476  1.00  0.00    -0.000 C 
BRANCH  22  23
ATOM     23  C   UNL     1     -43.548 -48.688  36.290  1.00  0.00    -0.000 C 
BRANCH  23  24
ATOM     24  C   UNL     1     -43.048 -48.661  34.835  1.00  0.00    -0.000 C 
BRANCH  24  25
ATOM     25  C   UNL     1     -41.701 -49.382  34.666  1.00  0.00    -0.003 C 
ATOM     26  C   UNL     1     -40.904 -49.463  35.968  1.00  0.00     0.004 C 
ENDBRANCH  24  25
ENDBRANCH  23  24
ENDBRANCH  22  23
ENDBRANCH  21  22
ENDBRANCH  20  21
ENDBRANCH  19  20
ENDBRANCH  18  19
ENDBRANCH  17  18
ENDBRANCH  16  17
ENDBRANCH  15  16
ENDBRANCH   1  15
TORSDOF 22
ENDMDL
MODEL 9
REMARK VINA RESULT:    -3.964      2.480      3.839
REMARK INTER + INTRA:         -12.861
REMARK INTER:                  -8.713
REMARK INTRA:                  -4.148
REMARK UNBOUND:                -3.798
REMARK SMILES CCCCCCCCCCCCCCCCCCCCCCCC(=O)[O-]
REMARK SMILES IDX 13 1 14 2 15 3 16 4 17 5 18 6 19 7 20 8 21 9 22 10 23 11
REMARK SMILES IDX 24 12 25 13 26 14 12 15 11 16 10 17 9 18 8 19 7 20 6 21 5 22
REMARK SMILES IDX 4 23 3 24 2 25 1 26
REMARK H PARENT
REMARK Flexibility Score: inf
ROOT
ATOM      1  C   UNL     1     -45.017 -50.309  37.074  1.00  0.00     0.000 C 
ENDROOT
BRANCH   1   2
ATOM      2  C   UNL     1     -44.170 -49.463  36.099  1.00  0.00     0.000 C 
BRANCH   2   3
ATOM      3  C   UNL     1     -43.958 -50.170  34.749  1.00  0.00     0.000 C 
BRANCH   3   4
ATOM      4  C   UNL     1     -42.733 -49.637  33.988  1.00  0.00     0.000 C 
BRANCH   4   5
ATOM      5  C   UNL     1     -42.115 -48.399  34.655  1.00  0.00     0.000 C 
BRANCH   5   6
ATOM      6  C   UNL     1     -40.588 -48.511  34.718  1.00  0.00     0.000 C 
BRANCH   6   7
ATOM      7  C   UNL     1     -40.064 -48.106  36.105  1.00  0.00     0.000 C 
BRANCH   7   8
ATOM      8  C   UNL     1     -39.740 -49.317  36.994  1.00  0.00     0.000 C 
BRANCH   8   9
ATOM      9  C   UNL     1     -40.900 -49.691  37.929  1.00  0.00     0.000 C 
BRANCH   9  10
ATOM     10  C   UNL     1     -41.367 -48.473  38.734  1.00  0.00     0.006 C 
BRANCH  10  11
ATOM     11  C   UNL     1     -42.689 -48.762  39.450  1.00  0.00     0.053 C 
BRANCH  11  12
ATOM     12  C   UNL     1     -43.490 -47.507  39.600  1.00  0.00     0.041 C 
ATOM     13  O   UNL     1     -42.930 -46.438  39.965  1.00  0.00    -0.550 OA
ATOM     14  O   UNL     1     -44.843 -47.504  39.286  1.00  0.00    -0.550 OA
ENDBRANCH  11  12
ENDBRANCH  10  11
ENDBRANCH   9  10
ENDBRANCH   8   9
ENDBRANCH   7   8
ENDBRANCH   6   7
ENDBRANCH   5   6
ENDBRANCH   4   5
ENDBRANCH   3   4
ENDBRANCH   2   3
ENDBRANCH   1   2
BRANCH   1  15
ATOM     15  C   UNL     1     -44.454 -51.720  37.309  1.00  0.00     0.000 C 
BRANCH  15  16
ATOM     16  C   UNL     1     -45.533 -52.813  37.239  1.00  0.00     0.000 C 
BRANCH  16  17
ATOM     17  C   UNL     1     -46.959 -52.260  37.409  1.00  0.00     0.000 C 
BRANCH  17  18
ATOM     18  C   UNL     1     -47.948 -53.218  38.099  1.00  0.00    -0.000 C 
BRANCH  18  19
ATOM     19  C   UNL     1     -47.275 -54.112  39.154  1.00  0.00    -0.000 C 
BRANCH  19  20
ATOM     20  C   UNL     1     -48.093 -54.213  40.451  1.00  0.00    -0.000 C 
BRANCH  20  21
ATOM     21  C   UNL     1     -48.795 -52.894  40.819  1.00  0.00    -0.000 C 
BRANCH  21  22
ATOM     22  C   UNL     1     -47.895 -51.944  41.630  1.00  0.00    -0.000 C 
BRANCH  22  23
ATOM     23  C   UNL     1     -47.317 -50.758  40.834  1.00  0.00    -0.000 C 
BRANCH  23  24
ATOM     24  C   UNL     1     -45.779 -50.736  40.823  1.00  0.00    -0.000 C 
BRANCH  24  25
ATOM     25  C   UNL     1     -45.172 -51.934  41.570  1.00  0.00    -0.003 C 
ATOM     26  C   UNL     1     -44.163 -52.711  40.725  1.00  0.00     0.004 C 
ENDBRANCH  24  25
ENDBRANCH  23  24
ENDBRANCH  22  23
ENDBRANCH  21  22
ENDBRANCH  20  21
ENDBRANCH  19  20
ENDBRANCH  18  19
ENDBRANCH  17  18
ENDBRANCH  16  17
ENDBRANCH  15  16
ENDBRANCH   1  15
TORSDOF 22
ENDMDL
