MODEL 1
REMARK VINA RESULT:    11.771      0.000      0.000
REMARK INTER + INTRA:          13.549
REMARK INTER:                  13.835
REMARK INTRA:                  -0.286
REMARK UNBOUND:                -0.286
REMARK SMILES O=c1cc(-c2ccc(O)c(O)c2)oc2cc(O)cc(O)c12
REMARK SMILES IDX 4 1 3 2 2 3 1 4 21 5 19 6 18 7 16 8 15 9 14 10 13 11 5 12
REMARK SMILES IDX 6 13 7 14 8 15 12 16 10 17 9 18 11 20 20 22 17 24
REMARK H PARENT 9 19 11 21 20 23 17 25
REMARK Flexibility Score: inf
ROOT
ATOM      1  C   UNL     1      12.725  -2.754  11.095  1.00  0.00     0.138 A 
ATOM      2  C   UNL     1      13.137  -3.668  12.079  1.00  0.00     0.100 A 
ATOM      3  C   UNL     1      14.103  -3.285  13.010  1.00  0.00     0.197 A 
ATOM      4  O   UNL     1      14.465  -4.111  13.890  1.00  0.00    -0.289 OA
ATOM      5  C   UNL     1      14.647  -1.987  12.953  1.00  0.00     0.107 A 
ATOM      6  C   UNL     1      15.630  -1.518  13.858  1.00  0.00     0.134 A 
ATOM      7  C   UNL     1      16.118  -0.209  13.736  1.00  0.00     0.093 A 
ATOM      8  C   UNL     1      15.641   0.639  12.730  1.00  0.00     0.123 A 
ATOM      9  C   UNL     1      14.671   0.182  11.836  1.00  0.00     0.094 A 
ATOM     10  C   UNL     1      14.173  -1.120  11.938  1.00  0.00     0.146 A 
ATOM     11  O   UNL     1      13.252  -1.533  11.074  1.00  0.00    -0.456 OA
ENDROOT
BRANCH   1  12
ATOM     12  C   UNL     1      11.700  -3.107  10.078  1.00  0.00     0.021 A 
ATOM     13  C   UNL     1      10.458  -3.662  10.441  1.00  0.00     0.016 A 
ATOM     14  C   UNL     1       9.517  -3.994   9.463  1.00  0.00     0.051 A 
ATOM     15  C   UNL     1       9.800  -3.785   8.109  1.00  0.00     0.157 A 
ATOM     16  C   UNL     1      11.983  -2.912   8.714  1.00  0.00     0.062 A 
ATOM     17  C   UNL     1      11.039  -3.244   7.733  1.00  0.00     0.158 A 
BRANCH  15  18
ATOM     18  O   UNL     1       8.840  -4.124   7.156  1.00  0.00    -0.504 OA
ATOM     19  H   UNL     1       8.525  -3.467   6.453  1.00  0.00     0.293 HD
ENDBRANCH  15  18
BRANCH  17  20
ATOM     20  O   UNL     1      11.328  -3.036   6.384  1.00  0.00    -0.504 OA
ATOM     21  H   UNL     1      12.255  -3.201   6.008  1.00  0.00     0.293 HD
ENDBRANCH  17  20
ENDBRANCH   1  12
BRANCH   6  22
ATOM     22  O   UNL     1      16.123  -2.341  14.870  1.00  0.00    -0.507 OA
ATOM     23  H   UNL     1      16.993  -2.851  14.767  1.00  0.00     0.293 HD
ENDBRANCH   6  22
BRANCH   8  24
ATOM     24  O   UNL     1      16.125   1.941  12.609  1.00  0.00    -0.508 OA
ATOM     25  H   UNL     1      15.635   2.639  12.063  1.00  0.00     0.293 HD
ENDBRANCH   8  24
TORSDOF 5
ENDMDL
MODEL 2
REMARK VINA RESULT:    13.855      1.181      2.709
REMARK INTER + INTRA:          15.999
REMARK INTER:                  16.262
REMARK INTRA:                  -0.263
REMARK UNBOUND:                -0.286
REMARK SMILES O=c1cc(-c2ccc(O)c(O)c2)oc2cc(O)cc(O)c12
REMARK SMILES IDX 4 1 3 2 2 3 1 4 21 5 19 6 18 7 16 8 15 9 14 10 13 11 5 12
REMARK SMILES IDX 6 13 7 14 8 15 12 16 10 17 9 18 11 20 20 22 17 24
REMARK H PARENT 9 19 11 21 20 23 17 25
REMARK Flexibility Score: inf
ROOT
ATOM      1  C   UNL     1      12.807  -2.096  11.303  1.00  0.00     0.138 A 
ATOM      2  C   UNL     1      13.225  -0.755  11.287  1.00  0.00     0.100 A 
ATOM      3  C   UNL     1      14.166  -0.317  12.219  1.00  0.00     0.197 A 
ATOM      4  O   UNL     1      14.536   0.888  12.195  1.00  0.00    -0.289 OA
ATOM      5  C   UNL     1      14.686  -1.226  13.161  1.00  0.00     0.107 A 
ATOM      6  C   UNL     1      15.642  -0.865  14.141  1.00  0.00     0.134 A 
ATOM      7  C   UNL     1      16.114  -1.832  15.040  1.00  0.00     0.093 A 
ATOM      8  C   UNL     1      15.650  -3.151  14.977  1.00  0.00     0.123 A 
ATOM      9  C   UNL     1      14.708  -3.512  14.013  1.00  0.00     0.094 A 
ATOM     10  C   UNL     1      14.223  -2.563  13.108  1.00  0.00     0.146 A 
ATOM     11  O   UNL     1      13.325  -2.931  12.200  1.00  0.00    -0.456 OA
ENDROOT
BRANCH   1  12
ATOM     12  C   UNL     1      11.809  -2.618  10.335  1.00  0.00     0.021 A 
ATOM     13  C   UNL     1      10.567  -3.131  10.756  1.00  0.00     0.016 A 
ATOM     14  C   UNL     1       9.652  -3.625   9.823  1.00  0.00     0.051 A 
ATOM     15  C   UNL     1       9.959  -3.623   8.460  1.00  0.00     0.157 A 
ATOM     16  C   UNL     1      12.117  -2.630   8.962  1.00  0.00     0.062 A 
ATOM     17  C   UNL     1      11.198  -3.124   8.026  1.00  0.00     0.158 A 
BRANCH  15  18
ATOM     18  O   UNL     1       9.023  -4.120   7.552  1.00  0.00    -0.504 OA
ATOM     19  H   UNL     1       8.205  -4.634   7.852  1.00  0.00     0.293 HD
ENDBRANCH  15  18
BRANCH  17  20
ATOM     20  O   UNL     1      11.512  -3.122   6.667  1.00  0.00    -0.504 OA
ATOM     21  H   UNL     1      10.868  -2.759   5.974  1.00  0.00     0.293 HD
ENDBRANCH  17  20
ENDBRANCH   1  12
BRANCH   6  22
ATOM     22  O   UNL     1      16.122   0.441  14.227  1.00  0.00    -0.507 OA
ATOM     23  H   UNL     1      17.058   0.645  14.558  1.00  0.00     0.293 HD
ENDBRANCH   6  22
BRANCH   8  24
ATOM     24  O   UNL     1      16.120  -4.113  15.870  1.00  0.00    -0.508 OA
ATOM     25  H   UNL     1      16.537  -3.853  16.756  1.00  0.00     0.293 HD
ENDBRANCH   8  24
TORSDOF 5
ENDMDL
