MODEL 1
REMARK VINA RESULT:    -7.192      0.000      0.000
REMARK INTER + INTRA:         -15.019
REMARK INTER:                 -11.816
REMARK INTRA:                  -3.202
REMARK UNBOUND:                -3.202
REMARK SMILES C[C@@H]1O[C@@H](OC[C@@H]2O[C@H](Oc3c(-c4ccc(O)c(O)c4)oc4cc(O)cc(O)c4c3=O)[C@@H](O)[C@H](O)[C@@H]2O)[C@H](O)[C@@H](O)[C@@H]1O
REMARK SMILES IDX 7 1 36 2 34 3 32 4 9 5 8 6 6 7 5 8 4 9 1 10 2 11 42 12 3 13
REMARK SMILES IDX 40 14 38 15 43 16 41 18 39 20 37 22 35 24 10 26 11 27 12 28
REMARK SMILES IDX 30 29 21 30 29 31 31 32 22 33 27 34 23 35 26 36 24 37 13 38
REMARK SMILES IDX 20 39 14 40 18 41 15 42 16 43 19 44 17 46 28 48 25 50 33 52
REMARK H PARENT 43 17 41 19 39 21 37 23 35 25 19 45 17 47 28 49 25 51 33 53
REMARK Flexibility Score: inf
ROOT
ATOM      1  C   UNL     1      -5.541   7.333   0.088  1.00  0.00     0.180 C 
ATOM      2  C   UNL     1      -6.270   8.440   0.829  1.00  0.00     0.177 C 
ATOM      3  C   UNL     1      -7.869   8.453   0.492  1.00  0.00     0.180 C 
ATOM      4  C   UNL     1      -8.367   6.995   0.401  1.00  0.00     0.214 C 
ATOM      5  C   UNL     1      -7.446   6.258  -0.644  1.00  0.00     0.339 C 
ATOM      6  O   UNL     1      -6.244   6.118   0.110  1.00  0.00    -0.332 OA
ENDROOT
BRANCH   1   7
ATOM      7  C   UNL     1      -4.806   7.603  -1.225  1.00  0.00     0.198 C 
BRANCH   7   8
ATOM      8  O   UNL     1      -3.852   8.599  -1.122  1.00  0.00    -0.347 OA
BRANCH   8   9
ATOM      9  C   UNL     1      -2.513   8.339  -1.506  1.00  0.00     0.281 C 
ATOM     10  C   UNL     1      -3.983  11.134  -2.239  1.00  0.00     0.041 C 
ATOM     11  C   UNL     1      -2.802  10.214  -2.690  1.00  0.00     0.150 C 
ATOM     12  C   UNL     1      -1.794  10.063  -3.880  1.00  0.00     0.174 C 
ATOM     13  O   UNL     1      -2.110   9.642  -1.580  1.00  0.00    -0.344 OA
ATOM     14  C   UNL     1      -1.759   8.529  -4.197  1.00  0.00     0.179 C 
ATOM     15  C   UNL     1      -2.187   7.560  -2.894  1.00  0.00     0.202 C 
BRANCH  12  16
ATOM     16  O   UNL     1      -0.569  10.653  -3.649  1.00  0.00    -0.388 OA
ATOM     17  H   UNL     1      -0.301  10.576  -2.695  1.00  0.00     0.211 HD
ENDBRANCH  12  16
BRANCH  14  18
ATOM     18  O   UNL     1      -2.684   8.330  -5.224  1.00  0.00    -0.387 OA
ATOM     19  H   UNL     1      -2.194   8.135  -6.069  1.00  0.00     0.211 HD
ENDBRANCH  14  18
BRANCH  15  20
ATOM     20  O   UNL     1      -1.178   6.601  -2.689  1.00  0.00    -0.385 OA
ATOM     21  H   UNL     1      -1.334   6.130  -1.754  1.00  0.00     0.211 HD
ENDBRANCH  15  20
ENDBRANCH   8   9
ENDBRANCH   7   8
ENDBRANCH   1   7
BRANCH   2  22
ATOM     22  O   UNL     1      -5.630   9.660   0.602  1.00  0.00    -0.387 OA
ATOM     23  H   UNL     1      -5.590   9.776  -0.400  1.00  0.00     0.211 HD
ENDBRANCH   2  22
BRANCH   3  24
ATOM     24  O   UNL     1      -8.187   8.999  -0.723  1.00  0.00    -0.387 OA
ATOM     25  H   UNL     1      -7.687   8.604  -1.503  1.00  0.00     0.211 HD
ENDBRANCH   3  24
BRANCH   5  26
ATOM     26  O   UNL     1      -7.524   7.073  -1.990  1.00  0.00    -0.454 OA
BRANCH  26  27
ATOM     27  C   UNL     1      -7.444   7.045  -3.423  1.00  0.00     0.214 A 
ATOM     28  C   UNL     1      -6.109   6.906  -4.054  1.00  0.00     0.180 A 
ATOM     29  C   UNL     1      -8.155   8.004  -4.168  1.00  0.00     0.239 A 
ATOM     30  O   UNL     1      -5.541   8.050  -4.538  1.00  0.00    -0.452 OA
ATOM     31  C   UNL     1      -7.540   9.270  -4.093  1.00  0.00     0.111 A 
ATOM     32  O   UNL     1      -8.635   7.702  -5.289  1.00  0.00    -0.285 OA
ATOM     33  C   UNL     1      -6.258   9.171  -4.609  1.00  0.00     0.146 A 
ATOM     34  C   UNL     1      -8.275  10.434  -4.307  1.00  0.00     0.134 A 
ATOM     35  C   UNL     1      -5.690  10.189  -5.403  1.00  0.00     0.094 A 
ATOM     36  C   UNL     1      -7.737  11.401  -5.209  1.00  0.00     0.093 A 
ATOM     37  C   UNL     1      -6.515  11.305  -5.800  1.00  0.00     0.123 A 
BRANCH  28  38
ATOM     38  C   UNL     1      -5.568   5.573  -4.613  1.00  0.00     0.025 A 
ATOM     39  C   UNL     1      -4.240   5.366  -4.996  1.00  0.00     0.062 A 
ATOM     40  C   UNL     1      -6.483   4.508  -4.879  1.00  0.00     0.016 A 
ATOM     41  C   UNL     1      -3.939   4.612  -6.160  1.00  0.00     0.158 A 
ATOM     42  C   UNL     1      -5.960   3.390  -5.618  1.00  0.00     0.051 A 
ATOM     43  C   UNL     1      -4.700   3.438  -6.289  1.00  0.00     0.157 A 
BRANCH  41  44
ATOM     44  O   UNL     1      -2.987   5.049  -7.138  1.00  0.00    -0.504 OA
ATOM     45  H   UNL     1      -2.609   5.962  -7.163  1.00  0.00     0.293 HD
ENDBRANCH  41  44
BRANCH  43  46
ATOM     46  O   UNL     1      -4.236   2.426  -7.107  1.00  0.00    -0.504 OA
ATOM     47  H   UNL     1      -3.644   2.562  -7.963  1.00  0.00     0.293 HD
ENDBRANCH  43  46
ENDBRANCH  28  38
BRANCH  34  48
ATOM     48  O   UNL     1      -9.491  10.639  -3.617  1.00  0.00    -0.507 OA
ATOM     49  H   UNL     1     -10.392  10.503  -4.058  1.00  0.00     0.293 HD
ENDBRANCH  34  48
BRANCH  37  50
ATOM     50  O   UNL     1      -6.098  12.125  -6.848  1.00  0.00    -0.508 OA
ATOM     51  H   UNL     1      -6.072  11.791  -7.793  1.00  0.00     0.293 HD
ENDBRANCH  37  50
ENDBRANCH  26  27
ENDBRANCH   5  26
BRANCH   4  52
ATOM     52  O   UNL     1      -8.389   6.254   1.663  1.00  0.00    -0.384 OA
ATOM     53  H   UNL     1      -7.508   6.450   2.119  1.00  0.00     0.211 HD
ENDBRANCH   4  52
TORSDOF 16
ENDMDL
MODEL 2
REMARK VINA RESULT:    -7.190      1.086      1.808
REMARK INTER + INTRA:         -15.016
REMARK INTER:                 -12.222
REMARK INTRA:                  -2.794
REMARK UNBOUND:                -3.202
REMARK SMILES C[C@@H]1O[C@@H](OC[C@@H]2O[C@H](Oc3c(-c4ccc(O)c(O)c4)oc4cc(O)cc(O)c4c3=O)[C@@H](O)[C@H](O)[C@@H]2O)[C@H](O)[C@@H](O)[C@@H]1O
REMARK SMILES IDX 7 1 36 2 34 3 32 4 9 5 8 6 6 7 5 8 4 9 1 10 2 11 42 12 3 13
REMARK SMILES IDX 40 14 38 15 43 16 41 18 39 20 37 22 35 24 10 26 11 27 12 28
REMARK SMILES IDX 30 29 21 30 29 31 31 32 22 33 27 34 23 35 26 36 24 37 13 38
REMARK SMILES IDX 20 39 14 40 18 41 15 42 16 43 19 44 17 46 28 48 25 50 33 52
REMARK H PARENT 43 17 41 19 39 21 37 23 35 25 19 45 17 47 28 49 25 51 33 53
REMARK Flexibility Score: inf
ROOT
ATOM      1  C   UNL     1      -5.569   8.568   0.468  1.00  0.00     0.180 C 
ATOM      2  C   UNL     1      -6.781   8.932   1.308  1.00  0.00     0.177 C 
ATOM      3  C   UNL     1      -8.030   7.908   1.058  1.00  0.00     0.180 C 
ATOM      4  C   UNL     1      -7.474   6.477   0.910  1.00  0.00     0.214 C 
ATOM      5  C   UNL     1      -6.380   6.522  -0.223  1.00  0.00     0.339 C 
ATOM      6  O   UNL     1      -5.318   7.186   0.458  1.00  0.00    -0.332 OA
ENDROOT
BRANCH   1   7
ATOM      7  C   UNL     1      -5.286   9.262  -0.865  1.00  0.00     0.198 C 
BRANCH   7   8
ATOM      8  O   UNL     1      -3.959   9.188  -1.248  1.00  0.00    -0.347 OA
BRANCH   8   9
ATOM      9  C   UNL     1      -3.553   9.711  -2.501  1.00  0.00     0.281 C 
ATOM     10  C   UNL     1      -2.530   6.819  -1.450  1.00  0.00     0.041 C 
ATOM     11  C   UNL     1      -2.151   7.970  -2.438  1.00  0.00     0.150 C 
ATOM     12  C   UNL     1      -0.947   8.429  -3.330  1.00  0.00     0.174 C 
ATOM     13  O   UNL     1      -3.294   8.512  -3.100  1.00  0.00    -0.344 OA
ATOM     14  C   UNL     1      -0.831   9.975  -3.099  1.00  0.00     0.179 C 
ATOM     15  C   UNL     1      -2.266  10.695  -2.608  1.00  0.00     0.202 C 
BRANCH  12  16
ATOM     16  O   UNL     1      -1.046   8.027  -4.645  1.00  0.00    -0.388 OA
ATOM     17  H   UNL     1      -1.972   7.747  -4.873  1.00  0.00     0.211 HD
ENDBRANCH  12  16
BRANCH  14  18
ATOM     18  O   UNL     1       0.121  10.139  -2.090  1.00  0.00    -0.387 OA
ATOM     19  H   UNL     1       0.750   9.367  -2.108  1.00  0.00     0.211 HD
ENDBRANCH  14  18
BRANCH  15  20
ATOM     20  O   UNL     1      -2.548  11.777  -3.462  1.00  0.00    -0.385 OA
ATOM     21  H   UNL     1      -3.592  11.820  -3.629  1.00  0.00     0.211 HD
ENDBRANCH  15  20
ENDBRANCH   8   9
ENDBRANCH   7   8
ENDBRANCH   1   7
BRANCH   2  22
ATOM     22  O   UNL     1      -7.099  10.277   1.119  1.00  0.00    -0.387 OA
ATOM     23  H   UNL     1      -6.685  10.545   0.238  1.00  0.00     0.211 HD
ENDBRANCH   2  22
BRANCH   3  24
ATOM     24  O   UNL     1      -8.718   8.131  -0.105  1.00  0.00    -0.387 OA
ATOM     25  H   UNL     1      -9.659   7.770  -0.110  1.00  0.00     0.211 HD
ENDBRANCH   3  24
BRANCH   5  26
ATOM     26  O   UNL     1      -7.069   7.105  -1.514  1.00  0.00    -0.454 OA
BRANCH  26  27
ATOM     27  C   UNL     1      -7.315   6.958  -2.921  1.00  0.00     0.214 A 
ATOM     28  C   UNL     1      -6.154   6.944  -3.844  1.00  0.00     0.180 A 
ATOM     29  C   UNL     1      -8.316   7.740  -3.527  1.00  0.00     0.239 A 
ATOM     30  O   UNL     1      -5.894   8.106  -4.514  1.00  0.00    -0.452 OA
ATOM     31  C   UNL     1      -7.901   9.079  -3.674  1.00  0.00     0.111 A 
ATOM     32  O   UNL     1      -8.987   7.274  -4.482  1.00  0.00    -0.285 OA
ATOM     33  C   UNL     1      -6.772   9.108  -4.475  1.00  0.00     0.146 A 
ATOM     34  C   UNL     1      -8.836  10.108  -3.771  1.00  0.00     0.134 A 
ATOM     35  C   UNL     1      -6.564  10.117  -5.438  1.00  0.00     0.094 A 
ATOM     36  C   UNL     1      -8.673  11.052  -4.828  1.00  0.00     0.093 A 
ATOM     37  C   UNL     1      -7.619  11.071  -5.688  1.00  0.00     0.123 A 
BRANCH  28  38
ATOM     38  C   UNL     1      -5.557   5.652  -4.440  1.00  0.00     0.025 A 
ATOM     39  C   UNL     1      -4.228   5.521  -4.854  1.00  0.00     0.062 A 
ATOM     40  C   UNL     1      -6.421   4.547  -4.709  1.00  0.00     0.016 A 
ATOM     41  C   UNL     1      -3.913   4.806  -6.038  1.00  0.00     0.158 A 
ATOM     42  C   UNL     1      -5.857   3.471  -5.480  1.00  0.00     0.051 A 
ATOM     43  C   UNL     1      -4.616   3.597  -6.175  1.00  0.00     0.157 A 
BRANCH  41  44
ATOM     44  O   UNL     1      -3.006   5.310  -7.025  1.00  0.00    -0.504 OA
ATOM     45  H   UNL     1      -3.139   6.164  -7.505  1.00  0.00     0.293 HD
ENDBRANCH  41  44
BRANCH  43  46
ATOM     46  O   UNL     1      -4.117   2.626  -7.022  1.00  0.00    -0.504 OA
ATOM     47  H   UNL     1      -4.318   2.556  -8.050  1.00  0.00     0.293 HD
ENDBRANCH  43  46
ENDBRANCH  28  38
BRANCH  34  48
ATOM     48  O   UNL     1      -9.879  10.208  -2.822  1.00  0.00    -0.507 OA
ATOM     49  H   UNL     1     -10.518   9.444  -2.640  1.00  0.00     0.293 HD
ENDBRANCH  34  48
BRANCH  37  50
ATOM     50  O   UNL     1      -7.582  11.840  -6.850  1.00  0.00    -0.508 OA
ATOM     51  H   UNL     1      -8.404  12.296  -7.199  1.00  0.00     0.293 HD
ENDBRANCH  37  50
ENDBRANCH  26  27
ENDBRANCH   5  26
BRANCH   4  52
ATOM     52  O   UNL     1      -6.915   5.886   2.126  1.00  0.00    -0.384 OA
ATOM     53  H   UNL     1      -5.965   5.627   1.901  1.00  0.00     0.211 HD
ENDBRANCH   4  52
TORSDOF 16
ENDMDL
MODEL 3
REMARK VINA RESULT:    -7.058      1.914      6.638
REMARK INTER + INTRA:         -14.799
REMARK INTER:                 -12.598
REMARK INTRA:                  -2.200
REMARK UNBOUND:                -3.202
REMARK SMILES C[C@@H]1O[C@@H](OC[C@@H]2O[C@H](Oc3c(-c4ccc(O)c(O)c4)oc4cc(O)cc(O)c4c3=O)[C@@H](O)[C@H](O)[C@@H]2O)[C@H](O)[C@@H](O)[C@@H]1O
REMARK SMILES IDX 7 1 36 2 34 3 32 4 9 5 8 6 6 7 5 8 4 9 1 10 2 11 42 12 3 13
REMARK SMILES IDX 40 14 38 15 43 16 41 18 39 20 37 22 35 24 10 26 11 27 12 28
REMARK SMILES IDX 30 29 21 30 29 31 31 32 22 33 27 34 23 35 26 36 24 37 13 38
REMARK SMILES IDX 20 39 14 40 18 41 15 42 16 43 19 44 17 46 28 48 25 50 33 52
REMARK H PARENT 43 17 41 19 39 21 37 23 35 25 19 45 17 47 28 49 25 51 33 53
REMARK Flexibility Score: inf
ROOT
ATOM      1  C   UNL     1      -7.095   9.593  -1.848  1.00  0.00     0.180 C 
ATOM      2  C   UNL     1      -6.703  11.024  -2.174  1.00  0.00     0.177 C 
ATOM      3  C   UNL     1      -5.936  11.137  -3.613  1.00  0.00     0.180 C 
ATOM      4  C   UNL     1      -6.612  10.174  -4.610  1.00  0.00     0.214 C 
ATOM      5  C   UNL     1      -6.619   8.747  -3.941  1.00  0.00     0.339 C 
ATOM      6  O   UNL     1      -7.636   8.919  -2.956  1.00  0.00    -0.332 OA
ENDROOT
BRANCH   1   7
ATOM      7  C   UNL     1      -6.227   8.715  -0.948  1.00  0.00     0.198 C 
BRANCH   7   8
ATOM      8  O   UNL     1      -6.829   7.515  -0.611  1.00  0.00    -0.347 OA
BRANCH   8   9
ATOM      9  C   UNL     1      -6.243   6.681   0.373  1.00  0.00     0.281 C 
ATOM     10  C   UNL     1      -9.376   6.432  -0.426  1.00  0.00     0.041 C 
ATOM     11  C   UNL     1      -8.376   6.111   0.732  1.00  0.00     0.150 C 
ATOM     12  C   UNL     1      -8.392   5.655   2.231  1.00  0.00     0.174 C 
ATOM     13  O   UNL     1      -7.119   5.641   0.245  1.00  0.00    -0.344 OA
ATOM     14  C   UNL     1      -7.335   6.563   2.948  1.00  0.00     0.179 C 
ATOM     15  C   UNL     1      -6.152   7.165   1.920  1.00  0.00     0.202 C 
BRANCH  12  16
ATOM     16  O   UNL     1      -8.225   4.296   2.400  1.00  0.00    -0.388 OA
ATOM     17  H   UNL     1      -7.291   4.017   2.208  1.00  0.00     0.211 HD
ENDBRANCH  12  16
BRANCH  14  18
ATOM     18  O   UNL     1      -8.053   7.636   3.481  1.00  0.00    -0.387 OA
ATOM     19  H   UNL     1      -7.704   7.840   4.392  1.00  0.00     0.211 HD
ENDBRANCH  14  18
BRANCH  15  20
ATOM     20  O   UNL     1      -4.887   6.859   2.454  1.00  0.00    -0.385 OA
ATOM     21  H   UNL     1      -4.208   6.695   1.658  1.00  0.00     0.211 HD
ENDBRANCH  15  20
ENDBRANCH   8   9
ENDBRANCH   7   8
ENDBRANCH   1   7
BRANCH   2  22
ATOM     22  O   UNL     1      -5.994  11.573  -1.105  1.00  0.00    -0.387 OA
ATOM     23  H   UNL     1      -6.095  10.927  -0.336  1.00  0.00     0.211 HD
ENDBRANCH   2  22
BRANCH   3  24
ATOM     24  O   UNL     1      -4.626  10.740  -3.588  1.00  0.00    -0.387 OA
ATOM     25  H   UNL     1      -3.984  11.389  -4.014  1.00  0.00     0.211 HD
ENDBRANCH   3  24
BRANCH   5  26
ATOM     26  O   UNL     1      -5.127   8.393  -3.582  1.00  0.00    -0.454 OA
BRANCH  26  27
ATOM     27  C   UNL     1      -3.977   7.584  -3.868  1.00  0.00     0.214 A 
ATOM     28  C   UNL     1      -3.246   7.819  -5.137  1.00  0.00     0.180 A 
ATOM     29  C   UNL     1      -4.057   6.190  -3.689  1.00  0.00     0.239 A 
ATOM     30  O   UNL     1      -3.498   6.945  -6.157  1.00  0.00    -0.452 OA
ATOM     31  C   UNL     1      -4.817   5.585  -4.710  1.00  0.00     0.111 A 
ATOM     32  O   UNL     1      -3.046   5.545  -3.313  1.00  0.00    -0.285 OA
ATOM     33  C   UNL     1      -4.207   5.840  -5.928  1.00  0.00     0.146 A 
ATOM     34  C   UNL     1      -5.441   4.357  -4.502  1.00  0.00     0.134 A 
ATOM     35  C   UNL     1      -4.140   4.869  -6.948  1.00  0.00     0.094 A 
ATOM     36  C   UNL     1      -5.261   3.346  -5.493  1.00  0.00     0.093 A 
ATOM     37  C   UNL     1      -4.601   3.530  -6.669  1.00  0.00     0.123 A 
BRANCH  28  38
ATOM     38  C   UNL     1      -1.934   8.626  -5.226  1.00  0.00     0.025 A 
ATOM     39  C   UNL     1      -1.431   9.419  -4.190  1.00  0.00     0.062 A 
ATOM     40  C   UNL     1      -1.234   8.682  -6.470  1.00  0.00     0.016 A 
ATOM     41  C   UNL     1      -0.838  10.676  -4.473  1.00  0.00     0.158 A 
ATOM     42  C   UNL     1      -0.160   9.636  -6.554  1.00  0.00     0.051 A 
ATOM     43  C   UNL     1       0.033  10.658  -5.575  1.00  0.00     0.157 A 
BRANCH  41  44
ATOM     44  O   UNL     1      -1.153  11.862  -3.732  1.00  0.00    -0.504 OA
ATOM     45  H   UNL     1      -1.015  12.776  -4.079  1.00  0.00     0.293 HD
ENDBRANCH  41  44
BRANCH  43  46
ATOM     46  O   UNL     1       0.975  11.661  -5.700  1.00  0.00    -0.504 OA
ATOM     47  H   UNL     1       1.996  11.566  -5.474  1.00  0.00     0.293 HD
ENDBRANCH  43  46
ENDBRANCH  28  38
BRANCH  34  48
ATOM     48  O   UNL     1      -6.246   4.158  -3.356  1.00  0.00    -0.507 OA
ATOM     49  H   UNL     1      -6.876   4.870  -3.010  1.00  0.00     0.293 HD
ENDBRANCH  34  48
BRANCH  37  50
ATOM     50  O   UNL     1      -4.231   2.489  -7.518  1.00  0.00    -0.508 OA
ATOM     51  H   UNL     1      -3.731   2.663  -8.369  1.00  0.00     0.293 HD
ENDBRANCH  37  50
ENDBRANCH  26  27
ENDBRANCH   5  26
BRANCH   4  52
ATOM     52  O   UNL     1      -7.967  10.541  -5.027  1.00  0.00    -0.384 OA
ATOM     53  H   UNL     1      -8.561   9.770  -4.757  1.00  0.00     0.211 HD
ENDBRANCH   4  52
TORSDOF 16
ENDMDL
MODEL 4
REMARK VINA RESULT:    -7.038      1.779      6.123
REMARK INTER + INTRA:         -14.766
REMARK INTER:                 -12.209
REMARK INTRA:                  -2.557
REMARK UNBOUND:                -3.202
REMARK SMILES C[C@@H]1O[C@@H](OC[C@@H]2O[C@H](Oc3c(-c4ccc(O)c(O)c4)oc4cc(O)cc(O)c4c3=O)[C@@H](O)[C@H](O)[C@@H]2O)[C@H](O)[C@@H](O)[C@@H]1O
REMARK SMILES IDX 7 1 36 2 34 3 32 4 9 5 8 6 6 7 5 8 4 9 1 10 2 11 42 12 3 13
REMARK SMILES IDX 40 14 38 15 43 16 41 18 39 20 37 22 35 24 10 26 11 27 12 28
REMARK SMILES IDX 30 29 21 30 29 31 31 32 22 33 27 34 23 35 26 36 24 37 13 38
REMARK SMILES IDX 20 39 14 40 18 41 15 42 16 43 19 44 17 46 28 48 25 50 33 52
REMARK H PARENT 43 17 41 19 39 21 37 23 35 25 19 45 17 47 28 49 25 51 33 53
REMARK Flexibility Score: inf
ROOT
ATOM      1  C   UNL     1      -2.168   8.780  -3.553  1.00  0.00     0.180 C 
ATOM      2  C   UNL     1      -1.667   9.600  -4.729  1.00  0.00     0.177 C 
ATOM      3  C   UNL     1      -2.336  11.091  -4.766  1.00  0.00     0.180 C 
ATOM      4  C   UNL     1      -2.443  11.620  -3.321  1.00  0.00     0.214 C 
ATOM      5  C   UNL     1      -3.222  10.533  -2.488  1.00  0.00     0.339 C 
ATOM      6  O   UNL     1      -2.223   9.524  -2.364  1.00  0.00    -0.332 OA
ENDROOT
BRANCH   1   7
ATOM      7  C   UNL     1      -3.309   7.775  -3.712  1.00  0.00     0.198 C 
BRANCH   7   8
ATOM      8  O   UNL     1      -3.242   7.055  -4.891  1.00  0.00    -0.347 OA
BRANCH   8   9
ATOM      9  C   UNL     1      -2.682   5.753  -4.895  1.00  0.00     0.281 C 
ATOM     10  C   UNL     1      -5.045   6.599  -6.949  1.00  0.00     0.041 C 
ATOM     11  C   UNL     1      -4.392   5.346  -6.279  1.00  0.00     0.150 C 
ATOM     12  C   UNL     1      -4.659   3.812  -6.100  1.00  0.00     0.174 C 
ATOM     13  O   UNL     1      -2.971   5.457  -6.197  1.00  0.00    -0.344 OA
ATOM     14  C   UNL     1      -4.335   3.512  -4.597  1.00  0.00     0.179 C 
ATOM     15  C   UNL     1      -3.260   4.602  -3.906  1.00  0.00     0.202 C 
BRANCH  12  16
ATOM     16  O   UNL     1      -4.005   3.023  -7.022  1.00  0.00    -0.388 OA
ATOM     17  H   UNL     1      -3.989   3.449  -7.920  1.00  0.00     0.211 HD
ENDBRANCH  12  16
BRANCH  14  18
ATOM     18  O   UNL     1      -5.553   3.595  -3.919  1.00  0.00    -0.387 OA
ATOM     19  H   UNL     1      -5.464   4.246  -3.169  1.00  0.00     0.211 HD
ENDBRANCH  14  18
BRANCH  15  20
ATOM     20  O   UNL     1      -2.200   3.887  -3.319  1.00  0.00    -0.385 OA
ATOM     21  H   UNL     1      -2.505   3.538  -2.368  1.00  0.00     0.211 HD
ENDBRANCH  15  20
ENDBRANCH   8   9
ENDBRANCH   7   8
ENDBRANCH   1   7
BRANCH   2  22
ATOM     22  O   UNL     1      -1.824   8.875  -5.911  1.00  0.00    -0.387 OA
ATOM     23  H   UNL     1      -1.838   9.553  -6.659  1.00  0.00     0.211 HD
ENDBRANCH   2  22
BRANCH   3  24
ATOM     24  O   UNL     1      -3.621  11.122  -5.238  1.00  0.00    -0.387 OA
ATOM     25  H   UNL     1      -3.786  11.810  -5.956  1.00  0.00     0.211 HD
ENDBRANCH   3  24
BRANCH   5  26
ATOM     26  O   UNL     1      -4.600  10.291  -3.212  1.00  0.00    -0.454 OA
BRANCH  26  27
ATOM     27  C   UNL     1      -6.032  10.274  -3.106  1.00  0.00     0.214 A 
ATOM     28  C   UNL     1      -6.704   8.980  -2.834  1.00  0.00     0.180 A 
ATOM     29  C   UNL     1      -6.800  10.944  -4.076  1.00  0.00     0.239 A 
ATOM     30  O   UNL     1      -7.271   8.351  -3.907  1.00  0.00    -0.452 OA
ATOM     31  C   UNL     1      -6.817  10.235  -5.294  1.00  0.00     0.111 A 
ATOM     32  O   UNL     1      -7.884  11.490  -3.753  1.00  0.00    -0.285 OA
ATOM     33  C   UNL     1      -7.375   8.987  -5.073  1.00  0.00     0.146 A 
ATOM     34  C   UNL     1      -7.065  10.893  -6.497  1.00  0.00     0.134 A 
ATOM     35  C   UNL     1      -8.244   8.380  -6.004  1.00  0.00     0.094 A 
ATOM     36  C   UNL     1      -8.038  10.324  -7.374  1.00  0.00     0.093 A 
ATOM     37  C   UNL     1      -8.669   9.138  -7.158  1.00  0.00     0.123 A 
BRANCH  28  38
ATOM     38  C   UNL     1      -7.211   8.561  -1.438  1.00  0.00     0.025 A 
ATOM     39  C   UNL     1      -7.781   9.443  -0.515  1.00  0.00     0.062 A 
ATOM     40  C   UNL     1      -6.987   7.224  -0.989  1.00  0.00     0.016 A 
ATOM     41  C   UNL     1      -7.474   9.332   0.865  1.00  0.00     0.158 A 
ATOM     42  C   UNL     1      -7.263   6.963   0.398  1.00  0.00     0.051 A 
ATOM     43  C   UNL     1      -7.480   8.011   1.344  1.00  0.00     0.157 A 
BRANCH  41  44
ATOM     44  O   UNL     1      -7.131  10.465   1.672  1.00  0.00    -0.504 OA
ATOM     45  H   UNL     1      -7.799  11.062   2.089  1.00  0.00     0.293 HD
ENDBRANCH  41  44
BRANCH  43  46
ATOM     46  O   UNL     1      -7.621   7.793   2.702  1.00  0.00    -0.504 OA
ATOM     47  H   UNL     1      -8.236   8.349   3.345  1.00  0.00     0.293 HD
ENDBRANCH  43  46
ENDBRANCH  28  38
BRANCH  34  48
ATOM     48  O   UNL     1      -6.341  12.061  -6.828  1.00  0.00    -0.507 OA
ATOM     49  H   UNL     1      -6.339  12.880  -6.234  1.00  0.00     0.293 HD
ENDBRANCH  34  48
BRANCH  37  50
ATOM     50  O   UNL     1      -9.774   8.706  -7.889  1.00  0.00    -0.508 OA
ATOM     51  H   UNL     1     -10.010   7.734  -7.951  1.00  0.00     0.293 HD
ENDBRANCH  37  50
ENDBRANCH  26  27
ENDBRANCH   5  26
BRANCH   4  52
ATOM     52  O   UNL     1      -1.172  11.940  -2.667  1.00  0.00    -0.384 OA
ATOM     53  H   UNL     1      -0.700  11.057  -2.529  1.00  0.00     0.211 HD
ENDBRANCH   4  52
TORSDOF 16
ENDMDL
MODEL 5
REMARK VINA RESULT:    -7.026      1.860      5.342
REMARK INTER + INTRA:         -14.747
REMARK INTER:                 -12.206
REMARK INTRA:                  -2.542
REMARK UNBOUND:                -3.202
REMARK SMILES C[C@@H]1O[C@@H](OC[C@@H]2O[C@H](Oc3c(-c4ccc(O)c(O)c4)oc4cc(O)cc(O)c4c3=O)[C@@H](O)[C@H](O)[C@@H]2O)[C@H](O)[C@@H](O)[C@@H]1O
REMARK SMILES IDX 7 1 36 2 34 3 32 4 9 5 8 6 6 7 5 8 4 9 1 10 2 11 42 12 3 13
REMARK SMILES IDX 40 14 38 15 43 16 41 18 39 20 37 22 35 24 10 26 11 27 12 28
REMARK SMILES IDX 30 29 21 30 29 31 31 32 22 33 27 34 23 35 26 36 24 37 13 38
REMARK SMILES IDX 20 39 14 40 18 41 15 42 16 43 19 44 17 46 28 48 25 50 33 52
REMARK H PARENT 43 17 41 19 39 21 37 23 35 25 19 45 17 47 28 49 25 51 33 53
REMARK Flexibility Score: inf
ROOT
ATOM      1  C   UNL     1      -9.094   7.436  -3.131  1.00  0.00     0.180 C 
ATOM      2  C   UNL     1      -8.821   8.929  -3.065  1.00  0.00     0.177 C 
ATOM      3  C   UNL     1      -8.106   9.482  -4.426  1.00  0.00     0.180 C 
ATOM      4  C   UNL     1      -8.735   8.768  -5.640  1.00  0.00     0.214 C 
ATOM      5  C   UNL     1      -8.615   7.219  -5.377  1.00  0.00     0.339 C 
ATOM      6  O   UNL     1      -9.613   7.040  -4.375  1.00  0.00    -0.332 OA
ENDROOT
BRANCH   1   7
ATOM      7  C   UNL     1      -8.137   6.423  -2.505  1.00  0.00     0.198 C 
BRANCH   7   8
ATOM      8  O   UNL     1      -7.979   6.592  -1.141  1.00  0.00    -0.347 OA
BRANCH   8   9
ATOM      9  C   UNL     1      -6.758   6.228  -0.519  1.00  0.00     0.281 C 
ATOM     10  C   UNL     1      -9.442   6.812   1.205  1.00  0.00     0.041 C 
ATOM     11  C   UNL     1      -7.884   6.777   1.334  1.00  0.00     0.150 C 
ATOM     12  C   UNL     1      -6.760   7.197   2.343  1.00  0.00     0.174 C 
ATOM     13  O   UNL     1      -7.307   5.691   0.611  1.00  0.00    -0.344 OA
ATOM     14  C   UNL     1      -5.649   7.866   1.463  1.00  0.00     0.179 C 
ATOM     15  C   UNL     1      -5.657   7.359  -0.137  1.00  0.00     0.202 C 
BRANCH  12  16
ATOM     16  O   UNL     1      -6.338   6.171   3.162  1.00  0.00    -0.388 OA
ATOM     17  H   UNL     1      -6.373   6.431   4.120  1.00  0.00     0.211 HD
ENDBRANCH  12  16
BRANCH  14  18
ATOM     18  O   UNL     1      -5.908   9.237   1.499  1.00  0.00    -0.387 OA
ATOM     19  H   UNL     1      -6.484   9.480   0.723  1.00  0.00     0.211 HD
ENDBRANCH  14  18
BRANCH  15  20
ATOM     20  O   UNL     1      -4.365   6.917  -0.481  1.00  0.00    -0.385 OA
ATOM     21  H   UNL     1      -4.405   6.439  -1.425  1.00  0.00     0.211 HD
ENDBRANCH  15  20
ENDBRANCH   8   9
ENDBRANCH   7   8
ENDBRANCH   1   7
BRANCH   2  22
ATOM     22  O   UNL     1      -8.126   9.229  -1.893  1.00  0.00    -0.387 OA
ATOM     23  H   UNL     1      -7.185   8.887  -2.027  1.00  0.00     0.211 HD
ENDBRANCH   2  22
BRANCH   3  24
ATOM     24  O   UNL     1      -6.769   9.200  -4.517  1.00  0.00    -0.387 OA
ATOM     25  H   UNL     1      -6.264   9.283  -3.650  1.00  0.00     0.211 HD
ENDBRANCH   3  24
BRANCH   5  26
ATOM     26  O   UNL     1      -7.091   6.904  -5.136  1.00  0.00    -0.454 OA
BRANCH  26  27
ATOM     27  C   UNL     1      -5.914   6.217  -5.590  1.00  0.00     0.214 A 
ATOM     28  C   UNL     1      -5.502   4.979  -4.884  1.00  0.00     0.180 A 
ATOM     29  C   UNL     1      -4.744   6.957  -5.846  1.00  0.00     0.239 A 
ATOM     30  O   UNL     1      -4.481   5.102  -3.985  1.00  0.00    -0.452 OA
ATOM     31  C   UNL     1      -4.124   7.363  -4.648  1.00  0.00     0.111 A 
ATOM     32  O   UNL     1      -3.965   6.603  -6.766  1.00  0.00    -0.285 OA
ATOM     33  C   UNL     1      -3.783   6.235  -3.920  1.00  0.00     0.146 A 
ATOM     34  C   UNL     1      -3.282   8.474  -4.623  1.00  0.00     0.134 A 
ATOM     35  C   UNL     1      -2.574   6.147  -3.199  1.00  0.00     0.094 A 
ATOM     36  C   UNL     1      -2.011   8.327  -3.991  1.00  0.00     0.093 A 
ATOM     37  C   UNL     1      -1.604   7.208  -3.331  1.00  0.00     0.123 A 
BRANCH  28  38
ATOM     38  C   UNL     1      -5.787   3.561  -5.419  1.00  0.00     0.025 A 
ATOM     39  C   UNL     1      -4.883   2.814  -6.181  1.00  0.00     0.062 A 
ATOM     40  C   UNL     1      -7.090   3.000  -5.245  1.00  0.00     0.016 A 
ATOM     41  C   UNL     1      -5.339   2.038  -7.277  1.00  0.00     0.158 A 
ATOM     42  C   UNL     1      -7.363   1.787  -5.968  1.00  0.00     0.051 A 
ATOM     43  C   UNL     1      -6.510   1.309  -7.009  1.00  0.00     0.157 A 
BRANCH  41  44
ATOM     44  O   UNL     1      -4.690   2.052  -8.555  1.00  0.00    -0.504 OA
ATOM     45  H   UNL     1      -3.916   1.482  -8.781  1.00  0.00     0.293 HD
ENDBRANCH  41  44
BRANCH  43  46
ATOM     46  O   UNL     1      -6.816   0.220  -7.803  1.00  0.00    -0.504 OA
ATOM     47  H   UNL     1      -6.882   0.232  -8.850  1.00  0.00     0.293 HD
ENDBRANCH  43  46
ENDBRANCH  28  38
BRANCH  34  48
ATOM     48  O   UNL     1      -3.711   9.699  -5.182  1.00  0.00    -0.507 OA
ATOM     49  H   UNL     1      -3.997  10.483  -4.609  1.00  0.00     0.293 HD
ENDBRANCH  34  48
BRANCH  37  50
ATOM     50  O   UNL     1      -0.290   6.988  -2.923  1.00  0.00    -0.508 OA
ATOM     51  H   UNL     1      -0.079   6.666  -1.997  1.00  0.00     0.293 HD
ENDBRANCH  37  50
ENDBRANCH  26  27
ENDBRANCH   5  26
BRANCH   4  52
ATOM     52  O   UNL     1     -10.125   9.122  -5.934  1.00  0.00    -0.384 OA
ATOM     53  H   UNL     1     -10.358   9.881  -5.309  1.00  0.00     0.211 HD
ENDBRANCH   4  52
TORSDOF 16
ENDMDL
MODEL 6
REMARK VINA RESULT:    -6.796      1.652      5.435
REMARK INTER + INTRA:         -14.368
REMARK INTER:                 -11.145
REMARK INTRA:                  -3.223
REMARK UNBOUND:                -3.202
REMARK SMILES C[C@@H]1O[C@@H](OC[C@@H]2O[C@H](Oc3c(-c4ccc(O)c(O)c4)oc4cc(O)cc(O)c4c3=O)[C@@H](O)[C@H](O)[C@@H]2O)[C@H](O)[C@@H](O)[C@@H]1O
REMARK SMILES IDX 7 1 36 2 34 3 32 4 9 5 8 6 6 7 5 8 4 9 1 10 2 11 42 12 3 13
REMARK SMILES IDX 40 14 38 15 43 16 41 18 39 20 37 22 35 24 10 26 11 27 12 28
REMARK SMILES IDX 30 29 21 30 29 31 31 32 22 33 27 34 23 35 26 36 24 37 13 38
REMARK SMILES IDX 20 39 14 40 18 41 15 42 16 43 19 44 17 46 28 48 25 50 33 52
REMARK H PARENT 43 17 41 19 39 21 37 23 35 25 19 45 17 47 28 49 25 51 33 53
REMARK Flexibility Score: inf
ROOT
ATOM      1  C   UNL     1      -8.668   9.543  -4.859  1.00  0.00     0.180 C 
ATOM      2  C   UNL     1      -8.377  10.916  -5.441  1.00  0.00     0.177 C 
ATOM      3  C   UNL     1      -7.402  10.832  -6.750  1.00  0.00     0.180 C 
ATOM      4  C   UNL     1      -7.803   9.601  -7.588  1.00  0.00     0.214 C 
ATOM      5  C   UNL     1      -7.772   8.356  -6.622  1.00  0.00     0.339 C 
ATOM      6  O   UNL     1      -8.948   8.588  -5.850  1.00  0.00    -0.332 OA
ENDROOT
BRANCH   1   7
ATOM      7  C   UNL     1      -7.873   8.996  -3.674  1.00  0.00     0.198 C 
BRANCH   7   8
ATOM      8  O   UNL     1      -7.921   9.815  -2.560  1.00  0.00    -0.347 OA
BRANCH   8   9
ATOM      9  C   UNL     1      -8.329   9.286  -1.310  1.00  0.00     0.281 C 
ATOM     10  C   UNL     1      -5.504  10.838  -1.664  1.00  0.00     0.041 C 
ATOM     11  C   UNL     1      -6.228   9.802  -0.744  1.00  0.00     0.150 C 
ATOM     12  C   UNL     1      -5.899   8.803   0.418  1.00  0.00     0.174 C 
ATOM     13  O   UNL     1      -7.599  10.136  -0.529  1.00  0.00    -0.344 OA
ATOM     14  C   UNL     1      -6.676   7.490   0.062  1.00  0.00     0.179 C 
ATOM     15  C   UNL     1      -8.011   7.741  -0.924  1.00  0.00     0.202 C 
BRANCH  12  16
ATOM     16  O   UNL     1      -6.136   9.316   1.676  1.00  0.00    -0.388 OA
ATOM     17  H   UNL     1      -6.820  10.037   1.653  1.00  0.00     0.211 HD
ENDBRANCH  12  16
BRANCH  14  18
ATOM     18  O   UNL     1      -5.765   6.679  -0.617  1.00  0.00    -0.387 OA
ATOM     19  H   UNL     1      -4.930   7.198  -0.784  1.00  0.00     0.211 HD
ENDBRANCH  14  18
BRANCH  15  20
ATOM     20  O   UNL     1      -9.138   7.147  -0.324  1.00  0.00    -0.385 OA
ATOM     21  H   UNL     1      -9.171   6.123  -0.590  1.00  0.00     0.211 HD
ENDBRANCH  15  20
ENDBRANCH   8   9
ENDBRANCH   7   8
ENDBRANCH   1   7
BRANCH   2  22
ATOM     22  O   UNL     1      -7.912  11.765  -4.437  1.00  0.00    -0.387 OA
ATOM     23  H   UNL     1      -7.044  11.368  -4.110  1.00  0.00     0.211 HD
ENDBRANCH   2  22
BRANCH   3  24
ATOM     24  O   UNL     1      -6.079  10.631  -6.457  1.00  0.00    -0.387 OA
ATOM     25  H   UNL     1      -5.470  11.386  -6.730  1.00  0.00     0.211 HD
ENDBRANCH   3  24
BRANCH   5  26
ATOM     26  O   UNL     1      -6.330   8.290  -5.992  1.00  0.00    -0.454 OA
BRANCH  26  27
ATOM     27  C   UNL     1      -5.179   7.486  -5.695  1.00  0.00     0.214 A 
ATOM     28  C   UNL     1      -5.276   6.490  -4.600  1.00  0.00     0.180 A 
ATOM     29  C   UNL     1      -3.920   8.105  -5.582  1.00  0.00     0.239 A 
ATOM     30  O   UNL     1      -4.721   6.845  -3.404  1.00  0.00    -0.452 OA
ATOM     31  C   UNL     1      -3.811   8.823  -4.374  1.00  0.00     0.111 A 
ATOM     32  O   UNL     1      -2.883   7.495  -5.944  1.00  0.00    -0.285 OA
ATOM     33  C   UNL     1      -3.966   7.940  -3.317  1.00  0.00     0.146 A 
ATOM     34  C   UNL     1      -2.914   9.883  -4.253  1.00  0.00     0.134 A 
ATOM     35  C   UNL     1      -3.197   8.039  -2.140  1.00  0.00     0.094 A 
ATOM     36  C   UNL     1      -2.059   9.900  -3.110  1.00  0.00     0.093 A 
ATOM     37  C   UNL     1      -2.125   9.006  -2.086  1.00  0.00     0.123 A 
BRANCH  28  38
ATOM     38  C   UNL     1      -5.502   4.983  -4.839  1.00  0.00     0.025 A 
ATOM     39  C   UNL     1      -4.497   4.091  -5.227  1.00  0.00     0.062 A 
ATOM     40  C   UNL     1      -6.831   4.462  -4.787  1.00  0.00     0.016 A 
ATOM     41  C   UNL     1      -4.767   3.078  -6.181  1.00  0.00     0.158 A 
ATOM     42  C   UNL     1      -7.005   3.111  -5.251  1.00  0.00     0.051 A 
ATOM     43  C   UNL     1      -5.990   2.416  -5.977  1.00  0.00     0.157 A 
BRANCH  41  44
ATOM     44  O   UNL     1      -3.894   2.804  -7.284  1.00  0.00    -0.504 OA
ATOM     45  H   UNL     1      -4.035   2.064  -7.923  1.00  0.00     0.293 HD
ENDBRANCH  41  44
BRANCH  43  46
ATOM     46  O   UNL     1      -6.178   1.169  -6.542  1.00  0.00    -0.504 OA
ATOM     47  H   UNL     1      -5.521   0.702  -7.214  1.00  0.00     0.293 HD
ENDBRANCH  43  46
ENDBRANCH  28  38
BRANCH  34  48
ATOM     48  O   UNL     1      -2.895  10.908  -5.226  1.00  0.00    -0.507 OA
ATOM     49  H   UNL     1      -3.667  11.061  -5.863  1.00  0.00     0.293 HD
ENDBRANCH  34  48
BRANCH  37  50
ATOM     50  O   UNL     1      -1.148   8.888  -1.099  1.00  0.00    -0.508 OA
ATOM     51  H   UNL     1      -0.461   8.159  -1.130  1.00  0.00     0.293 HD
ENDBRANCH  37  50
ENDBRANCH  26  27
ENDBRANCH   5  26
BRANCH   4  52
ATOM     52  O   UNL     1      -9.101   9.687  -8.258  1.00  0.00    -0.384 OA
ATOM     53  H   UNL     1      -8.906   9.947  -9.215  1.00  0.00     0.211 HD
ENDBRANCH   4  52
TORSDOF 16
ENDMDL
MODEL 7
REMARK VINA RESULT:    -6.683      1.465      4.871
REMARK INTER + INTRA:         -14.183
REMARK INTER:                 -11.297
REMARK INTRA:                  -2.887
REMARK UNBOUND:                -3.202
REMARK SMILES C[C@@H]1O[C@@H](OC[C@@H]2O[C@H](Oc3c(-c4ccc(O)c(O)c4)oc4cc(O)cc(O)c4c3=O)[C@@H](O)[C@H](O)[C@@H]2O)[C@H](O)[C@@H](O)[C@@H]1O
REMARK SMILES IDX 7 1 36 2 34 3 32 4 9 5 8 6 6 7 5 8 4 9 1 10 2 11 42 12 3 13
REMARK SMILES IDX 40 14 38 15 43 16 41 18 39 20 37 22 35 24 10 26 11 27 12 28
REMARK SMILES IDX 30 29 21 30 29 31 31 32 22 33 27 34 23 35 26 36 24 37 13 38
REMARK SMILES IDX 20 39 14 40 18 41 15 42 16 43 19 44 17 46 28 48 25 50 33 52
REMARK H PARENT 43 17 41 19 39 21 37 23 35 25 19 45 17 47 28 49 25 51 33 53
REMARK Flexibility Score: inf
ROOT
ATOM      1  C   UNL     1      -6.502  10.080  -5.450  1.00  0.00     0.180 C 
ATOM      2  C   UNL     1      -7.732   9.749  -6.278  1.00  0.00     0.177 C 
ATOM      3  C   UNL     1      -8.946   9.152  -5.361  1.00  0.00     0.180 C 
ATOM      4  C   UNL     1      -8.981   9.921  -4.025  1.00  0.00     0.214 C 
ATOM      5  C   UNL     1      -7.536   9.830  -3.403  1.00  0.00     0.339 C 
ATOM      6  O   UNL     1      -6.824  10.732  -4.248  1.00  0.00    -0.332 OA
ENDROOT
BRANCH   1   7
ATOM      7  C   UNL     1      -5.333   9.102  -5.334  1.00  0.00     0.198 C 
BRANCH   7   8
ATOM      8  O   UNL     1      -4.341   9.537  -4.473  1.00  0.00    -0.347 OA
BRANCH   8   9
ATOM      9  C   UNL     1      -3.215   8.716  -4.219  1.00  0.00     0.281 C 
ATOM     10  C   UNL     1      -3.918  11.271  -2.350  1.00  0.00     0.041 C 
ATOM     11  C   UNL     1      -2.728  10.346  -2.767  1.00  0.00     0.150 C 
ATOM     12  C   UNL     1      -1.168  10.278  -2.639  1.00  0.00     0.174 C 
ATOM     13  O   UNL     1      -3.122   8.979  -2.882  1.00  0.00    -0.344 OA
ATOM     14  C   UNL     1      -0.658   9.848  -4.057  1.00  0.00     0.179 C 
ATOM     15  C   UNL     1      -1.798   9.005  -4.958  1.00  0.00     0.202 C 
BRANCH  12  16
ATOM     16  O   UNL     1      -0.730   9.504  -1.586  1.00  0.00    -0.388 OA
ATOM     17  H   UNL     1      -0.411  10.063  -0.829  1.00  0.00     0.211 HD
ENDBRANCH  12  16
BRANCH  14  18
ATOM     18  O   UNL     1      -0.347  11.033  -4.727  1.00  0.00    -0.387 OA
ATOM     19  H   UNL     1      -0.603  10.941  -5.686  1.00  0.00     0.211 HD
ENDBRANCH  14  18
BRANCH  15  20
ATOM     20  O   UNL     1      -1.225   7.799  -5.403  1.00  0.00    -0.385 OA
ATOM     21  H   UNL     1      -0.936   7.225  -4.562  1.00  0.00     0.211 HD
ENDBRANCH  15  20
ENDBRANCH   8   9
ENDBRANCH   7   8
ENDBRANCH   1   7
BRANCH   2  22
ATOM     22  O   UNL     1      -7.372   8.932  -7.350  1.00  0.00    -0.387 OA
ATOM     23  H   UNL     1      -8.229   8.531  -7.701  1.00  0.00     0.211 HD
ENDBRANCH   2  22
BRANCH   3  24
ATOM     24  O   UNL     1      -8.787   7.841  -4.998  1.00  0.00    -0.387 OA
ATOM     25  H   UNL     1      -7.829   7.529  -4.965  1.00  0.00     0.211 HD
ENDBRANCH   3  24
BRANCH   5  26
ATOM     26  O   UNL     1      -7.176   8.302  -3.281  1.00  0.00    -0.454 OA
BRANCH  26  27
ATOM     27  C   UNL     1      -6.390   7.296  -2.623  1.00  0.00     0.214 A 
ATOM     28  C   UNL     1      -6.698   5.871  -2.893  1.00  0.00     0.180 A 
ATOM     29  C   UNL     1      -6.145   7.412  -1.242  1.00  0.00     0.239 A 
ATOM     30  O   UNL     1      -7.430   5.215  -1.944  1.00  0.00    -0.452 OA
ATOM     31  C   UNL     1      -7.295   7.098  -0.490  1.00  0.00     0.111 A 
ATOM     32  O   UNL     1      -5.057   7.009  -0.759  1.00  0.00    -0.285 OA
ATOM     33  C   UNL     1      -7.663   5.791  -0.766  1.00  0.00     0.146 A 
ATOM     34  C   UNL     1      -7.462   7.598   0.800  1.00  0.00     0.134 A 
ATOM     35  C   UNL     1      -8.143   4.922   0.235  1.00  0.00     0.094 A 
ATOM     36  C   UNL     1      -7.834   6.676   1.825  1.00  0.00     0.093 A 
ATOM     37  C   UNL     1      -8.127   5.364   1.610  1.00  0.00     0.123 A 
BRANCH  28  38
ATOM     38  C   UNL     1      -5.882   4.995  -3.867  1.00  0.00     0.025 A 
ATOM     39  C   UNL     1      -4.581   5.291  -4.284  1.00  0.00     0.062 A 
ATOM     40  C   UNL     1      -6.512   3.874  -4.488  1.00  0.00     0.016 A 
ATOM     41  C   UNL     1      -4.193   5.074  -5.631  1.00  0.00     0.158 A 
ATOM     42  C   UNL     1      -5.782   3.246  -5.558  1.00  0.00     0.051 A 
ATOM     43  C   UNL     1      -4.636   3.850  -6.159  1.00  0.00     0.157 A 
BRANCH  41  44
ATOM     44  O   UNL     1      -3.468   6.048  -6.391  1.00  0.00    -0.504 OA
ATOM     45  H   UNL     1      -3.709   6.312  -7.313  1.00  0.00     0.293 HD
ENDBRANCH  41  44
BRANCH  43  46
ATOM     46  O   UNL     1      -3.997   3.329  -7.268  1.00  0.00    -0.504 OA
ATOM     47  H   UNL     1      -2.957   3.299  -7.411  1.00  0.00     0.293 HD
ENDBRANCH  43  46
ENDBRANCH  28  38
BRANCH  34  48
ATOM     48  O   UNL     1      -7.294   8.979   1.051  1.00  0.00    -0.507 OA
ATOM     49  H   UNL     1      -7.816   9.685   0.548  1.00  0.00     0.293 HD
ENDBRANCH  34  48
BRANCH  37  50
ATOM     50  O   UNL     1      -8.260   4.425   2.631  1.00  0.00    -0.508 OA
ATOM     51  H   UNL     1      -9.108   3.905   2.754  1.00  0.00     0.293 HD
ENDBRANCH  37  50
ENDBRANCH  26  27
ENDBRANCH   5  26
BRANCH   4  52
ATOM     52  O   UNL     1      -9.405  11.319  -4.110  1.00  0.00    -0.384 OA
ATOM     53  H   UNL     1     -10.369  11.338  -3.807  1.00  0.00     0.211 HD
ENDBRANCH   4  52
TORSDOF 16
ENDMDL
MODEL 8
REMARK VINA RESULT:    -6.674      1.669      4.858
REMARK INTER + INTRA:         -14.169
REMARK INTER:                 -11.581
REMARK INTRA:                  -2.587
REMARK UNBOUND:                -3.202
REMARK SMILES C[C@@H]1O[C@@H](OC[C@@H]2O[C@H](Oc3c(-c4ccc(O)c(O)c4)oc4cc(O)cc(O)c4c3=O)[C@@H](O)[C@H](O)[C@@H]2O)[C@H](O)[C@@H](O)[C@@H]1O
REMARK SMILES IDX 7 1 36 2 34 3 32 4 9 5 8 6 6 7 5 8 4 9 1 10 2 11 42 12 3 13
REMARK SMILES IDX 40 14 38 15 43 16 41 18 39 20 37 22 35 24 10 26 11 27 12 28
REMARK SMILES IDX 30 29 21 30 29 31 31 32 22 33 27 34 23 35 26 36 24 37 13 38
REMARK SMILES IDX 20 39 14 40 18 41 15 42 16 43 19 44 17 46 28 48 25 50 33 52
REMARK H PARENT 43 17 41 19 39 21 37 23 35 25 19 45 17 47 28 49 25 51 33 53
REMARK Flexibility Score: inf
ROOT
ATOM      1  C   UNL     1      -2.866   8.565  -1.662  1.00  0.00     0.180 C 
ATOM      2  C   UNL     1      -1.553   8.095  -2.264  1.00  0.00     0.177 C 
ATOM      3  C   UNL     1      -1.318   8.695  -3.766  1.00  0.00     0.180 C 
ATOM      4  C   UNL     1      -1.814  10.156  -3.797  1.00  0.00     0.214 C 
ATOM      5  C   UNL     1      -3.303  10.148  -3.281  1.00  0.00     0.339 C 
ATOM      6  O   UNL     1      -3.101   9.931  -1.887  1.00  0.00    -0.332 OA
ENDROOT
BRANCH   1   7
ATOM      7  C   UNL     1      -4.124   7.699  -1.720  1.00  0.00     0.198 C 
BRANCH   7   8
ATOM      8  O   UNL     1      -4.954   7.869  -0.625  1.00  0.00    -0.347 OA
BRANCH   8   9
ATOM      9  C   UNL     1      -5.187   9.168  -0.109  1.00  0.00     0.281 C 
ATOM     10  C   UNL     1      -6.897   6.602   0.895  1.00  0.00     0.041 C 
ATOM     11  C   UNL     1      -6.964   8.161   0.804  1.00  0.00     0.150 C 
ATOM     12  C   UNL     1      -7.998   9.325   0.987  1.00  0.00     0.174 C 
ATOM     13  O   UNL     1      -5.706   8.773   1.091  1.00  0.00    -0.344 OA
ATOM     14  C   UNL     1      -7.751  10.287  -0.225  1.00  0.00     0.179 C 
ATOM     15  C   UNL     1      -6.201  10.187  -0.863  1.00  0.00     0.202 C 
BRANCH  12  16
ATOM     16  O   UNL     1      -7.959   9.911   2.234  1.00  0.00    -0.388 OA
ATOM     17  H   UNL     1      -7.361  10.705   2.246  1.00  0.00     0.211 HD
ENDBRANCH  12  16
BRANCH  14  18
ATOM     18  O   UNL     1      -8.665   9.905  -1.209  1.00  0.00    -0.387 OA
ATOM     19  H   UNL     1      -8.770   8.914  -1.187  1.00  0.00     0.211 HD
ENDBRANCH  14  18
BRANCH  15  20
ATOM     20  O   UNL     1      -5.645  11.480  -0.913  1.00  0.00    -0.385 OA
ATOM     21  H   UNL     1      -5.189  11.695   0.018  1.00  0.00     0.211 HD
ENDBRANCH  15  20
ENDBRANCH   8   9
ENDBRANCH   7   8
ENDBRANCH   1   7
BRANCH   2  22
ATOM     22  O   UNL     1      -1.471   6.704  -2.187  1.00  0.00    -0.387 OA
ATOM     23  H   UNL     1      -0.519   6.491  -1.925  1.00  0.00     0.211 HD
ENDBRANCH   2  22
BRANCH   3  24
ATOM     24  O   UNL     1      -2.040   8.067  -4.746  1.00  0.00    -0.387 OA
ATOM     25  H   UNL     1      -2.934   7.713  -4.444  1.00  0.00     0.211 HD
ENDBRANCH   3  24
BRANCH   5  26
ATOM     26  O   UNL     1      -4.109   9.153  -4.197  1.00  0.00    -0.454 OA
BRANCH  26  27
ATOM     27  C   UNL     1      -5.364   8.512  -4.470  1.00  0.00     0.214 A 
ATOM     28  C   UNL     1      -5.575   7.914  -5.811  1.00  0.00     0.180 A 
ATOM     29  C   UNL     1      -6.559   9.166  -4.116  1.00  0.00     0.239 A 
ATOM     30  O   UNL     1      -6.320   8.643  -6.694  1.00  0.00    -0.452 OA
ATOM     31  C   UNL     1      -6.839  10.232  -4.994  1.00  0.00     0.111 A 
ATOM     32  O   UNL     1      -7.556   8.498  -3.743  1.00  0.00    -0.285 OA
ATOM     33  C   UNL     1      -6.974   9.727  -6.277  1.00  0.00     0.146 A 
ATOM     34  C   UNL     1      -7.642  11.297  -4.590  1.00  0.00     0.134 A 
ATOM     35  C   UNL     1      -7.948  10.213  -7.174  1.00  0.00     0.094 A 
ATOM     36  C   UNL     1      -8.700  11.696  -5.462  1.00  0.00     0.093 A 
ATOM     37  C   UNL     1      -8.917  11.172  -6.698  1.00  0.00     0.123 A 
BRANCH  28  38
ATOM     38  C   UNL     1      -5.444   6.403  -6.098  1.00  0.00     0.025 A 
ATOM     39  C   UNL     1      -6.134   5.410  -5.397  1.00  0.00     0.062 A 
ATOM     40  C   UNL     1      -4.476   5.958  -7.049  1.00  0.00     0.016 A 
ATOM     41  C   UNL     1      -5.486   4.197  -5.049  1.00  0.00     0.158 A 
ATOM     42  C   UNL     1      -4.235   4.540  -7.096  1.00  0.00     0.051 A 
ATOM     43  C   UNL     1      -4.710   3.650  -6.085  1.00  0.00     0.157 A 
BRANCH  41  44
ATOM     44  O   UNL     1      -5.573   3.623  -3.739  1.00  0.00    -0.504 OA
ATOM     45  H   UNL     1      -5.333   4.109  -2.912  1.00  0.00     0.293 HD
ENDBRANCH  41  44
BRANCH  43  46
ATOM     46  O   UNL     1      -4.385   2.308  -6.040  1.00  0.00    -0.504 OA
ATOM     47  H   UNL     1      -4.708   1.582  -6.727  1.00  0.00     0.293 HD
ENDBRANCH  43  46
ENDBRANCH  28  38
BRANCH  34  48
ATOM     48  O   UNL     1      -7.376  11.960  -3.371  1.00  0.00    -0.507 OA
ATOM     49  H   UNL     1      -6.562  11.748  -2.808  1.00  0.00     0.293 HD
ENDBRANCH  34  48
BRANCH  37  50
ATOM     50  O   UNL     1     -10.076  11.398  -7.440  1.00  0.00    -0.508 OA
ATOM     51  H   UNL     1     -10.327  12.319  -7.746  1.00  0.00     0.293 HD
ENDBRANCH  37  50
ENDBRANCH  26  27
ENDBRANCH   5  26
BRANCH   4  52
ATOM     52  O   UNL     1      -1.018  11.112  -3.025  1.00  0.00    -0.384 OA
ATOM     53  H   UNL     1      -1.660  11.831  -2.723  1.00  0.00     0.211 HD
ENDBRANCH   4  52
TORSDOF 16
ENDMDL
MODEL 9
REMARK VINA RESULT:    -6.522      2.050      5.965
REMARK INTER + INTRA:         -13.918
REMARK INTER:                 -10.481
REMARK INTRA:                  -3.438
REMARK UNBOUND:                -3.202
REMARK SMILES C[C@@H]1O[C@@H](OC[C@@H]2O[C@H](Oc3c(-c4ccc(O)c(O)c4)oc4cc(O)cc(O)c4c3=O)[C@@H](O)[C@H](O)[C@@H]2O)[C@H](O)[C@@H](O)[C@@H]1O
REMARK SMILES IDX 7 1 36 2 34 3 32 4 9 5 8 6 6 7 5 8 4 9 1 10 2 11 42 12 3 13
REMARK SMILES IDX 40 14 38 15 43 16 41 18 39 20 37 22 35 24 10 26 11 27 12 28
REMARK SMILES IDX 30 29 21 30 29 31 31 32 22 33 27 34 23 35 26 36 24 37 13 38
REMARK SMILES IDX 20 39 14 40 18 41 15 42 16 43 19 44 17 46 28 48 25 50 33 52
REMARK H PARENT 43 17 41 19 39 21 37 23 35 25 19 45 17 47 28 49 25 51 33 53
REMARK Flexibility Score: inf
ROOT
ATOM      1  C   UNL     1      -8.527   9.729  -4.391  1.00  0.00     0.180 C 
ATOM      2  C   UNL     1      -7.741  10.748  -5.199  1.00  0.00     0.177 C 
ATOM      3  C   UNL     1      -7.118  10.099  -6.563  1.00  0.00     0.180 C 
ATOM      4  C   UNL     1      -8.153   9.126  -7.165  1.00  0.00     0.214 C 
ATOM      5  C   UNL     1      -8.541   8.105  -6.029  1.00  0.00     0.339 C 
ATOM      6  O   UNL     1      -9.354   8.928  -5.196  1.00  0.00    -0.332 OA
ENDROOT
BRANCH   1   7
ATOM      7  C   UNL     1      -7.895   8.986  -3.215  1.00  0.00     0.198 C 
BRANCH   7   8
ATOM      8  O   UNL     1      -7.392   9.831  -2.242  1.00  0.00    -0.347 OA
BRANCH   8   9
ATOM      9  C   UNL     1      -7.732   9.626  -0.881  1.00  0.00     0.281 C 
ATOM     10  C   UNL     1      -4.660  10.065  -1.821  1.00  0.00     0.041 C 
ATOM     11  C   UNL     1      -5.513   9.457  -0.661  1.00  0.00     0.150 C 
ATOM     12  C   UNL     1      -5.333   8.552   0.606  1.00  0.00     0.174 C 
ATOM     13  O   UNL     1      -6.649  10.263  -0.346  1.00  0.00    -0.344 OA
ATOM     14  C   UNL     1      -6.538   7.551   0.570  1.00  0.00     0.179 C 
ATOM     15  C   UNL     1      -7.867   8.124  -0.281  1.00  0.00     0.202 C 
BRANCH  12  16
ATOM     16  O   UNL     1      -5.179   9.261   1.778  1.00  0.00    -0.388 OA
ATOM     17  H   UNL     1      -5.220   8.666   2.573  1.00  0.00     0.211 HD
ENDBRANCH  12  16
BRANCH  14  18
ATOM     18  O   UNL     1      -6.061   6.403  -0.066  1.00  0.00    -0.387 OA
ATOM     19  H   UNL     1      -6.408   6.381  -1.000  1.00  0.00     0.211 HD
ENDBRANCH  14  18
BRANCH  15  20
ATOM     20  O   UNL     1      -9.008   8.027   0.539  1.00  0.00    -0.385 OA
ATOM     21  H   UNL     1      -8.945   8.756   1.303  1.00  0.00     0.211 HD
ENDBRANCH  15  20
ENDBRANCH   8   9
ENDBRANCH   7   8
ENDBRANCH   1   7
BRANCH   2  22
ATOM     22  O   UNL     1      -6.797  11.370  -4.381  1.00  0.00    -0.387 OA
ATOM     23  H   UNL     1      -7.208  11.419  -3.460  1.00  0.00     0.211 HD
ENDBRANCH   2  22
BRANCH   3  24
ATOM     24  O   UNL     1      -6.001   9.331  -6.366  1.00  0.00    -0.387 OA
ATOM     25  H   UNL     1      -6.156   8.499  -5.820  1.00  0.00     0.211 HD
ENDBRANCH   3  24
BRANCH   5  26
ATOM     26  O   UNL     1      -7.207   7.432  -5.531  1.00  0.00    -0.454 OA
BRANCH  26  27
ATOM     27  C   UNL     1      -6.570   6.256  -5.009  1.00  0.00     0.214 A 
ATOM     28  C   UNL     1      -6.749   5.933  -3.573  1.00  0.00     0.180 A 
ATOM     29  C   UNL     1      -5.221   6.009  -5.324  1.00  0.00     0.239 A 
ATOM     30  O   UNL     1      -5.715   6.259  -2.742  1.00  0.00    -0.452 OA
ATOM     31  C   UNL     1      -4.364   6.869  -4.608  1.00  0.00     0.111 A 
ATOM     32  O   UNL     1      -4.811   4.829  -5.461  1.00  0.00    -0.285 OA
ATOM     33  C   UNL     1      -4.549   6.652  -3.252  1.00  0.00     0.146 A 
ATOM     34  C   UNL     1      -3.088   7.164  -5.085  1.00  0.00     0.134 A 
ATOM     35  C   UNL     1      -3.473   6.656  -2.340  1.00  0.00     0.094 A 
ATOM     36  C   UNL     1      -1.996   7.045  -4.173  1.00  0.00     0.093 A 
ATOM     37  C   UNL     1      -2.126   6.756  -2.850  1.00  0.00     0.123 A 
BRANCH  28  38
ATOM     38  C   UNL     1      -7.746   4.874  -3.057  1.00  0.00     0.025 A 
ATOM     39  C   UNL     1      -8.655   5.094  -2.018  1.00  0.00     0.062 A 
ATOM     40  C   UNL     1      -7.674   3.543  -3.571  1.00  0.00     0.016 A 
ATOM     41  C   UNL     1      -8.905   4.081  -1.058  1.00  0.00     0.158 A 
ATOM     42  C   UNL     1      -8.460   2.552  -2.885  1.00  0.00     0.051 A 
ATOM     43  C   UNL     1      -9.058   2.798  -1.612  1.00  0.00     0.157 A 
BRANCH  41  44
ATOM     44  O   UNL     1      -8.936   4.343   0.351  1.00  0.00    -0.504 OA
ATOM     45  H   UNL     1      -8.646   5.197   0.754  1.00  0.00     0.293 HD
ENDBRANCH  41  44
BRANCH  43  46
ATOM     46  O   UNL     1      -9.708   1.825  -0.876  1.00  0.00    -0.504 OA
ATOM     47  H   UNL     1      -9.246   1.000  -0.420  1.00  0.00     0.293 HD
ENDBRANCH  43  46
ENDBRANCH  28  38
BRANCH  34  48
ATOM     48  O   UNL     1      -2.915   7.594  -6.421  1.00  0.00    -0.507 OA
ATOM     49  H   UNL     1      -2.465   7.016  -7.119  1.00  0.00     0.293 HD
ENDBRANCH  34  48
BRANCH  37  50
ATOM     50  O   UNL     1      -1.056   6.416  -2.025  1.00  0.00    -0.508 OA
ATOM     51  H   UNL     1      -0.313   5.827  -2.352  1.00  0.00     0.293 HD
ENDBRANCH  37  50
ENDBRANCH  26  27
ENDBRANCH   5  26
BRANCH   4  52
ATOM     52  O   UNL     1      -9.358   9.746  -7.718  1.00  0.00    -0.384 OA
ATOM     53  H   UNL     1     -10.012   9.817  -6.952  1.00  0.00     0.211 HD
ENDBRANCH   4  52
TORSDOF 16
ENDMDL
