MODEL 1
REMARK VINA RESULT:    -5.170      0.000      0.000
REMARK INTER + INTRA:         -10.896
REMARK INTER:                  -9.401
REMARK INTRA:                  -1.495
REMARK UNBOUND:                -1.495
REMARK SMILES CCCCCCCCCCCCCCCC(=O)[O-]
REMARK SMILES IDX 9 1 10 2 11 3 12 4 13 5 14 6 15 7 16 8 17 9 18 10 8 11 7 12
REMARK SMILES IDX 6 13 5 14 4 15 3 16 2 17 1 18
REMARK H PARENT
REMARK Flexibility Score: inf
ROOT
ATOM      1  C   UNL     1      72.863   2.228  -1.818  1.00  0.00     0.000 C 
ENDROOT
BRANCH   1   2
ATOM      2  C   UNL     1      71.942   3.146  -2.643  1.00  0.00     0.000 C 
BRANCH   2   3
ATOM      3  C   UNL     1      70.448   3.087  -2.272  1.00  0.00     0.000 C 
BRANCH   3   4
ATOM      4  C   UNL     1      69.801   1.696  -2.395  1.00  0.00     0.000 C 
BRANCH   4   5
ATOM      5  C   UNL     1      69.561   1.280  -3.857  1.00  0.00     0.000 C 
BRANCH   5   6
ATOM      6  C   UNL     1      70.637   0.301  -4.373  1.00  0.00     0.006 C 
BRANCH   6   7
ATOM      7  C   UNL     1      71.065  -0.749  -3.335  1.00  0.00     0.053 C 
BRANCH   7   8
ATOM      8  C   UNL     1      70.875  -2.148  -3.831  1.00  0.00     0.041 C 
ATOM      9  O   UNL     1      69.896  -2.433  -4.568  1.00  0.00    -0.550 OA
ATOM     10  O   UNL     1      71.797  -3.132  -3.503  1.00  0.00    -0.550 OA
ENDBRANCH   7   8
ENDBRANCH   6   7
ENDBRANCH   5   6
ENDBRANCH   4   5
ENDBRANCH   3   4
ENDBRANCH   2   3
ENDBRANCH   1   2
BRANCH   1  11
ATOM     11  C   UNL     1      72.530   2.242  -0.317  1.00  0.00     0.000 C 
BRANCH  11  12
ATOM     12  C   UNL     1      72.435   0.829   0.293  1.00  0.00    -0.000 C 
BRANCH  12  13
ATOM     13  C   UNL     1      71.027   0.395   0.744  1.00  0.00    -0.000 C 
BRANCH  13  14
ATOM     14  C   UNL     1      70.978  -0.050   2.216  1.00  0.00    -0.000 C 
BRANCH  14  15
ATOM     15  C   UNL     1      69.840   0.621   3.009  1.00  0.00    -0.000 C 
BRANCH  15  16
ATOM     16  C   UNL     1      70.296   1.637   4.073  1.00  0.00    -0.000 C 
BRANCH  16  17
ATOM     17  C   UNL     1      71.452   2.528   3.596  1.00  0.00    -0.003 C 
ATOM     18  C   UNL     1      71.118   4.007   3.773  1.00  0.00     0.004 C 
ENDBRANCH  16  17
ENDBRANCH  15  16
ENDBRANCH  14  15
ENDBRANCH  13  14
ENDBRANCH  12  13
ENDBRANCH  11  12
ENDBRANCH   1  11
TORSDOF 14
ENDMDL
MODEL 2
REMARK VINA RESULT:    -4.986      3.518      6.909
REMARK INTER + INTRA:         -10.562
REMARK INTER:                  -9.097
REMARK INTRA:                  -1.465
REMARK UNBOUND:                -1.495
REMARK SMILES CCCCCCCCCCCCCCCC(=O)[O-]
REMARK SMILES IDX 9 1 10 2 11 3 12 4 13 5 14 6 15 7 16 8 17 9 18 10 8 11 7 12
REMARK SMILES IDX 6 13 5 14 4 15 3 16 2 17 1 18
REMARK H PARENT
REMARK Flexibility Score: inf
ROOT
ATOM      1  C   UNL     1      72.863   2.069  -2.207  1.00  0.00     0.000 C 
ENDROOT
BRANCH   1   2
ATOM      2  C   UNL     1      73.170   1.662  -0.754  1.00  0.00     0.000 C 
BRANCH   2   3
ATOM      3  C   UNL     1      72.350   0.473  -0.215  1.00  0.00     0.000 C 
BRANCH   3   4
ATOM      4  C   UNL     1      70.997   0.848   0.414  1.00  0.00     0.000 C 
BRANCH   4   5
ATOM      5  C   UNL     1      70.545  -0.152   1.493  1.00  0.00     0.000 C 
BRANCH   5   6
ATOM      6  C   UNL     1      70.643   0.435   2.917  1.00  0.00     0.006 C 
BRANCH   6   7
ATOM      7  C   UNL     1      71.560   1.665   3.016  1.00  0.00     0.053 C 
BRANCH   7   8
ATOM      8  C   UNL     1      70.987   2.731   3.897  1.00  0.00     0.041 C 
ATOM      9  O   UNL     1      71.294   3.937   3.714  1.00  0.00    -0.550 OA
ATOM     10  O   UNL     1      70.090   2.395   4.900  1.00  0.00    -0.550 OA
ENDBRANCH   7   8
ENDBRANCH   6   7
ENDBRANCH   5   6
ENDBRANCH   4   5
ENDBRANCH   3   4
ENDBRANCH   2   3
ENDBRANCH   1   2
BRANCH   1  11
ATOM     11  C   UNL     1      71.924   3.285  -2.300  1.00  0.00     0.000 C 
BRANCH  11  12
ATOM     12  C   UNL     1      70.709   3.040  -3.216  1.00  0.00    -0.000 C 
BRANCH  12  13
ATOM     13  C   UNL     1      69.869   1.790  -2.884  1.00  0.00    -0.000 C 
BRANCH  13  14
ATOM     14  C   UNL     1      69.266   1.123  -4.132  1.00  0.00    -0.000 C 
BRANCH  14  15
ATOM     15  C   UNL     1      70.006  -0.165  -4.540  1.00  0.00    -0.000 C 
BRANCH  15  16
ATOM     16  C   UNL     1      71.004  -0.704  -3.499  1.00  0.00    -0.000 C 
BRANCH  16  17
ATOM     17  C   UNL     1      71.051  -2.239  -3.450  1.00  0.00    -0.003 C 
ATOM     18  C   UNL     1      70.175  -2.852  -4.539  1.00  0.00     0.004 C 
ENDBRANCH  16  17
ENDBRANCH  15  16
ENDBRANCH  14  15
ENDBRANCH  13  14
ENDBRANCH  12  13
ENDBRANCH  11  12
ENDBRANCH   1  11
TORSDOF 14
ENDMDL
MODEL 3
REMARK VINA RESULT:    -4.984      0.687      1.477
REMARK INTER + INTRA:         -10.558
REMARK INTER:                  -8.954
REMARK INTRA:                  -1.604
REMARK UNBOUND:                -1.495
REMARK SMILES CCCCCCCCCCCCCCCC(=O)[O-]
REMARK SMILES IDX 9 1 10 2 11 3 12 4 13 5 14 6 15 7 16 8 17 9 18 10 8 11 7 12
REMARK SMILES IDX 6 13 5 14 4 15 3 16 2 17 1 18
REMARK H PARENT
REMARK Flexibility Score: inf
ROOT
ATOM      1  C   UNL     1      72.844   1.996  -0.121  1.00  0.00     0.000 C 
ENDROOT
BRANCH   1   2
ATOM      2  C   UNL     1      71.691   2.652  -0.902  1.00  0.00     0.000 C 
BRANCH   2   3
ATOM      3  C   UNL     1      71.918   2.796  -2.419  1.00  0.00     0.000 C 
BRANCH   3   4
ATOM      4  C   UNL     1      70.648   2.689  -3.281  1.00  0.00     0.000 C 
BRANCH   4   5
ATOM      5  C   UNL     1      70.114   1.249  -3.376  1.00  0.00     0.000 C 
BRANCH   5   6
ATOM      6  C   UNL     1      71.239   0.219  -3.617  1.00  0.00     0.006 C 
BRANCH   6   7
ATOM      7  C   UNL     1      70.971  -1.150  -2.972  1.00  0.00     0.053 C 
BRANCH   7   8
ATOM      8  C   UNL     1      70.704  -2.215  -3.989  1.00  0.00     0.041 C 
ATOM      9  O   UNL     1      71.541  -3.135  -4.178  1.00  0.00    -0.550 OA
ATOM     10  O   UNL     1      69.517  -2.208  -4.708  1.00  0.00    -0.550 OA
ENDBRANCH   7   8
ENDBRANCH   6   7
ENDBRANCH   5   6
ENDBRANCH   4   5
ENDBRANCH   3   4
ENDBRANCH   2   3
ENDBRANCH   1   2
BRANCH   1  11
ATOM     11  C   UNL     1      72.569   0.522   0.222  1.00  0.00     0.000 C 
BRANCH  11  12
ATOM     12  C   UNL     1      71.073   0.224   0.446  1.00  0.00    -0.000 C 
BRANCH  12  13
ATOM     13  C   UNL     1      70.717  -0.386   1.816  1.00  0.00    -0.000 C 
BRANCH  13  14
ATOM     14  C   UNL     1      69.711   0.465   2.610  1.00  0.00    -0.000 C 
BRANCH  14  15
ATOM     15  C   UNL     1      70.359   1.216   3.788  1.00  0.00    -0.000 C 
BRANCH  15  16
ATOM     16  C   UNL     1      71.239   2.417   3.394  1.00  0.00    -0.000 C 
BRANCH  16  17
ATOM     17  C   UNL     1      70.959   3.670   4.237  1.00  0.00    -0.003 C 
ATOM     18  C   UNL     1      71.313   4.941   3.470  1.00  0.00     0.004 C 
ENDBRANCH  16  17
ENDBRANCH  15  16
ENDBRANCH  14  15
ENDBRANCH  13  14
ENDBRANCH  12  13
ENDBRANCH  11  12
ENDBRANCH   1  11
TORSDOF 14
ENDMDL
MODEL 4
REMARK VINA RESULT:    -4.971      3.819      7.334
REMARK INTER + INTRA:         -10.535
REMARK INTER:                  -9.325
REMARK INTRA:                  -1.209
REMARK UNBOUND:                -1.495
REMARK SMILES CCCCCCCCCCCCCCCC(=O)[O-]
REMARK SMILES IDX 9 1 10 2 11 3 12 4 13 5 14 6 15 7 16 8 17 9 18 10 8 11 7 12
REMARK SMILES IDX 6 13 5 14 4 15 3 16 2 17 1 18
REMARK H PARENT
REMARK Flexibility Score: inf
ROOT
ATOM      1  C   UNL     1      73.371   1.868  -0.546  1.00  0.00     0.000 C 
ENDROOT
BRANCH   1   2
ATOM      2  C   UNL     1      72.938   0.717   0.380  1.00  0.00     0.000 C 
BRANCH   2   3
ATOM      3  C   UNL     1      71.467   0.757   0.839  1.00  0.00     0.000 C 
BRANCH   3   4
ATOM      4  C   UNL     1      71.187   0.072   2.189  1.00  0.00     0.000 C 
BRANCH   4   5
ATOM      5  C   UNL     1      70.616   1.041   3.239  1.00  0.00     0.000 C 
BRANCH   5   6
ATOM      6  C   UNL     1      71.283   2.432   3.181  1.00  0.00     0.006 C 
BRANCH   6   7
ATOM      7  C   UNL     1      70.876   3.361   4.336  1.00  0.00     0.053 C 
BRANCH   7   8
ATOM      8  C   UNL     1      70.953   4.806   3.956  1.00  0.00     0.041 C 
ATOM      9  O   UNL     1      70.107   5.625   4.400  1.00  0.00    -0.550 OA
ATOM     10  O   UNL     1      71.978   5.256   3.136  1.00  0.00    -0.550 OA
ENDBRANCH   7   8
ENDBRANCH   6   7
ENDBRANCH   5   6
ENDBRANCH   4   5
ENDBRANCH   3   4
ENDBRANCH   2   3
ENDBRANCH   1   2
BRANCH   1  11
ATOM     11  C   UNL     1      72.784   1.747  -1.963  1.00  0.00     0.000 C 
BRANCH  11  12
ATOM     12  C   UNL     1      72.201   3.073  -2.489  1.00  0.00    -0.000 C 
BRANCH  12  13
ATOM     13  C   UNL     1      70.670   3.102  -2.662  1.00  0.00    -0.000 C 
BRANCH  13  14
ATOM     14  C   UNL     1      70.040   1.698  -2.674  1.00  0.00    -0.000 C 
BRANCH  14  15
ATOM     15  C   UNL     1      69.514   1.288  -4.063  1.00  0.00    -0.000 C 
BRANCH  15  16
ATOM     16  C   UNL     1      69.745  -0.188  -4.439  1.00  0.00    -0.000 C 
BRANCH  16  17
ATOM     17  C   UNL     1      70.946  -0.812  -3.714  1.00  0.00    -0.003 C 
ATOM     18  C   UNL     1      70.847  -2.335  -3.692  1.00  0.00     0.004 C 
ENDBRANCH  16  17
ENDBRANCH  15  16
ENDBRANCH  14  15
ENDBRANCH  13  14
ENDBRANCH  12  13
ENDBRANCH  11  12
ENDBRANCH   1  11
TORSDOF 14
ENDMDL
MODEL 5
REMARK VINA RESULT:    -4.898      1.133      2.318
REMARK INTER + INTRA:         -10.402
REMARK INTER:                  -8.992
REMARK INTRA:                  -1.410
REMARK UNBOUND:                -1.495
REMARK SMILES CCCCCCCCCCCCCCCC(=O)[O-]
REMARK SMILES IDX 9 1 10 2 11 3 12 4 13 5 14 6 15 7 16 8 17 9 18 10 8 11 7 12
REMARK SMILES IDX 6 13 5 14 4 15 3 16 2 17 1 18
REMARK H PARENT
REMARK Flexibility Score: inf
ROOT
ATOM      1  C   UNL     1      73.469   1.119   0.194  1.00  0.00     0.000 C 
ENDROOT
BRANCH   1   2
ATOM      2  C   UNL     1      73.227   2.370  -0.670  1.00  0.00     0.000 C 
BRANCH   2   3
ATOM      3  C   UNL     1      72.846   2.094  -2.138  1.00  0.00     0.000 C 
BRANCH   3   4
ATOM      4  C   UNL     1      71.930   3.150  -2.782  1.00  0.00     0.000 C 
BRANCH   4   5
ATOM      5  C   UNL     1      70.558   3.248  -2.091  1.00  0.00     0.000 C 
BRANCH   5   6
ATOM      6  C   UNL     1      69.674   2.011  -2.360  1.00  0.00     0.006 C 
BRANCH   6   7
ATOM      7  C   UNL     1      69.818   1.448  -3.783  1.00  0.00     0.053 C 
BRANCH   7   8
ATOM      8  C   UNL     1      70.101  -0.022  -3.786  1.00  0.00     0.041 C 
ATOM      9  O   UNL     1      70.948  -0.507  -2.993  1.00  0.00    -0.550 OA
ATOM     10  O   UNL     1      69.405  -0.861  -4.646  1.00  0.00    -0.550 OA
ENDBRANCH   7   8
ENDBRANCH   6   7
ENDBRANCH   5   6
ENDBRANCH   4   5
ENDBRANCH   3   4
ENDBRANCH   2   3
ENDBRANCH   1   2
BRANCH   1  11
ATOM     11  C   UNL     1      72.253   0.177   0.235  1.00  0.00     0.000 C 
BRANCH  11  12
ATOM     12  C   UNL     1      70.982   0.858   0.780  1.00  0.00    -0.000 C 
BRANCH  12  13
ATOM     13  C   UNL     1      70.229   0.076   1.874  1.00  0.00    -0.000 C 
BRANCH  13  14
ATOM     14  C   UNL     1      70.249   0.783   3.240  1.00  0.00    -0.000 C 
BRANCH  14  15
ATOM     15  C   UNL     1      71.361   1.844   3.350  1.00  0.00    -0.000 C 
BRANCH  15  16
ATOM     16  C   UNL     1      70.976   3.116   4.130  1.00  0.00    -0.000 C 
BRANCH  16  17
ATOM     17  C   UNL     1      71.343   4.410   3.389  1.00  0.00    -0.003 C 
ATOM     18  C   UNL     1      70.724   5.628   4.068  1.00  0.00     0.004 C 
ENDBRANCH  16  17
ENDBRANCH  15  16
ENDBRANCH  14  15
ENDBRANCH  13  14
ENDBRANCH  12  13
ENDBRANCH  11  12
ENDBRANCH   1  11
TORSDOF 14
ENDMDL
MODEL 6
REMARK VINA RESULT:    -4.514      5.425      6.885
REMARK INTER + INTRA:          -9.704
REMARK INTER:                  -9.113
REMARK INTRA:                  -0.591
REMARK UNBOUND:                -1.495
REMARK SMILES CCCCCCCCCCCCCCCC(=O)[O-]
REMARK SMILES IDX 9 1 10 2 11 3 12 4 13 5 14 6 15 7 16 8 17 9 18 10 8 11 7 12
REMARK SMILES IDX 6 13 5 14 4 15 3 16 2 17 1 18
REMARK H PARENT
REMARK Flexibility Score: inf
ROOT
ATOM      1  C   UNL     1      75.212   1.628  -0.176  1.00  0.00     0.000 C 
ENDROOT
BRANCH   1   2
ATOM      2  C   UNL     1      73.758   1.137  -0.048  1.00  0.00     0.000 C 
BRANCH   2   3
ATOM      3  C   UNL     1      72.687   2.094  -0.608  1.00  0.00     0.000 C 
BRANCH   3   4
ATOM      4  C   UNL     1      72.538   2.080  -2.140  1.00  0.00     0.000 C 
BRANCH   4   5
ATOM      5  C   UNL     1      71.260   2.791  -2.619  1.00  0.00     0.000 C 
BRANCH   5   6
ATOM      6  C   UNL     1      70.247   1.814  -3.254  1.00  0.00     0.006 C 
BRANCH   6   7
ATOM      7  C   UNL     1      70.635   0.335  -3.099  1.00  0.00     0.053 C 
BRANCH   7   8
ATOM      8  C   UNL     1      69.945  -0.541  -4.097  1.00  0.00     0.041 C 
ATOM      9  O   UNL     1      69.080  -0.060  -4.873  1.00  0.00    -0.550 OA
ATOM     10  O   UNL     1      70.279  -1.885  -4.190  1.00  0.00    -0.550 OA
ENDBRANCH   7   8
ENDBRANCH   6   7
ENDBRANCH   5   6
ENDBRANCH   4   5
ENDBRANCH   3   4
ENDBRANCH   2   3
ENDBRANCH   1   2
BRANCH   1  11
ATOM     11  C   UNL     1      76.215   0.476  -0.360  1.00  0.00     0.000 C 
BRANCH  11  12
ATOM     12  C   UNL     1      77.683   0.945  -0.332  1.00  0.00    -0.000 C 
BRANCH  12  13
ATOM     13  C   UNL     1      78.737  -0.163  -0.520  1.00  0.00    -0.000 C 
BRANCH  13  14
ATOM     14  C   UNL     1      80.170   0.312  -0.219  1.00  0.00    -0.000 C 
BRANCH  14  15
ATOM     15  C   UNL     1      80.240   1.803   0.161  1.00  0.00    -0.000 C 
BRANCH  15  16
ATOM     16  C   UNL     1      81.543   2.519  -0.240  1.00  0.00    -0.000 C 
BRANCH  16  17
ATOM     17  C   UNL     1      82.795   1.883   0.383  1.00  0.00    -0.003 C 
ATOM     18  C   UNL     1      83.999   2.012  -0.545  1.00  0.00     0.004 C 
ENDBRANCH  16  17
ENDBRANCH  15  16
ENDBRANCH  14  15
ENDBRANCH  13  14
ENDBRANCH  12  13
ENDBRANCH  11  12
ENDBRANCH   1  11
TORSDOF 14
ENDMDL
MODEL 7
REMARK VINA RESULT:    -4.449     12.182     13.672
REMARK INTER + INTRA:          -9.585
REMARK INTER:                  -8.991
REMARK INTRA:                  -0.594
REMARK UNBOUND:                -1.495
REMARK SMILES CCCCCCCCCCCCCCCC(=O)[O-]
REMARK SMILES IDX 9 1 10 2 11 3 12 4 13 5 14 6 15 7 16 8 17 9 18 10 8 11 7 12
REMARK SMILES IDX 6 13 5 14 4 15 3 16 2 17 1 18
REMARK H PARENT
REMARK Flexibility Score: inf
ROOT
ATOM      1  C   UNL     1      86.368   0.832   4.367  1.00  0.00     0.000 C 
ENDROOT
BRANCH   1   2
ATOM      2  C   UNL     1      85.976   1.659   3.129  1.00  0.00     0.000 C 
BRANCH   2   3
ATOM      3  C   UNL     1      85.794   0.853   1.828  1.00  0.00     0.000 C 
BRANCH   3   4
ATOM      4  C   UNL     1      84.973   1.558   0.734  1.00  0.00     0.000 C 
BRANCH   4   5
ATOM      5  C   UNL     1      83.455   1.424   0.950  1.00  0.00     0.000 C 
BRANCH   5   6
ATOM      6  C   UNL     1      82.652   1.683  -0.343  1.00  0.00     0.006 C 
BRANCH   6   7
ATOM      7  C   UNL     1      81.550   2.742  -0.183  1.00  0.00     0.053 C 
BRANCH   7   8
ATOM      8  C   UNL     1      80.202   2.130   0.037  1.00  0.00     0.041 C 
ATOM      9  O   UNL     1      79.970   0.952  -0.341  1.00  0.00    -0.550 OA
ATOM     10  O   UNL     1      79.210   2.849   0.688  1.00  0.00    -0.550 OA
ENDBRANCH   7   8
ENDBRANCH   6   7
ENDBRANCH   5   6
ENDBRANCH   4   5
ENDBRANCH   3   4
ENDBRANCH   2   3
ENDBRANCH   1   2
BRANCH   1  11
ATOM     11  C   UNL     1      86.127   1.585   5.687  1.00  0.00     0.000 C 
BRANCH  11  12
ATOM     12  C   UNL     1      85.354   0.749   6.726  1.00  0.00    -0.000 C 
BRANCH  12  13
ATOM     13  C   UNL     1      84.294   1.517   7.539  1.00  0.00    -0.000 C 
BRANCH  13  14
ATOM     14  C   UNL     1      84.805   2.871   8.063  1.00  0.00    -0.000 C 
BRANCH  14  15
ATOM     15  C   UNL     1      83.665   3.845   8.419  1.00  0.00    -0.000 C 
BRANCH  15  16
ATOM     16  C   UNL     1      82.594   3.279   9.370  1.00  0.00    -0.000 C 
BRANCH  16  17
ATOM     17  C   UNL     1      81.161   3.554   8.893  1.00  0.00    -0.003 C 
ATOM     18  C   UNL     1      81.075   4.881   8.144  1.00  0.00     0.004 C 
ENDBRANCH  16  17
ENDBRANCH  15  16
ENDBRANCH  14  15
ENDBRANCH  13  14
ENDBRANCH  12  13
ENDBRANCH  11  12
ENDBRANCH   1  11
TORSDOF 14
ENDMDL
MODEL 8
REMARK VINA RESULT:    -4.427     12.051     13.548
REMARK INTER + INTRA:          -9.545
REMARK INTER:                  -8.990
REMARK INTRA:                  -0.555
REMARK UNBOUND:                -1.495
REMARK SMILES CCCCCCCCCCCCCCCC(=O)[O-]
REMARK SMILES IDX 9 1 10 2 11 3 12 4 13 5 14 6 15 7 16 8 17 9 18 10 8 11 7 12
REMARK SMILES IDX 6 13 5 14 4 15 3 16 2 17 1 18
REMARK H PARENT
REMARK Flexibility Score: inf
ROOT
ATOM      1  C   UNL     1      85.693   2.544  -1.962  1.00  0.00     0.000 C 
ENDROOT
BRANCH   1   2
ATOM      2  C   UNL     1      86.436   2.094  -3.234  1.00  0.00     0.000 C 
BRANCH   2   3
ATOM      3  C   UNL     1      86.343   3.061  -4.430  1.00  0.00     0.000 C 
BRANCH   3   4
ATOM      4  C   UNL     1      86.128   2.388  -5.797  1.00  0.00     0.000 C 
BRANCH   4   5
ATOM      5  C   UNL     1      85.917   3.404  -6.933  1.00  0.00     0.000 C 
BRANCH   5   6
ATOM      6  C   UNL     1      85.279   2.763  -8.184  1.00  0.00     0.006 C 
BRANCH   6   7
ATOM      7  C   UNL     1      83.866   2.209  -7.941  1.00  0.00     0.053 C 
BRANCH   7   8
ATOM      8  C   UNL     1      83.551   1.046  -8.829  1.00  0.00     0.041 C 
ATOM      9  O   UNL     1      84.169  -0.041  -8.694  1.00  0.00    -0.550 OA
ATOM     10  O   UNL     1      82.554   1.155  -9.788  1.00  0.00    -0.550 OA
ENDBRANCH   7   8
ENDBRANCH   6   7
ENDBRANCH   5   6
ENDBRANCH   4   5
ENDBRANCH   3   4
ENDBRANCH   2   3
ENDBRANCH   1   2
BRANCH   1  11
ATOM     11  C   UNL     1      86.110   1.747  -0.714  1.00  0.00     0.000 C 
BRANCH  11  12
ATOM     12  C   UNL     1      84.985   1.635   0.334  1.00  0.00    -0.000 C 
BRANCH  12  13
ATOM     13  C   UNL     1      83.550   1.650  -0.229  1.00  0.00    -0.000 C 
BRANCH  13  14
ATOM     14  C   UNL     1      82.491   1.255   0.814  1.00  0.00    -0.000 C 
BRANCH  14  15
ATOM     15  C   UNL     1      81.288   0.515   0.199  1.00  0.00    -0.000 C 
BRANCH  15  16
ATOM     16  C   UNL     1      80.120   1.418  -0.240  1.00  0.00    -0.000 C 
BRANCH  16  17
ATOM     17  C   UNL     1      80.125   2.787   0.456  1.00  0.00    -0.003 C 
ATOM     18  C   UNL     1      80.585   3.888  -0.495  1.00  0.00     0.004 C 
ENDBRANCH  16  17
ENDBRANCH  15  16
ENDBRANCH  14  15
ENDBRANCH  13  14
ENDBRANCH  12  13
ENDBRANCH  11  12
ENDBRANCH   1  11
TORSDOF 14
ENDMDL
MODEL 9
REMARK VINA RESULT:    -4.361     13.282     15.732
REMARK INTER + INTRA:          -9.426
REMARK INTER:                  -8.796
REMARK INTRA:                  -0.629
REMARK UNBOUND:                -1.495
REMARK SMILES CCCCCCCCCCCCCCCC(=O)[O-]
REMARK SMILES IDX 9 1 10 2 11 3 12 4 13 5 14 6 15 7 16 8 17 9 18 10 8 11 7 12
REMARK SMILES IDX 6 13 5 14 4 15 3 16 2 17 1 18
REMARK H PARENT
REMARK Flexibility Score: inf
ROOT
ATOM      1  C   UNL     1      86.081   1.517   3.368  1.00  0.00     0.000 C 
ENDROOT
BRANCH   1   2
ATOM      2  C   UNL     1      86.678   0.144   3.732  1.00  0.00     0.000 C 
BRANCH   2   3
ATOM      3  C   UNL     1      86.677  -0.200   5.234  1.00  0.00     0.000 C 
BRANCH   3   4
ATOM      4  C   UNL     1      86.106   0.896   6.152  1.00  0.00     0.000 C 
BRANCH   4   5
ATOM      5  C   UNL     1      85.546   0.334   7.470  1.00  0.00     0.000 C 
BRANCH   5   6
ATOM      6  C   UNL     1      84.194   0.973   7.854  1.00  0.00     0.006 C 
BRANCH   6   7
ATOM      7  C   UNL     1      84.306   2.036   8.959  1.00  0.00     0.053 C 
BRANCH   7   8
ATOM      8  C   UNL     1      83.079   2.888   9.053  1.00  0.00     0.041 C 
ATOM      9  O   UNL     1      83.056   4.027   8.519  1.00  0.00    -0.550 OA
ATOM     10  O   UNL     1      81.951   2.413   9.705  1.00  0.00    -0.550 OA
ENDBRANCH   7   8
ENDBRANCH   6   7
ENDBRANCH   5   6
ENDBRANCH   4   5
ENDBRANCH   3   4
ENDBRANCH   2   3
ENDBRANCH   1   2
BRANCH   1  11
ATOM     11  C   UNL     1      86.454   1.972   1.947  1.00  0.00     0.000 C 
BRANCH  11  12
ATOM     12  C   UNL     1      85.790   1.120   0.847  1.00  0.00    -0.000 C 
BRANCH  12  13
ATOM     13  C   UNL     1      84.667   1.818   0.055  1.00  0.00    -0.000 C 
BRANCH  13  14
ATOM     14  C   UNL     1      83.266   1.541   0.628  1.00  0.00    -0.000 C 
BRANCH  14  15
ATOM     15  C   UNL     1      82.144   1.740  -0.408  1.00  0.00    -0.000 C 
BRANCH  15  16
ATOM     16  C   UNL     1      80.749   2.018   0.184  1.00  0.00    -0.000 C 
BRANCH  16  17
ATOM     17  C   UNL     1      80.247   3.440  -0.103  1.00  0.00    -0.003 C 
ATOM     18  C   UNL     1      81.340   4.293  -0.742  1.00  0.00     0.004 C 
ENDBRANCH  16  17
ENDBRANCH  15  16
ENDBRANCH  14  15
ENDBRANCH  13  14
ENDBRANCH  12  13
ENDBRANCH  11  12
ENDBRANCH   1  11
TORSDOF 14
ENDMDL
