MODEL 1
REMARK VINA RESULT:    -7.170      0.000      0.000
REMARK INTER + INTRA:          -8.693
REMARK INTER:                  -8.427
REMARK INTRA:                  -0.266
REMARK UNBOUND:                -0.266
REMARK SMILES O=c1cc(-c2ccc(O)c(O)c2)oc2cc(O)cc(O)c12
REMARK SMILES IDX 4 1 3 2 2 3 1 4 21 5 19 6 18 7 16 8 15 9 14 10 13 11 5 12
REMARK SMILES IDX 6 13 7 14 8 15 12 16 10 17 9 18 11 20 20 22 17 24
REMARK H PARENT 9 19 11 21 20 23 17 25
REMARK Flexibility Score: inf
ROOT
ATOM      1  C   UNL     1      30.925 -92.258  37.466  1.00  0.00     0.138 A 
ATOM      2  C   UNL     1      29.702 -92.865  37.143  1.00  0.00     0.100 A 
ATOM      3  C   UNL     1      29.558 -94.245  37.295  1.00  0.00     0.197 A 
ATOM      4  O   UNL     1      28.456 -94.782  37.001  1.00  0.00    -0.289 OA
ATOM      5  C   UNL     1      30.645 -95.010  37.766  1.00  0.00     0.107 A 
ATOM      6  C   UNL     1      30.583 -96.412  37.949  1.00  0.00     0.134 A 
ATOM      7  C   UNL     1      31.712 -97.100  38.417  1.00  0.00     0.093 A 
ATOM      8  C   UNL     1      32.896 -96.417  38.704  1.00  0.00     0.123 A 
ATOM      9  C   UNL     1      32.962 -95.031  38.525  1.00  0.00     0.094 A 
ATOM     10  C   UNL     1      31.848 -94.325  38.060  1.00  0.00     0.146 A 
ATOM     11  O   UNL     1      31.935 -93.009  37.899  1.00  0.00    -0.456 OA
ENDROOT
BRANCH   1  12
ATOM     12  C   UNL     1      31.135 -90.794  37.323  1.00  0.00     0.021 A 
ATOM     13  C   UNL     1      32.118 -90.268  36.462  1.00  0.00     0.016 A 
ATOM     14  C   UNL     1      32.285 -88.886  36.340  1.00  0.00     0.051 A 
ATOM     15  C   UNL     1      31.475 -88.008  37.065  1.00  0.00     0.157 A 
ATOM     16  C   UNL     1      30.314 -89.904  38.038  1.00  0.00     0.062 A 
ATOM     17  C   UNL     1      30.482 -88.517  37.916  1.00  0.00     0.158 A 
BRANCH  15  18
ATOM     18  O   UNL     1      31.668 -86.634  36.922  1.00  0.00    -0.504 OA
ATOM     19  H   UNL     1      31.223 -85.962  37.535  1.00  0.00     0.293 HD
ENDBRANCH  15  18
BRANCH  17  20
ATOM     20  O   UNL     1      29.668 -87.647  38.639  1.00  0.00    -0.504 OA
ATOM     21  H   UNL     1      29.000 -87.040  38.179  1.00  0.00     0.293 HD
ENDBRANCH  17  20
ENDBRANCH   1  12
BRANCH   6  22
ATOM     22  O   UNL     1      29.415 -97.121  37.670  1.00  0.00    -0.507 OA
ATOM     23  H   UNL     1      28.516 -96.834  38.041  1.00  0.00     0.293 HD
ENDBRANCH   6  22
BRANCH   8  24
ATOM     24  O   UNL     1      34.003 -97.125  39.167  1.00  0.00    -0.508 OA
ATOM     25  H   UNL     1      34.945 -96.771  39.052  1.00  0.00     0.293 HD
ENDBRANCH   8  24
TORSDOF 5
ENDMDL
MODEL 2
REMARK VINA RESULT:    -6.080      1.234      2.748
REMARK INTER + INTRA:          -7.412
REMARK INTER:                  -7.131
REMARK INTRA:                  -0.281
REMARK UNBOUND:                -0.266
REMARK SMILES O=c1cc(-c2ccc(O)c(O)c2)oc2cc(O)cc(O)c12
REMARK SMILES IDX 4 1 3 2 2 3 1 4 21 5 19 6 18 7 16 8 15 9 14 10 13 11 5 12
REMARK SMILES IDX 6 13 7 14 8 15 12 16 10 17 9 18 11 20 20 22 17 24
REMARK H PARENT 9 19 11 21 20 23 17 25
REMARK Flexibility Score: inf
ROOT
ATOM      1  C   UNL     1      31.152 -92.113  37.477  1.00  0.00     0.138 A 
ATOM      2  C   UNL     1      32.247 -92.894  37.878  1.00  0.00     0.100 A 
ATOM      3  C   UNL     1      32.090 -94.273  38.027  1.00  0.00     0.197 A 
ATOM      4  O   UNL     1      33.079 -94.967  38.389  1.00  0.00    -0.289 OA
ATOM      5  C   UNL     1      30.833 -94.861  37.777  1.00  0.00     0.107 A 
ATOM      6  C   UNL     1      30.588 -96.249  37.904  1.00  0.00     0.134 A 
ATOM      7  C   UNL     1      29.306 -96.754  37.641  1.00  0.00     0.093 A 
ATOM      8  C   UNL     1      28.269 -95.901  37.257  1.00  0.00     0.123 A 
ATOM      9  C   UNL     1      28.505 -94.528  37.130  1.00  0.00     0.094 A 
ATOM     10  C   UNL     1      29.776 -94.005  37.386  1.00  0.00     0.146 A 
ATOM     11  O   UNL     1      29.976 -92.697  37.258  1.00  0.00    -0.456 OA
ENDROOT
BRANCH   1  12
ATOM     12  C   UNL     1      31.262 -90.642  37.303  1.00  0.00     0.021 A 
ATOM     13  C   UNL     1      32.181 -90.069  36.403  1.00  0.00     0.016 A 
ATOM     14  C   UNL     1      32.254 -88.682  36.254  1.00  0.00     0.051 A 
ATOM     15  C   UNL     1      31.412 -87.845  36.989  1.00  0.00     0.157 A 
ATOM     16  C   UNL     1      30.407 -89.794  38.030  1.00  0.00     0.062 A 
ATOM     17  C   UNL     1      30.481 -88.402  37.880  1.00  0.00     0.158 A 
BRANCH  15  18
ATOM     18  O   UNL     1      31.510 -86.464  36.818  1.00  0.00    -0.504 OA
ATOM     19  H   UNL     1      32.248 -85.920  37.249  1.00  0.00     0.293 HD
ENDBRANCH  15  18
BRANCH  17  20
ATOM     20  O   UNL     1      29.634 -87.572  38.614  1.00  0.00    -0.504 OA
ATOM     21  H   UNL     1      28.657 -87.461  38.371  1.00  0.00     0.293 HD
ENDBRANCH  17  20
ENDBRANCH   1  12
BRANCH   6  22
ATOM     22  O   UNL     1      31.604 -97.125  38.286  1.00  0.00    -0.507 OA
ATOM     23  H   UNL     1      32.248 -96.899  39.036  1.00  0.00     0.293 HD
ENDBRANCH   6  22
BRANCH   8  24
ATOM     24  O   UNL     1      27.004 -96.429  37.003  1.00  0.00    -0.508 OA
ATOM     25  H   UNL     1      26.643 -96.509  36.060  1.00  0.00     0.293 HD
ENDBRANCH   8  24
TORSDOF 5
ENDMDL
MODEL 3
REMARK VINA RESULT:    -5.676      9.229     10.833
REMARK INTER + INTRA:          -6.937
REMARK INTER:                  -6.658
REMARK INTRA:                  -0.279
REMARK UNBOUND:                -0.266
REMARK SMILES O=c1cc(-c2ccc(O)c(O)c2)oc2cc(O)cc(O)c12
REMARK SMILES IDX 4 1 3 2 2 3 1 4 21 5 19 6 18 7 16 8 15 9 14 10 13 11 5 12
REMARK SMILES IDX 6 13 7 14 8 15 12 16 10 17 9 18 11 20 20 22 17 24
REMARK H PARENT 9 19 11 21 20 23 17 25
REMARK Flexibility Score: inf
ROOT
ATOM      1  C   UNL     1      37.388 -95.372  30.913  1.00  0.00     0.138 A 
ATOM      2  C   UNL     1      38.009 -96.055  29.855  1.00  0.00     0.100 A 
ATOM      3  C   UNL     1      37.329 -96.213  28.647  1.00  0.00     0.197 A 
ATOM      4  O   UNL     1      37.893 -96.829  27.702  1.00  0.00    -0.289 OA
ATOM      5  C   UNL     1      36.027 -95.689  28.507  1.00  0.00     0.107 A 
ATOM      6  C   UNL     1      35.270 -95.804  27.317  1.00  0.00     0.134 A 
ATOM      7  C   UNL     1      33.979 -95.259  27.262  1.00  0.00     0.093 A 
ATOM      8  C   UNL     1      33.432 -94.604  28.368  1.00  0.00     0.123 A 
ATOM      9  C   UNL     1      34.177 -94.487  29.546  1.00  0.00     0.094 A 
ATOM     10  C   UNL     1      35.466 -95.023  29.623  1.00  0.00     0.146 A 
ATOM     11  O   UNL     1      36.154 -94.898  30.752  1.00  0.00    -0.456 OA
ENDROOT
BRANCH   1  12
ATOM     12  C   UNL     1      38.063 -95.175  32.221  1.00  0.00     0.021 A 
ATOM     13  C   UNL     1      39.275 -94.465  32.329  1.00  0.00     0.016 A 
ATOM     14  C   UNL     1      39.882 -94.286  33.575  1.00  0.00     0.051 A 
ATOM     15  C   UNL     1      39.292 -94.803  34.731  1.00  0.00     0.157 A 
ATOM     16  C   UNL     1      37.467 -95.680  33.391  1.00  0.00     0.062 A 
ATOM     17  C   UNL     1      38.077 -95.502  34.641  1.00  0.00     0.158 A 
BRANCH  15  18
ATOM     18  O   UNL     1      39.923 -94.609  35.959  1.00  0.00    -0.504 OA
ATOM     19  H   UNL     1      39.459 -94.154  36.737  1.00  0.00     0.293 HD
ENDBRANCH  15  18
BRANCH  17  20
ATOM     20  O   UNL     1      37.481 -96.016  35.791  1.00  0.00    -0.504 OA
ATOM     21  H   UNL     1      36.964 -96.887  35.777  1.00  0.00     0.293 HD
ENDBRANCH  17  20
ENDBRANCH   1  12
BRANCH   6  22
ATOM     22  O   UNL     1      35.788 -96.454  26.197  1.00  0.00    -0.507 OA
ATOM     23  H   UNL     1      35.192 -96.763  25.437  1.00  0.00     0.293 HD
ENDBRANCH   6  22
BRANCH   8  24
ATOM     24  O   UNL     1      32.147 -94.073  28.286  1.00  0.00    -0.508 OA
ATOM     25  H   UNL     1      31.740 -93.551  29.053  1.00  0.00     0.293 HD
ENDBRANCH   8  24
TORSDOF 5
ENDMDL
MODEL 4
REMARK VINA RESULT:    -5.649     15.298     17.402
REMARK INTER + INTRA:          -6.906
REMARK INTER:                  -6.614
REMARK INTRA:                  -0.292
REMARK UNBOUND:                -0.266
REMARK SMILES O=c1cc(-c2ccc(O)c(O)c2)oc2cc(O)cc(O)c12
REMARK SMILES IDX 4 1 3 2 2 3 1 4 21 5 19 6 18 7 16 8 15 9 14 10 13 11 5 12
REMARK SMILES IDX 6 13 7 14 8 15 12 16 10 17 9 18 11 20 20 22 17 24
REMARK H PARENT 9 19 11 21 20 23 17 25
REMARK Flexibility Score: inf
ROOT
ATOM      1  C   UNL     1      37.541 -77.459  34.377  1.00  0.00     0.138 A 
ATOM      2  C   UNL     1      37.814 -77.311  35.746  1.00  0.00     0.100 A 
ATOM      3  C   UNL     1      36.771 -77.397  36.668  1.00  0.00     0.197 A 
ATOM      4  O   UNL     1      37.026 -77.262  37.896  1.00  0.00    -0.289 OA
ATOM      5  C   UNL     1      35.456 -77.624  36.213  1.00  0.00     0.107 A 
ATOM      6  C   UNL     1      34.342 -77.725  37.080  1.00  0.00     0.134 A 
ATOM      7  C   UNL     1      33.065 -77.948  36.545  1.00  0.00     0.093 A 
ATOM      8  C   UNL     1      32.880 -78.071  35.167  1.00  0.00     0.123 A 
ATOM      9  C   UNL     1      33.978 -77.973  34.304  1.00  0.00     0.094 A 
ATOM     10  C   UNL     1      35.260 -77.752  34.817  1.00  0.00     0.146 A 
ATOM     11  O   UNL     1      36.287 -77.663  33.978  1.00  0.00    -0.456 OA
ENDROOT
BRANCH   1  12
ATOM     12  C   UNL     1      38.611 -77.376  33.351  1.00  0.00     0.021 A 
ATOM     13  C   UNL     1      38.318 -77.151  31.992  1.00  0.00     0.016 A 
ATOM     14  C   UNL     1      39.348 -77.068  31.051  1.00  0.00     0.051 A 
ATOM     15  C   UNL     1      40.681 -77.199  31.446  1.00  0.00     0.157 A 
ATOM     16  C   UNL     1      39.957 -77.493  33.744  1.00  0.00     0.062 A 
ATOM     17  C   UNL     1      40.990 -77.410  32.799  1.00  0.00     0.158 A 
BRANCH  15  18
ATOM     18  O   UNL     1      41.685 -77.112  30.482  1.00  0.00    -0.504 OA
ATOM     19  H   UNL     1      42.582 -77.571  30.596  1.00  0.00     0.293 HD
ENDBRANCH  15  18
BRANCH  17  20
ATOM     20  O   UNL     1      42.319 -77.538  33.201  1.00  0.00    -0.504 OA
ATOM     21  H   UNL     1      42.768 -78.443  33.269  1.00  0.00     0.293 HD
ENDBRANCH  17  20
ENDBRANCH   1  12
BRANCH   6  22
ATOM     22  O   UNL     1      34.495 -77.605  38.462  1.00  0.00    -0.507 OA
ATOM     23  H   UNL     1      35.410 -77.595  38.897  1.00  0.00     0.293 HD
ENDBRANCH   6  22
BRANCH   8  24
ATOM     24  O   UNL     1      31.601 -78.292  34.662  1.00  0.00    -0.508 OA
ATOM     25  H   UNL     1      30.790 -77.822  35.048  1.00  0.00     0.293 HD
ENDBRANCH   8  24
TORSDOF 5
ENDMDL
MODEL 5
REMARK VINA RESULT:    -5.617      8.895     11.076
REMARK INTER + INTRA:          -6.868
REMARK INTER:                  -6.553
REMARK INTRA:                  -0.316
REMARK UNBOUND:                -0.266
REMARK SMILES O=c1cc(-c2ccc(O)c(O)c2)oc2cc(O)cc(O)c12
REMARK SMILES IDX 4 1 3 2 2 3 1 4 21 5 19 6 18 7 16 8 15 9 14 10 13 11 5 12
REMARK SMILES IDX 6 13 7 14 8 15 12 16 10 17 9 18 11 20 20 22 17 24
REMARK H PARENT 9 19 11 21 20 23 17 25
REMARK Flexibility Score: inf
ROOT
ATOM      1  C   UNL     1      40.599 -95.204  35.731  1.00  0.00     0.138 A 
ATOM      2  C   UNL     1      41.715 -95.428  34.909  1.00  0.00     0.100 A 
ATOM      3  C   UNL     1      41.554 -95.453  33.523  1.00  0.00     0.197 A 
ATOM      4  O   UNL     1      42.562 -95.656  32.793  1.00  0.00    -0.289 OA
ATOM      5  C   UNL     1      40.273 -95.258  32.968  1.00  0.00     0.107 A 
ATOM      6  C   UNL     1      40.023 -95.267  31.575  1.00  0.00     0.134 A 
ATOM      7  C   UNL     1      38.717 -95.070  31.104  1.00  0.00     0.093 A 
ATOM      8  C   UNL     1      37.660 -94.865  31.994  1.00  0.00     0.123 A 
ATOM      9  C   UNL     1      37.902 -94.854  33.372  1.00  0.00     0.094 A 
ATOM     10  C   UNL     1      39.196 -95.048  33.863  1.00  0.00     0.146 A 
ATOM     11  O   UNL     1      39.401 -95.033  35.175  1.00  0.00    -0.456 OA
ENDROOT
BRANCH   1  12
ATOM     12  C   UNL     1      40.711 -95.168  37.211  1.00  0.00     0.021 A 
ATOM     13  C   UNL     1      41.870 -95.612  37.877  1.00  0.00     0.016 A 
ATOM     14  C   UNL     1      41.951 -95.556  39.271  1.00  0.00     0.051 A 
ATOM     15  C   UNL     1      40.887 -95.052  40.022  1.00  0.00     0.157 A 
ATOM     16  C   UNL     1      39.649 -94.648  37.973  1.00  0.00     0.062 A 
ATOM     17  C   UNL     1      39.730 -94.593  39.372  1.00  0.00     0.158 A 
BRANCH  15  18
ATOM     18  O   UNL     1      40.998 -95.010  41.412  1.00  0.00    -0.504 OA
ATOM     19  H   UNL     1      40.893 -95.840  41.985  1.00  0.00     0.293 HD
ENDBRANCH  15  18
BRANCH  17  20
ATOM     20  O   UNL     1      38.666 -94.084  40.116  1.00  0.00    -0.504 OA
ATOM     21  H   UNL     1      37.709 -94.157  39.792  1.00  0.00     0.293 HD
ENDBRANCH  17  20
ENDBRANCH   1  12
BRANCH   6  22
ATOM     22  O   UNL     1      41.058 -95.471  30.662  1.00  0.00    -0.507 OA
ATOM     23  H   UNL     1      41.174 -94.878  29.848  1.00  0.00     0.293 HD
ENDBRANCH   6  22
BRANCH   8  24
ATOM     24  O   UNL     1      36.372 -94.673  31.499  1.00  0.00    -0.508 OA
ATOM     25  H   UNL     1      35.657 -95.384  31.591  1.00  0.00     0.293 HD
ENDBRANCH   8  24
TORSDOF 5
ENDMDL
MODEL 6
REMARK VINA RESULT:    -5.500      9.239     10.679
REMARK INTER + INTRA:          -6.730
REMARK INTER:                  -6.452
REMARK INTRA:                  -0.278
REMARK UNBOUND:                -0.266
REMARK SMILES O=c1cc(-c2ccc(O)c(O)c2)oc2cc(O)cc(O)c12
REMARK SMILES IDX 4 1 3 2 2 3 1 4 21 5 19 6 18 7 16 8 15 9 14 10 13 11 5 12
REMARK SMILES IDX 6 13 7 14 8 15 12 16 10 17 9 18 11 20 20 22 17 24
REMARK H PARENT 9 19 11 21 20 23 17 25
REMARK Flexibility Score: inf
ROOT
ATOM      1  C   UNL     1      36.121 -95.293  29.859  1.00  0.00     0.138 A 
ATOM      2  C   UNL     1      37.177 -95.666  29.013  1.00  0.00     0.100 A 
ATOM      3  C   UNL     1      38.482 -95.674  29.506  1.00  0.00     0.197 A 
ATOM      4  O   UNL     1      39.425 -96.009  28.739  1.00  0.00    -0.289 OA
ATOM      5  C   UNL     1      38.723 -95.302  30.845  1.00  0.00     0.107 A 
ATOM      6  C   UNL     1      40.014 -95.283  31.423  1.00  0.00     0.134 A 
ATOM      7  C   UNL     1      40.168 -94.895  32.762  1.00  0.00     0.093 A 
ATOM      8  C   UNL     1      39.061 -94.527  33.531  1.00  0.00     0.123 A 
ATOM      9  C   UNL     1      37.782 -94.544  32.964  1.00  0.00     0.094 A 
ATOM     10  C   UNL     1      37.606 -94.928  31.631  1.00  0.00     0.146 A 
ATOM     11  O   UNL     1      36.382 -94.938  31.115  1.00  0.00    -0.456 OA
ENDROOT
BRANCH   1  12
ATOM     12  C   UNL     1      34.713 -95.266  29.388  1.00  0.00     0.021 A 
ATOM     13  C   UNL     1      34.306 -94.449  28.315  1.00  0.00     0.016 A 
ATOM     14  C   UNL     1      32.976 -94.453  27.886  1.00  0.00     0.051 A 
ATOM     15  C   UNL     1      32.033 -95.271  28.512  1.00  0.00     0.157 A 
ATOM     16  C   UNL     1      33.761 -96.099  30.003  1.00  0.00     0.062 A 
ATOM     17  C   UNL     1      32.426 -96.102  29.574  1.00  0.00     0.158 A 
BRANCH  15  18
ATOM     18  O   UNL     1      30.713 -95.251  28.062  1.00  0.00    -0.504 OA
ATOM     19  H   UNL     1      30.153 -94.407  28.074  1.00  0.00     0.293 HD
ENDBRANCH  15  18
BRANCH  17  20
ATOM     20  O   UNL     1      31.490 -96.925  30.200  1.00  0.00    -0.504 OA
ATOM     21  H   UNL     1      30.771 -97.406  29.675  1.00  0.00     0.293 HD
ENDBRANCH  17  20
ENDBRANCH   1  12
BRANCH   6  22
ATOM     22  O   UNL     1      41.139 -95.644  30.681  1.00  0.00    -0.507 OA
ATOM     23  H   UNL     1      41.972 -96.015  31.123  1.00  0.00     0.293 HD
ENDBRANCH   6  22
BRANCH   8  24
ATOM     24  O   UNL     1      39.242 -94.145  34.858  1.00  0.00    -0.508 OA
ATOM     25  H   UNL     1      39.757 -93.308  35.104  1.00  0.00     0.293 HD
ENDBRANCH   8  24
TORSDOF 5
ENDMDL
MODEL 7
REMARK VINA RESULT:    -5.465     14.812     16.232
REMARK INTER + INTRA:          -6.689
REMARK INTER:                  -6.372
REMARK INTRA:                  -0.317
REMARK UNBOUND:                -0.266
REMARK SMILES O=c1cc(-c2ccc(O)c(O)c2)oc2cc(O)cc(O)c12
REMARK SMILES IDX 4 1 3 2 2 3 1 4 21 5 19 6 18 7 16 8 15 9 14 10 13 11 5 12
REMARK SMILES IDX 6 13 7 14 8 15 12 16 10 17 9 18 11 20 20 22 17 24
REMARK H PARENT 9 19 11 21 20 23 17 25
REMARK Flexibility Score: inf
ROOT
ATOM      1  C   UNL     1      36.772 -78.086  37.257  1.00  0.00     0.138 A 
ATOM      2  C   UNL     1      37.922 -77.588  36.625  1.00  0.00     0.100 A 
ATOM      3  C   UNL     1      39.154 -77.674  37.273  1.00  0.00     0.197 A 
ATOM      4  O   UNL     1      40.182 -77.223  36.698  1.00  0.00    -0.289 OA
ATOM      5  C   UNL     1      39.227 -78.256  38.555  1.00  0.00     0.107 A 
ATOM      6  C   UNL     1      40.436 -78.384  39.280  1.00  0.00     0.134 A 
ATOM      7  C   UNL     1      40.422 -78.971  40.553  1.00  0.00     0.093 A 
ATOM      8  C   UNL     1      39.228 -79.431  41.114  1.00  0.00     0.123 A 
ATOM      9  C   UNL     1      38.030 -79.308  40.401  1.00  0.00     0.094 A 
ATOM     10  C   UNL     1      38.022 -78.726  39.130  1.00  0.00     0.146 A 
ATOM     11  O   UNL     1      36.873 -78.621  38.472  1.00  0.00    -0.456 OA
ENDROOT
BRANCH   1  12
ATOM     12  C   UNL     1      35.434 -78.020  36.615  1.00  0.00     0.021 A 
ATOM     13  C   UNL     1      35.280 -77.670  35.260  1.00  0.00     0.016 A 
ATOM     14  C   UNL     1      34.009 -77.626  34.681  1.00  0.00     0.051 A 
ATOM     15  C   UNL     1      32.875 -77.936  35.435  1.00  0.00     0.157 A 
ATOM     16  C   UNL     1      34.290 -78.346  37.365  1.00  0.00     0.062 A 
ATOM     17  C   UNL     1      33.014 -78.301  36.784  1.00  0.00     0.158 A 
BRANCH  15  18
ATOM     18  O   UNL     1      31.621 -77.883  34.828  1.00  0.00    -0.504 OA
ATOM     19  H   UNL     1      31.231 -78.673  34.328  1.00  0.00     0.293 HD
ENDBRANCH  15  18
BRANCH  17  20
ATOM     20  O   UNL     1      31.887 -78.617  37.542  1.00  0.00    -0.504 OA
ATOM     21  H   UNL     1      31.950 -79.197  38.370  1.00  0.00     0.293 HD
ENDBRANCH  17  20
ENDBRANCH   1  12
BRANCH   6  22
ATOM     22  O   UNL     1      41.644 -77.933  38.747  1.00  0.00    -0.507 OA
ATOM     23  H   UNL     1      42.021 -78.313  37.887  1.00  0.00     0.293 HD
ENDBRANCH   6  22
BRANCH   8  24
ATOM     24  O   UNL     1      39.242 -80.010  42.381  1.00  0.00    -0.508 OA
ATOM     25  H   UNL     1      40.035 -80.549  42.709  1.00  0.00     0.293 HD
ENDBRANCH   8  24
TORSDOF 5
ENDMDL
MODEL 8
REMARK VINA RESULT:    -5.376     15.744     18.020
REMARK INTER + INTRA:          -6.585
REMARK INTER:                  -6.271
REMARK INTRA:                  -0.314
REMARK UNBOUND:                -0.266
REMARK SMILES O=c1cc(-c2ccc(O)c(O)c2)oc2cc(O)cc(O)c12
REMARK SMILES IDX 4 1 3 2 2 3 1 4 21 5 19 6 18 7 16 8 15 9 14 10 13 11 5 12
REMARK SMILES IDX 6 13 7 14 8 15 12 16 10 17 9 18 11 20 20 22 17 24
REMARK H PARENT 9 19 11 21 20 23 17 25
REMARK Flexibility Score: inf
ROOT
ATOM      1  C   UNL     1      37.915 -77.259  35.233  1.00  0.00     0.138 A 
ATOM      2  C   UNL     1      39.219 -77.259  35.754  1.00  0.00     0.100 A 
ATOM      3  C   UNL     1      40.308 -77.259  34.881  1.00  0.00     0.197 A 
ATOM      4  O   UNL     1      41.475 -77.261  35.358  1.00  0.00    -0.289 OA
ATOM      5  C   UNL     1      40.084 -77.265  33.489  1.00  0.00     0.107 A 
ATOM      6  C   UNL     1      41.130 -77.264  32.536  1.00  0.00     0.134 A 
ATOM      7  C   UNL     1      40.822 -77.274  31.168  1.00  0.00     0.093 A 
ATOM      8  C   UNL     1      39.494 -77.285  30.736  1.00  0.00     0.123 A 
ATOM      9  C   UNL     1      38.456 -77.285  31.673  1.00  0.00     0.094 A 
ATOM     10  C   UNL     1      38.741 -77.274  33.042  1.00  0.00     0.146 A 
ATOM     11  O   UNL     1      37.738 -77.273  33.913  1.00  0.00    -0.456 OA
ENDROOT
BRANCH   1  12
ATOM     12  C   UNL     1      36.720 -77.259  36.114  1.00  0.00     0.021 A 
ATOM     13  C   UNL     1      36.797 -76.875  37.466  1.00  0.00     0.016 A 
ATOM     14  C   UNL     1      35.653 -76.875  38.269  1.00  0.00     0.051 A 
ATOM     15  C   UNL     1      34.416 -77.250  37.738  1.00  0.00     0.157 A 
ATOM     16  C   UNL     1      35.469 -77.621  35.582  1.00  0.00     0.062 A 
ATOM     17  C   UNL     1      34.321 -77.622  36.388  1.00  0.00     0.158 A 
BRANCH  15  18
ATOM     18  O   UNL     1      33.293 -77.240  38.565  1.00  0.00    -0.504 OA
ATOM     19  H   UNL     1      32.476 -77.807  38.370  1.00  0.00     0.293 HD
ENDBRANCH  15  18
BRANCH  17  20
ATOM     20  O   UNL     1      33.089 -77.992  35.851  1.00  0.00    -0.504 OA
ATOM     21  H   UNL     1      33.005 -78.753  35.188  1.00  0.00     0.293 HD
ENDBRANCH  17  20
ENDBRANCH   1  12
BRANCH   6  22
ATOM     22  O   UNL     1      42.466 -77.255  32.938  1.00  0.00    -0.507 OA
ATOM     23  H   UNL     1      43.133 -76.596  32.553  1.00  0.00     0.293 HD
ENDBRANCH   6  22
BRANCH   8  24
ATOM     24  O   UNL     1      39.216 -77.296  29.370  1.00  0.00    -0.508 OA
ATOM     25  H   UNL     1      38.704 -78.056  28.940  1.00  0.00     0.293 HD
ENDBRANCH   8  24
TORSDOF 5
ENDMDL
