MODEL 1
REMARK VINA RESULT:    -3.617      0.000      0.000
REMARK INTER + INTRA:          -7.844
REMARK INTER:                  -6.578
REMARK INTRA:                  -1.266
REMARK UNBOUND:                -1.266
REMARK SMILES CCCCCCCCCCCCCCCC(=O)[O-]
REMARK SMILES IDX 9 1 10 2 11 3 12 4 13 5 14 6 15 7 16 8 17 9 18 10 8 11 7 12
REMARK SMILES IDX 6 13 5 14 4 15 3 16 2 17 1 18
REMARK H PARENT
REMARK Flexibility Score: inf
ROOT
ATOM      1  C   UNL     1     113.695  55.207 230.360  1.00  0.00     0.000 C 
ENDROOT
BRANCH   1   2
ATOM      2  C   UNL     1     113.952  55.691 228.927  1.00  0.00     0.000 C 
BRANCH   2   3
ATOM      3  C   UNL     1     113.007  54.997 227.936  1.00  0.00     0.000 C 
BRANCH   3   4
ATOM      4  C   UNL     1     113.735  53.994 227.027  1.00  0.00     0.000 C 
BRANCH   4   5
ATOM      5  C   UNL     1     112.814  53.393 225.952  1.00  0.00     0.000 C 
BRANCH   5   6
ATOM      6  C   UNL     1     111.324  53.556 226.293  1.00  0.00     0.006 C 
BRANCH   6   7
ATOM      7  C   UNL     1     110.459  53.805 225.052  1.00  0.00     0.053 C 
BRANCH   7   8
ATOM      8  C   UNL     1     109.663  52.584 224.717  1.00  0.00     0.041 C 
ATOM      9  O   UNL     1     109.379  51.747 225.614  1.00  0.00    -0.550 OA
ATOM     10  O   UNL     1     109.276  52.344 223.404  1.00  0.00    -0.550 OA
ENDBRANCH   7   8
ENDBRANCH   6   7
ENDBRANCH   5   6
ENDBRANCH   4   5
ENDBRANCH   3   4
ENDBRANCH   2   3
ENDBRANCH   1   2
BRANCH   1  11
ATOM     11  C   UNL     1     112.501  54.245 230.411  1.00  0.00     0.000 C 
BRANCH  11  12
ATOM     12  C   UNL     1     112.710  53.084 231.398  1.00  0.00    -0.000 C 
BRANCH  12  13
ATOM     13  C   UNL     1     113.700  53.410 232.537  1.00  0.00    -0.000 C 
BRANCH  13  14
ATOM     14  C   UNL     1     113.094  53.154 233.928  1.00  0.00    -0.000 C 
BRANCH  14  15
ATOM     15  C   UNL     1     111.908  54.095 234.231  1.00  0.00    -0.000 C 
BRANCH  15  16
ATOM     16  C   UNL     1     110.600  53.353 234.555  1.00  0.00    -0.000 C 
BRANCH  16  17
ATOM     17  C   UNL     1     109.651  53.263 233.354  1.00  0.00    -0.003 C 
ATOM     18  C   UNL     1     109.676  51.869 232.736  1.00  0.00     0.004 C 
ENDBRANCH  16  17
ENDBRANCH  15  16
ENDBRANCH  14  15
ENDBRANCH  13  14
ENDBRANCH  12  13
ENDBRANCH  11  12
ENDBRANCH   1  11
TORSDOF 14
ENDMDL
MODEL 2
REMARK VINA RESULT:    -3.599      1.908      3.388
REMARK INTER + INTRA:          -7.811
REMARK INTER:                  -5.445
REMARK INTRA:                  -2.366
REMARK UNBOUND:                -1.266
REMARK SMILES CCCCCCCCCCCCCCCC(=O)[O-]
REMARK SMILES IDX 9 1 10 2 11 3 12 4 13 5 14 6 15 7 16 8 17 9 18 10 8 11 7 12
REMARK SMILES IDX 6 13 5 14 4 15 3 16 2 17 1 18
REMARK H PARENT
REMARK Flexibility Score: inf
ROOT
ATOM      1  C   UNL     1     111.054  56.737 230.911  1.00  0.00     0.000 C 
ENDROOT
BRANCH   1   2
ATOM      2  C   UNL     1     110.591  55.812 229.779  1.00  0.00     0.000 C 
BRANCH   2   3
ATOM      3  C   UNL     1     111.429  56.033 228.512  1.00  0.00     0.000 C 
BRANCH   3   4
ATOM      4  C   UNL     1     112.927  56.200 228.814  1.00  0.00     0.000 C 
BRANCH   4   5
ATOM      5  C   UNL     1     113.789  55.113 228.148  1.00  0.00     0.000 C 
BRANCH   5   6
ATOM      6  C   UNL     1     113.032  53.789 227.966  1.00  0.00     0.006 C 
BRANCH   6   7
ATOM      7  C   UNL     1     113.254  53.169 226.581  1.00  0.00     0.053 C 
BRANCH   7   8
ATOM      8  C   UNL     1     112.103  53.483 225.678  1.00  0.00     0.041 C 
ATOM      9  O   UNL     1     112.253  54.278 224.714  1.00  0.00    -0.550 OA
ATOM     10  O   UNL     1     110.851  52.935 225.931  1.00  0.00    -0.550 OA
ENDBRANCH   7   8
ENDBRANCH   6   7
ENDBRANCH   5   6
ENDBRANCH   4   5
ENDBRANCH   3   4
ENDBRANCH   2   3
ENDBRANCH   1   2
BRANCH   1  11
ATOM     11  C   UNL     1     110.553  56.237 232.272  1.00  0.00     0.000 C 
BRANCH  11  12
ATOM     12  C   UNL     1     109.628  55.014 232.157  1.00  0.00    -0.000 C 
BRANCH  12  13
ATOM     13  C   UNL     1     109.974  53.879 233.145  1.00  0.00    -0.000 C 
BRANCH  13  14
ATOM     14  C   UNL     1     110.706  52.712 232.458  1.00  0.00    -0.000 C 
BRANCH  14  15
ATOM     15  C   UNL     1     112.235  52.780 232.661  1.00  0.00    -0.000 C 
BRANCH  15  16
ATOM     16  C   UNL     1     112.977  53.486 231.513  1.00  0.00    -0.000 C 
BRANCH  16  17
ATOM     17  C   UNL     1     113.949  54.565 232.005  1.00  0.00    -0.003 C 
ATOM     18  C   UNL     1     113.769  54.829 233.498  1.00  0.00     0.004 C 
ENDBRANCH  16  17
ENDBRANCH  15  16
ENDBRANCH  14  15
ENDBRANCH  13  14
ENDBRANCH  12  13
ENDBRANCH  11  12
ENDBRANCH   1  11
TORSDOF 14
ENDMDL
MODEL 3
REMARK VINA RESULT:    -3.564      2.913      6.702
REMARK INTER + INTRA:          -7.746
REMARK INTER:                  -6.140
REMARK INTRA:                  -1.607
REMARK UNBOUND:                -1.266
REMARK SMILES CCCCCCCCCCCCCCCC(=O)[O-]
REMARK SMILES IDX 9 1 10 2 11 3 12 4 13 5 14 6 15 7 16 8 17 9 18 10 8 11 7 12
REMARK SMILES IDX 6 13 5 14 4 15 3 16 2 17 1 18
REMARK H PARENT
REMARK Flexibility Score: inf
ROOT
ATOM      1  C   UNL     1     113.720  55.980 228.741  1.00  0.00     0.000 C 
ENDROOT
BRANCH   1   2
ATOM      2  C   UNL     1     112.623  55.425 229.658  1.00  0.00     0.000 C 
BRANCH   2   3
ATOM      3  C   UNL     1     113.232  54.733 230.886  1.00  0.00     0.000 C 
BRANCH   3   4
ATOM      4  C   UNL     1     112.619  53.349 231.151  1.00  0.00     0.000 C 
BRANCH   4   5
ATOM      5  C   UNL     1     112.878  52.852 232.584  1.00  0.00     0.000 C 
BRANCH   5   6
ATOM      6  C   UNL     1     111.632  52.952 233.478  1.00  0.00     0.006 C 
BRANCH   6   7
ATOM      7  C   UNL     1     110.350  53.203 232.675  1.00  0.00     0.053 C 
BRANCH   7   8
ATOM      8  C   UNL     1     109.337  52.141 232.966  1.00  0.00     0.041 C 
ATOM      9  O   UNL     1     108.313  52.411 233.647  1.00  0.00    -0.550 OA
ATOM     10  O   UNL     1     109.547  50.840 232.525  1.00  0.00    -0.550 OA
ENDBRANCH   7   8
ENDBRANCH   6   7
ENDBRANCH   5   6
ENDBRANCH   4   5
ENDBRANCH   3   4
ENDBRANCH   2   3
ENDBRANCH   1   2
BRANCH   1  11
ATOM     11  C   UNL     1     113.684  55.301 227.366  1.00  0.00     0.000 C 
BRANCH  11  12
ATOM     12  C   UNL     1     113.403  53.791 227.451  1.00  0.00    -0.000 C 
BRANCH  12  13
ATOM     13  C   UNL     1     112.676  53.225 226.212  1.00  0.00    -0.000 C 
BRANCH  13  14
ATOM     14  C   UNL     1     111.826  54.290 225.497  1.00  0.00    -0.000 C 
BRANCH  14  15
ATOM     15  C   UNL     1     110.316  54.103 225.756  1.00  0.00    -0.000 C 
BRANCH  15  16
ATOM     16  C   UNL     1     109.570  55.421 226.030  1.00  0.00    -0.000 C 
BRANCH  16  17
ATOM     17  C   UNL     1     109.899  56.018 227.403  1.00  0.00    -0.003 C 
ATOM     18  C   UNL     1     110.275  57.493 227.286  1.00  0.00     0.004 C 
ENDBRANCH  16  17
ENDBRANCH  15  16
ENDBRANCH  14  15
ENDBRANCH  13  14
ENDBRANCH  12  13
ENDBRANCH  11  12
ENDBRANCH   1  11
TORSDOF 14
ENDMDL
MODEL 4
REMARK VINA RESULT:    -3.502      1.714      2.284
REMARK INTER + INTRA:          -7.634
REMARK INTER:                  -6.124
REMARK INTRA:                  -1.511
REMARK UNBOUND:                -1.266
REMARK SMILES CCCCCCCCCCCCCCCC(=O)[O-]
REMARK SMILES IDX 9 1 10 2 11 3 12 4 13 5 14 6 15 7 16 8 17 9 18 10 8 11 7 12
REMARK SMILES IDX 6 13 5 14 4 15 3 16 2 17 1 18
REMARK H PARENT
REMARK Flexibility Score: inf
ROOT
ATOM      1  C   UNL     1     113.697  55.209 230.543  1.00  0.00     0.000 C 
ENDROOT
BRANCH   1   2
ATOM      2  C   UNL     1     112.780  54.707 229.421  1.00  0.00     0.000 C 
BRANCH   2   3
ATOM      3  C   UNL     1     113.545  54.598 228.094  1.00  0.00     0.000 C 
BRANCH   3   4
ATOM      4  C   UNL     1     113.263  53.280 227.355  1.00  0.00     0.000 C 
BRANCH   4   5
ATOM      5  C   UNL     1     113.277  53.446 225.825  1.00  0.00     0.000 C 
BRANCH   5   6
ATOM      6  C   UNL     1     111.964  54.031 225.283  1.00  0.00     0.006 C 
BRANCH   6   7
ATOM      7  C   UNL     1     110.733  53.518 226.040  1.00  0.00     0.053 C 
BRANCH   7   8
ATOM      8  C   UNL     1     109.865  52.705 225.134  1.00  0.00     0.041 C 
ATOM      9  O   UNL     1     109.260  51.693 225.575  1.00  0.00    -0.550 OA
ATOM     10  O   UNL     1     109.763  53.034 223.787  1.00  0.00    -0.550 OA
ENDBRANCH   7   8
ENDBRANCH   6   7
ENDBRANCH   5   6
ENDBRANCH   4   5
ENDBRANCH   3   4
ENDBRANCH   2   3
ENDBRANCH   1   2
BRANCH   1  11
ATOM     11  C   UNL     1     113.590  54.313 231.785  1.00  0.00     0.000 C 
BRANCH  11  12
ATOM     12  C   UNL     1     112.675  53.096 231.567  1.00  0.00    -0.000 C 
BRANCH  12  13
ATOM     13  C   UNL     1     111.797  52.754 232.791  1.00  0.00    -0.000 C 
BRANCH  13  14
ATOM     14  C   UNL     1     110.296  52.940 232.501  1.00  0.00    -0.000 C 
BRANCH  14  15
ATOM     15  C   UNL     1     109.784  54.328 232.940  1.00  0.00    -0.000 C 
BRANCH  15  16
ATOM     16  C   UNL     1     109.576  55.306 231.771  1.00  0.00    -0.000 C 
BRANCH  16  17
ATOM     17  C   UNL     1     110.531  56.505 231.819  1.00  0.00    -0.003 C 
ATOM     18  C   UNL     1     109.760  57.821 231.871  1.00  0.00     0.004 C 
ENDBRANCH  16  17
ENDBRANCH  15  16
ENDBRANCH  14  15
ENDBRANCH  13  14
ENDBRANCH  12  13
ENDBRANCH  11  12
ENDBRANCH   1  11
TORSDOF 14
ENDMDL
MODEL 5
REMARK VINA RESULT:    -3.393      3.142      6.579
REMARK INTER + INTRA:          -7.436
REMARK INTER:                  -5.527
REMARK INTRA:                  -1.909
REMARK UNBOUND:                -1.266
REMARK SMILES CCCCCCCCCCCCCCCC(=O)[O-]
REMARK SMILES IDX 9 1 10 2 11 3 12 4 13 5 14 6 15 7 16 8 17 9 18 10 8 11 7 12
REMARK SMILES IDX 6 13 5 14 4 15 3 16 2 17 1 18
REMARK H PARENT
REMARK Flexibility Score: inf
ROOT
ATOM      1  C   UNL     1     111.026  56.834 230.898  1.00  0.00     0.000 C 
ENDROOT
BRANCH   1   2
ATOM      2  C   UNL     1     111.900  56.502 232.113  1.00  0.00     0.000 C 
BRANCH   2   3
ATOM      3  C   UNL     1     113.320  56.111 231.678  1.00  0.00     0.000 C 
BRANCH   3   4
ATOM      4  C   UNL     1     113.831  54.849 232.391  1.00  0.00     0.000 C 
BRANCH   4   5
ATOM      5  C   UNL     1     113.280  53.554 231.769  1.00  0.00     0.000 C 
BRANCH   5   6
ATOM      6  C   UNL     1     112.289  52.831 232.695  1.00  0.00     0.006 C 
BRANCH   6   7
ATOM      7  C   UNL     1     110.831  53.013 232.255  1.00  0.00     0.053 C 
BRANCH   7   8
ATOM      8  C   UNL     1     109.900  52.547 233.329  1.00  0.00     0.041 C 
ATOM      9  O   UNL     1     110.130  52.831 234.534  1.00  0.00    -0.550 OA
ATOM     10  O   UNL     1     108.804  51.757 233.005  1.00  0.00    -0.550 OA
ENDBRANCH   7   8
ENDBRANCH   6   7
ENDBRANCH   5   6
ENDBRANCH   4   5
ENDBRANCH   3   4
ENDBRANCH   2   3
ENDBRANCH   1   2
BRANCH   1  11
ATOM     11  C   UNL     1     111.364  55.923 229.711  1.00  0.00     0.000 C 
BRANCH  11  12
ATOM     12  C   UNL     1     111.817  56.705 228.466  1.00  0.00    -0.000 C 
BRANCH  12  13
ATOM     13  C   UNL     1     112.930  55.998 227.662  1.00  0.00    -0.000 C 
BRANCH  13  14
ATOM     14  C   UNL     1     113.385  54.686 228.324  1.00  0.00    -0.000 C 
BRANCH  14  15
ATOM     15  C   UNL     1     112.905  53.442 227.546  1.00  0.00    -0.000 C 
BRANCH  15  16
ATOM     16  C   UNL     1     112.666  53.705 226.049  1.00  0.00    -0.000 C 
BRANCH  16  17
ATOM     17  C   UNL     1     111.271  53.271 225.582  1.00  0.00    -0.003 C 
ATOM     18  C   UNL     1     110.237  54.360 225.855  1.00  0.00     0.004 C 
ENDBRANCH  16  17
ENDBRANCH  15  16
ENDBRANCH  14  15
ENDBRANCH  13  14
ENDBRANCH  12  13
ENDBRANCH  11  12
ENDBRANCH   1  11
TORSDOF 14
ENDMDL
MODEL 6
REMARK VINA RESULT:    -3.393     15.932     18.119
REMARK INTER + INTRA:          -7.436
REMARK INTER:                  -4.926
REMARK INTRA:                  -2.509
REMARK UNBOUND:                -1.266
REMARK SMILES CCCCCCCCCCCCCCCC(=O)[O-]
REMARK SMILES IDX 9 1 10 2 11 3 12 4 13 5 14 6 15 7 16 8 17 9 18 10 8 11 7 12
REMARK SMILES IDX 6 13 5 14 4 15 3 16 2 17 1 18
REMARK H PARENT
REMARK Flexibility Score: inf
ROOT
ATOM      1  C   UNL     1      96.788  64.311 227.954  1.00  0.00     0.000 C 
ENDROOT
BRANCH   1   2
ATOM      2  C   UNL     1      96.690  62.874 227.426  1.00  0.00     0.000 C 
BRANCH   2   3
ATOM      3  C   UNL     1      98.040  62.401 226.868  1.00  0.00     0.000 C 
BRANCH   3   4
ATOM      4  C   UNL     1      99.236  63.071 227.565  1.00  0.00     0.000 C 
BRANCH   4   5
ATOM      5  C   UNL     1     100.584  62.666 226.943  1.00  0.00     0.000 C 
BRANCH   5   6
ATOM      6  C   UNL     1     100.419  61.925 225.607  1.00  0.00     0.006 C 
BRANCH   6   7
ATOM      7  C   UNL     1     101.261  62.540 224.484  1.00  0.00     0.053 C 
BRANCH   7   8
ATOM      8  C   UNL     1     102.701  62.598 224.882  1.00  0.00     0.041 C 
ATOM      9  O   UNL     1     103.311  61.546 225.209  1.00  0.00    -0.550 OA
ATOM     10  O   UNL     1     103.358  63.821 224.942  1.00  0.00    -0.550 OA
ENDBRANCH   7   8
ENDBRANCH   6   7
ENDBRANCH   5   6
ENDBRANCH   4   5
ENDBRANCH   3   4
ENDBRANCH   2   3
ENDBRANCH   1   2
BRANCH   1  11
ATOM     11  C   UNL     1      95.747  65.217 227.283  1.00  0.00     0.000 C 
BRANCH  11  12
ATOM     12  C   UNL     1      94.981  64.512 226.150  1.00  0.00    -0.000 C 
BRANCH  12  13
ATOM     13  C   UNL     1      94.615  65.444 224.975  1.00  0.00    -0.000 C 
BRANCH  13  14
ATOM     14  C   UNL     1      95.715  65.485 223.899  1.00  0.00    -0.000 C 
BRANCH  14  15
ATOM     15  C   UNL     1      96.636  64.248 223.956  1.00  0.00    -0.000 C 
BRANCH  15  16
ATOM     16  C   UNL     1      98.119  64.593 224.172  1.00  0.00    -0.000 C 
BRANCH  16  17
ATOM     17  C   UNL     1      98.347  66.077 224.484  1.00  0.00    -0.003 C 
ATOM     18  C   UNL     1      99.234  66.251 225.713  1.00  0.00     0.004 C 
ENDBRANCH  16  17
ENDBRANCH  15  16
ENDBRANCH  14  15
ENDBRANCH  13  14
ENDBRANCH  12  13
ENDBRANCH  11  12
ENDBRANCH   1  11
TORSDOF 14
ENDMDL
MODEL 7
REMARK VINA RESULT:    -3.357      2.868      6.976
REMARK INTER + INTRA:          -7.370
REMARK INTER:                  -6.353
REMARK INTRA:                  -1.017
REMARK UNBOUND:                -1.266
REMARK SMILES CCCCCCCCCCCCCCCC(=O)[O-]
REMARK SMILES IDX 9 1 10 2 11 3 12 4 13 5 14 6 15 7 16 8 17 9 18 10 8 11 7 12
REMARK SMILES IDX 6 13 5 14 4 15 3 16 2 17 1 18
REMARK H PARENT
REMARK Flexibility Score: inf
ROOT
ATOM      1  C   UNL     1     113.676  56.087 228.814  1.00  0.00     0.000 C 
ENDROOT
BRANCH   1   2
ATOM      2  C   UNL     1     112.581  55.505 229.716  1.00  0.00     0.000 C 
BRANCH   2   3
ATOM      3  C   UNL     1     113.193  54.776 230.922  1.00  0.00     0.000 C 
BRANCH   3   4
ATOM      4  C   UNL     1     112.603  53.372 231.127  1.00  0.00     0.000 C 
BRANCH   4   5
ATOM      5  C   UNL     1     112.845  52.830 232.546  1.00  0.00     0.000 C 
BRANCH   5   6
ATOM      6  C   UNL     1     111.607  52.962 233.447  1.00  0.00     0.006 C 
BRANCH   6   7
ATOM      7  C   UNL     1     110.320  53.198 232.649  1.00  0.00     0.053 C 
BRANCH   7   8
ATOM      8  C   UNL     1     109.316  52.131 232.950  1.00  0.00     0.041 C 
ATOM      9  O   UNL     1     108.297  52.396 233.640  1.00  0.00    -0.550 OA
ATOM     10  O   UNL     1     109.530  50.830 232.511  1.00  0.00    -0.550 OA
ENDBRANCH   7   8
ENDBRANCH   6   7
ENDBRANCH   5   6
ENDBRANCH   4   5
ENDBRANCH   3   4
ENDBRANCH   2   3
ENDBRANCH   1   2
BRANCH   1  11
ATOM     11  C   UNL     1     113.694  55.388 227.448  1.00  0.00     0.000 C 
BRANCH  11  12
ATOM     12  C   UNL     1     113.744  53.855 227.560  1.00  0.00    -0.000 C 
BRANCH  12  13
ATOM     13  C   UNL     1     113.129  53.124 226.347  1.00  0.00    -0.000 C 
BRANCH  13  14
ATOM     14  C   UNL     1     112.203  54.038 225.523  1.00  0.00    -0.000 C 
BRANCH  14  15
ATOM     15  C   UNL     1     110.711  53.714 225.749  1.00  0.00    -0.000 C 
BRANCH  15  16
ATOM     16  C   UNL     1     109.776  54.367 224.717  1.00  0.00    -0.000 C 
BRANCH  16  17
ATOM     17  C   UNL     1     108.927  53.346 223.950  1.00  0.00    -0.003 C 
ATOM     18  C   UNL     1     109.260  51.920 224.380  1.00  0.00     0.004 C 
ENDBRANCH  16  17
ENDBRANCH  15  16
ENDBRANCH  14  15
ENDBRANCH  13  14
ENDBRANCH  12  13
ENDBRANCH  11  12
ENDBRANCH   1  11
TORSDOF 14
ENDMDL
MODEL 8
REMARK VINA RESULT:    -3.349      2.497      3.071
REMARK INTER + INTRA:          -7.356
REMARK INTER:                  -5.667
REMARK INTRA:                  -1.688
REMARK UNBOUND:                -1.266
REMARK SMILES CCCCCCCCCCCCCCCC(=O)[O-]
REMARK SMILES IDX 9 1 10 2 11 3 12 4 13 5 14 6 15 7 16 8 17 9 18 10 8 11 7 12
REMARK SMILES IDX 6 13 5 14 4 15 3 16 2 17 1 18
REMARK H PARENT
REMARK Flexibility Score: inf
ROOT
ATOM      1  C   UNL     1     113.233  55.042 229.443  1.00  0.00     0.000 C 
ENDROOT
BRANCH   1   2
ATOM      2  C   UNL     1     112.981  53.892 228.460  1.00  0.00     0.000 C 
BRANCH   2   3
ATOM      3  C   UNL     1     113.688  54.150 227.121  1.00  0.00     0.000 C 
BRANCH   3   4
ATOM      4  C   UNL     1     112.974  53.479 225.936  1.00  0.00     0.000 C 
BRANCH   4   5
ATOM      5  C   UNL     1     111.444  53.475 226.094  1.00  0.00     0.000 C 
BRANCH   5   6
ATOM      6  C   UNL     1     110.773  54.654 225.371  1.00  0.00     0.006 C 
BRANCH   6   7
ATOM      7  C   UNL     1     109.693  55.330 226.224  1.00  0.00     0.053 C 
BRANCH   7   8
ATOM      8  C   UNL     1     110.320  56.133 227.319  1.00  0.00     0.041 C 
ATOM      9  O   UNL     1     109.822  56.126 228.475  1.00  0.00    -0.550 OA
ATOM     10  O   UNL     1     111.427  56.930 227.051  1.00  0.00    -0.550 OA
ENDBRANCH   7   8
ENDBRANCH   6   7
ENDBRANCH   5   6
ENDBRANCH   4   5
ENDBRANCH   3   4
ENDBRANCH   2   3
ENDBRANCH   1   2
BRANCH   1  11
ATOM     11  C   UNL     1     113.451  54.512 230.866  1.00  0.00     0.000 C 
BRANCH  11  12
ATOM     12  C   UNL     1     112.344  53.547 231.322  1.00  0.00    -0.000 C 
BRANCH  12  13
ATOM     13  C   UNL     1     112.782  52.591 232.453  1.00  0.00    -0.000 C 
BRANCH  13  14
ATOM     14  C   UNL     1     114.124  53.006 233.081  1.00  0.00    -0.000 C 
BRANCH  14  15
ATOM     15  C   UNL     1     113.971  53.435 234.556  1.00  0.00    -0.000 C 
BRANCH  15  16
ATOM     16  C   UNL     1     113.886  54.959 234.749  1.00  0.00    -0.000 C 
BRANCH  16  17
ATOM     17  C   UNL     1     112.444  55.464 234.884  1.00  0.00    -0.003 C 
ATOM     18  C   UNL     1     112.085  56.414 233.745  1.00  0.00     0.004 C 
ENDBRANCH  16  17
ENDBRANCH  15  16
ENDBRANCH  14  15
ENDBRANCH  13  14
ENDBRANCH  12  13
ENDBRANCH  11  12
ENDBRANCH   1  11
TORSDOF 14
ENDMDL
MODEL 9
REMARK VINA RESULT:    -3.315      2.070      2.714
REMARK INTER + INTRA:          -7.294
REMARK INTER:                  -5.173
REMARK INTRA:                  -2.120
REMARK UNBOUND:                -1.266
REMARK SMILES CCCCCCCCCCCCCCCC(=O)[O-]
REMARK SMILES IDX 9 1 10 2 11 3 12 4 13 5 14 6 15 7 16 8 17 9 18 10 8 11 7 12
REMARK SMILES IDX 6 13 5 14 4 15 3 16 2 17 1 18
REMARK H PARENT
REMARK Flexibility Score: inf
ROOT
ATOM      1  C   UNL     1     111.091  56.632 231.525  1.00  0.00     0.000 C 
ENDROOT
BRANCH   1   2
ATOM      2  C   UNL     1     110.999  55.723 230.294  1.00  0.00     0.000 C 
BRANCH   2   3
ATOM      3  C   UNL     1     112.248  55.865 229.411  1.00  0.00     0.000 C 
BRANCH   3   4
ATOM      4  C   UNL     1     112.877  54.509 229.053  1.00  0.00     0.000 C 
BRANCH   4   5
ATOM      5  C   UNL     1     113.519  54.507 227.655  1.00  0.00     0.000 C 
BRANCH   5   6
ATOM      6  C   UNL     1     113.066  53.313 226.800  1.00  0.00     0.006 C 
BRANCH   6   7
ATOM      7  C   UNL     1     111.670  53.515 226.197  1.00  0.00     0.053 C 
BRANCH   7   8
ATOM      8  C   UNL     1     111.639  54.753 225.358  1.00  0.00     0.041 C 
ATOM      9  O   UNL     1     110.880  55.709 225.667  1.00  0.00    -0.550 OA
ATOM     10  O   UNL     1     112.412  54.832 224.206  1.00  0.00    -0.550 OA
ENDBRANCH   7   8
ENDBRANCH   6   7
ENDBRANCH   5   6
ENDBRANCH   4   5
ENDBRANCH   3   4
ENDBRANCH   2   3
ENDBRANCH   1   2
BRANCH   1  11
ATOM     11  C   UNL     1     112.541  56.755 232.012  1.00  0.00     0.000 C 
BRANCH  11  12
ATOM     12  C   UNL     1     112.764  56.120 233.395  1.00  0.00    -0.000 C 
BRANCH  12  13
ATOM     13  C   UNL     1     114.078  55.317 233.504  1.00  0.00    -0.000 C 
BRANCH  13  14
ATOM     14  C   UNL     1     114.078  54.073 232.598  1.00  0.00    -0.000 C 
BRANCH  14  15
ATOM     15  C   UNL     1     113.050  53.016 233.054  1.00  0.00    -0.000 C 
BRANCH  15  16
ATOM     16  C   UNL     1     111.960  52.725 232.008  1.00  0.00    -0.000 C 
BRANCH  16  17
ATOM     17  C   UNL     1     110.599  52.404 232.638  1.00  0.00    -0.003 C 
ATOM     18  C   UNL     1     110.077  53.584 233.452  1.00  0.00     0.004 C 
ENDBRANCH  16  17
ENDBRANCH  15  16
ENDBRANCH  14  15
ENDBRANCH  13  14
ENDBRANCH  12  13
ENDBRANCH  11  12
ENDBRANCH   1  11
TORSDOF 14
ENDMDL
