MODEL 1
REMARK VINA RESULT:     9.919      0.000      0.000
REMARK INTER + INTRA:          15.398
REMARK INTER:                  16.297
REMARK INTRA:                  -0.899
REMARK UNBOUND:                -0.899
REMARK SMILES C[C@H]1O[C@H](OC[C@@H]2O[C@H](Oc3c(-c4ccc(O)c(O)c4)oc4cc(O)cc(O)c4c3=O)[C@@H](O)[C@H](O)[C@H]2O)[C@@H](O)[C@@H](O)[C@H]1O
REMARK SMILES IDX 7 1 36 2 34 3 32 4 9 5 8 6 6 7 5 8 4 9 1 10 2 11 42 12 3 13
REMARK SMILES IDX 40 14 38 15 43 16 41 18 39 20 37 22 35 24 10 26 11 27 12 28
REMARK SMILES IDX 30 29 21 30 29 31 31 32 22 33 27 34 23 35 26 36 24 37 13 38
REMARK SMILES IDX 20 39 14 40 18 41 15 42 16 43 19 44 17 46 28 48 25 50 33 52
REMARK H PARENT 43 17 41 19 39 21 37 23 35 25 19 45 17 47 28 49 25 51 33 53
REMARK Flexibility Score: inf
ROOT
ATOM      1  C   UNL     1      -1.428 -17.724  13.781  1.00  0.00     0.180 C 
ATOM      2  C   UNL     1      -1.587 -16.531  14.760  1.00  0.00     0.177 C 
ATOM      3  C   UNL     1      -2.268 -15.325  14.090  1.00  0.00     0.180 C 
ATOM      4  C   UNL     1      -3.549 -15.767  13.350  1.00  0.00     0.214 C 
ATOM      5  C   UNL     1      -3.279 -16.974  12.423  1.00  0.00     0.339 C 
ATOM      6  O   UNL     1      -2.639 -18.053  13.099  1.00  0.00    -0.332 OA
ENDROOT
BRANCH   1   7
ATOM      7  C   UNL     1      -0.226 -17.651  12.815  1.00  0.00     0.198 C 
BRANCH   7   8
ATOM      8  O   UNL     1       0.722 -18.670  13.108  1.00  0.00    -0.347 OA
BRANCH   8   9
ATOM      9  C   UNL     1       1.702 -18.271  14.061  1.00  0.00     0.281 C 
ATOM     10  C   UNL     1       1.432 -19.125  17.651  1.00  0.00     0.041 C 
ATOM     11  C   UNL     1       2.075 -19.091  16.268  1.00  0.00     0.150 C 
ATOM     12  C   UNL     1       3.519 -18.491  16.317  1.00  0.00     0.174 C 
ATOM     13  O   UNL     1       1.195 -18.393  15.387  1.00  0.00    -0.344 OA
ATOM     14  C   UNL     1       4.085 -18.269  14.884  1.00  0.00     0.179 C 
ATOM     15  C   UNL     1       3.152 -18.846  13.804  1.00  0.00     0.202 C 
BRANCH  12  16
ATOM     16  O   UNL     1       3.534 -17.295  17.045  1.00  0.00    -0.388 OA
ATOM     17  H   UNL     1       3.525 -17.545  18.019  1.00  0.00     0.211 HD
ENDBRANCH  12  16
BRANCH  14  18
ATOM     18  O   UNL     1       4.234 -16.885  14.605  1.00  0.00    -0.387 OA
ATOM     19  H   UNL     1       4.371 -16.810  13.631  1.00  0.00     0.211 HD
ENDBRANCH  14  18
BRANCH  15  20
ATOM     20  O   UNL     1       3.650 -18.547  12.518  1.00  0.00    -0.385 OA
ATOM     21  H   UNL     1       2.899 -18.532  11.863  1.00  0.00     0.211 HD
ENDBRANCH  15  20
ENDBRANCH   8   9
ENDBRANCH   7   8
ENDBRANCH   1   7
BRANCH   2  22
ATOM     22  O   UNL     1      -2.375 -16.952  15.863  1.00  0.00    -0.387 OA
ATOM     23  H   UNL     1      -2.448 -16.175  16.473  1.00  0.00     0.211 HD
ENDBRANCH   2  22
BRANCH   3  24
ATOM     24  O   UNL     1      -1.373 -14.707  13.216  1.00  0.00    -0.387 OA
ATOM     25  H   UNL     1      -0.558 -14.536  13.751  1.00  0.00     0.211 HD
ENDBRANCH   3  24
BRANCH   5  26
ATOM     26  O   UNL     1      -2.556 -16.547  11.264  1.00  0.00    -0.454 OA
BRANCH  26  27
ATOM     27  C   UNL     1      -3.059 -16.119  10.020  1.00  0.00     0.214 A 
ATOM     28  C   UNL     1      -2.340 -15.141   9.280  1.00  0.00     0.180 A 
ATOM     29  C   UNL     1      -4.245 -16.631   9.455  1.00  0.00     0.239 A 
ATOM     30  O   UNL     1      -2.589 -14.999   7.974  1.00  0.00    -0.452 OA
ATOM     31  C   UNL     1      -4.574 -16.301   8.119  1.00  0.00     0.111 A 
ATOM     32  O   UNL     1      -4.965 -17.439  10.100  1.00  0.00    -0.285 OA
ATOM     33  C   UNL     1      -3.619 -15.592   7.362  1.00  0.00     0.146 A 
ATOM     34  C   UNL     1      -5.818 -16.623   7.509  1.00  0.00     0.134 A 
ATOM     35  C   UNL     1      -3.781 -15.472   5.978  1.00  0.00     0.094 A 
ATOM     36  C   UNL     1      -5.959 -16.519   6.123  1.00  0.00     0.093 A 
ATOM     37  C   UNL     1      -4.932 -15.976   5.351  1.00  0.00     0.123 A 
BRANCH  28  38
ATOM     38  C   UNL     1      -1.432 -14.163   9.938  1.00  0.00     0.025 A 
ATOM     39  C   UNL     1      -0.079 -14.102   9.539  1.00  0.00     0.062 A 
ATOM     40  C   UNL     1      -1.894 -13.186  10.829  1.00  0.00     0.016 A 
ATOM     41  C   UNL     1       0.750 -13.040   9.928  1.00  0.00     0.158 A 
ATOM     42  C   UNL     1      -1.089 -12.100  11.177  1.00  0.00     0.051 A 
ATOM     43  C   UNL     1       0.231 -12.000  10.709  1.00  0.00     0.157 A 
BRANCH  41  44
ATOM     44  O   UNL     1       2.078 -13.033   9.521  1.00  0.00    -0.504 OA
ATOM     45  H   UNL     1       2.346 -12.854   8.558  1.00  0.00     0.293 HD
ENDBRANCH  41  44
BRANCH  43  46
ATOM     46  O   UNL     1       1.000 -10.882  11.013  1.00  0.00    -0.504 OA
ATOM     47  H   UNL     1       0.721  -9.990  10.639  1.00  0.00     0.293 HD
ENDBRANCH  43  46
ENDBRANCH  28  38
BRANCH  34  48
ATOM     48  O   UNL     1      -6.950 -16.923   8.255  1.00  0.00    -0.507 OA
ATOM     49  H   UNL     1      -7.634 -16.233   8.479  1.00  0.00     0.293 HD
ENDBRANCH  34  48
BRANCH  37  50
ATOM     50  O   UNL     1      -5.064 -15.871   3.976  1.00  0.00    -0.508 OA
ATOM     51  H   UNL     1      -5.940 -16.110   3.504  1.00  0.00     0.293 HD
ENDBRANCH  37  50
ENDBRANCH  26  27
ENDBRANCH   5  26
BRANCH   4  52
ATOM     52  O   UNL     1      -4.535 -16.110  14.288  1.00  0.00    -0.384 OA
ATOM     53  H   UNL     1      -5.302 -15.488  14.137  1.00  0.00     0.211 HD
ENDBRANCH   4  52
TORSDOF 16
ENDMDL
MODEL 2
REMARK VINA RESULT:    10.459      2.279      3.149
REMARK INTER + INTRA:          16.286
REMARK INTER:                  17.586
REMARK INTRA:                  -1.301
REMARK UNBOUND:                -0.899
REMARK SMILES C[C@H]1O[C@H](OC[C@@H]2O[C@H](Oc3c(-c4ccc(O)c(O)c4)oc4cc(O)cc(O)c4c3=O)[C@@H](O)[C@H](O)[C@H]2O)[C@@H](O)[C@@H](O)[C@H]1O
REMARK SMILES IDX 7 1 36 2 34 3 32 4 9 5 8 6 6 7 5 8 4 9 1 10 2 11 42 12 3 13
REMARK SMILES IDX 40 14 38 15 43 16 41 18 39 20 37 22 35 24 10 26 11 27 12 28
REMARK SMILES IDX 30 29 21 30 29 31 31 32 22 33 27 34 23 35 26 36 24 37 13 38
REMARK SMILES IDX 20 39 14 40 18 41 15 42 16 43 19 44 17 46 28 48 25 50 33 52
REMARK H PARENT 43 17 41 19 39 21 37 23 35 25 19 45 17 47 28 49 25 51 33 53
REMARK Flexibility Score: inf
ROOT
ATOM      1  C   UNL     1       0.002 -18.372  14.644  1.00  0.00     0.180 C 
ATOM      2  C   UNL     1      -0.221 -17.513  15.917  1.00  0.00     0.177 C 
ATOM      3  C   UNL     1      -1.210 -16.361  15.665  1.00  0.00     0.180 C 
ATOM      4  C   UNL     1      -2.486 -16.882  14.970  1.00  0.00     0.214 C 
ATOM      5  C   UNL     1      -2.144 -17.743  13.732  1.00  0.00     0.339 C 
ATOM      6  O   UNL     1      -1.218 -18.785  14.028  1.00  0.00    -0.332 OA
ENDROOT
BRANCH   1   7
ATOM      7  C   UNL     1       1.005 -17.809  13.615  1.00  0.00     0.198 C 
BRANCH   7   8
ATOM      8  O   UNL     1       2.266 -18.456  13.730  1.00  0.00    -0.347 OA
BRANCH   8   9
ATOM      9  C   UNL     1       3.131 -17.839  14.679  1.00  0.00     0.281 C 
ATOM     10  C   UNL     1       3.528 -19.124  18.125  1.00  0.00     0.041 C 
ATOM     11  C   UNL     1       3.980 -18.708  16.730  1.00  0.00     0.150 C 
ATOM     12  C   UNL     1       5.120 -17.637  16.786  1.00  0.00     0.174 C 
ATOM     13  O   UNL     1       2.831 -18.281  15.999  1.00  0.00    -0.344 OA
ATOM     14  C   UNL     1       5.430 -17.069  15.371  1.00  0.00     0.179 C 
ATOM     15  C   UNL     1       4.658 -17.820  14.271  1.00  0.00     0.202 C 
BRANCH  12  16
ATOM     16  O   UNL     1       4.785 -16.604  17.671  1.00  0.00    -0.388 OA
ATOM     17  H   UNL     1       4.139 -16.989  18.339  1.00  0.00     0.211 HD
ENDBRANCH  12  16
BRANCH  14  18
ATOM     18  O   UNL     1       5.056 -15.702  15.278  1.00  0.00    -0.387 OA
ATOM     19  H   UNL     1       5.337 -15.278  16.122  1.00  0.00     0.211 HD
ENDBRANCH  14  18
BRANCH  15  20
ATOM     20  O   UNL     1       4.893 -17.221  13.015  1.00  0.00    -0.385 OA
ATOM     21  H   UNL     1       4.247 -16.475  12.874  1.00  0.00     0.211 HD
ENDBRANCH  15  20
ENDBRANCH   8   9
ENDBRANCH   7   8
ENDBRANCH   1   7
BRANCH   2  22
ATOM     22  O   UNL     1      -0.738 -18.347  16.943  1.00  0.00    -0.387 OA
ATOM     23  H   UNL     1      -0.713 -19.275  16.595  1.00  0.00     0.211 HD
ENDBRANCH   2  22
BRANCH   3  24
ATOM     24  O   UNL     1      -0.591 -15.371  14.900  1.00  0.00    -0.387 OA
ATOM     25  H   UNL     1      -1.280 -15.065  14.257  1.00  0.00     0.211 HD
ENDBRANCH   3  24
BRANCH   5  26
ATOM     26  O   UNL     1      -1.701 -16.903  12.661  1.00  0.00    -0.454 OA
BRANCH  26  27
ATOM     27  C   UNL     1      -2.389 -16.534  11.488  1.00  0.00     0.214 A 
ATOM     28  C   UNL     1      -2.804 -15.185  11.323  1.00  0.00     0.180 A 
ATOM     29  C   UNL     1      -2.674 -17.444  10.449  1.00  0.00     0.239 A 
ATOM     30  O   UNL     1      -3.115 -14.745  10.099  1.00  0.00    -0.452 OA
ATOM     31  C   UNL     1      -3.185 -16.955   9.223  1.00  0.00     0.111 A 
ATOM     32  O   UNL     1      -2.401 -18.667  10.574  1.00  0.00    -0.285 OA
ATOM     33  C   UNL     1      -3.246 -15.557   9.046  1.00  0.00     0.146 A 
ATOM     34  C   UNL     1      -3.660 -17.791   8.175  1.00  0.00     0.134 A 
ATOM     35  C   UNL     1      -3.492 -15.030   7.774  1.00  0.00     0.094 A 
ATOM     36  C   UNL     1      -3.881 -17.255   6.905  1.00  0.00     0.093 A 
ATOM     37  C   UNL     1      -3.765 -15.882   6.692  1.00  0.00     0.123 A 
BRANCH  28  38
ATOM     38  C   UNL     1      -3.056 -14.289  12.483  1.00  0.00     0.025 A 
ATOM     39  C   UNL     1      -4.232 -14.462  13.245  1.00  0.00     0.062 A 
ATOM     40  C   UNL     1      -2.102 -13.379  12.955  1.00  0.00     0.016 A 
ATOM     41  C   UNL     1      -4.398 -13.833  14.487  1.00  0.00     0.158 A 
ATOM     42  C   UNL     1      -2.238 -12.792  14.214  1.00  0.00     0.051 A 
ATOM     43  C   UNL     1      -3.373 -13.033  15.005  1.00  0.00     0.157 A 
BRANCH  41  44
ATOM     44  O   UNL     1      -5.580 -14.025  15.191  1.00  0.00    -0.504 OA
ATOM     45  H   UNL     1      -5.932 -13.339  15.851  1.00  0.00     0.293 HD
ENDBRANCH  41  44
BRANCH  43  46
ATOM     46  O   UNL     1      -3.465 -12.490  16.282  1.00  0.00    -0.504 OA
ATOM     47  H   UNL     1      -4.310 -12.640  16.809  1.00  0.00     0.293 HD
ENDBRANCH  43  46
ENDBRANCH  28  38
BRANCH  34  48
ATOM     48  O   UNL     1      -4.037 -19.110   8.397  1.00  0.00    -0.507 OA
ATOM     49  H   UNL     1      -3.396 -19.867   8.300  1.00  0.00     0.293 HD
ENDBRANCH  34  48
BRANCH  37  50
ATOM     50  O   UNL     1      -3.981 -15.343   5.434  1.00  0.00    -0.508 OA
ATOM     51  H   UNL     1      -3.975 -14.332   5.277  1.00  0.00     0.293 HD
ENDBRANCH  37  50
ENDBRANCH  26  27
ENDBRANCH   5  26
BRANCH   4  52
ATOM     52  O   UNL     1      -3.233 -17.647  15.878  1.00  0.00    -0.384 OA
ATOM     53  H   UNL     1      -3.224 -17.150  16.745  1.00  0.00     0.211 HD
ENDBRANCH   4  52
TORSDOF 16
ENDMDL
MODEL 3
REMARK VINA RESULT:    11.903      1.866      5.814
REMARK INTER + INTRA:          18.658
REMARK INTER:                  14.551
REMARK INTRA:                   4.107
REMARK UNBOUND:                -0.899
REMARK SMILES C[C@H]1O[C@H](OC[C@@H]2O[C@H](Oc3c(-c4ccc(O)c(O)c4)oc4cc(O)cc(O)c4c3=O)[C@@H](O)[C@H](O)[C@H]2O)[C@@H](O)[C@@H](O)[C@H]1O
REMARK SMILES IDX 7 1 36 2 34 3 32 4 9 5 8 6 6 7 5 8 4 9 1 10 2 11 42 12 3 13
REMARK SMILES IDX 40 14 38 15 43 16 41 18 39 20 37 22 35 24 10 26 11 27 12 28
REMARK SMILES IDX 30 29 21 30 29 31 31 32 22 33 27 34 23 35 26 36 24 37 13 38
REMARK SMILES IDX 20 39 14 40 18 41 15 42 16 43 19 44 17 46 28 48 25 50 33 52
REMARK H PARENT 43 17 41 19 39 21 37 23 35 25 19 45 17 47 28 49 25 51 33 53
REMARK Flexibility Score: inf
ROOT
ATOM      1  C   UNL     1      -3.974 -18.642  10.889  1.00  0.00     0.180 C 
ATOM      2  C   UNL     1      -4.847 -17.519  11.510  1.00  0.00     0.177 C 
ATOM      3  C   UNL     1      -4.832 -16.241  10.653  1.00  0.00     0.180 C 
ATOM      4  C   UNL     1      -5.115 -16.575   9.174  1.00  0.00     0.214 C 
ATOM      5  C   UNL     1      -4.207 -17.720   8.669  1.00  0.00     0.339 C 
ATOM      6  O   UNL     1      -4.257 -18.871   9.509  1.00  0.00    -0.332 OA
ENDROOT
BRANCH   1   7
ATOM      7  C   UNL     1      -2.457 -18.545  11.157  1.00  0.00     0.198 C 
BRANCH   7   8
ATOM      8  O   UNL     1      -2.137 -17.336  11.835  1.00  0.00    -0.347 OA
BRANCH   8   9
ATOM      9  C   UNL     1      -1.723 -17.538  13.182  1.00  0.00     0.281 C 
ATOM     10  C   UNL     1       1.678 -18.705  14.053  1.00  0.00     0.041 C 
ATOM     11  C   UNL     1       0.481 -17.760  14.062  1.00  0.00     0.150 C 
ATOM     12  C   UNL     1       0.001 -17.447  15.518  1.00  0.00     0.174 C 
ATOM     13  O   UNL     1      -0.535 -18.323  13.233  1.00  0.00    -0.344 OA
ATOM     14  C   UNL     1      -1.338 -16.654  15.511  1.00  0.00     0.179 C 
ATOM     15  C   UNL     1      -1.753 -16.243  14.088  1.00  0.00     0.202 C 
BRANCH  12  16
ATOM     16  O   UNL     1      -0.127 -18.628  16.261  1.00  0.00    -0.388 OA
ATOM     17  H   UNL     1      -0.708 -18.412  17.054  1.00  0.00     0.211 HD
ENDBRANCH  12  16
BRANCH  14  18
ATOM     18  O   UNL     1      -2.397 -17.440  16.039  1.00  0.00    -0.387 OA
ATOM     19  H   UNL     1      -2.020 -17.942  16.800  1.00  0.00     0.211 HD
ENDBRANCH  14  18
BRANCH  15  20
ATOM     20  O   UNL     1      -3.013 -15.607  14.111  1.00  0.00    -0.385 OA
ATOM     21  H   UNL     1      -3.038 -14.943  14.853  1.00  0.00     0.211 HD
ENDBRANCH  15  20
ENDBRANCH   8   9
ENDBRANCH   7   8
ENDBRANCH   1   7
BRANCH   2  22
ATOM     22  O   UNL     1      -6.182 -17.989  11.615  1.00  0.00    -0.387 OA
ATOM     23  H   UNL     1      -6.134 -18.978  11.654  1.00  0.00     0.211 HD
ENDBRANCH   2  22
BRANCH   3  24
ATOM     24  O   UNL     1      -3.603 -15.596  10.796  1.00  0.00    -0.387 OA
ATOM     25  H   UNL     1      -2.987 -16.063  10.177  1.00  0.00     0.211 HD
ENDBRANCH   3  24
BRANCH   5  26
ATOM     26  O   UNL     1      -2.873 -17.237   8.479  1.00  0.00    -0.454 OA
BRANCH  26  27
ATOM     27  C   UNL     1      -2.383 -15.924   8.619  1.00  0.00     0.214 A 
ATOM     28  C   UNL     1      -3.191 -14.834   8.196  1.00  0.00     0.180 A 
ATOM     29  C   UNL     1      -1.123 -15.631   9.181  1.00  0.00     0.239 A 
ATOM     30  O   UNL     1      -2.916 -13.605   8.647  1.00  0.00    -0.452 OA
ATOM     31  C   UNL     1      -0.791 -14.287   9.471  1.00  0.00     0.111 A 
ATOM     32  O   UNL     1      -0.332 -16.558   9.499  1.00  0.00    -0.285 OA
ATOM     33  C   UNL     1      -1.799 -13.312   9.321  1.00  0.00     0.146 A 
ATOM     34  C   UNL     1       0.503 -13.863   9.880  1.00  0.00     0.134 A 
ATOM     35  C   UNL     1      -1.605 -12.028   9.839  1.00  0.00     0.094 A 
ATOM     36  C   UNL     1       0.680 -12.585  10.415  1.00  0.00     0.093 A 
ATOM     37  C   UNL     1      -0.379 -11.677  10.428  1.00  0.00     0.123 A 
BRANCH  28  38
ATOM     38  C   UNL     1      -4.235 -14.985   7.148  1.00  0.00     0.025 A 
ATOM     39  C   UNL     1      -5.062 -13.884   6.834  1.00  0.00     0.062 A 
ATOM     40  C   UNL     1      -4.336 -16.125   6.341  1.00  0.00     0.016 A 
ATOM     41  C   UNL     1      -5.875 -13.883   5.691  1.00  0.00     0.158 A 
ATOM     42  C   UNL     1      -5.103 -16.110   5.175  1.00  0.00     0.051 A 
ATOM     43  C   UNL     1      -5.858 -14.980   4.823  1.00  0.00     0.157 A 
BRANCH  41  44
ATOM     44  O   UNL     1      -6.680 -12.780   5.434  1.00  0.00    -0.504 OA
ATOM     45  H   UNL     1      -6.666 -11.953   6.021  1.00  0.00     0.293 HD
ENDBRANCH  41  44
BRANCH  43  46
ATOM     46  O   UNL     1      -6.568 -14.957   3.627  1.00  0.00    -0.504 OA
ATOM     47  H   UNL     1      -6.286 -14.306   2.913  1.00  0.00     0.293 HD
ENDBRANCH  43  46
ENDBRANCH  28  38
BRANCH  34  48
ATOM     48  O   UNL     1       1.638 -14.633   9.653  1.00  0.00    -0.507 OA
ATOM     49  H   UNL     1       1.755 -15.169   8.821  1.00  0.00     0.293 HD
ENDBRANCH  34  48
BRANCH  37  50
ATOM     50  O   UNL     1      -0.212 -10.408  10.957  1.00  0.00    -0.508 OA
ATOM     51  H   UNL     1       0.672 -10.119  11.384  1.00  0.00     0.293 HD
ENDBRANCH  37  50
ENDBRANCH  26  27
ENDBRANCH   5  26
BRANCH   4  52
ATOM     52  O   UNL     1      -6.460 -16.948   9.028  1.00  0.00    -0.384 OA
ATOM     53  H   UNL     1      -6.943 -16.144   8.680  1.00  0.00     0.211 HD
ENDBRANCH   4  52
TORSDOF 16
ENDMDL
MODEL 4
REMARK VINA RESULT:    12.201      0.754      1.585
REMARK INTER + INTRA:          19.147
REMARK INTER:                  16.977
REMARK INTRA:                   2.170
REMARK UNBOUND:                -0.899
REMARK SMILES C[C@H]1O[C@H](OC[C@@H]2O[C@H](Oc3c(-c4ccc(O)c(O)c4)oc4cc(O)cc(O)c4c3=O)[C@@H](O)[C@H](O)[C@H]2O)[C@@H](O)[C@@H](O)[C@H]1O
REMARK SMILES IDX 7 1 36 2 34 3 32 4 9 5 8 6 6 7 5 8 4 9 1 10 2 11 42 12 3 13
REMARK SMILES IDX 40 14 38 15 43 16 41 18 39 20 37 22 35 24 10 26 11 27 12 28
REMARK SMILES IDX 30 29 21 30 29 31 31 32 22 33 27 34 23 35 26 36 24 37 13 38
REMARK SMILES IDX 20 39 14 40 18 41 15 42 16 43 19 44 17 46 28 48 25 50 33 52
REMARK H PARENT 43 17 41 19 39 21 37 23 35 25 19 45 17 47 28 49 25 51 33 53
REMARK Flexibility Score: inf
ROOT
ATOM      1  C   UNL     1      -1.549 -17.522  13.856  1.00  0.00     0.180 C 
ATOM      2  C   UNL     1      -1.704 -16.258  14.742  1.00  0.00     0.177 C 
ATOM      3  C   UNL     1      -2.356 -15.095  13.973  1.00  0.00     0.180 C 
ATOM      4  C   UNL     1      -3.632 -15.572  13.248  1.00  0.00     0.214 C 
ATOM      5  C   UNL     1      -3.367 -16.848  12.416  1.00  0.00     0.339 C 
ATOM      6  O   UNL     1      -2.754 -17.883  13.180  1.00  0.00    -0.332 OA
ENDROOT
BRANCH   1   7
ATOM      7  C   UNL     1      -0.332 -17.538  12.907  1.00  0.00     0.198 C 
BRANCH   7   8
ATOM      8  O   UNL     1       0.424 -18.732  13.071  1.00  0.00    -0.347 OA
BRANCH   8   9
ATOM      9  C   UNL     1       1.383 -18.652  14.121  1.00  0.00     0.281 C 
ATOM     10  C   UNL     1       4.779 -17.282  13.597  1.00  0.00     0.041 C 
ATOM     11  C   UNL     1       3.394 -17.376  14.227  1.00  0.00     0.150 C 
ATOM     12  C   UNL     1       3.474 -17.513  15.784  1.00  0.00     0.174 C 
ATOM     13  O   UNL     1       2.691 -18.446  13.595  1.00  0.00    -0.344 OA
ATOM     14  C   UNL     1       2.076 -17.816  16.395  1.00  0.00     0.179 C 
ATOM     15  C   UNL     1       0.959 -17.738  15.339  1.00  0.00     0.202 C 
BRANCH  12  16
ATOM     16  O   UNL     1       4.397 -18.502  16.147  1.00  0.00    -0.388 OA
ATOM     17  H   UNL     1       5.141 -18.041  16.643  1.00  0.00     0.211 HD
ENDBRANCH  12  16
BRANCH  14  18
ATOM     18  O   UNL     1       2.034 -19.124  16.946  1.00  0.00    -0.387 OA
ATOM     19  H   UNL     1       2.737 -19.642  16.489  1.00  0.00     0.211 HD
ENDBRANCH  14  18
BRANCH  15  20
ATOM     20  O   UNL     1      -0.278 -18.106  15.909  1.00  0.00    -0.385 OA
ATOM     21  H   UNL     1      -0.646 -17.341  16.431  1.00  0.00     0.211 HD
ENDBRANCH  15  20
ENDBRANCH   8   9
ENDBRANCH   7   8
ENDBRANCH   1   7
BRANCH   2  22
ATOM     22  O   UNL     1      -2.516 -16.585  15.860  1.00  0.00    -0.387 OA
ATOM     23  H   UNL     1      -3.412 -16.204  15.681  1.00  0.00     0.211 HD
ENDBRANCH   2  22
BRANCH   3  24
ATOM     24  O   UNL     1      -1.438 -14.556  13.071  1.00  0.00    -0.387 OA
ATOM     25  H   UNL     1      -0.892 -15.322  12.761  1.00  0.00     0.211 HD
ENDBRANCH   3  24
BRANCH   5  26
ATOM     26  O   UNL     1      -2.620 -16.518  11.241  1.00  0.00    -0.454 OA
BRANCH  26  27
ATOM     27  C   UNL     1      -3.095 -16.093   9.985  1.00  0.00     0.214 A 
ATOM     28  C   UNL     1      -2.348 -15.133   9.249  1.00  0.00     0.180 A 
ATOM     29  C   UNL     1      -4.280 -16.591   9.405  1.00  0.00     0.239 A 
ATOM     30  O   UNL     1      -2.574 -14.998   7.938  1.00  0.00    -0.452 OA
ATOM     31  C   UNL     1      -4.582 -16.268   8.061  1.00  0.00     0.111 A 
ATOM     32  O   UNL     1      -5.024 -17.382  10.044  1.00  0.00    -0.285 OA
ATOM     33  C   UNL     1      -3.603 -15.580   7.314  1.00  0.00     0.146 A 
ATOM     34  C   UNL     1      -5.819 -16.575   7.432  1.00  0.00     0.134 A 
ATOM     35  C   UNL     1      -3.740 -15.469   5.927  1.00  0.00     0.094 A 
ATOM     36  C   UNL     1      -5.936 -16.481   6.044  1.00  0.00     0.093 A 
ATOM     37  C   UNL     1      -4.888 -15.961   5.284  1.00  0.00     0.123 A 
BRANCH  28  38
ATOM     38  C   UNL     1      -1.437 -14.164   9.914  1.00  0.00     0.025 A 
ATOM     39  C   UNL     1      -0.081 -14.112   9.522  1.00  0.00     0.062 A 
ATOM     40  C   UNL     1      -1.895 -13.185  10.805  1.00  0.00     0.016 A 
ATOM     41  C   UNL     1       0.754 -13.058   9.918  1.00  0.00     0.158 A 
ATOM     42  C   UNL     1      -1.083 -12.107  11.159  1.00  0.00     0.051 A 
ATOM     43  C   UNL     1       0.240 -12.016  10.698  1.00  0.00     0.157 A 
BRANCH  41  44
ATOM     44  O   UNL     1       2.085 -13.060   9.516  1.00  0.00    -0.504 OA
ATOM     45  H   UNL     1       2.828 -13.406  10.115  1.00  0.00     0.293 HD
ENDBRANCH  41  44
BRANCH  43  46
ATOM     46  O   UNL     1       1.016 -10.905  11.009  1.00  0.00    -0.504 OA
ATOM     47  H   UNL     1       1.152 -10.669  11.978  1.00  0.00     0.293 HD
ENDBRANCH  43  46
ENDBRANCH  28  38
BRANCH  34  48
ATOM     48  O   UNL     1      -6.969 -16.850   8.162  1.00  0.00    -0.507 OA
ATOM     49  H   UNL     1      -7.839 -17.056   7.721  1.00  0.00     0.293 HD
ENDBRANCH  34  48
BRANCH  37  50
ATOM     50  O   UNL     1      -4.996 -15.866   3.907  1.00  0.00    -0.508 OA
ATOM     51  H   UNL     1      -4.670 -15.039   3.401  1.00  0.00     0.293 HD
ENDBRANCH  37  50
ENDBRANCH  26  27
ENDBRANCH   5  26
BRANCH   4  52
ATOM     52  O   UNL     1      -4.638 -15.830  14.192  1.00  0.00    -0.384 OA
ATOM     53  H   UNL     1      -5.510 -15.677  13.730  1.00  0.00     0.211 HD
ENDBRANCH   4  52
TORSDOF 16
ENDMDL
