MODEL 1
REMARK VINA RESULT:    -3.471      0.000      0.000
REMARK INTER + INTRA:         -12.179
REMARK INTER:                  -8.747
REMARK INTRA:                  -3.431
REMARK UNBOUND:                -3.431
REMARK SMILES CCCCCCCCCCCCCCCCCCCCCCCCCCCC(=O)[O-]
REMARK SMILES IDX 15 1 16 2 17 3 18 4 19 5 20 6 21 7 22 8 23 9 24 10 25 11
REMARK SMILES IDX 26 12 27 13 28 14 29 15 30 16 14 17 13 18 12 19 11 20 10 21
REMARK SMILES IDX 9 22 8 23 7 24 6 25 5 26 4 27 3 28 2 29 1 30
REMARK H PARENT
REMARK Flexibility Score: inf
ROOT
ATOM      1  C   UNL     1       1.174   1.262  -9.314  1.00  0.00     0.000 C 
ENDROOT
BRANCH   1   2
ATOM      2  C   UNL     1       0.047   2.305  -9.230  1.00  0.00     0.000 C 
BRANCH   2   3
ATOM      3  C   UNL     1      -1.329   1.713  -9.585  1.00  0.00     0.000 C 
BRANCH   3   4
ATOM      4  C   UNL     1      -1.367   0.182  -9.470  1.00  0.00     0.000 C 
BRANCH   4   5
ATOM      5  C   UNL     1      -2.120  -0.299  -8.221  1.00  0.00     0.000 C 
BRANCH   5   6
ATOM      6  C   UNL     1      -1.142  -0.677  -7.100  1.00  0.00     0.000 C 
BRANCH   6   7
ATOM      7  C   UNL     1      -0.223  -1.851  -7.479  1.00  0.00     0.000 C 
BRANCH   7   8
ATOM      8  C   UNL     1       1.224  -1.691  -6.970  1.00  0.00     0.000 C 
BRANCH   8   9
ATOM      9  C   UNL     1       2.262  -2.198  -7.987  1.00  0.00     0.000 C 
BRANCH   9  10
ATOM     10  C   UNL     1       3.665  -2.329  -7.373  1.00  0.00     0.000 C 
BRANCH  10  11
ATOM     11  C   UNL     1       4.146  -1.023  -6.715  1.00  0.00     0.000 C 
BRANCH  11  12
ATOM     12  C   UNL     1       4.907  -1.279  -5.395  1.00  0.00     0.006 C 
BRANCH  12  13
ATOM     13  C   UNL     1       4.369  -2.482  -4.600  1.00  0.00     0.053 C 
BRANCH  13  14
ATOM     14  C   UNL     1       3.312  -2.084  -3.616  1.00  0.00     0.041 C 
ATOM     15  O   UNL     1       2.098  -2.321  -3.859  1.00  0.00    -0.550 OA
ATOM     16  O   UNL     1       3.670  -1.489  -2.413  1.00  0.00    -0.550 OA
ENDBRANCH  13  14
ENDBRANCH  12  13
ENDBRANCH  11  12
ENDBRANCH  10  11
ENDBRANCH   9  10
ENDBRANCH   8   9
ENDBRANCH   7   8
ENDBRANCH   6   7
ENDBRANCH   5   6
ENDBRANCH   4   5
ENDBRANCH   3   4
ENDBRANCH   2   3
ENDBRANCH   1   2
BRANCH   1  17
ATOM     17  C   UNL     1       2.568   1.908  -9.398  1.00  0.00     0.000 C 
BRANCH  17  18
ATOM     18  C   UNL     1       2.509   3.443  -9.439  1.00  0.00     0.000 C 
BRANCH  18  19
ATOM     19  C   UNL     1       3.909   4.085  -9.462  1.00  0.00     0.000 C 
BRANCH  19  20
ATOM     20  C   UNL     1       5.032   3.069  -9.210  1.00  0.00     0.000 C 
BRANCH  20  21
ATOM     21  C   UNL     1       6.403   3.738  -9.001  1.00  0.00     0.000 C 
BRANCH  21  22
ATOM     22  C   UNL     1       6.783   3.852  -7.517  1.00  0.00    -0.000 C 
BRANCH  22  23
ATOM     23  C   UNL     1       7.842   2.822  -7.096  1.00  0.00    -0.000 C 
BRANCH  23  24
ATOM     24  C   UNL     1       7.194   1.606  -6.422  1.00  0.00    -0.000 C 
BRANCH  24  25
ATOM     25  C   UNL     1       6.616   1.981  -5.053  1.00  0.00    -0.000 C 
BRANCH  25  26
ATOM     26  C   UNL     1       7.733   2.298  -4.048  1.00  0.00    -0.000 C 
BRANCH  26  27
ATOM     27  C   UNL     1       7.806   3.794  -3.703  1.00  0.00    -0.000 C 
BRANCH  27  28
ATOM     28  C   UNL     1       6.415   4.422  -3.498  1.00  0.00    -0.000 C 
BRANCH  28  29
ATOM     29  C   UNL     1       6.414   5.939  -3.744  1.00  0.00    -0.003 C 
ATOM     30  C   UNL     1       7.345   6.352  -4.883  1.00  0.00     0.004 C 
ENDBRANCH  28  29
ENDBRANCH  27  28
ENDBRANCH  26  27
ENDBRANCH  25  26
ENDBRANCH  24  25
ENDBRANCH  23  24
ENDBRANCH  22  23
ENDBRANCH  21  22
ENDBRANCH  20  21
ENDBRANCH  19  20
ENDBRANCH  18  19
ENDBRANCH  17  18
ENDBRANCH   1  17
TORSDOF 26
ENDMDL
MODEL 2
REMARK VINA RESULT:    -3.459      3.074      5.689
REMARK INTER + INTRA:         -12.148
REMARK INTER:                  -9.090
REMARK INTRA:                  -3.058
REMARK UNBOUND:                -3.431
REMARK SMILES CCCCCCCCCCCCCCCCCCCCCCCCCCCC(=O)[O-]
REMARK SMILES IDX 15 1 16 2 17 3 18 4 19 5 20 6 21 7 22 8 23 9 24 10 25 11
REMARK SMILES IDX 26 12 27 13 28 14 29 15 30 16 14 17 13 18 12 19 11 20 10 21
REMARK SMILES IDX 9 22 8 23 7 24 6 25 5 26 4 27 3 28 2 29 1 30
REMARK H PARENT
REMARK Flexibility Score: inf
ROOT
ATOM      1  C   UNL     1       1.179   1.675  -9.256  1.00  0.00     0.000 C 
ENDROOT
BRANCH   1   2
ATOM      2  C   UNL     1      -0.354   1.777  -9.195  1.00  0.00     0.000 C 
BRANCH   2   3
ATOM      3  C   UNL     1      -1.013   0.461  -8.741  1.00  0.00     0.000 C 
BRANCH   3   4
ATOM      4  C   UNL     1      -0.338  -0.148  -7.504  1.00  0.00     0.000 C 
BRANCH   4   5
ATOM      5  C   UNL     1      -0.975  -1.480  -7.079  1.00  0.00     0.000 C 
BRANCH   5   6
ATOM      6  C   UNL     1      -2.083  -1.898  -8.055  1.00  0.00     0.000 C 
BRANCH   6   7
ATOM      7  C   UNL     1      -3.442  -2.102  -7.365  1.00  0.00     0.000 C 
BRANCH   7   8
ATOM      8  C   UNL     1      -4.180  -0.784  -7.053  1.00  0.00     0.000 C 
BRANCH   8   9
ATOM      9  C   UNL     1      -4.901  -0.825  -5.694  1.00  0.00     0.000 C 
BRANCH   9  10
ATOM     10  C   UNL     1      -4.331  -1.906  -4.762  1.00  0.00     0.000 C 
BRANCH  10  11
ATOM     11  C   UNL     1      -5.299  -2.275  -3.623  1.00  0.00     0.000 C 
BRANCH  11  12
ATOM     12  C   UNL     1      -4.627  -3.156  -2.547  1.00  0.00     0.006 C 
BRANCH  12  13
ATOM     13  C   UNL     1      -4.359  -4.597  -3.014  1.00  0.00     0.053 C 
BRANCH  13  14
ATOM     14  C   UNL     1      -2.899  -4.932  -3.010  1.00  0.00     0.041 C 
ATOM     15  O   UNL     1      -2.370  -5.451  -1.990  1.00  0.00    -0.550 OA
ATOM     16  O   UNL     1      -2.130  -4.709  -4.145  1.00  0.00    -0.550 OA
ENDBRANCH  13  14
ENDBRANCH  12  13
ENDBRANCH  11  12
ENDBRANCH  10  11
ENDBRANCH   9  10
ENDBRANCH   8   9
ENDBRANCH   7   8
ENDBRANCH   6   7
ENDBRANCH   5   6
ENDBRANCH   4   5
ENDBRANCH   3   4
ENDBRANCH   2   3
ENDBRANCH   1   2
BRANCH   1  17
ATOM     17  C   UNL     1       1.850   3.038  -9.494  1.00  0.00     0.000 C 
BRANCH  17  18
ATOM     18  C   UNL     1       3.384   2.963  -9.432  1.00  0.00     0.000 C 
BRANCH  18  19
ATOM     19  C   UNL     1       3.904   1.514  -9.465  1.00  0.00     0.000 C 
BRANCH  19  20
ATOM     20  C   UNL     1       4.777   1.170  -8.249  1.00  0.00     0.000 C 
BRANCH  20  21
ATOM     21  C   UNL     1       4.609  -0.290  -7.791  1.00  0.00     0.000 C 
BRANCH  21  22
ATOM     22  C   UNL     1       3.534  -1.040  -8.593  1.00  0.00    -0.000 C 
BRANCH  22  23
ATOM     23  C   UNL     1       2.939  -2.227  -7.821  1.00  0.00    -0.000 C 
BRANCH  23  24
ATOM     24  C   UNL     1       2.720  -1.873  -6.345  1.00  0.00    -0.000 C 
BRANCH  24  25
ATOM     25  C   UNL     1       3.614  -2.725  -5.437  1.00  0.00    -0.000 C 
BRANCH  25  26
ATOM     26  C   UNL     1       3.291  -2.482  -3.956  1.00  0.00    -0.000 C 
BRANCH  26  27
ATOM     27  C   UNL     1       4.461  -1.839  -3.196  1.00  0.00    -0.000 C 
BRANCH  27  28
ATOM     28  C   UNL     1       4.956  -0.542  -3.861  1.00  0.00    -0.000 C 
BRANCH  28  29
ATOM     29  C   UNL     1       6.433  -0.622  -4.278  1.00  0.00    -0.003 C 
ATOM     30  C   UNL     1       6.951   0.689  -4.866  1.00  0.00     0.004 C 
ENDBRANCH  28  29
ENDBRANCH  27  28
ENDBRANCH  26  27
ENDBRANCH  25  26
ENDBRANCH  24  25
ENDBRANCH  23  24
ENDBRANCH  22  23
ENDBRANCH  21  22
ENDBRANCH  20  21
ENDBRANCH  19  20
ENDBRANCH  18  19
ENDBRANCH  17  18
ENDBRANCH   1  17
TORSDOF 26
ENDMDL
MODEL 3
REMARK VINA RESULT:    -3.455      2.386      5.712
REMARK INTER + INTRA:         -12.138
REMARK INTER:                  -7.733
REMARK INTRA:                  -4.406
REMARK UNBOUND:                -3.431
REMARK SMILES CCCCCCCCCCCCCCCCCCCCCCCCCCCC(=O)[O-]
REMARK SMILES IDX 15 1 16 2 17 3 18 4 19 5 20 6 21 7 22 8 23 9 24 10 25 11
REMARK SMILES IDX 26 12 27 13 28 14 29 15 30 16 14 17 13 18 12 19 11 20 10 21
REMARK SMILES IDX 9 22 8 23 7 24 6 25 5 26 4 27 3 28 2 29 1 30
REMARK H PARENT
REMARK Flexibility Score: inf
ROOT
ATOM      1  C   UNL     1       5.886  -0.363  -4.010  1.00  0.00     0.000 C 
ENDROOT
BRANCH   1   2
ATOM      2  C   UNL     1       7.311  -0.928  -4.139  1.00  0.00     0.000 C 
BRANCH   2   3
ATOM      3  C   UNL     1       7.646  -1.934  -3.022  1.00  0.00     0.000 C 
BRANCH   3   4
ATOM      4  C   UNL     1       6.396  -2.549  -2.378  1.00  0.00     0.000 C 
BRANCH   4   5
ATOM      5  C   UNL     1       6.490  -4.076  -2.246  1.00  0.00     0.000 C 
BRANCH   5   6
ATOM      6  C   UNL     1       5.532  -4.774  -3.222  1.00  0.00     0.000 C 
BRANCH   6   7
ATOM      7  C   UNL     1       5.829  -4.438  -4.693  1.00  0.00     0.000 C 
BRANCH   7   8
ATOM      8  C   UNL     1       4.592  -3.953  -5.477  1.00  0.00     0.000 C 
BRANCH   8   9
ATOM      9  C   UNL     1       3.581  -3.218  -4.579  1.00  0.00     0.000 C 
BRANCH   9  10
ATOM     10  C   UNL     1       2.414  -2.621  -5.382  1.00  0.00     0.000 C 
BRANCH  10  11
ATOM     11  C   UNL     1       2.626  -2.730  -6.903  1.00  0.00     0.000 C 
BRANCH  11  12
ATOM     12  C   UNL     1       1.921  -1.593  -7.675  1.00  0.00     0.006 C 
BRANCH  12  13
ATOM     13  C   UNL     1       0.395  -1.772  -7.772  1.00  0.00     0.053 C 
BRANCH  13  14
ATOM     14  C   UNL     1      -0.350  -0.572  -7.274  1.00  0.00     0.041 C 
ATOM     15  O   UNL     1      -1.051  -0.649  -6.230  1.00  0.00    -0.550 OA
ATOM     16  O   UNL     1      -0.239   0.642  -7.941  1.00  0.00    -0.550 OA
ENDBRANCH  13  14
ENDBRANCH  12  13
ENDBRANCH  11  12
ENDBRANCH  10  11
ENDBRANCH   9  10
ENDBRANCH   8   9
ENDBRANCH   7   8
ENDBRANCH   6   7
ENDBRANCH   5   6
ENDBRANCH   4   5
ENDBRANCH   3   4
ENDBRANCH   2   3
ENDBRANCH   1   2
BRANCH   1  17
ATOM     17  C   UNL     1       5.234  -0.095  -5.378  1.00  0.00     0.000 C 
BRANCH  17  18
ATOM     18  C   UNL     1       6.041  -0.684  -6.545  1.00  0.00     0.000 C 
BRANCH  18  19
ATOM     19  C   UNL     1       5.434  -0.334  -7.917  1.00  0.00     0.000 C 
BRANCH  19  20
ATOM     20  C   UNL     1       5.147   1.166  -8.073  1.00  0.00     0.000 C 
BRANCH  20  21
ATOM     21  C   UNL     1       6.423   1.995  -8.303  1.00  0.00     0.000 C 
BRANCH  21  22
ATOM     22  C   UNL     1       6.796   2.854  -7.085  1.00  0.00    -0.000 C 
BRANCH  22  23
ATOM     23  C   UNL     1       8.156   2.469  -6.483  1.00  0.00    -0.000 C 
BRANCH  23  24
ATOM     24  C   UNL     1       8.171   2.685  -4.965  1.00  0.00    -0.000 C 
BRANCH  24  25
ATOM     25  C   UNL     1       6.773   3.047  -4.449  1.00  0.00    -0.000 C 
BRANCH  25  26
ATOM     26  C   UNL     1       6.778   4.414  -3.749  1.00  0.00    -0.000 C 
BRANCH  26  27
ATOM     27  C   UNL     1       7.966   4.579  -2.789  1.00  0.00    -0.000 C 
BRANCH  27  28
ATOM     28  C   UNL     1       7.643   5.507  -1.604  1.00  0.00    -0.000 C 
BRANCH  28  29
ATOM     29  C   UNL     1       6.147   5.849  -1.516  1.00  0.00    -0.003 C 
ATOM     30  C   UNL     1       5.776   6.541  -0.205  1.00  0.00     0.004 C 
ENDBRANCH  28  29
ENDBRANCH  27  28
ENDBRANCH  26  27
ENDBRANCH  25  26
ENDBRANCH  24  25
ENDBRANCH  23  24
ENDBRANCH  22  23
ENDBRANCH  21  22
ENDBRANCH  20  21
ENDBRANCH  19  20
ENDBRANCH  18  19
ENDBRANCH  17  18
ENDBRANCH   1  17
TORSDOF 26
ENDMDL
MODEL 4
REMARK VINA RESULT:    -3.437      1.873      4.581
REMARK INTER + INTRA:         -12.093
REMARK INTER:                  -7.376
REMARK INTRA:                  -4.718
REMARK UNBOUND:                -3.431
REMARK SMILES CCCCCCCCCCCCCCCCCCCCCCCCCCCC(=O)[O-]
REMARK SMILES IDX 15 1 16 2 17 3 18 4 19 5 20 6 21 7 22 8 23 9 24 10 25 11
REMARK SMILES IDX 26 12 27 13 28 14 29 15 30 16 14 17 13 18 12 19 11 20 10 21
REMARK SMILES IDX 9 22 8 23 7 24 6 25 5 26 4 27 3 28 2 29 1 30
REMARK H PARENT
REMARK Flexibility Score: inf
ROOT
ATOM      1  C   UNL     1       1.221  -1.858  -7.070  1.00  0.00     0.000 C 
ENDROOT
BRANCH   1   2
ATOM      2  C   UNL     1       1.722  -2.270  -8.465  1.00  0.00     0.000 C 
BRANCH   2   3
ATOM      3  C   UNL     1       3.218  -1.968  -8.665  1.00  0.00     0.000 C 
BRANCH   3   4
ATOM      4  C   UNL     1       3.904  -1.478  -7.382  1.00  0.00     0.000 C 
BRANCH   4   5
ATOM      5  C   UNL     1       5.343  -1.998  -7.246  1.00  0.00     0.000 C 
BRANCH   5   6
ATOM      6  C   UNL     1       6.082  -1.285  -6.105  1.00  0.00     0.000 C 
BRANCH   6   7
ATOM      7  C   UNL     1       5.127  -0.611  -5.105  1.00  0.00     0.000 C 
BRANCH   7   8
ATOM      8  C   UNL     1       5.192  -1.216  -3.687  1.00  0.00     0.000 C 
BRANCH   8   9
ATOM      9  C   UNL     1       3.845  -1.814  -3.244  1.00  0.00     0.000 C 
BRANCH   9  10
ATOM     10  C   UNL     1       3.390  -2.966  -4.153  1.00  0.00     0.000 C 
BRANCH  10  11
ATOM     11  C   UNL     1       4.354  -4.167  -4.114  1.00  0.00     0.000 C 
BRANCH  11  12
ATOM     12  C   UNL     1       4.356  -4.959  -5.439  1.00  0.00     0.006 C 
BRANCH  12  13
ATOM     13  C   UNL     1       2.999  -4.944  -6.165  1.00  0.00     0.053 C 
BRANCH  13  14
ATOM     14  C   UNL     1       2.038  -5.939  -5.592  1.00  0.00     0.041 C 
ATOM     15  O   UNL     1       2.447  -7.069  -5.210  1.00  0.00    -0.550 OA
ATOM     16  O   UNL     1       0.698  -5.607  -5.442  1.00  0.00    -0.550 OA
ENDBRANCH  13  14
ENDBRANCH  12  13
ENDBRANCH  11  12
ENDBRANCH  10  11
ENDBRANCH   9  10
ENDBRANCH   8   9
ENDBRANCH   7   8
ENDBRANCH   6   7
ENDBRANCH   5   6
ENDBRANCH   4   5
ENDBRANCH   3   4
ENDBRANCH   2   3
ENDBRANCH   1   2
BRANCH   1  17
ATOM     17  C   UNL     1       0.021  -0.898  -7.135  1.00  0.00     0.000 C 
BRANCH  17  18
ATOM     18  C   UNL     1      -0.186  -0.302  -8.537  1.00  0.00     0.000 C 
BRANCH  18  19
ATOM     19  C   UNL     1       0.244   1.175  -8.619  1.00  0.00     0.000 C 
BRANCH  19  20
ATOM     20  C   UNL     1       1.580   1.363  -9.351  1.00  0.00     0.000 C 
BRANCH  20  21
ATOM     21  C   UNL     1       2.006   2.840  -9.441  1.00  0.00     0.000 C 
BRANCH  21  22
ATOM     22  C   UNL     1       3.529   3.020  -9.359  1.00  0.00    -0.000 C 
BRANCH  22  23
ATOM     23  C   UNL     1       4.272   1.692  -9.146  1.00  0.00    -0.000 C 
BRANCH  23  24
ATOM     24  C   UNL     1       5.406   1.850  -8.125  1.00  0.00    -0.000 C 
BRANCH  24  25
ATOM     25  C   UNL     1       6.096   3.210  -8.277  1.00  0.00    -0.000 C 
BRANCH  25  26
ATOM     26  C   UNL     1       7.010   3.504  -7.079  1.00  0.00    -0.000 C 
BRANCH  26  27
ATOM     27  C   UNL     1       7.207   2.278  -6.174  1.00  0.00    -0.000 C 
BRANCH  27  28
ATOM     28  C   UNL     1       6.804   2.550  -4.714  1.00  0.00    -0.000 C 
BRANCH  28  29
ATOM     29  C   UNL     1       7.156   3.977  -4.264  1.00  0.00    -0.003 C 
ATOM     30  C   UNL     1       8.608   4.110  -3.808  1.00  0.00     0.004 C 
ENDBRANCH  28  29
ENDBRANCH  27  28
ENDBRANCH  26  27
ENDBRANCH  25  26
ENDBRANCH  24  25
ENDBRANCH  23  24
ENDBRANCH  22  23
ENDBRANCH  21  22
ENDBRANCH  20  21
ENDBRANCH  19  20
ENDBRANCH  18  19
ENDBRANCH  17  18
ENDBRANCH   1  17
TORSDOF 26
ENDMDL
MODEL 5
REMARK VINA RESULT:    -3.432      2.644      8.366
REMARK INTER + INTRA:         -12.079
REMARK INTER:                  -9.199
REMARK INTRA:                  -2.879
REMARK UNBOUND:                -3.431
REMARK SMILES CCCCCCCCCCCCCCCCCCCCCCCCCCCC(=O)[O-]
REMARK SMILES IDX 15 1 16 2 17 3 18 4 19 5 20 6 21 7 22 8 23 9 24 10 25 11
REMARK SMILES IDX 26 12 27 13 28 14 29 15 30 16 14 17 13 18 12 19 11 20 10 21
REMARK SMILES IDX 9 22 8 23 7 24 6 25 5 26 4 27 3 28 2 29 1 30
REMARK H PARENT
REMARK Flexibility Score: inf
ROOT
ATOM      1  C   UNL     1       4.191   1.308  -8.917  1.00  0.00     0.000 C 
ENDROOT
BRANCH   1   2
ATOM      2  C   UNL     1       5.368   1.172  -7.938  1.00  0.00     0.000 C 
BRANCH   2   3
ATOM      3  C   UNL     1       6.665   0.722  -8.636  1.00  0.00     0.000 C 
BRANCH   3   4
ATOM      4  C   UNL     1       7.930   1.170  -7.890  1.00  0.00     0.000 C 
BRANCH   4   5
ATOM      5  C   UNL     1       7.620   2.082  -6.694  1.00  0.00     0.000 C 
BRANCH   5   6
ATOM      6  C   UNL     1       8.461   1.693  -5.471  1.00  0.00     0.000 C 
BRANCH   6   7
ATOM      7  C   UNL     1       7.679   0.843  -4.454  1.00  0.00     0.000 C 
BRANCH   7   8
ATOM      8  C   UNL     1       6.161   1.116  -4.459  1.00  0.00     0.000 C 
BRANCH   8   9
ATOM      9  C   UNL     1       5.333  -0.178  -4.381  1.00  0.00     0.000 C 
BRANCH   9  10
ATOM     10  C   UNL     1       6.086  -1.389  -4.955  1.00  0.00     0.000 C 
BRANCH  10  11
ATOM     11  C   UNL     1       5.170  -2.322  -5.770  1.00  0.00     0.000 C 
BRANCH  11  12
ATOM     12  C   UNL     1       3.996  -1.563  -6.425  1.00  0.00     0.006 C 
BRANCH  12  13
ATOM     13  C   UNL     1       2.616  -2.149  -6.075  1.00  0.00     0.053 C 
BRANCH  13  14
ATOM     14  C   UNL     1       2.613  -2.837  -4.745  1.00  0.00     0.041 C 
ATOM     15  O   UNL     1       2.372  -2.184  -3.694  1.00  0.00    -0.550 OA
ATOM     16  O   UNL     1       2.837  -4.206  -4.668  1.00  0.00    -0.550 OA
ENDBRANCH  13  14
ENDBRANCH  12  13
ENDBRANCH  11  12
ENDBRANCH  10  11
ENDBRANCH   9  10
ENDBRANCH   8   9
ENDBRANCH   7   8
ENDBRANCH   6   7
ENDBRANCH   5   6
ENDBRANCH   4   5
ENDBRANCH   3   4
ENDBRANCH   2   3
ENDBRANCH   1   2
BRANCH   1  17
ATOM     17  C   UNL     1       3.949   2.765  -9.349  1.00  0.00     0.000 C 
BRANCH  17  18
ATOM     18  C   UNL     1       2.458   3.088  -9.534  1.00  0.00     0.000 C 
BRANCH  18  19
ATOM     19  C   UNL     1       1.560   1.850  -9.351  1.00  0.00     0.000 C 
BRANCH  19  20
ATOM     20  C   UNL     1       0.086   2.216  -9.126  1.00  0.00     0.000 C 
BRANCH  20  21
ATOM     21  C   UNL     1      -0.812   0.979  -8.937  1.00  0.00     0.000 C 
BRANCH  21  22
ATOM     22  C   UNL     1      -0.052  -0.214  -8.336  1.00  0.00    -0.000 C 
BRANCH  22  23
ATOM     23  C   UNL     1      -0.683  -0.720  -7.030  1.00  0.00    -0.000 C 
BRANCH  23  24
ATOM     24  C   UNL     1      -2.213  -0.724  -7.120  1.00  0.00    -0.000 C 
BRANCH  24  25
ATOM     25  C   UNL     1      -2.799  -1.980  -6.464  1.00  0.00    -0.000 C 
BRANCH  25  26
ATOM     26  C   UNL     1      -4.252  -1.748  -6.024  1.00  0.00    -0.000 C 
BRANCH  26  27
ATOM     27  C   UNL     1      -4.564  -2.390  -4.663  1.00  0.00    -0.000 C 
BRANCH  27  28
ATOM     28  C   UNL     1      -5.403  -1.472  -3.756  1.00  0.00    -0.000 C 
BRANCH  28  29
ATOM     29  C   UNL     1      -6.751  -2.101  -3.371  1.00  0.00    -0.003 C 
ATOM     30  C   UNL     1      -7.684  -2.275  -4.568  1.00  0.00     0.004 C 
ENDBRANCH  28  29
ENDBRANCH  27  28
ENDBRANCH  26  27
ENDBRANCH  25  26
ENDBRANCH  24  25
ENDBRANCH  23  24
ENDBRANCH  22  23
ENDBRANCH  21  22
ENDBRANCH  20  21
ENDBRANCH  19  20
ENDBRANCH  18  19
ENDBRANCH  17  18
ENDBRANCH   1  17
TORSDOF 26
ENDMDL
MODEL 6
REMARK VINA RESULT:    -3.428      3.528      9.127
REMARK INTER + INTRA:         -12.071
REMARK INTER:                  -8.379
REMARK INTRA:                  -3.691
REMARK UNBOUND:                -3.431
REMARK SMILES CCCCCCCCCCCCCCCCCCCCCCCCCCCC(=O)[O-]
REMARK SMILES IDX 15 1 16 2 17 3 18 4 19 5 20 6 21 7 22 8 23 9 24 10 25 11
REMARK SMILES IDX 26 12 27 13 28 14 29 15 30 16 14 17 13 18 12 19 11 20 10 21
REMARK SMILES IDX 9 22 8 23 7 24 6 25 5 26 4 27 3 28 2 29 1 30
REMARK H PARENT
REMARK Flexibility Score: inf
ROOT
ATOM      1  C   UNL     1      -0.635  -0.440  -7.215  1.00  0.00     0.000 C 
ENDROOT
BRANCH   1   2
ATOM      2  C   UNL     1       0.036   0.110  -8.485  1.00  0.00     0.000 C 
BRANCH   2   3
ATOM      3  C   UNL     1      -0.581   1.443  -8.945  1.00  0.00     0.000 C 
BRANCH   3   4
ATOM      4  C   UNL     1       0.475   2.497  -9.306  1.00  0.00     0.000 C 
BRANCH   4   5
ATOM      5  C   UNL     1       1.895   1.913  -9.370  1.00  0.00     0.000 C 
BRANCH   5   6
ATOM      6  C   UNL     1       2.945   3.027  -9.473  1.00  0.00     0.000 C 
BRANCH   6   7
ATOM      7  C   UNL     1       4.385   2.508  -9.315  1.00  0.00     0.000 C 
BRANCH   7   8
ATOM      8  C   UNL     1       4.492   1.243  -8.438  1.00  0.00     0.000 C 
BRANCH   8   9
ATOM      9  C   UNL     1       5.354   0.149  -9.092  1.00  0.00     0.000 C 
BRANCH   9  10
ATOM     10  C   UNL     1       4.842  -1.265  -8.776  1.00  0.00     0.000 C 
BRANCH  10  11
ATOM     11  C   UNL     1       3.377  -1.270  -8.298  1.00  0.00     0.000 C 
BRANCH  11  12
ATOM     12  C   UNL     1       3.103  -2.383  -7.264  1.00  0.00     0.006 C 
BRANCH  12  13
ATOM     13  C   UNL     1       3.367  -1.949  -5.811  1.00  0.00     0.053 C 
BRANCH  13  14
ATOM     14  C   UNL     1       2.388  -2.552  -4.852  1.00  0.00     0.041 C 
ATOM     15  O   UNL     1       2.390  -2.204  -3.641  1.00  0.00    -0.550 OA
ATOM     16  O   UNL     1       1.446  -3.469  -5.303  1.00  0.00    -0.550 OA
ENDBRANCH  13  14
ENDBRANCH  12  13
ENDBRANCH  11  12
ENDBRANCH  10  11
ENDBRANCH   9  10
ENDBRANCH   8   9
ENDBRANCH   7   8
ENDBRANCH   6   7
ENDBRANCH   5   6
ENDBRANCH   4   5
ENDBRANCH   3   4
ENDBRANCH   2   3
ENDBRANCH   1   2
BRANCH   1  17
ATOM     17  C   UNL     1      -1.300  -1.808  -7.447  1.00  0.00     0.000 C 
BRANCH  17  18
ATOM     18  C   UNL     1      -2.802  -1.693  -7.751  1.00  0.00     0.000 C 
BRANCH  18  19
ATOM     19  C   UNL     1      -3.557  -0.870  -6.691  1.00  0.00     0.000 C 
BRANCH  19  20
ATOM     20  C   UNL     1      -3.909  -1.692  -5.443  1.00  0.00     0.000 C 
BRANCH  20  21
ATOM     21  C   UNL     1      -5.183  -1.189  -4.740  1.00  0.00     0.000 C 
BRANCH  21  22
ATOM     22  C   UNL     1      -5.669  -2.150  -3.644  1.00  0.00    -0.000 C 
BRANCH  22  23
ATOM     23  C   UNL     1      -5.354  -3.619  -3.962  1.00  0.00    -0.000 C 
BRANCH  23  24
ATOM     24  C   UNL     1      -5.022  -4.403  -2.686  1.00  0.00    -0.000 C 
BRANCH  24  25
ATOM     25  C   UNL     1      -3.543  -4.805  -2.659  1.00  0.00    -0.000 C 
BRANCH  25  26
ATOM     26  C   UNL     1      -3.291  -6.049  -3.523  1.00  0.00    -0.000 C 
BRANCH  26  27
ATOM     27  C   UNL     1      -2.019  -5.924  -4.377  1.00  0.00    -0.000 C 
BRANCH  27  28
ATOM     28  C   UNL     1      -2.159  -4.874  -5.493  1.00  0.00    -0.000 C 
BRANCH  28  29
ATOM     29  C   UNL     1      -2.705  -5.473  -6.799  1.00  0.00    -0.003 C 
ATOM     30  C   UNL     1      -4.164  -5.097  -7.055  1.00  0.00     0.004 C 
ENDBRANCH  28  29
ENDBRANCH  27  28
ENDBRANCH  26  27
ENDBRANCH  25  26
ENDBRANCH  24  25
ENDBRANCH  23  24
ENDBRANCH  22  23
ENDBRANCH  21  22
ENDBRANCH  20  21
ENDBRANCH  19  20
ENDBRANCH  18  19
ENDBRANCH  17  18
ENDBRANCH   1  17
TORSDOF 26
ENDMDL
MODEL 7
REMARK VINA RESULT:    -3.415      8.569     12.547
REMARK INTER + INTRA:         -12.036
REMARK INTER:                  -9.091
REMARK INTRA:                  -2.946
REMARK UNBOUND:                -3.431
REMARK SMILES CCCCCCCCCCCCCCCCCCCCCCCCCCCC(=O)[O-]
REMARK SMILES IDX 15 1 16 2 17 3 18 4 19 5 20 6 21 7 22 8 23 9 24 10 25 11
REMARK SMILES IDX 26 12 27 13 28 14 29 15 30 16 14 17 13 18 12 19 11 20 10 21
REMARK SMILES IDX 9 22 8 23 7 24 6 25 5 26 4 27 3 28 2 29 1 30
REMARK H PARENT
REMARK Flexibility Score: inf
ROOT
ATOM      1  C   UNL     1       4.127   7.408   6.389  1.00  0.00     0.000 C 
ENDROOT
BRANCH   1   2
ATOM      2  C   UNL     1       2.962   7.765   5.450  1.00  0.00     0.000 C 
BRANCH   2   3
ATOM      3  C   UNL     1       3.428   8.538   4.203  1.00  0.00     0.000 C 
BRANCH   3   4
ATOM      4  C   UNL     1       4.873   8.208   3.803  1.00  0.00     0.000 C 
BRANCH   4   5
ATOM      5  C   UNL     1       5.108   8.323   2.289  1.00  0.00     0.000 C 
BRANCH   5   6
ATOM      6  C   UNL     1       3.879   8.914   1.584  1.00  0.00     0.000 C 
BRANCH   6   7
ATOM      7  C   UNL     1       3.351   8.016   0.452  1.00  0.00     0.000 C 
BRANCH   7   8
ATOM      8  C   UNL     1       1.815   8.042   0.309  1.00  0.00     0.000 C 
BRANCH   8   9
ATOM      9  C   UNL     1       1.103   7.438   1.533  1.00  0.00     0.000 C 
BRANCH   9  10
ATOM     10  C   UNL     1      -0.206   6.728   1.155  1.00  0.00     0.000 C 
BRANCH  10  11
ATOM     11  C   UNL     1      -1.260   7.696   0.585  1.00  0.00     0.000 C 
BRANCH  11  12
ATOM     12  C   UNL     1      -2.671   7.069   0.549  1.00  0.00     0.006 C 
BRANCH  12  13
ATOM     13  C   UNL     1      -2.675   5.553   0.812  1.00  0.00     0.053 C 
BRANCH  13  14
ATOM     14  C   UNL     1      -4.053   5.027   1.074  1.00  0.00     0.041 C 
ATOM     15  O   UNL     1      -4.847   4.822   0.117  1.00  0.00    -0.550 OA
ATOM     16  O   UNL     1      -4.447   4.725   2.372  1.00  0.00    -0.550 OA
ENDBRANCH  13  14
ENDBRANCH  12  13
ENDBRANCH  11  12
ENDBRANCH  10  11
ENDBRANCH   9  10
ENDBRANCH   8   9
ENDBRANCH   7   8
ENDBRANCH   6   7
ENDBRANCH   5   6
ENDBRANCH   4   5
ENDBRANCH   3   4
ENDBRANCH   2   3
ENDBRANCH   1   2
BRANCH   1  17
ATOM     17  C   UNL     1       4.155   5.913   6.750  1.00  0.00     0.000 C 
BRANCH  17  18
ATOM     18  C   UNL     1       5.533   5.273   6.517  1.00  0.00     0.000 C 
BRANCH  18  19
ATOM     19  C   UNL     1       6.633   6.320   6.264  1.00  0.00     0.000 C 
BRANCH  19  20
ATOM     20  C   UNL     1       7.666   5.856   5.227  1.00  0.00     0.000 C 
BRANCH  20  21
ATOM     21  C   UNL     1       8.016   4.363   5.363  1.00  0.00     0.000 C 
BRANCH  21  22
ATOM     22  C   UNL     1       8.924   3.865   4.228  1.00  0.00    -0.000 C 
BRANCH  22  23
ATOM     23  C   UNL     1       9.236   4.959   3.196  1.00  0.00    -0.000 C 
BRANCH  23  24
ATOM     24  C   UNL     1       8.581   4.650   1.845  1.00  0.00    -0.000 C 
BRANCH  24  25
ATOM     25  C   UNL     1       7.899   5.895   1.268  1.00  0.00    -0.000 C 
BRANCH  25  26
ATOM     26  C   UNL     1       7.456   5.662  -0.184  1.00  0.00    -0.000 C 
BRANCH  26  27
ATOM     27  C   UNL     1       5.951   5.897  -0.386  1.00  0.00    -0.000 C 
BRANCH  27  28
ATOM     28  C   UNL     1       5.585   6.147  -1.859  1.00  0.00    -0.000 C 
BRANCH  28  29
ATOM     29  C   UNL     1       5.956   7.564  -2.325  1.00  0.00    -0.003 C 
ATOM     30  C   UNL     1       4.907   8.173  -3.253  1.00  0.00     0.004 C 
ENDBRANCH  28  29
ENDBRANCH  27  28
ENDBRANCH  26  27
ENDBRANCH  25  26
ENDBRANCH  24  25
ENDBRANCH  23  24
ENDBRANCH  22  23
ENDBRANCH  21  22
ENDBRANCH  20  21
ENDBRANCH  19  20
ENDBRANCH  18  19
ENDBRANCH  17  18
ENDBRANCH   1  17
TORSDOF 26
ENDMDL
MODEL 8
REMARK VINA RESULT:    -3.383      2.529      6.079
REMARK INTER + INTRA:         -11.957
REMARK INTER:                  -7.710
REMARK INTRA:                  -4.248
REMARK UNBOUND:                -3.431
REMARK SMILES CCCCCCCCCCCCCCCCCCCCCCCCCCCC(=O)[O-]
REMARK SMILES IDX 15 1 16 2 17 3 18 4 19 5 20 6 21 7 22 8 23 9 24 10 25 11
REMARK SMILES IDX 26 12 27 13 28 14 29 15 30 16 14 17 13 18 12 19 11 20 10 21
REMARK SMILES IDX 9 22 8 23 7 24 6 25 5 26 4 27 3 28 2 29 1 30
REMARK H PARENT
REMARK Flexibility Score: inf
ROOT
ATOM      1  C   UNL     1       0.017   0.417  -8.878  1.00  0.00     0.000 C 
ENDROOT
BRANCH   1   2
ATOM      2  C   UNL     1      -0.607   1.815  -9.018  1.00  0.00     0.000 C 
BRANCH   2   3
ATOM      3  C   UNL     1       0.426   2.880  -9.433  1.00  0.00     0.000 C 
BRANCH   3   4
ATOM      4  C   UNL     1       1.868   2.353  -9.410  1.00  0.00     0.000 C 
BRANCH   4   5
ATOM      5  C   UNL     1       2.909   3.482  -9.417  1.00  0.00     0.000 C 
BRANCH   5   6
ATOM      6  C   UNL     1       4.336   2.916  -9.388  1.00  0.00     0.000 C 
BRANCH   6   7
ATOM      7  C   UNL     1       4.386   1.445  -8.940  1.00  0.00     0.000 C 
BRANCH   7   8
ATOM      8  C   UNL     1       5.604   1.112  -8.054  1.00  0.00     0.000 C 
BRANCH   8   9
ATOM      9  C   UNL     1       6.324   2.375  -7.549  1.00  0.00     0.000 C 
BRANCH   9  10
ATOM     10  C   UNL     1       7.812   2.121  -7.257  1.00  0.00     0.000 C 
BRANCH  10  11
ATOM     11  C   UNL     1       8.280   2.789  -5.951  1.00  0.00     0.000 C 
BRANCH  11  12
ATOM     12  C   UNL     1       7.161   3.620  -5.285  1.00  0.00     0.006 C 
BRANCH  12  13
ATOM     13  C   UNL     1       7.151   3.515  -3.750  1.00  0.00     0.053 C 
BRANCH  13  14
ATOM     14  C   UNL     1       6.827   4.822  -3.094  1.00  0.00     0.041 C 
ATOM     15  O   UNL     1       5.635   5.229  -3.046  1.00  0.00    -0.550 OA
ATOM     16  O   UNL     1       7.834   5.573  -2.502  1.00  0.00    -0.550 OA
ENDBRANCH  13  14
ENDBRANCH  12  13
ENDBRANCH  11  12
ENDBRANCH  10  11
ENDBRANCH   9  10
ENDBRANCH   8   9
ENDBRANCH   7   8
ENDBRANCH   6   7
ENDBRANCH   5   6
ENDBRANCH   4   5
ENDBRANCH   3   4
ENDBRANCH   2   3
ENDBRANCH   1   2
BRANCH   1  17
ATOM     17  C   UNL     1      -0.568  -0.373  -7.695  1.00  0.00     0.000 C 
BRANCH  17  18
ATOM     18  C   UNL     1       0.403  -1.433  -7.152  1.00  0.00     0.000 C 
BRANCH  18  19
ATOM     19  C   UNL     1       1.793  -1.352  -7.812  1.00  0.00     0.000 C 
BRANCH  19  20
ATOM     20  C   UNL     1       2.918  -1.831  -6.884  1.00  0.00     0.000 C 
BRANCH  20  21
ATOM     21  C   UNL     1       2.428  -2.832  -5.822  1.00  0.00     0.000 C 
BRANCH  21  22
ATOM     22  C   UNL     1       2.899  -2.466  -4.405  1.00  0.00    -0.000 C 
BRANCH  22  23
ATOM     23  C   UNL     1       4.279  -3.050  -4.071  1.00  0.00    -0.000 C 
BRANCH  23  24
ATOM     24  C   UNL     1       5.106  -2.069  -3.231  1.00  0.00    -0.000 C 
BRANCH  24  25
ATOM     25  C   UNL     1       4.850  -0.622  -3.666  1.00  0.00    -0.000 C 
BRANCH  25  26
ATOM     26  C   UNL     1       5.847  -0.184  -4.748  1.00  0.00    -0.000 C 
BRANCH  26  27
ATOM     27  C   UNL     1       7.302  -0.213  -4.254  1.00  0.00    -0.000 C 
BRANCH  27  28
ATOM     28  C   UNL     1       8.191  -1.152  -5.089  1.00  0.00    -0.000 C 
BRANCH  28  29
ATOM     29  C   UNL     1       7.388  -1.949  -6.129  1.00  0.00    -0.003 C 
ATOM     30  C   UNL     1       7.846  -1.676  -7.562  1.00  0.00     0.004 C 
ENDBRANCH  28  29
ENDBRANCH  27  28
ENDBRANCH  26  27
ENDBRANCH  25  26
ENDBRANCH  24  25
ENDBRANCH  23  24
ENDBRANCH  22  23
ENDBRANCH  21  22
ENDBRANCH  20  21
ENDBRANCH  19  20
ENDBRANCH  18  19
ENDBRANCH  17  18
ENDBRANCH   1  17
TORSDOF 26
ENDMDL
MODEL 9
REMARK VINA RESULT:    -3.379      8.521     12.789
REMARK INTER + INTRA:         -11.946
REMARK INTER:                  -7.967
REMARK INTRA:                  -3.979
REMARK UNBOUND:                -3.431
REMARK SMILES CCCCCCCCCCCCCCCCCCCCCCCCCCCC(=O)[O-]
REMARK SMILES IDX 15 1 16 2 17 3 18 4 19 5 20 6 21 7 22 8 23 9 24 10 25 11
REMARK SMILES IDX 26 12 27 13 28 14 29 15 30 16 14 17 13 18 12 19 11 20 10 21
REMARK SMILES IDX 9 22 8 23 7 24 6 25 5 26 4 27 3 28 2 29 1 30
REMARK H PARENT
REMARK Flexibility Score: inf
ROOT
ATOM      1  C   UNL     1       5.224   5.462   6.620  1.00  0.00     0.000 C 
ENDROOT
BRANCH   1   2
ATOM      2  C   UNL     1       3.755   5.894   6.767  1.00  0.00     0.000 C 
BRANCH   2   3
ATOM      3  C   UNL     1       3.514   7.333   6.274  1.00  0.00     0.000 C 
BRANCH   3   4
ATOM      4  C   UNL     1       2.199   7.483   5.495  1.00  0.00     0.000 C 
BRANCH   4   5
ATOM      5  C   UNL     1       2.362   8.316   4.215  1.00  0.00     0.000 C 
BRANCH   5   6
ATOM      6  C   UNL     1       3.844   8.589   3.920  1.00  0.00     0.000 C 
BRANCH   6   7
ATOM      7  C   UNL     1       4.177   8.520   2.420  1.00  0.00     0.000 C 
BRANCH   7   8
ATOM      8  C   UNL     1       3.371   9.517   1.562  1.00  0.00     0.000 C 
BRANCH   8   9
ATOM      9  C   UNL     1       3.254   9.066   0.096  1.00  0.00     0.000 C 
BRANCH   9  10
ATOM     10  C   UNL     1       2.289   7.882  -0.076  1.00  0.00     0.000 C 
BRANCH  10  11
ATOM     11  C   UNL     1       0.977   8.071   0.709  1.00  0.00     0.000 C 
BRANCH  11  12
ATOM     12  C   UNL     1       0.452   6.744   1.297  1.00  0.00     0.006 C 
BRANCH  12  13
ATOM     13  C   UNL     1      -0.983   6.841   1.845  1.00  0.00     0.053 C 
BRANCH  13  14
ATOM     14  C   UNL     1      -1.011   7.148   3.311  1.00  0.00     0.041 C 
ATOM     15  O   UNL     1      -0.845   6.227   4.155  1.00  0.00    -0.550 OA
ATOM     16  O   UNL     1      -1.183   8.456   3.745  1.00  0.00    -0.550 OA
ENDBRANCH  13  14
ENDBRANCH  12  13
ENDBRANCH  11  12
ENDBRANCH  10  11
ENDBRANCH   9  10
ENDBRANCH   8   9
ENDBRANCH   7   8
ENDBRANCH   6   7
ENDBRANCH   5   6
ENDBRANCH   4   5
ENDBRANCH   3   4
ENDBRANCH   2   3
ENDBRANCH   1   2
BRANCH   1  17
ATOM     17  C   UNL     1       6.015   6.379   5.672  1.00  0.00     0.000 C 
BRANCH  17  18
ATOM     18  C   UNL     1       7.372   5.784   5.267  1.00  0.00     0.000 C 
BRANCH  18  19
ATOM     19  C   UNL     1       7.673   4.458   5.991  1.00  0.00     0.000 C 
BRANCH  19  20
ATOM     20  C   UNL     1       8.678   3.582   5.229  1.00  0.00     0.000 C 
BRANCH  20  21
ATOM     21  C   UNL     1       9.256   4.282   3.986  1.00  0.00     0.000 C 
BRANCH  21  22
ATOM     22  C   UNL     1       9.102   3.440   2.710  1.00  0.00    -0.000 C 
BRANCH  22  23
ATOM     23  C   UNL     1       8.544   4.250   1.530  1.00  0.00    -0.000 C 
BRANCH  23  24
ATOM     24  C   UNL     1       8.798   5.751   1.720  1.00  0.00    -0.000 C 
BRANCH  24  25
ATOM     25  C   UNL     1       7.481   6.535   1.714  1.00  0.00    -0.000 C 
BRANCH  25  26
ATOM     26  C   UNL     1       7.098   6.963   0.290  1.00  0.00    -0.000 C 
BRANCH  26  27
ATOM     27  C   UNL     1       5.753   6.372  -0.161  1.00  0.00    -0.000 C 
BRANCH  27  28
ATOM     28  C   UNL     1       5.691   6.135  -1.681  1.00  0.00    -0.000 C 
BRANCH  28  29
ATOM     29  C   UNL     1       5.571   7.446  -2.475  1.00  0.00    -0.003 C 
ATOM     30  C   UNL     1       4.278   7.527  -3.285  1.00  0.00     0.004 C 
ENDBRANCH  28  29
ENDBRANCH  27  28
ENDBRANCH  26  27
ENDBRANCH  25  26
ENDBRANCH  24  25
ENDBRANCH  23  24
ENDBRANCH  22  23
ENDBRANCH  21  22
ENDBRANCH  20  21
ENDBRANCH  19  20
ENDBRANCH  18  19
ENDBRANCH  17  18
ENDBRANCH   1  17
TORSDOF 26
ENDMDL
