MODEL 1
REMARK VINA RESULT:    -5.202      0.000      0.000
REMARK INTER + INTRA:         -13.021
REMARK INTER:                 -10.067
REMARK INTRA:                  -2.954
REMARK UNBOUND:                -2.954
REMARK SMILES CCCCCCCCCCCCCCCCCC(=O)[O-]
REMARK SMILES IDX 10 1 11 2 12 3 13 4 14 5 15 6 16 7 17 8 18 9 19 10 20 11
REMARK SMILES IDX 9 12 8 13 7 14 6 15 5 16 4 17 3 18 2 19 1 20
REMARK H PARENT
REMARK Flexibility Score: inf
ROOT
ATOM      1  C   UNL     1      37.025  -0.715   4.529  1.00  0.00     0.000 C 
ENDROOT
BRANCH   1   2
ATOM      2  C   UNL     1      36.235  -0.613   5.848  1.00  0.00     0.000 C 
BRANCH   2   3
ATOM      3  C   UNL     1      36.599   0.595   6.729  1.00  0.00     0.000 C 
BRANCH   3   4
ATOM      4  C   UNL     1      38.058   0.613   7.223  1.00  0.00     0.000 C 
BRANCH   4   5
ATOM      5  C   UNL     1      38.803   1.933   6.912  1.00  0.00     0.000 C 
BRANCH   5   6
ATOM      6  C   UNL     1      37.938   2.977   6.177  1.00  0.00     0.000 C 
BRANCH   6   7
ATOM      7  C   UNL     1      38.394   3.296   4.737  1.00  0.00     0.006 C 
BRANCH   7   8
ATOM      8  C   UNL     1      39.630   2.514   4.264  1.00  0.00     0.053 C 
BRANCH   8   9
ATOM      9  C   UNL     1      40.846   3.382   4.169  1.00  0.00     0.041 C 
ATOM     10  O   UNL     1      41.965   2.951   4.554  1.00  0.00    -0.550 OA
ATOM     11  O   UNL     1      40.747   4.663   3.641  1.00  0.00    -0.550 OA
ENDBRANCH   8   9
ENDBRANCH   7   8
ENDBRANCH   6   7
ENDBRANCH   5   6
ENDBRANCH   4   5
ENDBRANCH   3   4
ENDBRANCH   2   3
ENDBRANCH   1   2
BRANCH   1  12
ATOM     12  C   UNL     1      36.534   0.257   3.434  1.00  0.00     0.000 C 
BRANCH  12  13
ATOM     13  C   UNL     1      35.044   0.062   3.108  1.00  0.00    -0.000 C 
BRANCH  13  14
ATOM     14  C   UNL     1      34.244   1.371   3.195  1.00  0.00    -0.000 C 
BRANCH  14  15
ATOM     15  C   UNL     1      35.150   2.611   3.300  1.00  0.00    -0.000 C 
BRANCH  15  16
ATOM     16  C   UNL     1      34.733   3.556   4.440  1.00  0.00    -0.000 C 
BRANCH  16  17
ATOM     17  C   UNL     1      33.728   2.956   5.444  1.00  0.00    -0.000 C 
BRANCH  17  18
ATOM     18  C   UNL     1      33.558   3.750   6.755  1.00  0.00    -0.000 C 
BRANCH  18  19
ATOM     19  C   UNL     1      34.574   3.401   7.857  1.00  0.00    -0.003 C 
ATOM     20  C   UNL     1      35.420   4.599   8.290  1.00  0.00     0.004 C 
ENDBRANCH  18  19
ENDBRANCH  17  18
ENDBRANCH  16  17
ENDBRANCH  15  16
ENDBRANCH  14  15
ENDBRANCH  13  14
ENDBRANCH  12  13
ENDBRANCH   1  12
TORSDOF 16
ENDMDL
MODEL 2
REMARK VINA RESULT:    -5.170     15.896     18.625
REMARK INTER + INTRA:         -12.959
REMARK INTER:                 -10.256
REMARK INTRA:                  -2.704
REMARK UNBOUND:                -2.954
REMARK SMILES CCCCCCCCCCCCCCCCCC(=O)[O-]
REMARK SMILES IDX 10 1 11 2 12 3 13 4 14 5 15 6 16 7 17 8 18 9 19 10 20 11
REMARK SMILES IDX 9 12 8 13 7 14 6 15 5 16 4 17 3 18 2 19 1 20
REMARK H PARENT
REMARK Flexibility Score: inf
ROOT
ATOM      1  C   UNL     1      48.016  12.033  -4.607  1.00  0.00     0.000 C 
ENDROOT
BRANCH   1   2
ATOM      2  C   UNL     1      49.360  11.838  -5.335  1.00  0.00     0.000 C 
BRANCH   2   3
ATOM      3  C   UNL     1      49.999  10.450  -5.153  1.00  0.00     0.000 C 
BRANCH   3   4
ATOM      4  C   UNL     1      50.396   9.748  -6.465  1.00  0.00     0.000 C 
BRANCH   4   5
ATOM      5  C   UNL     1      49.247   9.671  -7.499  1.00  0.00     0.000 C 
BRANCH   5   6
ATOM      6  C   UNL     1      48.943   8.239  -7.986  1.00  0.00     0.000 C 
BRANCH   6   7
ATOM      7  C   UNL     1      47.441   7.889  -8.066  1.00  0.00     0.006 C 
BRANCH   7   8
ATOM      8  C   UNL     1      46.574   8.514  -6.961  1.00  0.00     0.053 C 
BRANCH   8   9
ATOM      9  C   UNL     1      46.616   7.720  -5.693  1.00  0.00     0.041 C 
ATOM     10  O   UNL     1      46.083   6.579  -5.642  1.00  0.00    -0.550 OA
ATOM     11  O   UNL     1      47.256   8.231  -4.572  1.00  0.00    -0.550 OA
ENDBRANCH   8   9
ENDBRANCH   7   8
ENDBRANCH   6   7
ENDBRANCH   5   6
ENDBRANCH   4   5
ENDBRANCH   3   4
ENDBRANCH   2   3
ENDBRANCH   1   2
BRANCH   1  12
ATOM     12  C   UNL     1      46.784  11.703  -5.478  1.00  0.00     0.000 C 
BRANCH  12  13
ATOM     13  C   UNL     1      46.008  12.965  -5.890  1.00  0.00    -0.000 C 
BRANCH  13  14
ATOM     14  C   UNL     1      45.980  13.170  -7.413  1.00  0.00    -0.000 C 
BRANCH  14  15
ATOM     15  C   UNL     1      47.082  12.376  -8.136  1.00  0.00    -0.000 C 
BRANCH  15  16
ATOM     16  C   UNL     1      46.856  12.295  -9.656  1.00  0.00    -0.000 C 
BRANCH  16  17
ATOM     17  C   UNL     1      46.669  10.868 -10.209  1.00  0.00    -0.000 C 
BRANCH  17  18
ATOM     18  C   UNL     1      45.220  10.492 -10.577  1.00  0.00    -0.000 C 
BRANCH  18  19
ATOM     19  C   UNL     1      44.298  10.220  -9.375  1.00  0.00    -0.003 C 
ATOM     20  C   UNL     1      43.341  11.376  -9.085  1.00  0.00     0.004 C 
ENDBRANCH  18  19
ENDBRANCH  17  18
ENDBRANCH  16  17
ENDBRANCH  15  16
ENDBRANCH  14  15
ENDBRANCH  13  14
ENDBRANCH  12  13
ENDBRANCH   1  12
TORSDOF 16
ENDMDL
MODEL 3
REMARK VINA RESULT:    -5.141      1.105      3.122
REMARK INTER + INTRA:         -12.903
REMARK INTER:                  -9.865
REMARK INTRA:                  -3.038
REMARK UNBOUND:                -2.954
REMARK SMILES CCCCCCCCCCCCCCCCCC(=O)[O-]
REMARK SMILES IDX 10 1 11 2 12 3 13 4 14 5 15 6 16 7 17 8 18 9 19 10 20 11
REMARK SMILES IDX 9 12 8 13 7 14 6 15 5 16 4 17 3 18 2 19 1 20
REMARK H PARENT
REMARK Flexibility Score: inf
ROOT
ATOM      1  C   UNL     1      35.611  -1.110   3.811  1.00  0.00     0.000 C 
ENDROOT
BRANCH   1   2
ATOM      2  C   UNL     1      34.594   0.020   4.062  1.00  0.00     0.000 C 
BRANCH   2   3
ATOM      3  C   UNL     1      34.693   1.208   3.088  1.00  0.00     0.000 C 
BRANCH   3   4
ATOM      4  C   UNL     1      34.585   2.593   3.753  1.00  0.00     0.000 C 
BRANCH   4   5
ATOM      5  C   UNL     1      35.821   3.493   3.514  1.00  0.00     0.000 C 
BRANCH   5   6
ATOM      6  C   UNL     1      37.168   2.776   3.742  1.00  0.00     0.000 C 
BRANCH   6   7
ATOM      7  C   UNL     1      38.236   3.622   4.467  1.00  0.00     0.006 C 
BRANCH   7   8
ATOM      8  C   UNL     1      39.498   2.849   4.882  1.00  0.00     0.053 C 
BRANCH   8   9
ATOM      9  C   UNL     1      40.710   3.302   4.129  1.00  0.00     0.041 C 
ATOM     10  O   UNL     1      40.591   4.074   3.141  1.00  0.00    -0.550 OA
ATOM     11  O   UNL     1      41.974   2.884   4.527  1.00  0.00    -0.550 OA
ENDBRANCH   8   9
ENDBRANCH   7   8
ENDBRANCH   6   7
ENDBRANCH   5   6
ENDBRANCH   4   5
ENDBRANCH   3   4
ENDBRANCH   2   3
ENDBRANCH   1   2
BRANCH   1  12
ATOM     12  C   UNL     1      36.831  -1.070   4.757  1.00  0.00     0.000 C 
BRANCH  12  13
ATOM     13  C   UNL     1      36.465  -0.543   6.155  1.00  0.00    -0.000 C 
BRANCH  13  14
ATOM     14  C   UNL     1      37.589   0.298   6.782  1.00  0.00    -0.000 C 
BRANCH  14  15
ATOM     15  C   UNL     1      37.090   1.660   7.297  1.00  0.00    -0.000 C 
BRANCH  15  16
ATOM     16  C   UNL     1      35.557   1.789   7.243  1.00  0.00    -0.000 C 
BRANCH  16  17
ATOM     17  C   UNL     1      34.992   3.072   7.886  1.00  0.00    -0.000 C 
BRANCH  17  18
ATOM     18  C   UNL     1      36.008   4.219   8.062  1.00  0.00    -0.000 C 
BRANCH  18  19
ATOM     19  C   UNL     1      36.028   5.246   6.916  1.00  0.00    -0.003 C 
ATOM     20  C   UNL     1      34.634   5.574   6.384  1.00  0.00     0.004 C 
ENDBRANCH  18  19
ENDBRANCH  17  18
ENDBRANCH  16  17
ENDBRANCH  15  16
ENDBRANCH  14  15
ENDBRANCH  13  14
ENDBRANCH  12  13
ENDBRANCH   1  12
TORSDOF 16
ENDMDL
MODEL 4
REMARK VINA RESULT:    -5.125      2.004      4.200
REMARK INTER + INTRA:         -12.872
REMARK INTER:                 -10.086
REMARK INTRA:                  -2.786
REMARK UNBOUND:                -2.954
REMARK SMILES CCCCCCCCCCCCCCCCCC(=O)[O-]
REMARK SMILES IDX 10 1 11 2 12 3 13 4 14 5 15 6 16 7 17 8 18 9 19 10 20 11
REMARK SMILES IDX 9 12 8 13 7 14 6 15 5 16 4 17 3 18 2 19 1 20
REMARK H PARENT
REMARK Flexibility Score: inf
ROOT
ATOM      1  C   UNL     1      33.774   2.946   7.355  1.00  0.00     0.000 C 
ENDROOT
BRANCH   1   2
ATOM      2  C   UNL     1      34.802   3.206   8.474  1.00  0.00     0.000 C 
BRANCH   2   3
ATOM      3  C   UNL     1      35.574   4.532   8.349  1.00  0.00     0.000 C 
BRANCH   3   4
ATOM      4  C   UNL     1      37.057   4.377   7.964  1.00  0.00     0.000 C 
BRANCH   4   5
ATOM      5  C   UNL     1      37.387   3.022   7.296  1.00  0.00     0.000 C 
BRANCH   5   6
ATOM      6  C   UNL     1      37.815   3.143   5.819  1.00  0.00     0.000 C 
BRANCH   6   7
ATOM      7  C   UNL     1      37.206   4.346   5.066  1.00  0.00     0.006 C 
BRANCH   7   8
ATOM      8  C   UNL     1      37.471   4.360   3.552  1.00  0.00     0.053 C 
BRANCH   8   9
ATOM      9  C   UNL     1      37.306   5.726   2.963  1.00  0.00     0.041 C 
ATOM     10  O   UNL     1      38.002   6.687   3.385  1.00  0.00    -0.550 OA
ATOM     11  O   UNL     1      36.394   5.935   1.935  1.00  0.00    -0.550 OA
ENDBRANCH   8   9
ENDBRANCH   7   8
ENDBRANCH   6   7
ENDBRANCH   5   6
ENDBRANCH   4   5
ENDBRANCH   3   4
ENDBRANCH   2   3
ENDBRANCH   1   2
BRANCH   1  12
ATOM     12  C   UNL     1      33.593   4.137   6.389  1.00  0.00     0.000 C 
BRANCH  12  13
ATOM     13  C   UNL     1      33.607   3.698   4.915  1.00  0.00    -0.000 C 
BRANCH  13  14
ATOM     14  C   UNL     1      33.894   2.197   4.749  1.00  0.00    -0.000 C 
BRANCH  14  15
ATOM     15  C   UNL     1      34.697   1.887   3.473  1.00  0.00    -0.000 C 
BRANCH  15  16
ATOM     16  C   UNL     1      34.425   0.473   2.930  1.00  0.00    -0.000 C 
BRANCH  16  17
ATOM     17  C   UNL     1      34.950  -0.673   3.818  1.00  0.00    -0.000 C 
BRANCH  17  18
ATOM     18  C   UNL     1      36.478  -0.697   4.023  1.00  0.00    -0.000 C 
BRANCH  18  19
ATOM     19  C   UNL     1      36.941  -0.408   5.462  1.00  0.00    -0.003 C 
ATOM     20  C   UNL     1      35.785  -0.349   6.460  1.00  0.00     0.004 C 
ENDBRANCH  18  19
ENDBRANCH  17  18
ENDBRANCH  16  17
ENDBRANCH  15  16
ENDBRANCH  14  15
ENDBRANCH  13  14
ENDBRANCH  12  13
ENDBRANCH   1  12
TORSDOF 16
ENDMDL
MODEL 5
REMARK VINA RESULT:    -5.108     15.207     18.551
REMARK INTER + INTRA:         -12.840
REMARK INTER:                  -9.974
REMARK INTRA:                  -2.867
REMARK UNBOUND:                -2.954
REMARK SMILES CCCCCCCCCCCCCCCCCC(=O)[O-]
REMARK SMILES IDX 10 1 11 2 12 3 13 4 14 5 15 6 16 7 17 8 18 9 19 10 20 11
REMARK SMILES IDX 9 12 8 13 7 14 6 15 5 16 4 17 3 18 2 19 1 20
REMARK H PARENT
REMARK Flexibility Score: inf
ROOT
ATOM      1  C   UNL     1      49.983  11.738  -6.647  1.00  0.00     0.000 C 
ENDROOT
BRANCH   1   2
ATOM      2  C   UNL     1      49.466  11.382  -5.239  1.00  0.00     0.000 C 
BRANCH   2   3
ATOM      3  C   UNL     1      48.257  12.208  -4.766  1.00  0.00     0.000 C 
BRANCH   3   4
ATOM      4  C   UNL     1      46.891  11.676  -5.241  1.00  0.00     0.000 C 
BRANCH   4   5
ATOM      5  C   UNL     1      45.863  12.791  -5.545  1.00  0.00     0.000 C 
BRANCH   5   6
ATOM      6  C   UNL     1      45.906  13.300  -7.000  1.00  0.00     0.000 C 
BRANCH   6   7
ATOM      7  C   UNL     1      46.580  12.337  -8.001  1.00  0.00     0.006 C 
BRANCH   7   8
ATOM      8  C   UNL     1      45.940  12.308  -9.399  1.00  0.00     0.053 C 
BRANCH   8   9
ATOM      9  C   UNL     1      46.485  11.201 -10.246  1.00  0.00     0.041 C 
ATOM     10  O   UNL     1      47.708  11.174 -10.545  1.00  0.00    -0.550 OA
ATOM     11  O   UNL     1      45.645  10.188 -10.694  1.00  0.00    -0.550 OA
ENDBRANCH   8   9
ENDBRANCH   7   8
ENDBRANCH   6   7
ENDBRANCH   5   6
ENDBRANCH   4   5
ENDBRANCH   3   4
ENDBRANCH   2   3
ENDBRANCH   1   2
BRANCH   1  12
ATOM     12  C   UNL     1      49.738  10.632  -7.696  1.00  0.00     0.000 C 
BRANCH  12  13
ATOM     13  C   UNL     1      49.493   9.259  -7.048  1.00  0.00    -0.000 C 
BRANCH  13  14
ATOM     14  C   UNL     1      48.774   8.281  -7.991  1.00  0.00    -0.000 C 
BRANCH  14  15
ATOM     15  C   UNL     1      47.241   8.383  -7.892  1.00  0.00    -0.000 C 
BRANCH  15  16
ATOM     16  C   UNL     1      46.728   8.205  -6.452  1.00  0.00    -0.000 C 
BRANCH  16  17
ATOM     17  C   UNL     1      45.242   8.564  -6.245  1.00  0.00    -0.000 C 
BRANCH  17  18
ATOM     18  C   UNL     1      44.616   9.432  -7.357  1.00  0.00    -0.000 C 
BRANCH  18  19
ATOM     19  C   UNL     1      43.274  10.086  -6.986  1.00  0.00    -0.003 C 
ATOM     20  C   UNL     1      42.496   9.297  -5.934  1.00  0.00     0.004 C 
ENDBRANCH  18  19
ENDBRANCH  17  18
ENDBRANCH  16  17
ENDBRANCH  15  16
ENDBRANCH  14  15
ENDBRANCH  13  14
ENDBRANCH  12  13
ENDBRANCH   1  12
TORSDOF 16
ENDMDL
MODEL 6
REMARK VINA RESULT:    -5.061      1.745      3.911
REMARK INTER + INTRA:         -12.749
REMARK INTER:                 -10.048
REMARK INTRA:                  -2.701
REMARK UNBOUND:                -2.954
REMARK SMILES CCCCCCCCCCCCCCCCCC(=O)[O-]
REMARK SMILES IDX 10 1 11 2 12 3 13 4 14 5 15 6 16 7 17 8 18 9 19 10 20 11
REMARK SMILES IDX 9 12 8 13 7 14 6 15 5 16 4 17 3 18 2 19 1 20
REMARK H PARENT
REMARK Flexibility Score: inf
ROOT
ATOM      1  C   UNL     1      32.794   3.752   4.847  1.00  0.00     0.000 C 
ENDROOT
BRANCH   1   2
ATOM      2  C   UNL     1      33.654   3.477   6.096  1.00  0.00     0.000 C 
BRANCH   2   3
ATOM      3  C   UNL     1      34.139   4.735   6.838  1.00  0.00     0.000 C 
BRANCH   3   4
ATOM      4  C   UNL     1      35.559   4.628   7.424  1.00  0.00     0.000 C 
BRANCH   4   5
ATOM      5  C   UNL     1      36.110   3.182   7.452  1.00  0.00     0.000 C 
BRANCH   5   6
ATOM      6  C   UNL     1      37.634   3.092   7.225  1.00  0.00     0.000 C 
BRANCH   6   7
ATOM      7  C   UNL     1      38.049   2.496   5.862  1.00  0.00     0.006 C 
BRANCH   7   8
ATOM      8  C   UNL     1      38.012   3.487   4.687  1.00  0.00     0.053 C 
BRANCH   8   9
ATOM      9  C   UNL     1      38.098   2.795   3.363  1.00  0.00     0.041 C 
ATOM     10  O   UNL     1      37.592   3.324   2.337  1.00  0.00    -0.550 OA
ATOM     11  O   UNL     1      38.752   1.574   3.255  1.00  0.00    -0.550 OA
ENDBRANCH   8   9
ENDBRANCH   7   8
ENDBRANCH   6   7
ENDBRANCH   5   6
ENDBRANCH   4   5
ENDBRANCH   3   4
ENDBRANCH   2   3
ENDBRANCH   1   2
BRANCH   1  12
ATOM     12  C   UNL     1      33.457   3.308   3.525  1.00  0.00     0.000 C 
BRANCH  12  13
ATOM     13  C   UNL     1      34.570   2.271   3.752  1.00  0.00    -0.000 C 
BRANCH  13  14
ATOM     14  C   UNL     1      34.267   0.924   3.077  1.00  0.00    -0.000 C 
BRANCH  14  15
ATOM     15  C   UNL     1      35.507   0.016   2.989  1.00  0.00    -0.000 C 
BRANCH  15  16
ATOM     16  C   UNL     1      35.513  -1.086   4.063  1.00  0.00    -0.000 C 
BRANCH  16  17
ATOM     17  C   UNL     1      36.432  -0.808   5.270  1.00  0.00    -0.000 C 
BRANCH  17  18
ATOM     18  C   UNL     1      35.707  -0.373   6.560  1.00  0.00    -0.000 C 
BRANCH  18  19
ATOM     19  C   UNL     1      34.171  -0.342   6.458  1.00  0.00    -0.003 C 
ATOM     20  C   UNL     1      33.501   0.192   7.724  1.00  0.00     0.004 C 
ENDBRANCH  18  19
ENDBRANCH  17  18
ENDBRANCH  16  17
ENDBRANCH  15  16
ENDBRANCH  14  15
ENDBRANCH  13  14
ENDBRANCH  12  13
ENDBRANCH   1  12
TORSDOF 16
ENDMDL
MODEL 7
REMARK VINA RESULT:    -5.046      1.039      1.593
REMARK INTER + INTRA:         -12.720
REMARK INTER:                  -9.819
REMARK INTRA:                  -2.900
REMARK UNBOUND:                -2.954
REMARK SMILES CCCCCCCCCCCCCCCCCC(=O)[O-]
REMARK SMILES IDX 10 1 11 2 12 3 13 4 14 5 15 6 16 7 17 8 18 9 19 10 20 11
REMARK SMILES IDX 9 12 8 13 7 14 6 15 5 16 4 17 3 18 2 19 1 20
REMARK H PARENT
REMARK Flexibility Score: inf
ROOT
ATOM      1  C   UNL     1      35.123  -0.669   4.004  1.00  0.00     0.000 C 
ENDROOT
BRANCH   1   2
ATOM      2  C   UNL     1      34.440  -0.280   5.330  1.00  0.00     0.000 C 
BRANCH   2   3
ATOM      3  C   UNL     1      35.362  -0.301   6.562  1.00  0.00     0.000 C 
BRANCH   3   4
ATOM      4  C   UNL     1      36.855  -0.084   6.251  1.00  0.00     0.000 C 
BRANCH   4   5
ATOM      5  C   UNL     1      37.515   1.018   7.113  1.00  0.00     0.000 C 
BRANCH   5   6
ATOM      6  C   UNL     1      38.571   1.851   6.358  1.00  0.00     0.000 C 
BRANCH   6   7
ATOM      7  C   UNL     1      38.070   2.495   5.048  1.00  0.00     0.006 C 
BRANCH   7   8
ATOM      8  C   UNL     1      38.711   1.935   3.768  1.00  0.00     0.053 C 
BRANCH   8   9
ATOM      9  C   UNL     1      39.905   2.730   3.341  1.00  0.00     0.041 C 
ATOM     10  O   UNL     1      40.830   2.976   4.160  1.00  0.00    -0.550 OA
ATOM     11  O   UNL     1      40.007   3.186   2.032  1.00  0.00    -0.550 OA
ENDBRANCH   8   9
ENDBRANCH   7   8
ENDBRANCH   6   7
ENDBRANCH   5   6
ENDBRANCH   4   5
ENDBRANCH   3   4
ENDBRANCH   2   3
ENDBRANCH   1   2
BRANCH   1  12
ATOM     12  C   UNL     1      35.210   0.491   2.988  1.00  0.00     0.000 C 
BRANCH  12  13
ATOM     13  C   UNL     1      34.239   1.634   3.324  1.00  0.00    -0.000 C 
BRANCH  13  14
ATOM     14  C   UNL     1      34.909   3.016   3.263  1.00  0.00    -0.000 C 
BRANCH  14  15
ATOM     15  C   UNL     1      34.787   3.791   4.587  1.00  0.00    -0.000 C 
BRANCH  15  16
ATOM     16  C   UNL     1      33.419   3.597   5.264  1.00  0.00    -0.000 C 
BRANCH  16  17
ATOM     17  C   UNL     1      33.440   3.684   6.803  1.00  0.00    -0.000 C 
BRANCH  17  18
ATOM     18  C   UNL     1      34.772   3.276   7.465  1.00  0.00    -0.000 C 
BRANCH  18  19
ATOM     19  C   UNL     1      35.452   4.387   8.286  1.00  0.00    -0.003 C 
ATOM     20  C   UNL     1      36.770   4.859   7.674  1.00  0.00     0.004 C 
ENDBRANCH  18  19
ENDBRANCH  17  18
ENDBRANCH  16  17
ENDBRANCH  15  16
ENDBRANCH  14  15
ENDBRANCH  13  14
ENDBRANCH  12  13
ENDBRANCH   1  12
TORSDOF 16
ENDMDL
MODEL 8
REMARK VINA RESULT:    -5.014      2.326      5.263
REMARK INTER + INTRA:         -12.658
REMARK INTER:                  -9.928
REMARK INTRA:                  -2.730
REMARK UNBOUND:                -2.954
REMARK SMILES CCCCCCCCCCCCCCCCCC(=O)[O-]
REMARK SMILES IDX 10 1 11 2 12 3 13 4 14 5 15 6 16 7 17 8 18 9 19 10 20 11
REMARK SMILES IDX 9 12 8 13 7 14 6 15 5 16 4 17 3 18 2 19 1 20
REMARK H PARENT
REMARK Flexibility Score: inf
ROOT
ATOM      1  C   UNL     1      35.491   3.998   8.183  1.00  0.00     0.000 C 
ENDROOT
BRANCH   1   2
ATOM      2  C   UNL     1      34.297   4.470   7.331  1.00  0.00     0.000 C 
BRANCH   2   3
ATOM      3  C   UNL     1      33.617   3.365   6.503  1.00  0.00     0.000 C 
BRANCH   3   4
ATOM      4  C   UNL     1      33.157   3.806   5.100  1.00  0.00     0.000 C 
BRANCH   4   5
ATOM      5  C   UNL     1      33.948   3.138   3.950  1.00  0.00     0.000 C 
BRANCH   5   6
ATOM      6  C   UNL     1      35.455   3.466   3.957  1.00  0.00     0.000 C 
BRANCH   6   7
ATOM      7  C   UNL     1      35.789   4.972   4.012  1.00  0.00     0.006 C 
BRANCH   7   8
ATOM      8  C   UNL     1      36.825   5.441   2.978  1.00  0.00     0.053 C 
BRANCH   8   9
ATOM      9  C   UNL     1      36.542   4.901   1.611  1.00  0.00     0.041 C 
ATOM     10  O   UNL     1      35.514   5.271   0.983  1.00  0.00    -0.550 OA
ATOM     11  O   UNL     1      37.423   4.003   1.020  1.00  0.00    -0.550 OA
ENDBRANCH   8   9
ENDBRANCH   7   8
ENDBRANCH   6   7
ENDBRANCH   5   6
ENDBRANCH   4   5
ENDBRANCH   3   4
ENDBRANCH   2   3
ENDBRANCH   1   2
BRANCH   1  12
ATOM     12  C   UNL     1      36.863   4.432   7.623  1.00  0.00     0.000 C 
BRANCH  12  13
ATOM     13  C   UNL     1      37.597   3.277   6.921  1.00  0.00    -0.000 C 
BRANCH  13  14
ATOM     14  C   UNL     1      37.016   1.901   7.286  1.00  0.00    -0.000 C 
BRANCH  14  15
ATOM     15  C   UNL     1      37.567   0.773   6.395  1.00  0.00    -0.000 C 
BRANCH  15  16
ATOM     16  C   UNL     1      36.580  -0.397   6.241  1.00  0.00    -0.000 C 
BRANCH  16  17
ATOM     17  C   UNL     1      35.094  -0.017   6.403  1.00  0.00    -0.000 C 
BRANCH  17  18
ATOM     18  C   UNL     1      34.168  -0.487   5.262  1.00  0.00    -0.000 C 
BRANCH  18  19
ATOM     19  C   UNL     1      34.898  -1.016   4.015  1.00  0.00    -0.003 C 
ATOM     20  C   UNL     1      34.882  -0.026   2.850  1.00  0.00     0.004 C 
ENDBRANCH  18  19
ENDBRANCH  17  18
ENDBRANCH  16  17
ENDBRANCH  15  16
ENDBRANCH  14  15
ENDBRANCH  13  14
ENDBRANCH  12  13
ENDBRANCH   1  12
TORSDOF 16
ENDMDL
MODEL 9
REMARK VINA RESULT:    -4.982     14.442     18.332
REMARK INTER + INTRA:         -12.597
REMARK INTER:                  -9.791
REMARK INTRA:                  -2.805
REMARK UNBOUND:                -2.954
REMARK SMILES CCCCCCCCCCCCCCCCCC(=O)[O-]
REMARK SMILES IDX 10 1 11 2 12 3 13 4 14 5 15 6 16 7 17 8 18 9 19 10 20 11
REMARK SMILES IDX 9 12 8 13 7 14 6 15 5 16 4 17 3 18 2 19 1 20
REMARK H PARENT
REMARK Flexibility Score: inf
ROOT
ATOM      1  C   UNL     1      50.395  10.272  -5.869  1.00  0.00     0.000 C 
ENDROOT
BRANCH   1   2
ATOM      2  C   UNL     1      49.576   9.015  -6.223  1.00  0.00     0.000 C 
BRANCH   2   3
ATOM      3  C   UNL     1      49.253   8.853  -7.719  1.00  0.00     0.000 C 
BRANCH   3   4
ATOM      4  C   UNL     1      48.165   7.809  -8.031  1.00  0.00     0.000 C 
BRANCH   4   5
ATOM      5  C   UNL     1      46.754   8.219  -7.546  1.00  0.00     0.000 C 
BRANCH   5   6
ATOM      6  C   UNL     1      46.307   7.504  -6.255  1.00  0.00     0.000 C 
BRANCH   6   7
ATOM      7  C   UNL     1      45.892   8.446  -5.105  1.00  0.00     0.006 C 
BRANCH   7   8
ATOM      8  C   UNL     1      46.778   8.362  -3.852  1.00  0.00     0.053 C 
BRANCH   8   9
ATOM      9  C   UNL     1      46.096   7.653  -2.723  1.00  0.00     0.041 C 
ATOM     10  O   UNL     1      45.883   8.251  -1.635  1.00  0.00    -0.550 OA
ATOM     11  O   UNL     1      45.678   6.338  -2.878  1.00  0.00    -0.550 OA
ENDBRANCH   8   9
ENDBRANCH   7   8
ENDBRANCH   6   7
ENDBRANCH   5   6
ENDBRANCH   4   5
ENDBRANCH   3   4
ENDBRANCH   2   3
ENDBRANCH   1   2
BRANCH   1  12
ATOM     12  C   UNL     1      49.581  11.583  -5.936  1.00  0.00     0.000 C 
BRANCH  12  13
ATOM     13  C   UNL     1      48.401  11.586  -4.951  1.00  0.00    -0.000 C 
BRANCH  13  14
ATOM     14  C   UNL     1      47.188  12.365  -5.485  1.00  0.00    -0.000 C 
BRANCH  14  15
ATOM     15  C   UNL     1      46.598  11.737  -6.760  1.00  0.00    -0.000 C 
BRANCH  15  16
ATOM     16  C   UNL     1      46.055  12.789  -7.743  1.00  0.00    -0.000 C 
BRANCH  16  17
ATOM     17  C   UNL     1      46.109  12.378  -9.228  1.00  0.00    -0.000 C 
BRANCH  17  18
ATOM     18  C   UNL     1      47.199  11.346  -9.583  1.00  0.00    -0.000 C 
BRANCH  18  19
ATOM     19  C   UNL     1      48.401  11.917 -10.357  1.00  0.00    -0.003 C 
ATOM     20  C   UNL     1      49.618  12.169  -9.468  1.00  0.00     0.004 C 
ENDBRANCH  18  19
ENDBRANCH  17  18
ENDBRANCH  16  17
ENDBRANCH  15  16
ENDBRANCH  14  15
ENDBRANCH  13  14
ENDBRANCH  12  13
ENDBRANCH   1  12
TORSDOF 16
ENDMDL
