MODEL 1
REMARK VINA RESULT:    -4.974      0.000      0.000
REMARK INTER + INTRA:          -8.316
REMARK INTER:                  -7.882
REMARK INTRA:                  -0.434
REMARK UNBOUND:                -0.434
REMARK SMILES CCCCCCCCCCCC(=O)[O-]
REMARK SMILES IDX 7 1 8 2 9 3 10 4 11 5 12 6 13 7 14 8 6 9 5 10 4 11 3 12 2 13
REMARK SMILES IDX 1 14
REMARK H PARENT
REMARK Flexibility Score: inf
ROOT
ATOM      1  C   UNL     1      -7.686  -5.471  -5.752  1.00  0.00     0.000 C 
ENDROOT
BRANCH   1   2
ATOM      2  C   UNL     1      -9.113  -5.885  -5.362  1.00  0.00     0.000 C 
BRANCH   2   3
ATOM      3  C   UNL     1     -10.100  -4.706  -5.387  1.00  0.00     0.000 C 
BRANCH   3   4
ATOM      4  C   UNL     1      -9.679  -3.563  -4.451  1.00  0.00     0.006 C 
BRANCH   4   5
ATOM      5  C   UNL     1     -10.135  -3.837  -3.014  1.00  0.00     0.053 C 
BRANCH   5   6
ATOM      6  C   UNL     1      -9.048  -3.494  -2.045  1.00  0.00     0.041 C 
ATOM      7  O   UNL     1      -8.361  -4.408  -1.515  1.00  0.00    -0.550 OA
ATOM      8  O   UNL     1      -8.758  -2.166  -1.765  1.00  0.00    -0.550 OA
ENDBRANCH   5   6
ENDBRANCH   4   5
ENDBRANCH   3   4
ENDBRANCH   2   3
ENDBRANCH   1   2
BRANCH   1   9
ATOM      9  C   UNL     1      -6.657  -6.472  -5.212  1.00  0.00     0.000 C 
BRANCH   9  10
ATOM     10  C   UNL     1      -5.540  -6.719  -6.235  1.00  0.00    -0.000 C 
BRANCH  10  11
ATOM     11  C   UNL     1      -4.256  -5.927  -5.927  1.00  0.00    -0.000 C 
BRANCH  11  12
ATOM     12  C   UNL     1      -4.391  -4.398  -6.049  1.00  0.00    -0.000 C 
BRANCH  12  13
ATOM     13  C   UNL     1      -3.124  -3.649  -5.608  1.00  0.00    -0.003 C 
ATOM     14  C   UNL     1      -3.186  -2.179  -6.013  1.00  0.00     0.004 C 
ENDBRANCH  12  13
ENDBRANCH  11  12
ENDBRANCH  10  11
ENDBRANCH   9  10
ENDBRANCH   1   9
TORSDOF 10
ENDMDL
MODEL 2
REMARK VINA RESULT:    -4.851      0.711      1.147
REMARK INTER + INTRA:          -8.121
REMARK INTER:                  -7.510
REMARK INTRA:                  -0.612
REMARK UNBOUND:                -0.434
REMARK SMILES CCCCCCCCCCCC(=O)[O-]
REMARK SMILES IDX 7 1 8 2 9 3 10 4 11 5 12 6 13 7 14 8 6 9 5 10 4 11 3 12 2 13
REMARK SMILES IDX 1 14
REMARK H PARENT
REMARK Flexibility Score: inf
ROOT
ATOM      1  C   UNL     1      -8.101  -5.127  -6.675  1.00  0.00     0.000 C 
ENDROOT
BRANCH   1   2
ATOM      2  C   UNL     1      -8.331  -5.230  -5.160  1.00  0.00     0.000 C 
BRANCH   2   3
ATOM      3  C   UNL     1      -9.804  -5.035  -4.769  1.00  0.00     0.000 C 
BRANCH   3   4
ATOM      4  C   UNL     1     -10.113  -3.599  -4.323  1.00  0.00     0.006 C 
BRANCH   4   5
ATOM      5  C   UNL     1     -10.269  -3.520  -2.801  1.00  0.00     0.053 C 
BRANCH   5   6
ATOM      6  C   UNL     1      -8.938  -3.326  -2.147  1.00  0.00     0.041 C 
ATOM      7  O   UNL     1      -8.332  -2.227  -2.256  1.00  0.00    -0.550 OA
ATOM      8  O   UNL     1      -8.387  -4.341  -1.375  1.00  0.00    -0.550 OA
ENDBRANCH   5   6
ENDBRANCH   4   5
ENDBRANCH   3   4
ENDBRANCH   2   3
ENDBRANCH   1   2
BRANCH   1   9
ATOM      9  C   UNL     1      -6.856  -5.916  -7.098  1.00  0.00     0.000 C 
BRANCH   9  10
ATOM     10  C   UNL     1      -5.972  -6.241  -5.885  1.00  0.00    -0.000 C 
BRANCH  10  11
ATOM     11  C   UNL     1      -4.560  -5.639  -5.992  1.00  0.00    -0.000 C 
BRANCH  11  12
ATOM     12  C   UNL     1      -4.518  -4.121  -6.248  1.00  0.00    -0.000 C 
BRANCH  12  13
ATOM     13  C   UNL     1      -3.288  -3.443  -5.627  1.00  0.00    -0.003 C 
ATOM     14  C   UNL     1      -3.197  -1.978  -6.046  1.00  0.00     0.004 C 
ENDBRANCH  12  13
ENDBRANCH  11  12
ENDBRANCH  10  11
ENDBRANCH   9  10
ENDBRANCH   1   9
TORSDOF 10
ENDMDL
MODEL 3
REMARK VINA RESULT:    -4.823      3.178      6.022
REMARK INTER + INTRA:          -8.076
REMARK INTER:                  -7.200
REMARK INTRA:                  -0.875
REMARK UNBOUND:                -0.434
REMARK SMILES CCCCCCCCCCCC(=O)[O-]
REMARK SMILES IDX 7 1 8 2 9 3 10 4 11 5 12 6 13 7 14 8 6 9 5 10 4 11 3 12 2 13
REMARK SMILES IDX 1 14
REMARK H PARENT
REMARK Flexibility Score: inf
ROOT
ATOM      1  C   UNL     1      -8.816  -4.523  -4.622  1.00  0.00     0.000 C 
ENDROOT
BRANCH   1   2
ATOM      2  C   UNL     1      -8.430  -5.611  -5.634  1.00  0.00     0.000 C 
BRANCH   2   3
ATOM      3  C   UNL     1      -8.030  -5.035  -7.002  1.00  0.00     0.000 C 
BRANCH   3   4
ATOM      4  C   UNL     1      -6.619  -5.461  -7.433  1.00  0.00     0.006 C 
BRANCH   4   5
ATOM      5  C   UNL     1      -5.655  -5.444  -6.243  1.00  0.00     0.053 C 
BRANCH   5   6
ATOM      6  C   UNL     1      -4.946  -6.757  -6.125  1.00  0.00     0.041 C 
ATOM      7  O   UNL     1      -3.690  -6.792  -6.031  1.00  0.00    -0.550 OA
ATOM      8  O   UNL     1      -5.674  -7.938  -6.067  1.00  0.00    -0.550 OA
ENDBRANCH   5   6
ENDBRANCH   4   5
ENDBRANCH   3   4
ENDBRANCH   2   3
ENDBRANCH   1   2
BRANCH   1   9
ATOM      9  C   UNL     1      -9.752  -3.487  -5.258  1.00  0.00     0.000 C 
BRANCH   9  10
ATOM     10  C   UNL     1     -11.067  -3.378  -4.473  1.00  0.00    -0.000 C 
BRANCH  10  11
ATOM     11  C   UNL     1     -11.013  -4.087  -3.108  1.00  0.00    -0.000 C 
BRANCH  11  12
ATOM     12  C   UNL     1     -10.845  -3.152  -1.896  1.00  0.00    -0.000 C 
BRANCH  12  13
ATOM     13  C   UNL     1      -9.524  -3.377  -1.145  1.00  0.00    -0.003 C 
ATOM     14  C   UNL     1      -8.436  -2.433  -1.649  1.00  0.00     0.004 C 
ENDBRANCH  12  13
ENDBRANCH  11  12
ENDBRANCH  10  11
ENDBRANCH   9  10
ENDBRANCH   1   9
TORSDOF 10
ENDMDL
MODEL 4
REMARK VINA RESULT:    -4.763      1.564      2.189
REMARK INTER + INTRA:          -7.981
REMARK INTER:                  -7.117
REMARK INTRA:                  -0.865
REMARK UNBOUND:                -0.434
REMARK SMILES CCCCCCCCCCCC(=O)[O-]
REMARK SMILES IDX 7 1 8 2 9 3 10 4 11 5 12 6 13 7 14 8 6 9 5 10 4 11 3 12 2 13
REMARK SMILES IDX 1 14
REMARK H PARENT
REMARK Flexibility Score: inf
ROOT
ATOM      1  C   UNL     1      -7.265  -6.162  -8.437  1.00  0.00     0.000 C 
ENDROOT
BRANCH   1   2
ATOM      2  C   UNL     1      -8.018  -5.039  -7.710  1.00  0.00     0.000 C 
BRANCH   2   3
ATOM      3  C   UNL     1      -9.492  -5.387  -7.446  1.00  0.00     0.000 C 
BRANCH   3   4
ATOM      4  C   UNL     1      -9.805  -5.537  -5.950  1.00  0.00     0.006 C 
BRANCH   4   5
ATOM      5  C   UNL     1      -8.596  -5.143  -5.095  1.00  0.00     0.053 C 
BRANCH   5   6
ATOM      6  C   UNL     1      -8.978  -4.093  -4.101  1.00  0.00     0.041 C 
ATOM      7  O   UNL     1      -9.482  -3.005  -4.490  1.00  0.00    -0.550 OA
ATOM      8  O   UNL     1      -8.824  -4.332  -2.742  1.00  0.00    -0.550 OA
ENDBRANCH   5   6
ENDBRANCH   4   5
ENDBRANCH   3   4
ENDBRANCH   2   3
ENDBRANCH   1   2
BRANCH   1   9
ATOM      9  C   UNL     1      -5.762  -6.098  -8.140  1.00  0.00     0.000 C 
BRANCH   9  10
ATOM     10  C   UNL     1      -5.441  -6.738  -6.781  1.00  0.00    -0.000 C 
BRANCH  10  11
ATOM     11  C   UNL     1      -4.339  -5.989  -6.010  1.00  0.00    -0.000 C 
BRANCH  11  12
ATOM     12  C   UNL     1      -4.448  -4.454  -6.048  1.00  0.00    -0.000 C 
BRANCH  12  13
ATOM     13  C   UNL     1      -3.149  -3.751  -5.625  1.00  0.00    -0.003 C 
ATOM     14  C   UNL     1      -3.201  -2.260  -5.944  1.00  0.00     0.004 C 
ENDBRANCH  12  13
ENDBRANCH  11  12
ENDBRANCH  10  11
ENDBRANCH   9  10
ENDBRANCH   1   9
TORSDOF 10
ENDMDL
MODEL 5
REMARK VINA RESULT:    -4.615      1.541      2.599
REMARK INTER + INTRA:          -7.747
REMARK INTER:                  -6.855
REMARK INTRA:                  -0.893
REMARK UNBOUND:                -0.434
REMARK SMILES CCCCCCCCCCCC(=O)[O-]
REMARK SMILES IDX 7 1 8 2 9 3 10 4 11 5 12 6 13 7 14 8 6 9 5 10 4 11 3 12 2 13
REMARK SMILES IDX 1 14
REMARK H PARENT
REMARK Flexibility Score: inf
ROOT
ATOM      1  C   UNL     1      -9.221  -4.558  -6.352  1.00  0.00     0.000 C 
ENDROOT
BRANCH   1   2
ATOM      2  C   UNL     1      -9.414  -5.518  -5.169  1.00  0.00     0.000 C 
BRANCH   2   3
ATOM      3  C   UNL     1     -10.636  -5.162  -4.309  1.00  0.00     0.000 C 
BRANCH   3   4
ATOM      4  C   UNL     1     -10.665  -3.680  -3.905  1.00  0.00     0.006 C 
BRANCH   4   5
ATOM      5  C   UNL     1     -10.608  -3.527  -2.382  1.00  0.00     0.053 C 
BRANCH   5   6
ATOM      6  C   UNL     1      -9.202  -3.288  -1.931  1.00  0.00     0.041 C 
ATOM      7  O   UNL     1      -8.746  -2.115  -1.872  1.00  0.00    -0.550 OA
ATOM      8  O   UNL     1      -8.409  -4.355  -1.529  1.00  0.00    -0.550 OA
ENDBRANCH   5   6
ENDBRANCH   4   5
ENDBRANCH   3   4
ENDBRANCH   2   3
ENDBRANCH   1   2
BRANCH   1   9
ATOM      9  C   UNL     1      -8.753  -5.313  -7.602  1.00  0.00     0.000 C 
BRANCH   9  10
ATOM     10  C   UNL     1      -7.514  -4.646  -8.217  1.00  0.00    -0.000 C 
BRANCH  10  11
ATOM     11  C   UNL     1      -6.212  -5.413  -7.924  1.00  0.00    -0.000 C 
BRANCH  11  12
ATOM     12  C   UNL     1      -5.489  -4.997  -6.630  1.00  0.00    -0.000 C 
BRANCH  12  13
ATOM     13  C   UNL     1      -4.894  -6.190  -5.866  1.00  0.00    -0.003 C 
ATOM     14  C   UNL     1      -5.975  -7.203  -5.499  1.00  0.00     0.004 C 
ENDBRANCH  12  13
ENDBRANCH  11  12
ENDBRANCH  10  11
ENDBRANCH   9  10
ENDBRANCH   1   9
TORSDOF 10
ENDMDL
MODEL 6
REMARK VINA RESULT:    -4.586      1.691      2.480
REMARK INTER + INTRA:          -7.700
REMARK INTER:                  -6.984
REMARK INTRA:                  -0.716
REMARK UNBOUND:                -0.434
REMARK SMILES CCCCCCCCCCCC(=O)[O-]
REMARK SMILES IDX 7 1 8 2 9 3 10 4 11 5 12 6 13 7 14 8 6 9 5 10 4 11 3 12 2 13
REMARK SMILES IDX 1 14
REMARK H PARENT
REMARK Flexibility Score: inf
ROOT
ATOM      1  C   UNL     1      -8.869  -5.122  -5.389  1.00  0.00     0.000 C 
ENDROOT
BRANCH   1   2
ATOM      2  C   UNL     1     -10.164  -5.905  -5.129  1.00  0.00     0.000 C 
BRANCH   2   3
ATOM      3  C   UNL     1     -11.046  -5.252  -4.052  1.00  0.00     0.000 C 
BRANCH   3   4
ATOM      4  C   UNL     1     -10.619  -3.812  -3.730  1.00  0.00     0.006 C 
BRANCH   4   5
ATOM      5  C   UNL     1     -10.526  -3.595  -2.217  1.00  0.00     0.053 C 
BRANCH   5   6
ATOM      6  C   UNL     1      -9.106  -3.361  -1.807  1.00  0.00     0.041 C 
ATOM      7  O   UNL     1      -8.362  -4.335  -1.517  1.00  0.00    -0.550 OA
ATOM      8  O   UNL     1      -8.589  -2.072  -1.793  1.00  0.00    -0.550 OA
ENDBRANCH   5   6
ENDBRANCH   4   5
ENDBRANCH   3   4
ENDBRANCH   2   3
ENDBRANCH   1   2
BRANCH   1   9
ATOM      9  C   UNL     1      -8.862  -4.525  -6.802  1.00  0.00     0.000 C 
BRANCH   9  10
ATOM     10  C   UNL     1      -8.173  -5.470  -7.796  1.00  0.00    -0.000 C 
BRANCH  10  11
ATOM     11  C   UNL     1      -6.640  -5.338  -7.787  1.00  0.00    -0.000 C 
BRANCH  11  12
ATOM     12  C   UNL     1      -5.872  -6.671  -7.724  1.00  0.00    -0.000 C 
BRANCH  12  13
ATOM     13  C   UNL     1      -5.480  -7.070  -6.294  1.00  0.00    -0.003 C 
ATOM     14  C   UNL     1      -4.221  -6.335  -5.843  1.00  0.00     0.004 C 
ENDBRANCH  12  13
ENDBRANCH  11  12
ENDBRANCH  10  11
ENDBRANCH   9  10
ENDBRANCH   1   9
TORSDOF 10
ENDMDL
MODEL 7
REMARK VINA RESULT:    -4.344      2.820      5.571
REMARK INTER + INTRA:          -7.317
REMARK INTER:                  -6.637
REMARK INTRA:                  -0.680
REMARK UNBOUND:                -0.434
REMARK SMILES CCCCCCCCCCCC(=O)[O-]
REMARK SMILES IDX 7 1 8 2 9 3 10 4 11 5 12 6 13 7 14 8 6 9 5 10 4 11 3 12 2 13
REMARK SMILES IDX 1 14
REMARK H PARENT
REMARK Flexibility Score: inf
ROOT
ATOM      1  C   UNL     1     -10.965  -3.910  -4.668  1.00  0.00     0.000 C 
ENDROOT
BRANCH   1   2
ATOM      2  C   UNL     1     -10.264  -4.955  -5.548  1.00  0.00     0.000 C 
BRANCH   2   3
ATOM      3  C   UNL     1      -8.878  -4.494  -6.026  1.00  0.00     0.000 C 
BRANCH   3   4
ATOM      4  C   UNL     1      -8.171  -5.547  -6.892  1.00  0.00     0.006 C 
BRANCH   4   5
ATOM      5  C   UNL     1      -6.672  -5.594  -6.581  1.00  0.00     0.053 C 
BRANCH   5   6
ATOM      6  C   UNL     1      -6.365  -6.723  -5.648  1.00  0.00     0.041 C 
ATOM      7  O   UNL     1      -6.933  -6.789  -4.525  1.00  0.00    -0.550 OA
ATOM      8  O   UNL     1      -5.492  -7.730  -6.037  1.00  0.00    -0.550 OA
ENDBRANCH   5   6
ENDBRANCH   4   5
ENDBRANCH   3   4
ENDBRANCH   2   3
ENDBRANCH   1   2
BRANCH   1   9
ATOM      9  C   UNL     1     -11.079  -4.398  -3.218  1.00  0.00     0.000 C 
BRANCH   9  10
ATOM     10  C   UNL     1     -11.120  -3.215  -2.240  1.00  0.00    -0.000 C 
BRANCH  10  11
ATOM     11  C   UNL     1     -10.104  -3.350  -1.091  1.00  0.00    -0.000 C 
BRANCH  11  12
ATOM     12  C   UNL     1      -8.666  -3.679  -1.531  1.00  0.00    -0.000 C 
BRANCH  12  13
ATOM     13  C   UNL     1      -8.017  -2.552  -2.349  1.00  0.00    -0.003 C 
ATOM     14  C   UNL     1      -7.776  -1.316  -1.489  1.00  0.00     0.004 C 
ENDBRANCH  12  13
ENDBRANCH  11  12
ENDBRANCH  10  11
ENDBRANCH   9  10
ENDBRANCH   1   9
TORSDOF 10
ENDMDL
MODEL 8
REMARK VINA RESULT:    -4.074      2.061      3.766
REMARK INTER + INTRA:          -6.890
REMARK INTER:                  -5.895
REMARK INTRA:                  -0.995
REMARK UNBOUND:                -0.434
REMARK SMILES CCCCCCCCCCCC(=O)[O-]
REMARK SMILES IDX 7 1 8 2 9 3 10 4 11 5 12 6 13 7 14 8 6 9 5 10 4 11 3 12 2 13
REMARK SMILES IDX 1 14
REMARK H PARENT
REMARK Flexibility Score: inf
ROOT
ATOM      1  C   UNL     1      -7.332  -5.856  -5.402  1.00  0.00     0.000 C 
ENDROOT
BRANCH   1   2
ATOM      2  C   UNL     1      -8.851  -5.640  -5.475  1.00  0.00     0.000 C 
BRANCH   2   3
ATOM      3  C   UNL     1      -9.299  -4.339  -4.792  1.00  0.00     0.000 C 
BRANCH   3   4
ATOM      4  C   UNL     1     -10.365  -4.574  -3.712  1.00  0.00     0.006 C 
BRANCH   4   5
ATOM      5  C   UNL     1     -10.315  -3.476  -2.645  1.00  0.00     0.053 C 
BRANCH   5   6
ATOM      6  C   UNL     1      -8.936  -3.360  -2.077  1.00  0.00     0.041 C 
ATOM      7  O   UNL     1      -8.416  -4.335  -1.470  1.00  0.00    -0.550 OA
ATOM      8  O   UNL     1      -8.204  -2.194  -2.259  1.00  0.00    -0.550 OA
ENDBRANCH   5   6
ENDBRANCH   4   5
ENDBRANCH   3   4
ENDBRANCH   2   3
ENDBRANCH   1   2
BRANCH   1   9
ATOM      9  C   UNL     1      -6.629  -5.230  -6.612  1.00  0.00     0.000 C 
BRANCH   9  10
ATOM     10  C   UNL     1      -7.338  -5.610  -7.920  1.00  0.00    -0.000 C 
BRANCH  10  11
ATOM     11  C   UNL     1      -7.686  -4.391  -8.792  1.00  0.00    -0.000 C 
BRANCH  11  12
ATOM     12  C   UNL     1      -8.964  -4.539  -9.638  1.00  0.00    -0.000 C 
BRANCH  12  13
ATOM     13  C   UNL     1     -10.203  -4.876  -8.795  1.00  0.00    -0.003 C 
ATOM     14  C   UNL     1     -10.826  -3.614  -8.205  1.00  0.00     0.004 C 
ENDBRANCH  12  13
ENDBRANCH  11  12
ENDBRANCH  10  11
ENDBRANCH   9  10
ENDBRANCH   1   9
TORSDOF 10
ENDMDL
MODEL 9
REMARK VINA RESULT:    -4.071      3.214      5.665
REMARK INTER + INTRA:          -6.885
REMARK INTER:                  -5.908
REMARK INTRA:                  -0.977
REMARK UNBOUND:                -0.434
REMARK SMILES CCCCCCCCCCCC(=O)[O-]
REMARK SMILES IDX 7 1 8 2 9 3 10 4 11 5 12 6 13 7 14 8 6 9 5 10 4 11 3 12 2 13
REMARK SMILES IDX 1 14
REMARK H PARENT
REMARK Flexibility Score: inf
ROOT
ATOM      1  C   UNL     1      -9.671  -6.000  -7.877  1.00  0.00     0.000 C 
ENDROOT
BRANCH   1   2
ATOM      2  C   UNL     1      -8.870  -4.766  -8.317  1.00  0.00     0.000 C 
BRANCH   2   3
ATOM      3  C   UNL     1      -7.390  -4.843  -7.909  1.00  0.00     0.000 C 
BRANCH   3   4
ATOM      4  C   UNL     1      -7.150  -5.798  -6.731  1.00  0.00     0.006 C 
BRANCH   4   5
ATOM      5  C   UNL     1      -5.809  -5.503  -6.051  1.00  0.00     0.053 C 
BRANCH   5   6
ATOM      6  C   UNL     1      -4.965  -6.737  -5.999  1.00  0.00     0.041 C 
ATOM      7  O   UNL     1      -5.506  -7.875  -6.000  1.00  0.00    -0.550 OA
ATOM      8  O   UNL     1      -3.580  -6.634  -5.999  1.00  0.00    -0.550 OA
ENDBRANCH   5   6
ENDBRANCH   4   5
ENDBRANCH   3   4
ENDBRANCH   2   3
ENDBRANCH   1   2
BRANCH   1   9
ATOM      9  C   UNL     1     -10.872  -5.596  -7.013  1.00  0.00     0.000 C 
BRANCH   9  10
ATOM     10  C   UNL     1     -10.596  -5.862  -5.526  1.00  0.00    -0.000 C 
BRANCH  10  11
ATOM     11  C   UNL     1     -11.073  -4.718  -4.613  1.00  0.00    -0.000 C 
BRANCH  11  12
ATOM     12  C   UNL     1     -10.127  -3.505  -4.543  1.00  0.00    -0.000 C 
BRANCH  12  13
ATOM     13  C   UNL     1      -8.874  -3.770  -3.695  1.00  0.00    -0.003 C 
ATOM     14  C   UNL     1      -9.103  -3.375  -2.239  1.00  0.00     0.004 C 
ENDBRANCH  12  13
ENDBRANCH  11  12
ENDBRANCH  10  11
ENDBRANCH   9  10
ENDBRANCH   1   9
TORSDOF 10
ENDMDL
