MODEL 1
REMARK VINA RESULT:    -5.902      0.000      0.000
REMARK INTER + INTRA:          -7.207
REMARK INTER:                  -6.937
REMARK INTRA:                  -0.270
REMARK UNBOUND:                -0.270
REMARK SMILES O=c1cc(-c2ccc(O)c(O)c2)oc2cc(O)cc(O)c12
REMARK SMILES IDX 4 1 3 2 2 3 1 4 21 5 19 6 18 7 16 8 15 9 14 10 13 11 5 12
REMARK SMILES IDX 6 13 7 14 8 15 12 16 10 17 9 18 11 20 20 22 17 24
REMARK H PARENT 9 19 11 21 20 23 17 25
REMARK Flexibility Score: inf
ROOT
ATOM      1  C   UNL     1      -1.972   8.930 -10.417  1.00  0.00     0.138 A 
ATOM      2  C   UNL     1      -1.812   7.745  -9.685  1.00  0.00     0.100 A 
ATOM      3  C   UNL     1      -0.530   7.310  -9.347  1.00  0.00     0.197 A 
ATOM      4  O   UNL     1      -0.415   6.212  -8.745  1.00  0.00    -0.289 OA
ATOM      5  C   UNL     1       0.596   8.084  -9.719  1.00  0.00     0.107 A 
ATOM      6  C   UNL     1       1.947   7.760  -9.394  1.00  0.00     0.134 A 
ATOM      7  C   UNL     1       2.987   8.540  -9.916  1.00  0.00     0.093 A 
ATOM      8  C   UNL     1       2.724   9.663 -10.699  1.00  0.00     0.123 A 
ATOM      9  C   UNL     1       1.404  10.020 -10.978  1.00  0.00     0.094 A 
ATOM     10  C   UNL     1       0.345   9.243 -10.501  1.00  0.00     0.146 A 
ATOM     11  O   UNL     1      -0.896   9.608 -10.801  1.00  0.00    -0.456 OA
ENDROOT
BRANCH   1  12
ATOM     12  C   UNL     1      -3.313   9.438 -10.802  1.00  0.00     0.021 A 
ATOM     13  C   UNL     1      -4.080   8.726 -11.740  1.00  0.00     0.016 A 
ATOM     14  C   UNL     1      -5.342   9.187 -12.125  1.00  0.00     0.051 A 
ATOM     15  C   UNL     1      -5.855  10.375 -11.586  1.00  0.00     0.157 A 
ATOM     16  C   UNL     1      -3.830  10.638 -10.274  1.00  0.00     0.062 A 
ATOM     17  C   UNL     1      -5.093  11.103 -10.659  1.00  0.00     0.158 A 
BRANCH  15  18
ATOM     18  O   UNL     1      -7.114  10.831 -11.970  1.00  0.00    -0.504 OA
ATOM     19  H   UNL     1      -7.352  11.816 -11.945  1.00  0.00     0.293 HD
ENDBRANCH  15  18
BRANCH  17  20
ATOM     20  O   UNL     1      -5.571  12.294 -10.113  1.00  0.00    -0.504 OA
ATOM     21  H   UNL     1      -6.380  12.322  -9.506  1.00  0.00     0.293 HD
ENDBRANCH  17  20
ENDBRANCH   1  12
BRANCH   6  22
ATOM     22  O   UNL     1       2.318   6.709  -8.552  1.00  0.00    -0.507 OA
ATOM     23  H   UNL     1       2.528   5.771  -8.858  1.00  0.00     0.293 HD
ENDBRANCH   6  22
BRANCH   8  24
ATOM     24  O   UNL     1       3.784  10.423 -11.188  1.00  0.00    -0.508 OA
ATOM     25  H   UNL     1       3.671  11.041 -11.984  1.00  0.00     0.293 HD
ENDBRANCH   8  24
TORSDOF 5
ENDMDL
MODEL 2
REMARK VINA RESULT:    -5.453      1.982      7.228
REMARK INTER + INTRA:          -6.680
REMARK INTER:                  -6.397
REMARK INTRA:                  -0.283
REMARK UNBOUND:                -0.270
REMARK SMILES O=c1cc(-c2ccc(O)c(O)c2)oc2cc(O)cc(O)c12
REMARK SMILES IDX 4 1 3 2 2 3 1 4 21 5 19 6 18 7 16 8 15 9 14 10 13 11 5 12
REMARK SMILES IDX 6 13 7 14 8 15 12 16 10 17 9 18 11 20 20 22 17 24
REMARK H PARENT 9 19 11 21 20 23 17 25
REMARK Flexibility Score: inf
ROOT
ATOM      1  C   UNL     1       1.873   9.048 -10.757  1.00  0.00     0.138 A 
ATOM      2  C   UNL     1       1.784   7.875  -9.994  1.00  0.00     0.100 A 
ATOM      3  C   UNL     1       0.530   7.342  -9.692  1.00  0.00     0.197 A 
ATOM      4  O   UNL     1       0.480   6.325  -8.953  1.00  0.00    -0.289 OA
ATOM      5  C   UNL     1      -0.639   7.970 -10.184  1.00  0.00     0.107 A 
ATOM      6  C   UNL     1      -1.968   7.494  -9.974  1.00  0.00     0.134 A 
ATOM      7  C   UNL     1      -3.053   8.263 -10.411  1.00  0.00     0.093 A 
ATOM      8  C   UNL     1      -2.858   9.458 -11.102  1.00  0.00     0.123 A 
ATOM      9  C   UNL     1      -1.562   9.907 -11.361  1.00  0.00     0.094 A 
ATOM     10  C   UNL     1      -0.459   9.180 -10.907  1.00  0.00     0.146 A 
ATOM     11  O   UNL     1       0.759   9.648 -11.161  1.00  0.00    -0.456 OA
ENDROOT
BRANCH   1  12
ATOM     12  C   UNL     1       3.181   9.657 -11.108  1.00  0.00     0.021 A 
ATOM     13  C   UNL     1       3.308  11.057 -11.129  1.00  0.00     0.016 A 
ATOM     14  C   UNL     1       4.526  11.655 -11.463  1.00  0.00     0.051 A 
ATOM     15  C   UNL     1       5.635  10.865 -11.793  1.00  0.00     0.157 A 
ATOM     16  C   UNL     1       4.296   8.869 -11.453  1.00  0.00     0.062 A 
ATOM     17  C   UNL     1       5.517   9.466 -11.790  1.00  0.00     0.158 A 
BRANCH  15  18
ATOM     18  O   UNL     1       6.849  11.465 -12.124  1.00  0.00    -0.504 OA
ATOM     19  H   UNL     1       7.727  11.132 -11.744  1.00  0.00     0.293 HD
ENDBRANCH  15  18
BRANCH  17  20
ATOM     20  O   UNL     1       6.599   8.652 -12.125  1.00  0.00    -0.504 OA
ATOM     21  H   UNL     1       6.586   8.043 -12.933  1.00  0.00     0.293 HD
ENDBRANCH  17  20
ENDBRANCH   1  12
BRANCH   6  22
ATOM     22  O   UNL     1      -2.272   6.271  -9.370  1.00  0.00    -0.507 OA
ATOM     23  H   UNL     1      -3.073   6.104  -8.779  1.00  0.00     0.293 HD
ENDBRANCH   6  22
BRANCH   8  24
ATOM     24  O   UNL     1      -3.962  10.189 -11.536  1.00  0.00    -0.508 OA
ATOM     25  H   UNL     1      -4.909   9.855 -11.393  1.00  0.00     0.293 HD
ENDBRANCH   8  24
TORSDOF 5
ENDMDL
MODEL 3
REMARK VINA RESULT:    -5.392      2.319      7.732
REMARK INTER + INTRA:          -6.608
REMARK INTER:                  -6.303
REMARK INTRA:                  -0.306
REMARK UNBOUND:                -0.270
REMARK SMILES O=c1cc(-c2ccc(O)c(O)c2)oc2cc(O)cc(O)c12
REMARK SMILES IDX 4 1 3 2 2 3 1 4 21 5 19 6 18 7 16 8 15 9 14 10 13 11 5 12
REMARK SMILES IDX 6 13 7 14 8 15 12 16 10 17 9 18 11 20 20 22 17 24
REMARK H PARENT 9 19 11 21 20 23 17 25
REMARK Flexibility Score: inf
ROOT
ATOM      1  C   UNL     1       1.824  10.072 -11.414  1.00  0.00     0.138 A 
ATOM      2  C   UNL     1       0.972  11.095 -11.853  1.00  0.00     0.100 A 
ATOM      3  C   UNL     1      -0.405  10.976 -11.664  1.00  0.00     0.197 A 
ATOM      4  O   UNL     1      -1.148  11.881 -12.125  1.00  0.00    -0.289 OA
ATOM      5  C   UNL     1      -0.928   9.839 -11.003  1.00  0.00     0.107 A 
ATOM      6  C   UNL     1      -2.311   9.629 -10.718  1.00  0.00     0.134 A 
ATOM      7  C   UNL     1      -2.723   8.412 -10.162  1.00  0.00     0.093 A 
ATOM      8  C   UNL     1      -1.800   7.423  -9.825  1.00  0.00     0.123 A 
ATOM      9  C   UNL     1      -0.440   7.639 -10.049  1.00  0.00     0.094 A 
ATOM     10  C   UNL     1       0.000   8.829 -10.635  1.00  0.00     0.146 A 
ATOM     11  O   UNL     1       1.302   8.991 -10.845  1.00  0.00    -0.456 OA
ENDROOT
BRANCH   1  12
ATOM     12  C   UNL     1       3.297  10.148 -11.589  1.00  0.00     0.021 A 
ATOM     13  C   UNL     1       3.927  11.404 -11.604  1.00  0.00     0.016 A 
ATOM     14  C   UNL     1       5.310  11.504 -11.774  1.00  0.00     0.051 A 
ATOM     15  C   UNL     1       6.086  10.350 -11.944  1.00  0.00     0.157 A 
ATOM     16  C   UNL     1       4.081   8.993 -11.773  1.00  0.00     0.062 A 
ATOM     17  C   UNL     1       5.467   9.090 -11.947  1.00  0.00     0.158 A 
BRANCH  15  18
ATOM     18  O   UNL     1       7.466  10.452 -12.113  1.00  0.00    -0.504 OA
ATOM     19  H   UNL     1       8.001   9.723 -12.569  1.00  0.00     0.293 HD
ENDBRANCH  15  18
BRANCH  17  20
ATOM     20  O   UNL     1       6.210   7.923 -12.125  1.00  0.00    -0.504 OA
ATOM     21  H   UNL     1       7.213   7.897 -11.984  1.00  0.00     0.293 HD
ENDBRANCH  17  20
ENDBRANCH   1  12
BRANCH   6  22
ATOM     22  O   UNL     1      -3.307  10.585 -10.937  1.00  0.00    -0.507 OA
ATOM     23  H   UNL     1      -4.281  10.375 -11.098  1.00  0.00     0.293 HD
ENDBRANCH   6  22
BRANCH   8  24
ATOM     24  O   UNL     1      -2.246   6.231  -9.260  1.00  0.00    -0.508 OA
ATOM     25  H   UNL     1      -1.795   5.346  -9.464  1.00  0.00     0.293 HD
ENDBRANCH   8  24
TORSDOF 5
ENDMDL
MODEL 4
REMARK VINA RESULT:    -5.390     14.437     16.061
REMARK INTER + INTRA:          -6.606
REMARK INTER:                  -6.294
REMARK INTRA:                  -0.312
REMARK UNBOUND:                -0.270
REMARK SMILES O=c1cc(-c2ccc(O)c(O)c2)oc2cc(O)cc(O)c12
REMARK SMILES IDX 4 1 3 2 2 3 1 4 21 5 19 6 18 7 16 8 15 9 14 10 13 11 5 12
REMARK SMILES IDX 6 13 7 14 8 15 12 16 10 17 9 18 11 20 20 22 17 24
REMARK H PARENT 9 19 11 21 20 23 17 25
REMARK Flexibility Score: inf
ROOT
ATOM      1  C   UNL     1      -4.125  -4.998  -5.782  1.00  0.00     0.138 A 
ATOM      2  C   UNL     1      -5.485  -4.804  -6.060  1.00  0.00     0.100 A 
ATOM      3  C   UNL     1      -5.908  -4.683  -7.385  1.00  0.00     0.197 A 
ATOM      4  O   UNL     1      -7.125  -4.446  -7.600  1.00  0.00    -0.289 OA
ATOM      5  C   UNL     1      -4.967  -4.790  -8.436  1.00  0.00     0.107 A 
ATOM      6  C   UNL     1      -5.289  -4.724  -9.825  1.00  0.00     0.134 A 
ATOM      7  C   UNL     1      -4.258  -4.726 -10.772  1.00  0.00     0.093 A 
ATOM      8  C   UNL     1      -2.924  -4.852 -10.387  1.00  0.00     0.123 A 
ATOM      9  C   UNL     1      -2.601  -4.972  -9.035  1.00  0.00     0.094 A 
ATOM     10  C   UNL     1      -3.604  -4.938  -8.063  1.00  0.00     0.146 A 
ATOM     11  O   UNL     1      -3.255  -5.041  -6.785  1.00  0.00    -0.456 OA
ENDROOT
BRANCH   1  12
ATOM     12  C   UNL     1      -3.621  -5.133  -4.391  1.00  0.00     0.021 A 
ATOM     13  C   UNL     1      -4.507  -5.514  -3.369  1.00  0.00     0.016 A 
ATOM     14  C   UNL     1      -4.059  -5.641  -2.051  1.00  0.00     0.051 A 
ATOM     15  C   UNL     1      -2.721  -5.379  -1.731  1.00  0.00     0.157 A 
ATOM     16  C   UNL     1      -2.279  -4.859  -4.060  1.00  0.00     0.062 A 
ATOM     17  C   UNL     1      -1.829  -4.983  -2.741  1.00  0.00     0.158 A 
BRANCH  15  18
ATOM     18  O   UNL     1      -2.277  -5.509  -0.416  1.00  0.00    -0.504 OA
ATOM     19  H   UNL     1      -2.150  -6.417   0.014  1.00  0.00     0.293 HD
ENDBRANCH  15  18
BRANCH  17  20
ATOM     20  O   UNL     1      -0.494  -4.705  -2.452  1.00  0.00    -0.504 OA
ATOM     21  H   UNL     1      -0.103  -3.776  -2.553  1.00  0.00     0.293 HD
ENDBRANCH  17  20
ENDBRANCH   1  12
BRANCH   6  22
ATOM     22  O   UNL     1      -6.594  -4.681 -10.323  1.00  0.00    -0.507 OA
ATOM     23  H   UNL     1      -6.938  -3.996 -10.979  1.00  0.00     0.293 HD
ENDBRANCH   6  22
BRANCH   8  24
ATOM     24  O   UNL     1      -1.926  -4.866 -11.359  1.00  0.00    -0.508 OA
ATOM     25  H   UNL     1      -2.006  -5.437 -12.193  1.00  0.00     0.293 HD
ENDBRANCH   8  24
TORSDOF 5
ENDMDL
MODEL 5
REMARK VINA RESULT:    -5.208      2.133      6.666
REMARK INTER + INTRA:          -6.392
REMARK INTER:                  -6.128
REMARK INTRA:                  -0.263
REMARK UNBOUND:                -0.270
REMARK SMILES O=c1cc(-c2ccc(O)c(O)c2)oc2cc(O)cc(O)c12
REMARK SMILES IDX 4 1 3 2 2 3 1 4 21 5 19 6 18 7 16 8 15 9 14 10 13 11 5 12
REMARK SMILES IDX 6 13 7 14 8 15 12 16 10 17 9 18 11 20 20 22 17 24
REMARK H PARENT 9 19 11 21 20 23 17 25
REMARK Flexibility Score: inf
ROOT
ATOM      1  C   UNL     1       1.318   9.854 -10.113  1.00  0.00     0.138 A 
ATOM      2  C   UNL     1       1.382   8.743  -9.261  1.00  0.00     0.100 A 
ATOM      3  C   UNL     1       0.271   7.909  -9.130  1.00  0.00     0.197 A 
ATOM      4  O   UNL     1       0.338   6.957  -8.310  1.00  0.00    -0.289 OA
ATOM      5  C   UNL     1      -0.898   8.171  -9.882  1.00  0.00     0.107 A 
ATOM      6  C   UNL     1      -2.077   7.366  -9.861  1.00  0.00     0.134 A 
ATOM      7  C   UNL     1      -3.214   7.789 -10.559  1.00  0.00     0.093 A 
ATOM      8  C   UNL     1      -3.198   8.954 -11.325  1.00  0.00     0.123 A 
ATOM      9  C   UNL     1      -2.035   9.721 -11.397  1.00  0.00     0.094 A 
ATOM     10  C   UNL     1      -0.894   9.344 -10.684  1.00  0.00     0.146 A 
ATOM     11  O   UNL     1       0.189  10.109 -10.767  1.00  0.00    -0.456 OA
ENDROOT
BRANCH   1  12
ATOM     12  C   UNL     1       2.470  10.774 -10.290  1.00  0.00     0.021 A 
ATOM     13  C   UNL     1       3.377  10.552 -11.340  1.00  0.00     0.016 A 
ATOM     14  C   UNL     1       4.474  11.399 -11.523  1.00  0.00     0.051 A 
ATOM     15  C   UNL     1       4.688  12.476 -10.654  1.00  0.00     0.157 A 
ATOM     16  C   UNL     1       2.699  11.851  -9.411  1.00  0.00     0.062 A 
ATOM     17  C   UNL     1       3.798  12.700  -9.592  1.00  0.00     0.158 A 
BRANCH  15  18
ATOM     18  O   UNL     1       5.782  13.320 -10.841  1.00  0.00    -0.504 OA
ATOM     19  H   UNL     1       5.887  14.177 -10.311  1.00  0.00     0.293 HD
ENDBRANCH  15  18
BRANCH  17  20
ATOM     20  O   UNL     1       3.991  13.757  -8.702  1.00  0.00    -0.504 OA
ATOM     21  H   UNL     1       3.226  14.335  -8.379  1.00  0.00     0.293 HD
ENDBRANCH  17  20
ENDBRANCH   1  12
BRANCH   6  22
ATOM     22  O   UNL     1      -2.173   6.140  -9.196  1.00  0.00    -0.507 OA
ATOM     23  H   UNL     1      -1.461   5.754  -8.595  1.00  0.00     0.293 HD
ENDBRANCH   6  22
BRANCH   8  24
ATOM     24  O   UNL     1      -4.344   9.336 -12.019  1.00  0.00    -0.508 OA
ATOM     25  H   UNL     1      -4.542  10.310 -12.221  1.00  0.00     0.293 HD
ENDBRANCH   8  24
TORSDOF 5
ENDMDL
MODEL 6
REMARK VINA RESULT:    -5.186      2.321      4.312
REMARK INTER + INTRA:          -6.366
REMARK INTER:                  -6.057
REMARK INTRA:                  -0.309
REMARK UNBOUND:                -0.270
REMARK SMILES O=c1cc(-c2ccc(O)c(O)c2)oc2cc(O)cc(O)c12
REMARK SMILES IDX 4 1 3 2 2 3 1 4 21 5 19 6 18 7 16 8 15 9 14 10 13 11 5 12
REMARK SMILES IDX 6 13 7 14 8 15 12 16 10 17 9 18 11 20 20 22 17 24
REMARK H PARENT 9 19 11 21 20 23 17 25
REMARK Flexibility Score: inf
ROOT
ATOM      1  C   UNL     1       0.530  10.142 -11.246  1.00  0.00     0.138 A 
ATOM      2  C   UNL     1       0.824  11.505 -11.105  1.00  0.00     0.100 A 
ATOM      3  C   UNL     1       2.144  11.943 -11.226  1.00  0.00     0.197 A 
ATOM      4  O   UNL     1       2.384  13.162 -11.032  1.00  0.00    -0.289 OA
ATOM      5  C   UNL     1       3.169  11.013 -11.521  1.00  0.00     0.107 A 
ATOM      6  C   UNL     1       4.543  11.350 -11.708  1.00  0.00     0.134 A 
ATOM      7  C   UNL     1       5.486  10.329 -11.881  1.00  0.00     0.093 A 
ATOM      8  C   UNL     1       5.099   8.991 -11.936  1.00  0.00     0.123 A 
ATOM      9  C   UNL     1       3.751   8.654 -11.809  1.00  0.00     0.094 A 
ATOM     10  C   UNL     1       2.790   9.646 -11.600  1.00  0.00     0.146 A 
ATOM     11  O   UNL     1       1.518   9.282 -11.469  1.00  0.00    -0.456 OA
ENDROOT
BRANCH   1  12
ATOM     12  C   UNL     1      -0.856   9.622 -11.128  1.00  0.00     0.021 A 
ATOM     13  C   UNL     1      -1.939  10.473 -11.406  1.00  0.00     0.016 A 
ATOM     14  C   UNL     1      -3.253  10.011 -11.295  1.00  0.00     0.051 A 
ATOM     15  C   UNL     1      -3.508   8.693 -10.893  1.00  0.00     0.157 A 
ATOM     16  C   UNL     1      -1.119   8.302 -10.712  1.00  0.00     0.062 A 
ATOM     17  C   UNL     1      -2.435   7.838 -10.598  1.00  0.00     0.158 A 
BRANCH  15  18
ATOM     18  O   UNL     1      -4.820   8.235 -10.785  1.00  0.00    -0.504 OA
ATOM     19  H   UNL     1      -5.053   7.419 -10.232  1.00  0.00     0.293 HD
ENDBRANCH  15  18
BRANCH  17  20
ATOM     20  O   UNL     1      -2.656   6.524 -10.185  1.00  0.00    -0.504 OA
ATOM     21  H   UNL     1      -3.351   5.932 -10.621  1.00  0.00     0.293 HD
ENDBRANCH  17  20
ENDBRANCH   1  12
BRANCH   6  22
ATOM     22  O   UNL     1       5.026  12.660 -11.755  1.00  0.00    -0.507 OA
ATOM     23  H   UNL     1       4.763  13.347 -12.447  1.00  0.00     0.293 HD
ENDBRANCH   6  22
BRANCH   8  24
ATOM     24  O   UNL     1       6.063   8.004 -12.125  1.00  0.00    -0.508 OA
ATOM     25  H   UNL     1       6.077   7.161 -11.562  1.00  0.00     0.293 HD
ENDBRANCH   8  24
TORSDOF 5
ENDMDL
MODEL 7
REMARK VINA RESULT:    -5.088     15.998     17.807
REMARK INTER + INTRA:          -6.251
REMARK INTER:                  -5.957
REMARK INTRA:                  -0.294
REMARK UNBOUND:                -0.270
REMARK SMILES O=c1cc(-c2ccc(O)c(O)c2)oc2cc(O)cc(O)c12
REMARK SMILES IDX 4 1 3 2 2 3 1 4 21 5 19 6 18 7 16 8 15 9 14 10 13 11 5 12
REMARK SMILES IDX 6 13 7 14 8 15 12 16 10 17 9 18 11 20 20 22 17 24
REMARK H PARENT 9 19 11 21 20 23 17 25
REMARK Flexibility Score: inf
ROOT
ATOM      1  C   UNL     1      -1.207  11.515   5.731  1.00  0.00     0.138 A 
ATOM      2  C   UNL     1      -2.330  12.225   5.284  1.00  0.00     0.100 A 
ATOM      3  C   UNL     1      -3.583  11.611   5.289  1.00  0.00     0.197 A 
ATOM      4  O   UNL     1      -4.560  12.251   4.823  1.00  0.00    -0.289 OA
ATOM      5  C   UNL     1      -3.715  10.288   5.776  1.00  0.00     0.107 A 
ATOM      6  C   UNL     1      -4.948   9.575   5.868  1.00  0.00     0.134 A 
ATOM      7  C   UNL     1      -4.940   8.231   6.257  1.00  0.00     0.093 A 
ATOM      8  C   UNL     1      -3.754   7.590   6.615  1.00  0.00     0.123 A 
ATOM      9  C   UNL     1      -2.549   8.293   6.581  1.00  0.00     0.094 A 
ATOM     10  C   UNL     1      -2.519   9.626   6.164  1.00  0.00     0.146 A 
ATOM     11  O   UNL     1      -1.350  10.257   6.132  1.00  0.00    -0.456 OA
ENDROOT
BRANCH   1  12
ATOM     12  C   UNL     1       0.149  12.121   5.747  1.00  0.00     0.021 A 
ATOM     13  C   UNL     1       0.577  12.885   4.648  1.00  0.00     0.016 A 
ATOM     14  C   UNL     1       1.851  13.460   4.635  1.00  0.00     0.051 A 
ATOM     15  C   UNL     1       2.723  13.272   5.716  1.00  0.00     0.157 A 
ATOM     16  C   UNL     1       1.035  11.924   6.824  1.00  0.00     0.062 A 
ATOM     17  C   UNL     1       2.312  12.497   6.812  1.00  0.00     0.158 A 
BRANCH  15  18
ATOM     18  O   UNL     1       3.992  13.847   5.700  1.00  0.00    -0.504 OA
ATOM     19  H   UNL     1       4.128  14.825   5.471  1.00  0.00     0.293 HD
ENDBRANCH  15  18
BRANCH  17  20
ATOM     20  O   UNL     1       3.161  12.282   7.898  1.00  0.00    -0.504 OA
ATOM     21  H   UNL     1       2.890  11.711   8.689  1.00  0.00     0.293 HD
ENDBRANCH  17  20
ENDBRANCH   1  12
BRANCH   6  22
ATOM     22  O   UNL     1      -6.199  10.144   5.614  1.00  0.00    -0.507 OA
ATOM     23  H   UNL     1      -6.377  11.134   5.534  1.00  0.00     0.293 HD
ENDBRANCH   6  22
BRANCH   8  24
ATOM     24  O   UNL     1      -3.786   6.255   7.012  1.00  0.00    -0.508 OA
ATOM     25  H   UNL     1      -3.249   5.545   6.528  1.00  0.00     0.293 HD
ENDBRANCH   8  24
TORSDOF 5
ENDMDL
MODEL 8
REMARK VINA RESULT:    -5.031      1.948      6.839
REMARK INTER + INTRA:          -6.184
REMARK INTER:                  -5.884
REMARK INTRA:                  -0.300
REMARK UNBOUND:                -0.270
REMARK SMILES O=c1cc(-c2ccc(O)c(O)c2)oc2cc(O)cc(O)c12
REMARK SMILES IDX 4 1 3 2 2 3 1 4 21 5 19 6 18 7 16 8 15 9 14 10 13 11 5 12
REMARK SMILES IDX 6 13 7 14 8 15 12 16 10 17 9 18 11 20 20 22 17 24
REMARK H PARENT 9 19 11 21 20 23 17 25
REMARK Flexibility Score: inf
ROOT
ATOM      1  C   UNL     1      -0.139   9.083 -11.226  1.00  0.00     0.138 A 
ATOM      2  C   UNL     1      -0.879   7.959 -10.832  1.00  0.00     0.100 A 
ATOM      3  C   UNL     1      -2.261   8.063 -10.673  1.00  0.00     0.197 A 
ATOM      4  O   UNL     1      -2.888   7.054 -10.258  1.00  0.00    -0.289 OA
ATOM      5  C   UNL     1      -2.909   9.292 -10.940  1.00  0.00     0.107 A 
ATOM      6  C   UNL     1      -4.318   9.505 -10.851  1.00  0.00     0.134 A 
ATOM      7  C   UNL     1      -4.832  10.795 -11.027  1.00  0.00     0.093 A 
ATOM      8  C   UNL     1      -4.000  11.867 -11.347  1.00  0.00     0.123 A 
ATOM      9  C   UNL     1      -2.628  11.660 -11.490  1.00  0.00     0.094 A 
ATOM     10  C   UNL     1      -2.078  10.391 -11.287  1.00  0.00     0.146 A 
ATOM     11  O   UNL     1      -0.765  10.239 -11.418  1.00  0.00    -0.456 OA
ENDROOT
BRANCH   1  12
ATOM     12  C   UNL     1       1.333   9.027 -11.411  1.00  0.00     0.021 A 
ATOM     13  C   UNL     1       1.919   7.868 -11.947  1.00  0.00     0.016 A 
ATOM     14  C   UNL     1       3.303   7.787 -12.125  1.00  0.00     0.051 A 
ATOM     15  C   UNL     1       4.126   8.860 -11.759  1.00  0.00     0.157 A 
ATOM     16  C   UNL     1       2.168  10.097 -11.034  1.00  0.00     0.062 A 
ATOM     17  C   UNL     1       3.554  10.018 -11.208  1.00  0.00     0.158 A 
BRANCH  15  18
ATOM     18  O   UNL     1       5.506   8.777 -11.939  1.00  0.00    -0.504 OA
ATOM     19  H   UNL     1       6.082   9.607 -12.013  1.00  0.00     0.293 HD
ENDBRANCH  15  18
BRANCH  17  20
ATOM     20  O   UNL     1       4.348  11.099 -10.824  1.00  0.00    -0.504 OA
ATOM     21  H   UNL     1       5.050  11.496 -11.436  1.00  0.00     0.293 HD
ENDBRANCH  17  20
ENDBRANCH   1  12
BRANCH   6  22
ATOM     22  O   UNL     1      -5.248   8.488 -10.620  1.00  0.00    -0.507 OA
ATOM     23  H   UNL     1      -5.168   7.544 -10.966  1.00  0.00     0.293 HD
ENDBRANCH   6  22
BRANCH   8  24
ATOM     24  O   UNL     1      -4.550  13.133 -11.529  1.00  0.00    -0.508 OA
ATOM     25  H   UNL     1      -4.406  13.656 -12.386  1.00  0.00     0.293 HD
ENDBRANCH   8  24
TORSDOF 5
ENDMDL
MODEL 9
REMARK VINA RESULT:    -4.995      2.053      2.899
REMARK INTER + INTRA:          -6.141
REMARK INTER:                  -5.832
REMARK INTRA:                  -0.310
REMARK UNBOUND:                -0.270
REMARK SMILES O=c1cc(-c2ccc(O)c(O)c2)oc2cc(O)cc(O)c12
REMARK SMILES IDX 4 1 3 2 2 3 1 4 21 5 19 6 18 7 16 8 15 9 14 10 13 11 5 12
REMARK SMILES IDX 6 13 7 14 8 15 12 16 10 17 9 18 11 20 20 22 17 24
REMARK H PARENT 9 19 11 21 20 23 17 25
REMARK Flexibility Score: inf
ROOT
ATOM      1  C   UNL     1       0.134   9.353 -11.247  1.00  0.00     0.138 A 
ATOM      2  C   UNL     1       0.771   8.118 -11.432  1.00  0.00     0.100 A 
ATOM      3  C   UNL     1       2.151   8.077 -11.635  1.00  0.00     0.197 A 
ATOM      4  O   UNL     1       2.684   6.960 -11.861  1.00  0.00    -0.289 OA
ATOM      5  C   UNL     1       2.900   9.277 -11.621  1.00  0.00     0.107 A 
ATOM      6  C   UNL     1       4.317   9.353 -11.776  1.00  0.00     0.134 A 
ATOM      7  C   UNL     1       4.935  10.606 -11.860  1.00  0.00     0.093 A 
ATOM      8  C   UNL     1       4.199  11.784 -11.736  1.00  0.00     0.123 A 
ATOM      9  C   UNL     1       2.821  11.721 -11.530  1.00  0.00     0.094 A 
ATOM     10  C   UNL     1       2.169  10.486 -11.475  1.00  0.00     0.146 A 
ATOM     11  O   UNL     1       0.853  10.470 -11.292  1.00  0.00    -0.456 OA
ENDROOT
BRANCH   1  12
ATOM     12  C   UNL     1      -1.331   9.455 -11.026  1.00  0.00     0.021 A 
ATOM     13  C   UNL     1      -2.030   8.352 -10.505  1.00  0.00     0.016 A 
ATOM     14  C   UNL     1      -3.409   8.419 -10.295  1.00  0.00     0.051 A 
ATOM     15  C   UNL     1      -4.117   9.586 -10.613  1.00  0.00     0.157 A 
ATOM     16  C   UNL     1      -2.051  10.620 -11.356  1.00  0.00     0.062 A 
ATOM     17  C   UNL     1      -3.433  10.689 -11.149  1.00  0.00     0.158 A 
BRANCH  15  18
ATOM     18  O   UNL     1      -5.493   9.650 -10.400  1.00  0.00    -0.504 OA
ATOM     19  H   UNL     1      -5.981   8.942  -9.864  1.00  0.00     0.293 HD
ENDBRANCH  15  18
BRANCH  17  20
ATOM     20  O   UNL     1      -4.111  11.860 -11.486  1.00  0.00    -0.504 OA
ATOM     21  H   UNL     1      -4.691  12.358 -10.822  1.00  0.00     0.293 HD
ENDBRANCH  17  20
ENDBRANCH   1  12
BRANCH   6  22
ATOM     22  O   UNL     1       5.158   8.238 -11.826  1.00  0.00    -0.507 OA
ATOM     23  H   UNL     1       4.851   7.280 -11.744  1.00  0.00     0.293 HD
ENDBRANCH   6  22
BRANCH   8  24
ATOM     24  O   UNL     1       4.851  13.013 -11.810  1.00  0.00    -0.508 OA
ATOM     25  H   UNL     1       5.754  13.162 -11.375  1.00  0.00     0.293 HD
ENDBRANCH   8  24
TORSDOF 5
ENDMDL
