MODEL 1
REMARK VINA RESULT:    -3.412      0.000      0.000
REMARK INTER + INTRA:          -6.459
REMARK INTER:                  -5.407
REMARK INTRA:                  -1.052
REMARK UNBOUND:                -1.052
REMARK SMILES CCCCCCCCCCCC(=O)[O-]
REMARK SMILES IDX 7 1 8 2 9 3 10 4 11 5 12 6 13 7 14 8 6 9 5 10 4 11 3 12 2 13
REMARK SMILES IDX 1 14
REMARK H PARENT
REMARK Flexibility Score: inf
ROOT
ATOM      1  C   UNL     1      59.321  26.692  51.024  1.00  0.00     0.000 C 
ENDROOT
BRANCH   1   2
ATOM      2  C   UNL     1      59.589  27.625  49.830  1.00  0.00     0.000 C 
BRANCH   2   3
ATOM      3  C   UNL     1      59.281  29.101  50.143  1.00  0.00     0.000 C 
BRANCH   3   4
ATOM      4  C   UNL     1      57.786  29.445  50.266  1.00  0.00     0.006 C 
BRANCH   4   5
ATOM      5  C   UNL     1      57.371  29.809  51.697  1.00  0.00     0.053 C 
BRANCH   5   6
ATOM      6  C   UNL     1      56.307  30.861  51.682  1.00  0.00     0.041 C 
ATOM      7  O   UNL     1      56.298  31.766  52.556  1.00  0.00    -0.550 OA
ATOM      8  O   UNL     1      55.295  30.811  50.730  1.00  0.00    -0.550 OA
ENDBRANCH   5   6
ENDBRANCH   4   5
ENDBRANCH   3   4
ENDBRANCH   2   3
ENDBRANCH   1   2
BRANCH   1   9
ATOM      9  C   UNL     1      58.256  25.629  50.712  1.00  0.00     0.000 C 
BRANCH   9  10
ATOM     10  C   UNL     1      56.888  25.960  51.330  1.00  0.00    -0.000 C 
BRANCH  10  11
ATOM     11  C   UNL     1      55.794  25.991  50.256  1.00  0.00    -0.000 C 
BRANCH  11  12
ATOM     12  C   UNL     1      54.919  27.246  50.398  1.00  0.00    -0.000 C 
BRANCH  12  13
ATOM     13  C   UNL     1      53.452  26.988  50.025  1.00  0.00    -0.003 C 
ATOM     14  C   UNL     1      53.252  25.664  49.287  1.00  0.00     0.004 C 
ENDBRANCH  12  13
ENDBRANCH  11  12
ENDBRANCH  10  11
ENDBRANCH   9  10
ENDBRANCH   1   9
TORSDOF 10
ENDMDL
MODEL 2
REMARK VINA RESULT:    -3.405      2.993      4.390
REMARK INTER + INTRA:          -6.447
REMARK INTER:                  -5.556
REMARK INTRA:                  -0.891
REMARK UNBOUND:                -1.052
REMARK SMILES CCCCCCCCCCCC(=O)[O-]
REMARK SMILES IDX 7 1 8 2 9 3 10 4 11 5 12 6 13 7 14 8 6 9 5 10 4 11 3 12 2 13
REMARK SMILES IDX 1 14
REMARK H PARENT
REMARK Flexibility Score: inf
ROOT
ATOM      1  C   UNL     1      57.394  29.830  51.319  1.00  0.00     0.000 C 
ENDROOT
BRANCH   1   2
ATOM      2  C   UNL     1      57.735  28.647  50.396  1.00  0.00     0.000 C 
BRANCH   2   3
ATOM      3  C   UNL     1      59.104  28.800  49.706  1.00  0.00     0.000 C 
BRANCH   3   4
ATOM      4  C   UNL     1      59.937  27.510  49.612  1.00  0.00     0.006 C 
BRANCH   4   5
ATOM      5  C   UNL     1      60.229  26.884  50.982  1.00  0.00     0.053 C 
BRANCH   5   6
ATOM      6  C   UNL     1      59.694  25.488  51.043  1.00  0.00     0.041 C 
ATOM      7  O   UNL     1      58.535  25.234  50.624  1.00  0.00    -0.550 OA
ATOM      8  O   UNL     1      60.459  24.476  51.611  1.00  0.00    -0.550 OA
ENDBRANCH   5   6
ENDBRANCH   4   5
ENDBRANCH   3   4
ENDBRANCH   2   3
ENDBRANCH   1   2
BRANCH   1   9
ATOM      9  C   UNL     1      55.960  30.344  51.111  1.00  0.00     0.000 C 
BRANCH   9  10
ATOM     10  C   UNL     1      54.896  29.297  51.473  1.00  0.00    -0.000 C 
BRANCH  10  11
ATOM     11  C   UNL     1      53.792  29.247  50.409  1.00  0.00    -0.000 C 
BRANCH  11  12
ATOM     12  C   UNL     1      53.458  27.796  50.029  1.00  0.00    -0.000 C 
BRANCH  12  13
ATOM     13  C   UNL     1      54.278  26.774  50.830  1.00  0.00    -0.003 C 
ATOM     14  C   UNL     1      55.118  25.859  49.939  1.00  0.00     0.004 C 
ENDBRANCH  12  13
ENDBRANCH  11  12
ENDBRANCH  10  11
ENDBRANCH   9  10
ENDBRANCH   1   9
TORSDOF 10
ENDMDL
MODEL 3
REMARK VINA RESULT:    -3.402      1.328      4.085
REMARK INTER + INTRA:          -6.443
REMARK INTER:                  -5.690
REMARK INTRA:                  -0.753
REMARK UNBOUND:                -1.052
REMARK SMILES CCCCCCCCCCCC(=O)[O-]
REMARK SMILES IDX 7 1 8 2 9 3 10 4 11 5 12 6 13 7 14 8 6 9 5 10 4 11 3 12 2 13
REMARK SMILES IDX 1 14
REMARK H PARENT
REMARK Flexibility Score: inf
ROOT
ATOM      1  C   UNL     1      54.236  26.699  50.880  1.00  0.00     0.000 C 
ENDROOT
BRANCH   1   2
ATOM      2  C   UNL     1      53.410  27.698  50.050  1.00  0.00     0.000 C 
BRANCH   2   3
ATOM      3  C   UNL     1      53.608  29.157  50.500  1.00  0.00     0.000 C 
BRANCH   3   4
ATOM      4  C   UNL     1      55.046  29.527  50.905  1.00  0.00     0.006 C 
BRANCH   4   5
ATOM      5  C   UNL     1      55.344  31.025  50.755  1.00  0.00     0.053 C 
BRANCH   5   6
ATOM      6  C   UNL     1      55.706  31.620  52.079  1.00  0.00     0.041 C 
ATOM      7  O   UNL     1      54.874  32.326  52.706  1.00  0.00    -0.550 OA
ATOM      8  O   UNL     1      56.983  31.437  52.597  1.00  0.00    -0.550 OA
ENDBRANCH   5   6
ENDBRANCH   4   5
ENDBRANCH   3   4
ENDBRANCH   2   3
ENDBRANCH   1   2
BRANCH   1   9
ATOM      9  C   UNL     1      55.250  25.921  50.025  1.00  0.00     0.000 C 
BRANCH   9  10
ATOM     10  C   UNL     1      56.589  25.702  50.747  1.00  0.00    -0.000 C 
BRANCH  10  11
ATOM     11  C   UNL     1      57.413  26.995  50.780  1.00  0.00    -0.000 C 
BRANCH  11  12
ATOM     12  C   UNL     1      58.895  26.711  50.490  1.00  0.00    -0.000 C 
BRANCH  12  13
ATOM     13  C   UNL     1      59.569  27.845  49.702  1.00  0.00    -0.003 C 
ATOM     14  C   UNL     1      58.866  29.190  49.880  1.00  0.00     0.004 C 
ENDBRANCH  12  13
ENDBRANCH  11  12
ENDBRANCH  10  11
ENDBRANCH   9  10
ENDBRANCH   1   9
TORSDOF 10
ENDMDL
MODEL 4
REMARK VINA RESULT:    -3.391      2.705      4.280
REMARK INTER + INTRA:          -6.426
REMARK INTER:                  -5.131
REMARK INTRA:                  -1.295
REMARK UNBOUND:                -1.052
REMARK SMILES CCCCCCCCCCCC(=O)[O-]
REMARK SMILES IDX 7 1 8 2 9 3 10 4 11 5 12 6 13 7 14 8 6 9 5 10 4 11 3 12 2 13
REMARK SMILES IDX 1 14
REMARK H PARENT
REMARK Flexibility Score: inf
ROOT
ATOM      1  C   UNL     1      56.243  30.634  51.203  1.00  0.00     0.000 C 
ENDROOT
BRANCH   1   2
ATOM      2  C   UNL     1      56.862  29.752  52.303  1.00  0.00     0.000 C 
BRANCH   2   3
ATOM      3  C   UNL     1      58.016  28.873  51.786  1.00  0.00     0.000 C 
BRANCH   3   4
ATOM      4  C   UNL     1      58.082  28.713  50.257  1.00  0.00     0.006 C 
BRANCH   4   5
ATOM      5  C   UNL     1      59.517  28.578  49.730  1.00  0.00     0.053 C 
BRANCH   5   6
ATOM      6  C   UNL     1      60.054  27.213  50.023  1.00  0.00     0.041 C 
ATOM      7  O   UNL     1      61.269  27.059  50.316  1.00  0.00    -0.550 OA
ATOM      8  O   UNL     1      59.224  26.103  49.922  1.00  0.00    -0.550 OA
ENDBRANCH   5   6
ENDBRANCH   4   5
ENDBRANCH   3   4
ENDBRANCH   2   3
ENDBRANCH   1   2
BRANCH   1   9
ATOM      9  C   UNL     1      54.740  30.371  51.015  1.00  0.00     0.000 C 
BRANCH   9  10
ATOM     10  C   UNL     1      54.336  28.937  51.394  1.00  0.00    -0.000 C 
BRANCH  10  11
ATOM     11  C   UNL     1      53.873  28.153  50.159  1.00  0.00    -0.000 C 
BRANCH  11  12
ATOM     12  C   UNL     1      54.069  26.643  50.361  1.00  0.00    -0.000 C 
BRANCH  12  13
ATOM     13  C   UNL     1      55.547  26.227  50.307  1.00  0.00    -0.003 C 
ATOM     14  C   UNL     1      56.045  25.638  51.626  1.00  0.00     0.004 C 
ENDBRANCH  12  13
ENDBRANCH  11  12
ENDBRANCH  10  11
ENDBRANCH   9  10
ENDBRANCH   1   9
TORSDOF 10
ENDMDL
MODEL 5
REMARK VINA RESULT:    -3.290      2.797      5.015
REMARK INTER + INTRA:          -6.265
REMARK INTER:                  -5.068
REMARK INTRA:                  -1.197
REMARK UNBOUND:                -1.052
REMARK SMILES CCCCCCCCCCCC(=O)[O-]
REMARK SMILES IDX 7 1 8 2 9 3 10 4 11 5 12 6 13 7 14 8 6 9 5 10 4 11 3 12 2 13
REMARK SMILES IDX 1 14
REMARK H PARENT
REMARK Flexibility Score: inf
ROOT
ATOM      1  C   UNL     1      57.783  28.923  51.384  1.00  0.00     0.000 C 
ENDROOT
BRANCH   1   2
ATOM      2  C   UNL     1      56.425  29.546  51.017  1.00  0.00     0.000 C 
BRANCH   2   3
ATOM      3  C   UNL     1      55.348  28.492  50.703  1.00  0.00     0.000 C 
BRANCH   3   4
ATOM      4  C   UNL     1      55.625  27.086  51.264  1.00  0.00     0.006 C 
BRANCH   4   5
ATOM      5  C   UNL     1      55.582  25.992  50.188  1.00  0.00     0.053 C 
BRANCH   5   6
ATOM      6  C   UNL     1      54.238  25.336  50.165  1.00  0.00     0.041 C 
ATOM      7  O   UNL     1      53.551  25.335  49.110  1.00  0.00    -0.550 OA
ATOM      8  O   UNL     1      53.722  24.768  51.324  1.00  0.00    -0.550 OA
ENDBRANCH   5   6
ENDBRANCH   4   5
ENDBRANCH   3   4
ENDBRANCH   2   3
ENDBRANCH   1   2
BRANCH   1   9
ATOM      9  C   UNL     1      58.893  29.302  50.390  1.00  0.00     0.000 C 
BRANCH   9  10
ATOM     10  C   UNL     1      59.261  28.149  49.443  1.00  0.00    -0.000 C 
BRANCH  10  11
ATOM     11  C   UNL     1      60.102  27.091  50.166  1.00  0.00    -0.000 C 
BRANCH  11  12
ATOM     12  C   UNL     1      59.257  25.853  50.505  1.00  0.00    -0.000 C 
BRANCH  12  13
ATOM     13  C   UNL     1      59.328  25.480  51.993  1.00  0.00    -0.003 C 
ATOM     14  C   UNL     1      58.210  24.527  52.418  1.00  0.00     0.004 C 
ENDBRANCH  12  13
ENDBRANCH  11  12
ENDBRANCH  10  11
ENDBRANCH   9  10
ENDBRANCH   1   9
TORSDOF 10
ENDMDL
MODEL 6
REMARK VINA RESULT:    -3.269      3.103      5.578
REMARK INTER + INTRA:          -6.232
REMARK INTER:                  -4.872
REMARK INTRA:                  -1.361
REMARK UNBOUND:                -1.052
REMARK SMILES CCCCCCCCCCCC(=O)[O-]
REMARK SMILES IDX 7 1 8 2 9 3 10 4 11 5 12 6 13 7 14 8 6 9 5 10 4 11 3 12 2 13
REMARK SMILES IDX 1 14
REMARK H PARENT
REMARK Flexibility Score: inf
ROOT
ATOM      1  C   UNL     1      55.073  28.380  51.949  1.00  0.00     0.000 C 
ENDROOT
BRANCH   1   2
ATOM      2  C   UNL     1      55.076  27.831  50.512  1.00  0.00     0.000 C 
BRANCH   2   3
ATOM      3  C   UNL     1      55.400  26.326  50.447  1.00  0.00     0.000 C 
BRANCH   3   4
ATOM      4  C   UNL     1      56.888  25.970  50.620  1.00  0.00     0.006 C 
BRANCH   4   5
ATOM      5  C   UNL     1      57.201  25.358  51.991  1.00  0.00     0.053 C 
BRANCH   5   6
ATOM      6  C   UNL     1      58.599  24.824  52.018  1.00  0.00     0.041 C 
ATOM      7  O   UNL     1      59.213  24.707  53.110  1.00  0.00    -0.550 OA
ATOM      8  O   UNL     1      59.241  24.501  50.828  1.00  0.00    -0.550 OA
ENDBRANCH   5   6
ENDBRANCH   4   5
ENDBRANCH   3   4
ENDBRANCH   2   3
ENDBRANCH   1   2
BRANCH   1   9
ATOM      9  C   UNL     1      56.169  29.434  52.179  1.00  0.00     0.000 C 
BRANCH   9  10
ATOM     10  C   UNL     1      56.956  29.761  50.901  1.00  0.00    -0.000 C 
BRANCH  10  11
ATOM     11  C   UNL     1      58.421  29.327  51.032  1.00  0.00    -0.000 C 
BRANCH  11  12
ATOM     12  C   UNL     1      59.006  28.942  49.664  1.00  0.00    -0.000 C 
BRANCH  12  13
ATOM     13  C   UNL     1      59.994  27.770  49.754  1.00  0.00    -0.003 C 
ATOM     14  C   UNL     1      60.737  27.722  51.089  1.00  0.00     0.004 C 
ENDBRANCH  12  13
ENDBRANCH  11  12
ENDBRANCH  10  11
ENDBRANCH   9  10
ENDBRANCH   1   9
TORSDOF 10
ENDMDL
MODEL 7
REMARK VINA RESULT:    -3.250      3.643      4.547
REMARK INTER + INTRA:          -6.202
REMARK INTER:                  -5.455
REMARK INTRA:                  -0.747
REMARK UNBOUND:                -1.052
REMARK SMILES CCCCCCCCCCCC(=O)[O-]
REMARK SMILES IDX 7 1 8 2 9 3 10 4 11 5 12 6 13 7 14 8 6 9 5 10 4 11 3 12 2 13
REMARK SMILES IDX 1 14
REMARK H PARENT
REMARK Flexibility Score: inf
ROOT
ATOM      1  C   UNL     1      59.306  27.652  49.959  1.00  0.00     0.000 C 
ENDROOT
BRANCH   1   2
ATOM      2  C   UNL     1      60.839  27.514  50.004  1.00  0.00     0.000 C 
BRANCH   2   3
ATOM      3  C   UNL     1      61.499  28.484  51.000  1.00  0.00     0.000 C 
BRANCH   3   4
ATOM      4  C   UNL     1      62.556  29.424  50.395  1.00  0.00     0.006 C 
BRANCH   4   5
ATOM      5  C   UNL     1      62.216  30.909  50.583  1.00  0.00     0.053 C 
BRANCH   5   6
ATOM      6  C   UNL     1      63.170  31.765  49.811  1.00  0.00     0.041 C 
ATOM      7  O   UNL     1      64.344  31.367  49.590  1.00  0.00    -0.550 OA
ATOM      8  O   UNL     1      62.778  33.026  49.379  1.00  0.00    -0.550 OA
ENDBRANCH   5   6
ENDBRANCH   4   5
ENDBRANCH   3   4
ENDBRANCH   2   3
ENDBRANCH   1   2
BRANCH   1   9
ATOM      9  C   UNL     1      58.851  29.112  49.810  1.00  0.00     0.000 C 
BRANCH   9  10
ATOM     10  C   UNL     1      57.714  29.481  50.777  1.00  0.00    -0.000 C 
BRANCH  10  11
ATOM     11  C   UNL     1      56.832  28.263  51.076  1.00  0.00    -0.000 C 
BRANCH  11  12
ATOM     12  C   UNL     1      55.366  28.541  50.707  1.00  0.00    -0.000 C 
BRANCH  12  13
ATOM     13  C   UNL     1      54.620  27.275  50.260  1.00  0.00    -0.003 C 
ATOM     14  C   UNL     1      55.518  26.039  50.228  1.00  0.00     0.004 C 
ENDBRANCH  12  13
ENDBRANCH  11  12
ENDBRANCH  10  11
ENDBRANCH   9  10
ENDBRANCH   1   9
TORSDOF 10
ENDMDL
MODEL 8
REMARK VINA RESULT:    -3.199      2.705      3.965
REMARK INTER + INTRA:          -6.121
REMARK INTER:                  -4.898
REMARK INTRA:                  -1.223
REMARK UNBOUND:                -1.052
REMARK SMILES CCCCCCCCCCCC(=O)[O-]
REMARK SMILES IDX 7 1 8 2 9 3 10 4 11 5 12 6 13 7 14 8 6 9 5 10 4 11 3 12 2 13
REMARK SMILES IDX 1 14
REMARK H PARENT
REMARK Flexibility Score: inf
ROOT
ATOM      1  C   UNL     1      59.480  28.971  51.912  1.00  0.00     0.000 C 
ENDROOT
BRANCH   1   2
ATOM      2  C   UNL     1      59.561  29.198  50.392  1.00  0.00     0.000 C 
BRANCH   2   3
ATOM      3  C   UNL     1      59.602  27.883  49.591  1.00  0.00     0.000 C 
BRANCH   3   4
ATOM      4  C   UNL     1      59.780  26.609  50.436  1.00  0.00     0.006 C 
BRANCH   4   5
ATOM      5  C   UNL     1      58.545  25.699  50.415  1.00  0.00     0.053 C 
BRANCH   5   6
ATOM      6  C   UNL     1      58.055  25.450  51.807  1.00  0.00     0.041 C 
ATOM      7  O   UNL     1      58.843  25.546  52.783  1.00  0.00    -0.550 OA
ATOM      8  O   UNL     1      56.738  25.062  52.020  1.00  0.00    -0.550 OA
ENDBRANCH   5   6
ENDBRANCH   4   5
ENDBRANCH   3   4
ENDBRANCH   2   3
ENDBRANCH   1   2
BRANCH   1   9
ATOM      9  C   UNL     1      58.109  29.354  52.492  1.00  0.00     0.000 C 
BRANCH   9  10
ATOM     10  C   UNL     1      57.226  30.105  51.484  1.00  0.00    -0.000 C 
BRANCH  10  11
ATOM     11  C   UNL     1      55.808  29.522  51.455  1.00  0.00    -0.000 C 
BRANCH  11  12
ATOM     12  C   UNL     1      55.779  28.184  50.700  1.00  0.00    -0.000 C 
BRANCH  12  13
ATOM     13  C   UNL     1      54.355  27.750  50.322  1.00  0.00    -0.003 C 
ATOM     14  C   UNL     1      53.366  28.916  50.304  1.00  0.00     0.004 C 
ENDBRANCH  12  13
ENDBRANCH  11  12
ENDBRANCH  10  11
ENDBRANCH   9  10
ENDBRANCH   1   9
TORSDOF 10
ENDMDL
MODEL 9
REMARK VINA RESULT:    -3.169      1.824      3.370
REMARK INTER + INTRA:          -6.074
REMARK INTER:                  -4.577
REMARK INTRA:                  -1.497
REMARK UNBOUND:                -1.052
REMARK SMILES CCCCCCCCCCCC(=O)[O-]
REMARK SMILES IDX 7 1 8 2 9 3 10 4 11 5 12 6 13 7 14 8 6 9 5 10 4 11 3 12 2 13
REMARK SMILES IDX 1 14
REMARK H PARENT
REMARK Flexibility Score: inf
ROOT
ATOM      1  C   UNL     1      59.298  29.353  50.364  1.00  0.00     0.000 C 
ENDROOT
BRANCH   1   2
ATOM      2  C   UNL     1      59.005  29.208  51.868  1.00  0.00     0.000 C 
BRANCH   2   3
ATOM      3  C   UNL     1      57.540  29.519  52.225  1.00  0.00     0.000 C 
BRANCH   3   4
ATOM      4  C   UNL     1      56.631  29.851  51.028  1.00  0.00     0.006 C 
BRANCH   4   5
ATOM      5  C   UNL     1      55.603  28.750  50.734  1.00  0.00     0.053 C 
BRANCH   5   6
ATOM      6  C   UNL     1      54.225  29.330  50.655  1.00  0.00     0.041 C 
ATOM      7  O   UNL     1      53.983  30.460  51.153  1.00  0.00    -0.550 OA
ATOM      8  O   UNL     1      53.196  28.598  50.075  1.00  0.00    -0.550 OA
ENDBRANCH   5   6
ENDBRANCH   4   5
ENDBRANCH   3   4
ENDBRANCH   2   3
ENDBRANCH   1   2
BRANCH   1   9
ATOM      9  C   UNL     1      59.369  27.997  49.644  1.00  0.00     0.000 C 
BRANCH   9  10
ATOM     10  C   UNL     1      60.338  27.015  50.322  1.00  0.00    -0.000 C 
BRANCH  10  11
ATOM     11  C   UNL     1      59.603  25.754  50.792  1.00  0.00    -0.000 C 
BRANCH  11  12
ATOM     12  C   UNL     1      58.110  25.822  50.433  1.00  0.00    -0.000 C 
BRANCH  12  13
ATOM     13  C   UNL     1      57.200  25.589  51.649  1.00  0.00    -0.003 C 
ATOM     14  C   UNL     1      57.919  25.815  52.978  1.00  0.00     0.004 C 
ENDBRANCH  12  13
ENDBRANCH  11  12
ENDBRANCH  10  11
ENDBRANCH   9  10
ENDBRANCH   1   9
TORSDOF 10
ENDMDL
