MODEL 1
REMARK VINA RESULT:    -3.700      0.000      0.000
REMARK INTER + INTRA:          -7.059
REMARK INTER:                  -5.863
REMARK INTRA:                  -1.197
REMARK UNBOUND:                -1.197
REMARK SMILES CCCCCCCCCCCC(=O)[O-]
REMARK SMILES IDX 7 1 8 2 9 3 10 4 11 5 12 6 13 7 14 8 6 9 5 10 4 11 3 12 2 13
REMARK SMILES IDX 1 14
REMARK H PARENT
REMARK Flexibility Score: inf
ROOT
ATOM      1  C   UNL     1       6.374  -2.893  -8.202  1.00  0.00     0.000 C 
ENDROOT
BRANCH   1   2
ATOM      2  C   UNL     1       7.152  -3.022  -6.880  1.00  0.00     0.000 C 
BRANCH   2   3
ATOM      3  C   UNL     1       7.709  -4.434  -6.644  1.00  0.00     0.000 C 
BRANCH   3   4
ATOM      4  C   UNL     1       6.761  -5.258  -5.766  1.00  0.00     0.006 C 
BRANCH   4   5
ATOM      5  C   UNL     1       6.828  -6.745  -6.130  1.00  0.00     0.053 C 
BRANCH   5   6
ATOM      6  C   UNL     1       5.836  -7.066  -7.202  1.00  0.00     0.041 C 
ATOM      7  O   UNL     1       4.699  -7.515  -6.899  1.00  0.00    -0.550 OA
ATOM      8  O   UNL     1       6.148  -6.825  -8.534  1.00  0.00    -0.550 OA
ENDBRANCH   5   6
ENDBRANCH   4   5
ENDBRANCH   3   4
ENDBRANCH   2   3
ENDBRANCH   1   2
BRANCH   1   9
ATOM      9  C   UNL     1       4.866  -2.620  -8.054  1.00  0.00     0.000 C 
BRANCH   9  10
ATOM     10  C   UNL     1       4.008  -3.886  -8.217  1.00  0.00    -0.000 C 
BRANCH  10  11
ATOM     11  C   UNL     1       3.341  -4.333  -6.903  1.00  0.00    -0.000 C 
BRANCH  11  12
ATOM     12  C   UNL     1       3.609  -3.425  -5.688  1.00  0.00    -0.000 C 
BRANCH  12  13
ATOM     13  C   UNL     1       2.322  -2.951  -4.997  1.00  0.00    -0.003 C 
ATOM     14  C   UNL     1       2.534  -2.783  -3.496  1.00  0.00     0.004 C 
ENDBRANCH  12  13
ENDBRANCH  11  12
ENDBRANCH  10  11
ENDBRANCH   9  10
ENDBRANCH   1   9
TORSDOF 10
ENDMDL
MODEL 2
REMARK VINA RESULT:    -3.658      3.084      4.794
REMARK INTER + INTRA:          -6.993
REMARK INTER:                  -5.395
REMARK INTRA:                  -1.599
REMARK UNBOUND:                -1.197
REMARK SMILES CCCCCCCCCCCC(=O)[O-]
REMARK SMILES IDX 7 1 8 2 9 3 10 4 11 5 12 6 13 7 14 8 6 9 5 10 4 11 3 12 2 13
REMARK SMILES IDX 1 14
REMARK H PARENT
REMARK Flexibility Score: inf
ROOT
ATOM      1  C   UNL     1       3.801  -4.079  -7.132  1.00  0.00     0.000 C 
ENDROOT
BRANCH   1   2
ATOM      2  C   UNL     1       4.850  -2.982  -7.388  1.00  0.00     0.000 C 
BRANCH   2   3
ATOM      3  C   UNL     1       5.061  -2.688  -8.880  1.00  0.00     0.000 C 
BRANCH   3   4
ATOM      4  C   UNL     1       6.525  -2.901  -9.282  1.00  0.00     0.006 C 
BRANCH   4   5
ATOM      5  C   UNL     1       7.464  -2.628  -8.102  1.00  0.00     0.053 C 
BRANCH   5   6
ATOM      6  C   UNL     1       8.576  -1.718  -8.519  1.00  0.00     0.041 C 
ATOM      7  O   UNL     1       8.320  -0.612  -9.064  1.00  0.00    -0.550 OA
ATOM      8  O   UNL     1       9.895  -2.069  -8.261  1.00  0.00    -0.550 OA
ENDBRANCH   5   6
ENDBRANCH   4   5
ENDBRANCH   3   4
ENDBRANCH   2   3
ENDBRANCH   1   2
BRANCH   1   9
ATOM      9  C   UNL     1       3.477  -4.975  -8.342  1.00  0.00     0.000 C 
BRANCH   9  10
ATOM     10  C   UNL     1       4.040  -6.400  -8.202  1.00  0.00    -0.000 C 
BRANCH  10  11
ATOM     11  C   UNL     1       5.417  -6.570  -8.870  1.00  0.00    -0.000 C 
BRANCH  11  12
ATOM     12  C   UNL     1       6.627  -6.402  -7.934  1.00  0.00    -0.000 C 
BRANCH  12  13
ATOM     13  C   UNL     1       6.341  -6.856  -6.495  1.00  0.00    -0.003 C 
ATOM     14  C   UNL     1       6.579  -5.722  -5.503  1.00  0.00     0.004 C 
ENDBRANCH  12  13
ENDBRANCH  11  12
ENDBRANCH  10  11
ENDBRANCH   9  10
ENDBRANCH   1   9
TORSDOF 10
ENDMDL
MODEL 3
REMARK VINA RESULT:    -3.655      2.120      2.960
REMARK INTER + INTRA:          -6.988
REMARK INTER:                  -6.296
REMARK INTRA:                  -0.692
REMARK UNBOUND:                -1.197
REMARK SMILES CCCCCCCCCCCC(=O)[O-]
REMARK SMILES IDX 7 1 8 2 9 3 10 4 11 5 12 6 13 7 14 8 6 9 5 10 4 11 3 12 2 13
REMARK SMILES IDX 1 14
REMARK H PARENT
REMARK Flexibility Score: inf
ROOT
ATOM      1  C   UNL     1       4.359  -3.841  -8.810  1.00  0.00     0.000 C 
ENDROOT
BRANCH   1   2
ATOM      2  C   UNL     1       5.151  -2.546  -8.554  1.00  0.00     0.000 C 
BRANCH   2   3
ATOM      3  C   UNL     1       6.555  -2.566  -9.177  1.00  0.00     0.000 C 
BRANCH   3   4
ATOM      4  C   UNL     1       7.637  -2.447  -8.098  1.00  0.00     0.006 C 
BRANCH   4   5
ATOM      5  C   UNL     1       8.437  -3.747  -7.976  1.00  0.00     0.053 C 
BRANCH   5   6
ATOM      6  C   UNL     1       8.210  -4.379  -6.640  1.00  0.00     0.041 C 
ATOM      7  O   UNL     1       7.424  -3.845  -5.813  1.00  0.00    -0.550 OA
ATOM      8  O   UNL     1       8.828  -5.582  -6.325  1.00  0.00    -0.550 OA
ENDBRANCH   5   6
ENDBRANCH   4   5
ENDBRANCH   3   4
ENDBRANCH   2   3
ENDBRANCH   1   2
BRANCH   1   9
ATOM      9  C   UNL     1       3.881  -4.581  -7.546  1.00  0.00     0.000 C 
BRANCH   9  10
ATOM     10  C   UNL     1       3.925  -3.701  -6.284  1.00  0.00    -0.000 C 
BRANCH  10  11
ATOM     11  C   UNL     1       2.540  -3.510  -5.638  1.00  0.00    -0.000 C 
BRANCH  11  12
ATOM     12  C   UNL     1       2.477  -2.453  -4.520  1.00  0.00    -0.000 C 
BRANCH  12  13
ATOM     13  C   UNL     1       1.768  -2.959  -3.255  1.00  0.00    -0.003 C 
ATOM     14  C   UNL     1       2.455  -2.441  -1.995  1.00  0.00     0.004 C 
ENDBRANCH  12  13
ENDBRANCH  11  12
ENDBRANCH  10  11
ENDBRANCH   9  10
ENDBRANCH   1   9
TORSDOF 10
ENDMDL
MODEL 4
REMARK VINA RESULT:    -3.571      2.785      3.805
REMARK INTER + INTRA:          -6.855
REMARK INTER:                  -6.166
REMARK INTRA:                  -0.689
REMARK UNBOUND:                -1.197
REMARK SMILES CCCCCCCCCCCC(=O)[O-]
REMARK SMILES IDX 7 1 8 2 9 3 10 4 11 5 12 6 13 7 14 8 6 9 5 10 4 11 3 12 2 13
REMARK SMILES IDX 1 14
REMARK H PARENT
REMARK Flexibility Score: inf
ROOT
ATOM      1  C   UNL     1       6.892  -3.719  -6.332  1.00  0.00     0.000 C 
ENDROOT
BRANCH   1   2
ATOM      2  C   UNL     1       8.225  -4.424  -6.641  1.00  0.00     0.000 C 
BRANCH   2   3
ATOM      3  C   UNL     1       9.130  -3.614  -7.581  1.00  0.00     0.000 C 
BRANCH   3   4
ATOM      4  C   UNL     1       8.811  -3.918  -9.049  1.00  0.00     0.006 C 
BRANCH   4   5
ATOM      5  C   UNL     1       8.962  -2.664  -9.916  1.00  0.00     0.053 C 
BRANCH   5   6
ATOM      6  C   UNL     1       8.015  -1.598  -9.464  1.00  0.00     0.041 C 
ATOM      7  O   UNL     1       6.773  -1.807  -9.473  1.00  0.00    -0.550 OA
ATOM      8  O   UNL     1       8.506  -0.389  -8.986  1.00  0.00    -0.550 OA
ENDBRANCH   5   6
ENDBRANCH   4   5
ENDBRANCH   3   4
ENDBRANCH   2   3
ENDBRANCH   1   2
BRANCH   1   9
ATOM      9  C   UNL     1       5.675  -4.238  -7.121  1.00  0.00     0.000 C 
BRANCH   9  10
ATOM     10  C   UNL     1       4.530  -3.214  -7.199  1.00  0.00    -0.000 C 
BRANCH  10  11
ATOM     11  C   UNL     1       3.291  -3.637  -6.389  1.00  0.00    -0.000 C 
BRANCH  11  12
ATOM     12  C   UNL     1       3.417  -3.478  -4.863  1.00  0.00    -0.000 C 
BRANCH  12  13
ATOM     13  C   UNL     1       2.308  -2.607  -4.256  1.00  0.00    -0.003 C 
ATOM     14  C   UNL     1       2.309  -2.698  -2.733  1.00  0.00     0.004 C 
ENDBRANCH  12  13
ENDBRANCH  11  12
ENDBRANCH  10  11
ENDBRANCH   9  10
ENDBRANCH   1   9
TORSDOF 10
ENDMDL
MODEL 5
REMARK VINA RESULT:    -3.538      2.118      4.403
REMARK INTER + INTRA:          -6.803
REMARK INTER:                  -5.303
REMARK INTRA:                  -1.500
REMARK UNBOUND:                -1.197
REMARK SMILES CCCCCCCCCCCC(=O)[O-]
REMARK SMILES IDX 7 1 8 2 9 3 10 4 11 5 12 6 13 7 14 8 6 9 5 10 4 11 3 12 2 13
REMARK SMILES IDX 1 14
REMARK H PARENT
REMARK Flexibility Score: inf
ROOT
ATOM      1  C   UNL     1       7.787  -2.435  -9.958  1.00  0.00     0.000 C 
ENDROOT
BRANCH   1   2
ATOM      2  C   UNL     1       6.434  -3.159  -9.835  1.00  0.00     0.000 C 
BRANCH   2   3
ATOM      3  C   UNL     1       5.319  -2.260  -9.280  1.00  0.00     0.000 C 
BRANCH   3   4
ATOM      4  C   UNL     1       4.549  -2.966  -8.158  1.00  0.00     0.006 C 
BRANCH   4   5
ATOM      5  C   UNL     1       3.783  -4.179  -8.696  1.00  0.00     0.053 C 
BRANCH   5   6
ATOM      6  C   UNL     1       3.299  -5.034  -7.569  1.00  0.00     0.041 C 
ATOM      7  O   UNL     1       2.463  -4.582  -6.744  1.00  0.00    -0.550 OA
ATOM      8  O   UNL     1       3.735  -6.349  -7.457  1.00  0.00    -0.550 OA
ENDBRANCH   5   6
ENDBRANCH   4   5
ENDBRANCH   3   4
ENDBRANCH   2   3
ENDBRANCH   1   2
BRANCH   1   9
ATOM      9  C   UNL     1       8.394  -1.945  -8.630  1.00  0.00     0.000 C 
BRANCH   9  10
ATOM     10  C   UNL     1       9.556  -2.826  -8.141  1.00  0.00    -0.000 C 
BRANCH  10  11
ATOM     11  C   UNL     1       9.189  -3.673  -6.908  1.00  0.00    -0.000 C 
BRANCH  11  12
ATOM     12  C   UNL     1       7.759  -3.472  -6.375  1.00  0.00    -0.000 C 
BRANCH  12  13
ATOM     13  C   UNL     1       7.009  -4.795  -6.156  1.00  0.00    -0.003 C 
ATOM     14  C   UNL     1       7.213  -5.743  -7.333  1.00  0.00     0.004 C 
ENDBRANCH  12  13
ENDBRANCH  11  12
ENDBRANCH  10  11
ENDBRANCH   9  10
ENDBRANCH   1   9
TORSDOF 10
ENDMDL
MODEL 6
REMARK VINA RESULT:    -3.536      1.878      2.888
REMARK INTER + INTRA:          -6.800
REMARK INTER:                  -5.578
REMARK INTRA:                  -1.222
REMARK UNBOUND:                -1.197
REMARK SMILES CCCCCCCCCCCC(=O)[O-]
REMARK SMILES IDX 7 1 8 2 9 3 10 4 11 5 12 6 13 7 14 8 6 9 5 10 4 11 3 12 2 13
REMARK SMILES IDX 1 14
REMARK H PARENT
REMARK Flexibility Score: inf
ROOT
ATOM      1  C   UNL     1       6.718  -2.730  -8.256  1.00  0.00     0.000 C 
ENDROOT
BRANCH   1   2
ATOM      2  C   UNL     1       7.345  -2.974  -6.872  1.00  0.00     0.000 C 
BRANCH   2   3
ATOM      3  C   UNL     1       8.314  -4.166  -6.852  1.00  0.00     0.000 C 
BRANCH   3   4
ATOM      4  C   UNL     1       7.611  -5.454  -7.293  1.00  0.00     0.006 C 
BRANCH   4   5
ATOM      5  C   UNL     1       7.665  -6.515  -6.190  1.00  0.00     0.053 C 
BRANCH   5   6
ATOM      6  C   UNL     1       6.327  -6.660  -5.537  1.00  0.00     0.041 C 
ATOM      7  O   UNL     1       5.815  -5.690  -4.919  1.00  0.00    -0.550 OA
ATOM      8  O   UNL     1       5.621  -7.852  -5.654  1.00  0.00    -0.550 OA
ENDBRANCH   5   6
ENDBRANCH   4   5
ENDBRANCH   3   4
ENDBRANCH   2   3
ENDBRANCH   1   2
BRANCH   1   9
ATOM      9  C   UNL     1       5.180  -2.649  -8.277  1.00  0.00     0.000 C 
BRANCH   9  10
ATOM     10  C   UNL     1       4.527  -3.325  -7.059  1.00  0.00    -0.000 C 
BRANCH  10  11
ATOM     11  C   UNL     1       3.547  -4.447  -7.449  1.00  0.00    -0.000 C 
BRANCH  11  12
ATOM     12  C   UNL     1       3.330  -4.634  -8.962  1.00  0.00    -0.000 C 
BRANCH  12  13
ATOM     13  C   UNL     1       3.920  -5.948  -9.495  1.00  0.00    -0.003 C 
ATOM     14  C   UNL     1       3.824  -7.056  -8.451  1.00  0.00     0.004 C 
ENDBRANCH  12  13
ENDBRANCH  11  12
ENDBRANCH  10  11
ENDBRANCH   9  10
ENDBRANCH   1   9
TORSDOF 10
ENDMDL
MODEL 7
REMARK VINA RESULT:    -3.526      1.435      2.533
REMARK INTER + INTRA:          -6.784
REMARK INTER:                  -5.477
REMARK INTRA:                  -1.307
REMARK UNBOUND:                -1.197
REMARK SMILES CCCCCCCCCCCC(=O)[O-]
REMARK SMILES IDX 7 1 8 2 9 3 10 4 11 5 12 6 13 7 14 8 6 9 5 10 4 11 3 12 2 13
REMARK SMILES IDX 1 14
REMARK H PARENT
REMARK Flexibility Score: inf
ROOT
ATOM      1  C   UNL     1       8.176  -2.534  -7.474  1.00  0.00     0.000 C 
ENDROOT
BRANCH   1   2
ATOM      2  C   UNL     1       9.486  -3.340  -7.437  1.00  0.00     0.000 C 
BRANCH   2   3
ATOM      3  C   UNL     1       9.307  -4.755  -6.865  1.00  0.00     0.000 C 
BRANCH   3   4
ATOM      4  C   UNL     1       7.880  -4.961  -6.346  1.00  0.00     0.006 C 
BRANCH   4   5
ATOM      5  C   UNL     1       7.368  -6.364  -6.690  1.00  0.00     0.053 C 
BRANCH   5   6
ATOM      6  C   UNL     1       6.075  -6.635  -5.989  1.00  0.00     0.041 C 
ATOM      7  O   UNL     1       5.224  -7.408  -6.504  1.00  0.00    -0.550 OA
ATOM      8  O   UNL     1       5.829  -6.074  -4.742  1.00  0.00    -0.550 OA
ENDBRANCH   5   6
ENDBRANCH   4   5
ENDBRANCH   3   4
ENDBRANCH   2   3
ENDBRANCH   1   2
BRANCH   1   9
ATOM      9  C   UNL     1       7.801  -1.948  -8.848  1.00  0.00     0.000 C 
BRANCH   9  10
ATOM     10  C   UNL     1       6.502  -2.541  -9.419  1.00  0.00    -0.000 C 
BRANCH  10  11
ATOM     11  C   UNL     1       5.468  -2.881  -8.330  1.00  0.00    -0.000 C 
BRANCH  11  12
ATOM     12  C   UNL     1       4.738  -4.224  -8.512  1.00  0.00    -0.000 C 
BRANCH  12  13
ATOM     13  C   UNL     1       3.584  -4.420  -7.518  1.00  0.00    -0.003 C 
ATOM     14  C   UNL     1       3.825  -3.632  -6.234  1.00  0.00     0.004 C 
ENDBRANCH  12  13
ENDBRANCH  11  12
ENDBRANCH  10  11
ENDBRANCH   9  10
ENDBRANCH   1   9
TORSDOF 10
ENDMDL
MODEL 8
REMARK VINA RESULT:    -3.496      1.501      2.498
REMARK INTER + INTRA:          -6.737
REMARK INTER:                  -5.380
REMARK INTRA:                  -1.357
REMARK UNBOUND:                -1.197
REMARK SMILES CCCCCCCCCCCC(=O)[O-]
REMARK SMILES IDX 7 1 8 2 9 3 10 4 11 5 12 6 13 7 14 8 6 9 5 10 4 11 3 12 2 13
REMARK SMILES IDX 1 14
REMARK H PARENT
REMARK Flexibility Score: inf
ROOT
ATOM      1  C   UNL     1       8.122  -1.977  -8.559  1.00  0.00     0.000 C 
ENDROOT
BRANCH   1   2
ATOM      2  C   UNL     1       8.751  -2.886  -7.488  1.00  0.00     0.000 C 
BRANCH   2   3
ATOM      3  C   UNL     1       7.717  -3.475  -6.516  1.00  0.00     0.000 C 
BRANCH   3   4
ATOM      4  C   UNL     1       7.656  -5.002  -6.636  1.00  0.00     0.006 C 
BRANCH   4   5
ATOM      5  C   UNL     1       6.752  -5.603  -5.556  1.00  0.00     0.053 C 
BRANCH   5   6
ATOM      6  C   UNL     1       6.508  -7.054  -5.825  1.00  0.00     0.041 C 
ATOM      7  O   UNL     1       7.459  -7.878  -5.764  1.00  0.00    -0.550 OA
ATOM      8  O   UNL     1       5.222  -7.505  -6.095  1.00  0.00    -0.550 OA
ENDBRANCH   5   6
ENDBRANCH   4   5
ENDBRANCH   3   4
ENDBRANCH   2   3
ENDBRANCH   1   2
BRANCH   1   9
ATOM      9  C   UNL     1       7.271  -2.700  -9.620  1.00  0.00     0.000 C 
BRANCH   9  10
ATOM     10  C   UNL     1       5.854  -2.114  -9.754  1.00  0.00    -0.000 C 
BRANCH  10  11
ATOM     11  C   UNL     1       4.891  -2.618  -8.663  1.00  0.00    -0.000 C 
BRANCH  11  12
ATOM     12  C   UNL     1       4.613  -4.133  -8.680  1.00  0.00    -0.000 C 
BRANCH  12  13
ATOM     13  C   UNL     1       3.746  -4.597  -7.501  1.00  0.00    -0.003 C 
ATOM     14  C   UNL     1       3.834  -3.618  -6.335  1.00  0.00     0.004 C 
ENDBRANCH  12  13
ENDBRANCH  11  12
ENDBRANCH  10  11
ENDBRANCH   9  10
ENDBRANCH   1   9
TORSDOF 10
ENDMDL
MODEL 9
REMARK VINA RESULT:    -3.445      2.024      4.671
REMARK INTER + INTRA:          -6.656
REMARK INTER:                  -5.252
REMARK INTRA:                  -1.403
REMARK UNBOUND:                -1.197
REMARK SMILES CCCCCCCCCCCC(=O)[O-]
REMARK SMILES IDX 7 1 8 2 9 3 10 4 11 5 12 6 13 7 14 8 6 9 5 10 4 11 3 12 2 13
REMARK SMILES IDX 1 14
REMARK H PARENT
REMARK Flexibility Score: inf
ROOT
ATOM      1  C   UNL     1       9.057  -3.368  -7.036  1.00  0.00     0.000 C 
ENDROOT
BRANCH   1   2
ATOM      2  C   UNL     1       7.596  -2.884  -7.003  1.00  0.00     0.000 C 
BRANCH   2   3
ATOM      3  C   UNL     1       6.897  -2.990  -8.366  1.00  0.00     0.000 C 
BRANCH   3   4
ATOM      4  C   UNL     1       5.608  -3.812  -8.261  1.00  0.00     0.006 C 
BRANCH   4   5
ATOM      5  C   UNL     1       4.515  -3.029  -7.526  1.00  0.00     0.053 C 
BRANCH   5   6
ATOM      6  C   UNL     1       3.723  -3.940  -6.642  1.00  0.00     0.041 C 
ATOM      7  O   UNL     1       3.063  -4.890  -7.140  1.00  0.00    -0.550 OA
ATOM      8  O   UNL     1       3.752  -3.771  -5.263  1.00  0.00    -0.550 OA
ENDBRANCH   5   6
ENDBRANCH   4   5
ENDBRANCH   3   4
ENDBRANCH   2   3
ENDBRANCH   1   2
BRANCH   1   9
ATOM      9  C   UNL     1       9.441  -4.219  -8.261  1.00  0.00     0.000 C 
BRANCH   9  10
ATOM     10  C   UNL     1       9.796  -5.671  -7.895  1.00  0.00    -0.000 C 
BRANCH  10  11
ATOM     11  C   UNL     1       9.718  -5.944  -6.381  1.00  0.00    -0.000 C 
BRANCH  11  12
ATOM     12  C   UNL     1       8.652  -6.969  -5.953  1.00  0.00    -0.000 C 
BRANCH  12  13
ATOM     13  C   UNL     1       7.238  -6.597  -6.425  1.00  0.00    -0.003 C 
ATOM     14  C   UNL     1       6.412  -6.017  -5.281  1.00  0.00     0.004 C 
ENDBRANCH  12  13
ENDBRANCH  11  12
ENDBRANCH  10  11
ENDBRANCH   9  10
ENDBRANCH   1   9
TORSDOF 10
ENDMDL
