MODEL 1
REMARK VINA RESULT:    -6.567      0.000      0.000
REMARK INTER + INTRA:          -6.602
REMARK INTER:                  -7.143
REMARK INTRA:                   0.541
REMARK UNBOUND:                 0.541
REMARK SMILES CC1(C)CC[C@@]2(C(=O)[O-])CC[C@]3(C)C(=CC[C@H]4[C@]5(C)CC[C@@H](O)C(C)(C)[C@H]5CC[C@@]43C)[C@H]2C1
REMARK SMILES IDX 6 1 5 2 10 3 32 4 4 5 11 6 14 7 33 8 2 9 12 10 15 11 1 12
REMARK SMILES IDX 3 13 13 14 30 15 16 16 17 17 29 18 31 19 18 20 28 21 27 22
REMARK SMILES IDX 20 23 19 24 24 25 21 26 22 27 25 28 26 29 7 30 8 31 9 32
REMARK SMILES IDX 23 33
REMARK H PARENT 23 34
REMARK Flexibility Score: inf
ROOT
ATOM      1  C   UNL     1      14.119  -8.419  17.647  1.00  0.00     0.017 C 
ATOM      2  C   UNL     1      13.595  -9.666  16.874  1.00  0.00     0.014 C 
ATOM      3  C   UNL     1      15.295  -8.827  18.611  1.00  0.00     0.014 C 
ATOM      4  C   UNL     1      14.523  -7.290  16.630  1.00  0.00     0.028 C 
ATOM      5  C   UNL     1      14.517 -10.125  15.738  1.00  0.00     0.007 C 
ATOM      6  C   UNL     1      16.573  -7.970  18.518  1.00  0.00     0.013 C 
ATOM      7  C   UNL     1      15.277  -6.155  17.313  1.00  0.00    -0.064 C 
ATOM      8  C   UNL     1      15.349  -7.768  15.406  1.00  0.00     0.015 C 
ATOM      9  C   UNL     1      14.776  -9.015  14.696  1.00  0.00    -0.035 C 
ATOM     10  C   UNL     1      16.332  -6.429  18.406  1.00  0.00    -0.006 C 
ATOM     11  C   UNL     1      15.093  -4.892  16.866  1.00  0.00    -0.027 C 
ATOM     12  C   UNL     1      15.817  -9.531  13.678  1.00  0.00     0.011 C 
ATOM     13  C   UNL     1      13.487  -8.662  13.915  1.00  0.00     0.011 C 
ATOM     14  C   UNL     1      15.620  -6.000  19.734  1.00  0.00     0.017 C 
ATOM     15  C   UNL     1      17.730  -5.588  18.136  1.00  0.00    -0.020 C 
ATOM     16  C   UNL     1      16.151  -3.849  17.105  1.00  0.00     0.032 C 
ATOM     17  C   UNL     1      17.514  -4.559  16.945  1.00  0.00     0.006 C 
ATOM     18  C   UNL     1      18.930  -6.489  17.688  1.00  0.00     0.008 C 
ATOM     19  C   UNL     1      18.181  -4.898  19.466  1.00  0.00     0.012 C 
ATOM     20  C   UNL     1      18.757  -3.683  16.489  1.00  0.00    -0.025 C 
ATOM     21  C   UNL     1      20.201  -5.708  17.277  1.00  0.00     0.005 C 
ATOM     22  C   UNL     1      19.916  -4.702  16.131  1.00  0.00     0.003 C 
ATOM     23  C   UNL     1      18.398  -2.914  15.173  1.00  0.00     0.010 C 
ATOM     24  C   UNL     1      19.130  -2.636  17.580  1.00  0.00     0.012 C 
ATOM     25  C   UNL     1      21.193  -4.083  15.431  1.00  0.00    -0.006 C 
ATOM     26  C   UNL     1      19.605  -2.271  14.470  1.00  0.00     0.033 C 
ATOM     27  C   UNL     1      20.716  -3.291  14.169  1.00  0.00     0.120 C 
ATOM     28  C   UNL     1      22.035  -3.191  16.377  1.00  0.00     0.014 C 
ATOM     29  C   UNL     1      22.125  -5.222  14.929  1.00  0.00     0.014 C 
ENDROOT
BRANCH   1  30
ATOM     30  C   UNL     1      12.944  -7.943  18.503  1.00  0.00     0.048 C 
ATOM     31  O   UNL     1      11.987  -8.725  18.751  1.00  0.00    -0.550 OA
ATOM     32  O   UNL     1      12.895  -6.651  19.019  1.00  0.00    -0.550 OA
ENDBRANCH   1  30
BRANCH  27  33
ATOM     33  O   UNL     1      21.789  -2.674  13.496  1.00  0.00    -0.393 OA
ATOM     34  H   UNL     1      22.371  -2.239  14.172  1.00  0.00     0.210 HD
ENDBRANCH  27  33
TORSDOF 2
ENDMDL
MODEL 2
REMARK VINA RESULT:    -6.106      3.690      7.688
REMARK INTER + INTRA:          -6.101
REMARK INTER:                  -6.081
REMARK INTRA:                  -0.021
REMARK UNBOUND:                 0.541
REMARK SMILES CC1(C)CC[C@@]2(C(=O)[O-])CC[C@]3(C)C(=CC[C@H]4[C@]5(C)CC[C@@H](O)C(C)(C)[C@H]5CC[C@@]43C)[C@H]2C1
REMARK SMILES IDX 6 1 5 2 10 3 32 4 4 5 11 6 14 7 33 8 2 9 12 10 15 11 1 12
REMARK SMILES IDX 3 13 13 14 30 15 16 16 17 17 29 18 31 19 18 20 28 21 27 22
REMARK SMILES IDX 20 23 19 24 24 25 21 26 22 27 25 28 26 29 7 30 8 31 9 32
REMARK SMILES IDX 23 33
REMARK H PARENT 23 34
REMARK Flexibility Score: inf
ROOT
ATOM      1  C   UNL     1      20.011  -2.894  14.754  1.00  0.00     0.017 C 
ATOM      2  C   UNL     1      19.709  -1.390  15.022  1.00  0.00     0.014 C 
ATOM      3  C   UNL     1      21.536  -3.198  15.000  1.00  0.00     0.014 C 
ATOM      4  C   UNL     1      19.059  -3.795  15.621  1.00  0.00     0.028 C 
ATOM      5  C   UNL     1      19.657  -1.024  16.510  1.00  0.00     0.007 C 
ATOM      6  C   UNL     1      21.846  -4.406  15.907  1.00  0.00     0.013 C 
ATOM      7  C   UNL     1      19.481  -5.259  15.592  1.00  0.00    -0.064 C 
ATOM      8  C   UNL     1      18.898  -3.355  17.101  1.00  0.00     0.015 C 
ATOM      9  C   UNL     1      18.610  -1.848  17.291  1.00  0.00    -0.035 C 
ATOM     10  C   UNL     1      20.966  -5.673  15.649  1.00  0.00    -0.006 C 
ATOM     11  C   UNL     1      18.521  -6.213  15.631  1.00  0.00    -0.027 C 
ATOM     12  C   UNL     1      18.734  -1.504  18.791  1.00  0.00     0.011 C 
ATOM     13  C   UNL     1      17.170  -1.500  16.843  1.00  0.00     0.011 C 
ATOM     14  C   UNL     1      21.286  -6.138  14.188  1.00  0.00     0.017 C 
ATOM     15  C   UNL     1      21.230  -6.864  16.765  1.00  0.00    -0.020 C 
ATOM     16  C   UNL     1      18.853  -7.591  16.134  1.00  0.00     0.032 C 
ATOM     17  C   UNL     1      19.841  -7.407  17.309  1.00  0.00     0.006 C 
ATOM     18  C   UNL     1      22.006  -6.376  18.035  1.00  0.00     0.008 C 
ATOM     19  C   UNL     1      22.116  -7.984  16.124  1.00  0.00     0.012 C 
ATOM     20  C   UNL     1      19.871  -8.526  18.434  1.00  0.00    -0.025 C 
ATOM     21  C   UNL     1      22.125  -7.432  19.161  1.00  0.00     0.005 C 
ATOM     22  C   UNL     1      20.735  -7.941  19.625  1.00  0.00     0.003 C 
ATOM     23  C   UNL     1      18.422  -8.752  18.984  1.00  0.00     0.010 C 
ATOM     24  C   UNL     1      20.391  -9.878  17.860  1.00  0.00     0.012 C 
ATOM     25  C   UNL     1      20.727  -8.779  20.967  1.00  0.00    -0.006 C 
ATOM     26  C   UNL     1      18.361  -9.587  20.274  1.00  0.00     0.033 C 
ATOM     27  C   UNL     1      19.237  -8.997  21.392  1.00  0.00     0.120 C 
ATOM     28  C   UNL     1      21.487 -10.125  20.849  1.00  0.00     0.014 C 
ATOM     29  C   UNL     1      21.412  -7.968  22.102  1.00  0.00     0.014 C 
ENDROOT
BRANCH   1  30
ATOM     30  C   UNL     1      19.716  -3.114  13.268  1.00  0.00     0.048 C 
ATOM     31  O   UNL     1      20.339  -2.449  12.397  1.00  0.00    -0.550 OA
ATOM     32  O   UNL     1      18.761  -4.034  12.845  1.00  0.00    -0.550 OA
ENDBRANCH   1  30
BRANCH  27  33
ATOM     33  O   UNL     1      19.131  -9.768  22.567  1.00  0.00    -0.393 OA
ATOM     34  H   UNL     1      18.222  -9.638  22.943  1.00  0.00     0.210 HD
ENDBRANCH  27  33
TORSDOF 2
ENDMDL
MODEL 3
REMARK VINA RESULT:    -5.783     14.895     18.193
REMARK INTER + INTRA:          -5.750
REMARK INTER:                  -5.918
REMARK INTRA:                   0.168
REMARK UNBOUND:                 0.541
REMARK SMILES CC1(C)CC[C@@]2(C(=O)[O-])CC[C@]3(C)C(=CC[C@H]4[C@]5(C)CC[C@@H](O)C(C)(C)[C@H]5CC[C@@]43C)[C@H]2C1
REMARK SMILES IDX 6 1 5 2 10 3 32 4 4 5 11 6 14 7 33 8 2 9 12 10 15 11 1 12
REMARK SMILES IDX 3 13 13 14 30 15 16 16 17 17 29 18 31 19 18 20 28 21 27 22
REMARK SMILES IDX 20 23 19 24 24 25 21 26 22 27 25 28 26 29 7 30 8 31 9 32
REMARK SMILES IDX 23 33
REMARK H PARENT 23 34
REMARK Flexibility Score: inf
ROOT
ATOM      1  C   UNL     1       6.114   8.519  19.989  1.00  0.00     0.017 C 
ATOM      2  C   UNL     1       5.259   9.814  20.124  1.00  0.00     0.014 C 
ATOM      3  C   UNL     1       6.889   8.233  21.330  1.00  0.00     0.014 C 
ATOM      4  C   UNL     1       5.203   7.320  19.539  1.00  0.00     0.028 C 
ATOM      5  C   UNL     1       3.983   9.630  20.954  1.00  0.00     0.007 C 
ATOM      6  C   UNL     1       6.761   6.803  21.891  1.00  0.00     0.013 C 
ATOM      7  C   UNL     1       5.931   5.984  19.641  1.00  0.00    -0.064 C 
ATOM      8  C   UNL     1       3.847   7.202  20.287  1.00  0.00     0.015 C 
ATOM      9  C   UNL     1       3.059   8.528  20.391  1.00  0.00    -0.035 C 
ATOM     10  C   UNL     1       6.862   5.660  20.828  1.00  0.00    -0.006 C 
ATOM     11  C   UNL     1       5.662   5.026  18.724  1.00  0.00    -0.027 C 
ATOM     12  C   UNL     1       1.880   8.330  21.368  1.00  0.00     0.011 C 
ATOM     13  C   UNL     1       2.472   8.930  19.017  1.00  0.00     0.011 C 
ATOM     14  C   UNL     1       8.302   5.757  20.218  1.00  0.00     0.017 C 
ATOM     15  C   UNL     1       6.544   4.170  21.470  1.00  0.00    -0.020 C 
ATOM     16  C   UNL     1       5.908   3.579  19.056  1.00  0.00     0.032 C 
ATOM     17  C   UNL     1       5.517   3.394  20.540  1.00  0.00     0.006 C 
ATOM     18  C   UNL     1       5.864   4.223  22.879  1.00  0.00     0.008 C 
ATOM     19  C   UNL     1       7.891   3.398  21.670  1.00  0.00     0.012 C 
ATOM     20  C   UNL     1       5.037   1.955  21.005  1.00  0.00    -0.025 C 
ATOM     21  C   UNL     1       5.414   2.847  23.427  1.00  0.00     0.005 C 
ATOM     22  C   UNL     1       4.435   2.131  22.459  1.00  0.00     0.003 C 
ATOM     23  C   UNL     1       3.870   1.470  20.080  1.00  0.00     0.010 C 
ATOM     24  C   UNL     1       6.199   0.922  20.907  1.00  0.00     0.012 C 
ATOM     25  C   UNL     1       3.679   0.876  23.056  1.00  0.00    -0.006 C 
ATOM     26  C   UNL     1       3.122   0.233  20.606  1.00  0.00     0.033 C 
ATOM     27  C   UNL     1       2.581   0.440  22.030  1.00  0.00     0.120 C 
ATOM     28  C   UNL     1       4.629  -0.298  23.406  1.00  0.00     0.014 C 
ATOM     29  C   UNL     1       2.946   1.274  24.368  1.00  0.00     0.014 C 
ENDROOT
BRANCH   1  30
ATOM     30  C   UNL     1       7.145   8.818  18.898  1.00  0.00     0.048 C 
ATOM     31  O   UNL     1       7.761   9.918  18.899  1.00  0.00    -0.550 OA
ATOM     32  O   UNL     1       7.422   7.903  17.887  1.00  0.00    -0.550 OA
ENDBRANCH   1  30
BRANCH  27  33
ATOM     33  O   UNL     1       1.875  -0.699  22.465  1.00  0.00    -0.393 OA
ATOM     34  H   UNL     1       1.136  -0.400  23.056  1.00  0.00     0.210 HD
ENDBRANCH  27  33
TORSDOF 2
ENDMDL
MODEL 4
REMARK VINA RESULT:    -5.540     12.491     15.109
REMARK INTER + INTRA:          -5.485
REMARK INTER:                  -5.260
REMARK INTRA:                  -0.226
REMARK UNBOUND:                 0.541
REMARK SMILES CC1(C)CC[C@@]2(C(=O)[O-])CC[C@]3(C)C(=CC[C@H]4[C@]5(C)CC[C@@H](O)C(C)(C)[C@H]5CC[C@@]43C)[C@H]2C1
REMARK SMILES IDX 6 1 5 2 10 3 32 4 4 5 11 6 14 7 33 8 2 9 12 10 15 11 1 12
REMARK SMILES IDX 3 13 13 14 30 15 16 16 17 17 29 18 31 19 18 20 28 21 27 22
REMARK SMILES IDX 20 23 19 24 24 25 21 26 22 27 25 28 26 29 7 30 8 31 9 32
REMARK SMILES IDX 23 33
REMARK H PARENT 23 34
REMARK Flexibility Score: inf
ROOT
ATOM      1  C   UNL     1       5.457  -8.849  24.857  1.00  0.00     0.017 C 
ATOM      2  C   UNL     1       6.157  -9.869  23.910  1.00  0.00     0.014 C 
ATOM      3  C   UNL     1       6.530  -7.995  25.631  1.00  0.00     0.014 C 
ATOM      4  C   UNL     1       4.444  -7.967  24.040  1.00  0.00     0.028 C 
ATOM      5  C   UNL     1       6.736  -9.237  22.638  1.00  0.00     0.007 C 
ATOM      6  C   UNL     1       6.329  -6.466  25.596  1.00  0.00     0.013 C 
ATOM      7  C   UNL     1       3.926  -6.791  24.860  1.00  0.00    -0.064 C 
ATOM      8  C   UNL     1       4.979  -7.429  22.686  1.00  0.00     0.015 C 
ATOM      9  C   UNL     1       5.670  -8.494  21.804  1.00  0.00    -0.035 C 
ATOM     10  C   UNL     1       4.853  -5.986  25.794  1.00  0.00    -0.006 C 
ATOM     11  C   UNL     1       2.650  -6.382  24.673  1.00  0.00    -0.027 C 
ATOM     12  C   UNL     1       6.375  -7.784  20.627  1.00  0.00     0.011 C 
ATOM     13  C   UNL     1       4.632  -9.476  21.209  1.00  0.00     0.011 C 
ATOM     14  C   UNL     1       4.433  -6.445  27.232  1.00  0.00     0.017 C 
ATOM     15  C   UNL     1       4.684  -4.357  25.574  1.00  0.00    -0.020 C 
ATOM     16  C   UNL     1       2.257  -4.970  25.016  1.00  0.00     0.032 C 
ATOM     17  C   UNL     1       3.449  -4.071  24.617  1.00  0.00     0.006 C 
ATOM     18  C   UNL     1       5.912  -3.685  24.871  1.00  0.00     0.008 C 
ATOM     19  C   UNL     1       4.552  -3.659  26.969  1.00  0.00     0.012 C 
ATOM     20  C   UNL     1       3.142  -2.561  24.234  1.00  0.00    -0.025 C 
ATOM     21  C   UNL     1       5.710  -2.193  24.512  1.00  0.00     0.005 C 
ATOM     22  C   UNL     1       4.472  -1.981  23.600  1.00  0.00     0.003 C 
ATOM     23  C   UNL     1       2.044  -2.519  23.118  1.00  0.00     0.010 C 
ATOM     24  C   UNL     1       2.614  -1.770  25.468  1.00  0.00     0.012 C 
ATOM     25  C   UNL     1       4.356  -0.554  22.927  1.00  0.00    -0.006 C 
ATOM     26  C   UNL     1       1.875  -1.143  22.453  1.00  0.00     0.033 C 
ATOM     27  C   UNL     1       3.197  -0.607  21.878  1.00  0.00     0.120 C 
ATOM     28  C   UNL     1       4.143   0.589  23.953  1.00  0.00     0.014 C 
ATOM     29  C   UNL     1       5.662  -0.228  22.149  1.00  0.00     0.014 C 
ENDROOT
BRANCH   1  30
ATOM     30  C   UNL     1       4.694  -9.694  25.880  1.00  0.00     0.048 C 
ATOM     31  O   UNL     1       3.541 -10.124  25.606  1.00  0.00    -0.550 OA
ATOM     32  O   UNL     1       5.239 -10.001  27.123  1.00  0.00    -0.550 OA
ENDBRANCH   1  30
BRANCH  27  33
ATOM     33  O   UNL     1       2.997   0.637  21.248  1.00  0.00    -0.393 OA
ATOM     34  H   UNL     1       3.815   1.184  21.373  1.00  0.00     0.210 HD
ENDBRANCH  27  33
TORSDOF 2
ENDMDL
MODEL 5
REMARK VINA RESULT:    -4.499      2.339      4.099
REMARK INTER + INTRA:          -4.353
REMARK INTER:                  -4.395
REMARK INTRA:                   0.042
REMARK UNBOUND:                 0.541
REMARK SMILES CC1(C)CC[C@@]2(C(=O)[O-])CC[C@]3(C)C(=CC[C@H]4[C@]5(C)CC[C@@H](O)C(C)(C)[C@H]5CC[C@@]43C)[C@H]2C1
REMARK SMILES IDX 6 1 5 2 10 3 32 4 4 5 11 6 14 7 33 8 2 9 12 10 15 11 1 12
REMARK SMILES IDX 3 13 13 14 30 15 16 16 17 17 29 18 31 19 18 20 28 21 27 22
REMARK SMILES IDX 20 23 19 24 24 25 21 26 22 27 25 28 26 29 7 30 8 31 9 32
REMARK SMILES IDX 23 33
REMARK H PARENT 23 34
REMARK Flexibility Score: inf
ROOT
ATOM      1  C   UNL     1      17.675  -8.163  19.330  1.00  0.00     0.017 C 
ATOM      2  C   UNL     1      18.577  -9.117  20.168  1.00  0.00     0.014 C 
ATOM      3  C   UNL     1      17.383  -6.840  20.132  1.00  0.00     0.014 C 
ATOM      4  C   UNL     1      18.333  -7.897  17.928  1.00  0.00     0.028 C 
ATOM      5  C   UNL     1      20.049  -8.691  20.220  1.00  0.00     0.007 C 
ATOM      6  C   UNL     1      17.635  -5.521  19.373  1.00  0.00     0.013 C 
ATOM      7  C   UNL     1      17.629  -6.777  17.172  1.00  0.00    -0.064 C 
ATOM      8  C   UNL     1      19.855  -7.592  17.959  1.00  0.00     0.015 C 
ATOM      9  C   UNL     1      20.686  -8.573  18.818  1.00  0.00    -0.035 C 
ATOM     10  C   UNL     1      17.137  -5.502  17.891  1.00  0.00    -0.006 C 
ATOM     11  C   UNL     1      17.536  -6.859  15.825  1.00  0.00    -0.027 C 
ATOM     12  C   UNL     1      22.115  -8.010  18.974  1.00  0.00     0.011 C 
ATOM     13  C   UNL     1      20.794  -9.954  18.129  1.00  0.00     0.011 C 
ATOM     14  C   UNL     1      15.581  -5.677  17.950  1.00  0.00     0.017 C 
ATOM     15  C   UNL     1      17.592  -4.130  17.089  1.00  0.00    -0.020 C 
ATOM     16  C   UNL     1      17.358  -5.609  15.007  1.00  0.00     0.032 C 
ATOM     17  C   UNL     1      18.216  -4.514  15.680  1.00  0.00     0.006 C 
ATOM     18  C   UNL     1      18.707  -3.312  17.823  1.00  0.00     0.008 C 
ATOM     19  C   UNL     1      16.360  -3.171  16.971  1.00  0.00     0.012 C 
ATOM     20  C   UNL     1      18.766  -3.338  14.767  1.00  0.00    -0.025 C 
ATOM     21  C   UNL     1      19.259  -2.111  17.017  1.00  0.00     0.005 C 
ATOM     22  C   UNL     1      19.827  -2.551  15.641  1.00  0.00     0.003 C 
ATOM     23  C   UNL     1      19.535  -3.943  13.545  1.00  0.00     0.010 C 
ATOM     24  C   UNL     1      17.598  -2.462  14.224  1.00  0.00     0.012 C 
ATOM     25  C   UNL     1      20.688  -1.465  14.878  1.00  0.00    -0.006 C 
ATOM     26  C   UNL     1      20.365  -2.918  12.754  1.00  0.00     0.033 C 
ATOM     27  C   UNL     1      21.360  -2.159  13.647  1.00  0.00     0.120 C 
ATOM     28  C   UNL     1      19.864  -0.224  14.451  1.00  0.00     0.014 C 
ATOM     29  C   UNL     1      21.833  -0.957  15.798  1.00  0.00     0.014 C 
ENDROOT
BRANCH   1  30
ATOM     30  C   UNL     1      16.351  -8.908  19.143  1.00  0.00     0.048 C 
ATOM     31  O   UNL     1      16.353 -10.108  18.756  1.00  0.00    -0.550 OA
ATOM     32  O   UNL     1      15.128  -8.290  19.382  1.00  0.00    -0.550 OA
ENDBRANCH   1  30
BRANCH  27  33
ATOM     33  O   UNL     1      22.125  -1.254  12.884  1.00  0.00    -0.393 OA
ATOM     34  H   UNL     1      23.041  -1.225  13.263  1.00  0.00     0.210 HD
ENDBRANCH  27  33
TORSDOF 2
ENDMDL
MODEL 6
REMARK VINA RESULT:    -3.897      1.758      7.764
REMARK INTER + INTRA:          -3.698
REMARK INTER:                  -3.576
REMARK INTRA:                  -0.122
REMARK UNBOUND:                 0.541
REMARK SMILES CC1(C)CC[C@@]2(C(=O)[O-])CC[C@]3(C)C(=CC[C@H]4[C@]5(C)CC[C@@H](O)C(C)(C)[C@H]5CC[C@@]43C)[C@H]2C1
REMARK SMILES IDX 6 1 5 2 10 3 32 4 4 5 11 6 14 7 33 8 2 9 12 10 15 11 1 12
REMARK SMILES IDX 3 13 13 14 30 15 16 16 17 17 29 18 31 19 18 20 28 21 27 22
REMARK SMILES IDX 20 23 19 24 24 25 21 26 22 27 25 28 26 29 7 30 8 31 9 32
REMARK SMILES IDX 23 33
REMARK H PARENT 23 34
REMARK Flexibility Score: inf
ROOT
ATOM      1  C   UNL     1      20.940  -4.255  17.087  1.00  0.00     0.017 C 
ATOM      2  C   UNL     1      22.124  -4.283  18.099  1.00  0.00     0.014 C 
ATOM      3  C   UNL     1      20.995  -5.515  16.145  1.00  0.00     0.014 C 
ATOM      4  C   UNL     1      19.578  -4.126  17.860  1.00  0.00     0.028 C 
ATOM      5  C   UNL     1      21.937  -5.287  19.244  1.00  0.00     0.007 C 
ATOM      6  C   UNL     1      19.684  -6.315  16.009  1.00  0.00     0.013 C 
ATOM      7  C   UNL     1      18.381  -4.352  16.943  1.00  0.00    -0.064 C 
ATOM      8  C   UNL     1      19.431  -5.048  19.100  1.00  0.00     0.015 C 
ATOM      9  C   UNL     1      20.647  -5.033  20.054  1.00  0.00    -0.035 C 
ATOM     10  C   UNL     1      18.391  -5.448  15.857  1.00  0.00    -0.006 C 
ATOM     11  C   UNL     1      17.249  -3.645  17.167  1.00  0.00    -0.027 C 
ATOM     12  C   UNL     1      20.485  -6.171  21.085  1.00  0.00     0.011 C 
ATOM     13  C   UNL     1      20.722  -3.697  20.832  1.00  0.00     0.011 C 
ATOM     14  C   UNL     1      18.552  -4.653  14.517  1.00  0.00     0.017 C 
ATOM     15  C   UNL     1      17.012  -6.360  15.892  1.00  0.00    -0.020 C 
ATOM     16  C   UNL     1      15.926  -4.176  16.684  1.00  0.00     0.032 C 
ATOM     17  C   UNL     1      15.963  -5.707  16.889  1.00  0.00     0.006 C 
ATOM     18  C   UNL     1      17.233  -7.816  16.423  1.00  0.00     0.008 C 
ATOM     19  C   UNL     1      16.459  -6.512  14.435  1.00  0.00     0.012 C 
ATOM     20  C   UNL     1      14.582  -6.458  17.108  1.00  0.00    -0.025 C 
ATOM     21  C   UNL     1      15.933  -8.635  16.613  1.00  0.00     0.005 C 
ATOM     22  C   UNL     1      14.941  -7.928  17.575  1.00  0.00     0.003 C 
ATOM     23  C   UNL     1      13.800  -5.780  18.284  1.00  0.00     0.010 C 
ATOM     24  C   UNL     1      13.698  -6.384  15.828  1.00  0.00     0.012 C 
ATOM     25  C   UNL     1      13.730  -8.813  18.079  1.00  0.00    -0.006 C 
ATOM     26  C   UNL     1      12.596  -6.591  18.790  1.00  0.00     0.033 C 
ATOM     27  C   UNL     1      12.987  -8.020  19.204  1.00  0.00     0.120 C 
ATOM     28  C   UNL     1      12.763  -9.227  16.941  1.00  0.00     0.014 C 
ATOM     29  C   UNL     1      14.264 -10.124  18.721  1.00  0.00     0.014 C 
ENDROOT
BRANCH   1  30
ATOM     30  C   UNL     1      21.163  -3.008  16.228  1.00  0.00     0.048 C 
ATOM     31  O   UNL     1      22.096  -2.986  15.380  1.00  0.00    -0.550 OA
ATOM     32  O   UNL     1      20.362  -1.878  16.362  1.00  0.00    -0.550 OA
ENDBRANCH   1  30
BRANCH  27  33
ATOM     33  O   UNL     1      11.866  -8.721  19.692  1.00  0.00    -0.393 OA
ATOM     34  H   UNL     1      11.993  -8.872  20.664  1.00  0.00     0.210 HD
ENDBRANCH  27  33
TORSDOF 2
ENDMDL
