MODEL 1
REMARK VINA RESULT:    -6.602      0.000      0.000
REMARK INTER + INTRA:          -8.183
REMARK INTER:                  -7.952
REMARK INTRA:                  -0.231
REMARK UNBOUND:                -0.231
REMARK SMILES O=c1c(O)c(-c2ccc(O)c(O)c2)oc2cc(O)cc(O)c12
REMARK SMILES IDX 5 1 3 2 2 3 1 4 22 5 20 6 19 7 17 8 16 9 15 10 14 11 6 12
REMARK SMILES IDX 7 13 8 14 9 15 13 16 11 17 10 18 12 20 4 22 21 24 18 26
REMARK H PARENT 10 19 12 21 4 23 21 25 18 27
REMARK Flexibility Score: inf
ROOT
ATOM      1  C   UNL     1      -4.938   5.522  -2.233  1.00  0.00     0.180 A 
ATOM      2  C   UNL     1      -5.948   5.227  -3.165  1.00  0.00     0.208 A 
ATOM      3  C   UNL     1      -5.603   4.581  -4.362  1.00  0.00     0.238 A 
ATOM      4  O   UNL     1      -6.502   4.369  -5.217  1.00  0.00    -0.285 OA
ATOM      5  C   UNL     1      -4.254   4.224  -4.605  1.00  0.00     0.111 A 
ATOM      6  C   UNL     1      -3.796   3.530  -5.766  1.00  0.00     0.134 A 
ATOM      7  C   UNL     1      -2.422   3.345  -5.962  1.00  0.00     0.093 A 
ATOM      8  C   UNL     1      -1.494   3.768  -5.008  1.00  0.00     0.123 A 
ATOM      9  C   UNL     1      -1.935   4.392  -3.844  1.00  0.00     0.094 A 
ATOM     10  C   UNL     1      -3.297   4.625  -3.637  1.00  0.00     0.146 A 
ATOM     11  O   UNL     1      -3.674   5.232  -2.518  1.00  0.00    -0.452 OA
ENDROOT
BRANCH   1  12
ATOM     12  C   UNL     1      -5.229   6.179  -0.936  1.00  0.00     0.025 A 
ATOM     13  C   UNL     1      -5.592   7.535  -0.869  1.00  0.00     0.016 A 
ATOM     14  C   UNL     1      -5.885   8.127   0.362  1.00  0.00     0.051 A 
ATOM     15  C   UNL     1      -5.833   7.371   1.541  1.00  0.00     0.157 A 
ATOM     16  C   UNL     1      -5.199   5.419   0.245  1.00  0.00     0.062 A 
ATOM     17  C   UNL     1      -5.491   6.009   1.480  1.00  0.00     0.158 A 
BRANCH  15  18
ATOM     18  O   UNL     1      -6.124   7.965   2.768  1.00  0.00    -0.504 OA
ATOM     19  H   UNL     1      -6.272   8.964   2.853  1.00  0.00     0.293 HD
ENDBRANCH  15  18
BRANCH  17  20
ATOM     20  O   UNL     1      -5.437   5.227   2.634  1.00  0.00    -0.504 OA
ATOM     21  H   UNL     1      -5.423   4.215   2.597  1.00  0.00     0.293 HD
ENDBRANCH  17  20
ENDBRANCH   1  12
BRANCH   2  22
ATOM     22  O   UNL     1      -7.269   5.609  -2.914  1.00  0.00    -0.502 OA
ATOM     23  H   UNL     1      -7.884   5.953  -3.643  1.00  0.00     0.293 HD
ENDBRANCH   2  22
BRANCH   6  24
ATOM     24  O   UNL     1      -4.644   2.986  -6.735  1.00  0.00    -0.507 OA
ATOM     25  H   UNL     1      -5.458   3.449  -7.112  1.00  0.00     0.293 HD
ENDBRANCH   6  24
BRANCH   8  26
ATOM     26  O   UNL     1      -0.130   3.566  -5.203  1.00  0.00    -0.508 OA
ATOM     27  H   UNL     1       0.549   3.811  -4.492  1.00  0.00     0.293 HD
ENDBRANCH   8  26
TORSDOF 6
ENDMDL
MODEL 2
REMARK VINA RESULT:    -6.296      1.473      2.179
REMARK INTER + INTRA:          -7.815
REMARK INTER:                  -7.851
REMARK INTRA:                   0.036
REMARK UNBOUND:                -0.231
REMARK SMILES O=c1c(O)c(-c2ccc(O)c(O)c2)oc2cc(O)cc(O)c12
REMARK SMILES IDX 5 1 3 2 2 3 1 4 22 5 20 6 19 7 17 8 16 9 15 10 14 11 6 12
REMARK SMILES IDX 7 13 8 14 9 15 13 16 11 17 10 18 12 20 4 22 21 24 18 26
REMARK H PARENT 10 19 12 21 4 23 21 25 18 27
REMARK Flexibility Score: inf
ROOT
ATOM      1  C   UNL     1      -4.208   4.806  -3.881  1.00  0.00     0.180 A 
ATOM      2  C   UNL     1      -4.920   4.248  -4.957  1.00  0.00     0.208 A 
ATOM      3  C   UNL     1      -4.210   3.787  -6.077  1.00  0.00     0.238 A 
ATOM      4  O   UNL     1      -4.856   3.339  -7.060  1.00  0.00    -0.285 OA
ATOM      5  C   UNL     1      -2.797   3.874  -6.099  1.00  0.00     0.111 A 
ATOM      6  C   UNL     1      -1.973   3.401  -7.165  1.00  0.00     0.134 A 
ATOM      7  C   UNL     1      -0.596   3.658  -7.139  1.00  0.00     0.093 A 
ATOM      8  C   UNL     1      -0.005   4.312  -6.055  1.00  0.00     0.123 A 
ATOM      9  C   UNL     1      -0.793   4.724  -4.983  1.00  0.00     0.094 A 
ATOM     10  C   UNL     1      -2.174   4.516  -4.997  1.00  0.00     0.146 A 
ATOM     11  O   UNL     1      -2.889   4.933  -3.959  1.00  0.00    -0.452 OA
ENDROOT
BRANCH   1  12
ATOM     12  C   UNL     1      -4.885   5.291  -2.655  1.00  0.00     0.025 A 
ATOM     13  C   UNL     1      -6.000   6.144  -2.724  1.00  0.00     0.016 A 
ATOM     14  C   UNL     1      -6.637   6.570  -1.556  1.00  0.00     0.051 A 
ATOM     15  C   UNL     1      -6.179   6.139  -0.303  1.00  0.00     0.157 A 
ATOM     16  C   UNL     1      -4.442   4.845  -1.399  1.00  0.00     0.062 A 
ATOM     17  C   UNL     1      -5.077   5.270  -0.226  1.00  0.00     0.158 A 
BRANCH  15  18
ATOM     18  O   UNL     1      -6.815   6.567   0.861  1.00  0.00    -0.504 OA
ATOM     19  H   UNL     1      -7.734   6.228   1.119  1.00  0.00     0.293 HD
ENDBRANCH  15  18
BRANCH  17  20
ATOM     20  O   UNL     1      -4.600   4.818   1.004  1.00  0.00    -0.504 OA
ATOM     21  H   UNL     1      -4.571   3.833   1.241  1.00  0.00     0.293 HD
ENDBRANCH  17  20
ENDBRANCH   1  12
BRANCH   2  22
ATOM     22  O   UNL     1      -6.316   4.193  -4.922  1.00  0.00    -0.502 OA
ATOM     23  H   UNL     1      -6.899   4.844  -5.435  1.00  0.00     0.293 HD
ENDBRANCH   2  22
BRANCH   6  24
ATOM     24  O   UNL     1      -2.449   2.658  -8.249  1.00  0.00    -0.507 OA
ATOM     25  H   UNL     1      -2.685   3.044  -9.151  1.00  0.00     0.293 HD
ENDBRANCH   6  24
BRANCH   8  26
ATOM     26  O   UNL     1       1.367   4.549  -6.030  1.00  0.00    -0.508 OA
ATOM     27  H   UNL     1       1.779   5.205  -5.376  1.00  0.00     0.293 HD
ENDBRANCH   8  26
TORSDOF 6
ENDMDL
MODEL 3
REMARK VINA RESULT:    -6.263      1.856      3.041
REMARK INTER + INTRA:          -7.775
REMARK INTER:                  -8.164
REMARK INTRA:                   0.389
REMARK UNBOUND:                -0.231
REMARK SMILES O=c1c(O)c(-c2ccc(O)c(O)c2)oc2cc(O)cc(O)c12
REMARK SMILES IDX 5 1 3 2 2 3 1 4 22 5 20 6 19 7 17 8 16 9 15 10 14 11 6 12
REMARK SMILES IDX 7 13 8 14 9 15 13 16 11 17 10 18 12 20 4 22 21 24 18 26
REMARK H PARENT 10 19 12 21 4 23 21 25 18 27
REMARK Flexibility Score: inf
ROOT
ATOM      1  C   UNL     1      -3.780   4.171  -4.324  1.00  0.00     0.180 A 
ATOM      2  C   UNL     1      -4.836   4.030  -5.242  1.00  0.00     0.208 A 
ATOM      3  C   UNL     1      -4.540   3.725  -6.580  1.00  0.00     0.238 A 
ATOM      4  O   UNL     1      -5.485   3.654  -7.408  1.00  0.00    -0.285 OA
ATOM      5  C   UNL     1      -3.193   3.549  -6.980  1.00  0.00     0.111 A 
ATOM      6  C   UNL     1      -2.779   3.199  -8.301  1.00  0.00     0.134 A 
ATOM      7  C   UNL     1      -1.415   3.179  -8.614  1.00  0.00     0.093 A 
ATOM      8  C   UNL     1      -0.447   3.432  -7.639  1.00  0.00     0.123 A 
ATOM      9  C   UNL     1      -0.839   3.716  -6.333  1.00  0.00     0.094 A 
ATOM     10  C   UNL     1      -2.194   3.780  -5.998  1.00  0.00     0.146 A 
ATOM     11  O   UNL     1      -2.525   4.064  -4.744  1.00  0.00    -0.452 OA
ENDROOT
BRANCH   1  12
ATOM     12  C   UNL     1      -4.015   4.467  -2.892  1.00  0.00     0.025 A 
ATOM     13  C   UNL     1      -3.065   4.132  -1.911  1.00  0.00     0.016 A 
ATOM     14  C   UNL     1      -3.297   4.442  -0.569  1.00  0.00     0.051 A 
ATOM     15  C   UNL     1      -4.474   5.102  -0.188  1.00  0.00     0.157 A 
ATOM     16  C   UNL     1      -5.183   5.146  -2.509  1.00  0.00     0.062 A 
ATOM     17  C   UNL     1      -5.419   5.457  -1.165  1.00  0.00     0.158 A 
BRANCH  15  18
ATOM     18  O   UNL     1      -4.703   5.407   1.153  1.00  0.00    -0.504 OA
ATOM     19  H   UNL     1      -4.620   4.706   1.879  1.00  0.00     0.293 HD
ENDBRANCH  15  18
BRANCH  17  20
ATOM     20  O   UNL     1      -6.597   6.120  -0.820  1.00  0.00    -0.504 OA
ATOM     21  H   UNL     1      -7.453   5.621  -0.611  1.00  0.00     0.293 HD
ENDBRANCH  17  20
ENDBRANCH   1  12
BRANCH   2  22
ATOM     22  O   UNL     1      -6.156   4.230  -4.829  1.00  0.00    -0.502 OA
ATOM     23  H   UNL     1      -6.609   5.136  -4.874  1.00  0.00     0.293 HD
ENDBRANCH   2  22
BRANCH   6  24
ATOM     24  O   UNL     1      -3.660   2.839  -9.325  1.00  0.00    -0.507 OA
ATOM     25  H   UNL     1      -4.015   1.906  -9.476  1.00  0.00     0.293 HD
ENDBRANCH   6  24
BRANCH   8  26
ATOM     26  O   UNL     1       0.909   3.396  -7.956  1.00  0.00    -0.508 OA
ATOM     27  H   UNL     1       1.352   2.547  -8.288  1.00  0.00     0.293 HD
ENDBRANCH   8  26
TORSDOF 6
ENDMDL
MODEL 4
REMARK VINA RESULT:    -6.238      1.784      6.966
REMARK INTER + INTRA:          -7.746
REMARK INTER:                  -7.521
REMARK INTRA:                  -0.225
REMARK UNBOUND:                -0.231
REMARK SMILES O=c1c(O)c(-c2ccc(O)c(O)c2)oc2cc(O)cc(O)c12
REMARK SMILES IDX 5 1 3 2 2 3 1 4 22 5 20 6 19 7 17 8 16 9 15 10 14 11 6 12
REMARK SMILES IDX 7 13 8 14 9 15 13 16 11 17 10 18 12 20 4 22 21 24 18 26
REMARK H PARENT 10 19 12 21 4 23 21 25 18 27
REMARK Flexibility Score: inf
ROOT
ATOM      1  C   UNL     1      -3.296   4.731  -4.712  1.00  0.00     0.180 A 
ATOM      2  C   UNL     1      -4.482   5.246  -5.263  1.00  0.00     0.208 A 
ATOM      3  C   UNL     1      -5.506   5.671  -4.401  1.00  0.00     0.238 A 
ATOM      4  O   UNL     1      -6.587   6.079  -4.899  1.00  0.00    -0.285 OA
ATOM      5  C   UNL     1      -5.323   5.591  -2.999  1.00  0.00     0.111 A 
ATOM      6  C   UNL     1      -6.277   6.030  -2.031  1.00  0.00     0.134 A 
ATOM      7  C   UNL     1      -6.045   5.783  -0.672  1.00  0.00     0.093 A 
ATOM      8  C   UNL     1      -4.865   5.172  -0.242  1.00  0.00     0.123 A 
ATOM      9  C   UNL     1      -3.902   4.794  -1.174  1.00  0.00     0.094 A 
ATOM     10  C   UNL     1      -4.120   4.993  -2.539  1.00  0.00     0.146 A 
ATOM     11  O   UNL     1      -3.181   4.609  -3.395  1.00  0.00    -0.452 OA
ENDROOT
BRANCH   1  12
ATOM     12  C   UNL     1      -2.162   4.287  -5.557  1.00  0.00     0.025 A 
ATOM     13  C   UNL     1      -2.242   3.116  -6.329  1.00  0.00     0.016 A 
ATOM     14  C   UNL     1      -1.169   2.729  -7.137  1.00  0.00     0.051 A 
ATOM     15  C   UNL     1      -0.009   3.513  -7.195  1.00  0.00     0.157 A 
ATOM     16  C   UNL     1      -1.006   5.080  -5.634  1.00  0.00     0.062 A 
ATOM     17  C   UNL     1       0.070   4.696  -6.441  1.00  0.00     0.158 A 
BRANCH  15  18
ATOM     18  O   UNL     1       1.061   3.122  -8.000  1.00  0.00    -0.504 OA
ATOM     19  H   UNL     1       1.703   3.799  -8.395  1.00  0.00     0.293 HD
ENDBRANCH  15  18
BRANCH  17  20
ATOM     20  O   UNL     1       1.208   5.501  -6.482  1.00  0.00    -0.504 OA
ATOM     21  H   UNL     1       1.818   5.612  -5.681  1.00  0.00     0.293 HD
ENDBRANCH  17  20
ENDBRANCH   1  12
BRANCH   2  22
ATOM     22  O   UNL     1      -4.650   5.295  -6.650  1.00  0.00    -0.502 OA
ATOM     23  H   UNL     1      -4.588   4.469  -7.234  1.00  0.00     0.293 HD
ENDBRANCH   2  22
BRANCH   6  24
ATOM     24  O   UNL     1      -7.444   6.731  -2.348  1.00  0.00    -0.507 OA
ATOM     25  H   UNL     1      -7.626   7.170  -3.238  1.00  0.00     0.293 HD
ENDBRANCH   6  24
BRANCH   8  26
ATOM     26  O   UNL     1      -4.635   4.943   1.113  1.00  0.00    -0.508 OA
ATOM     27  H   UNL     1      -5.228   5.350   1.827  1.00  0.00     0.293 HD
ENDBRANCH   8  26
TORSDOF 6
ENDMDL
MODEL 5
REMARK VINA RESULT:    -6.056      1.274      2.835
REMARK INTER + INTRA:          -7.526
REMARK INTER:                  -7.551
REMARK INTRA:                   0.025
REMARK UNBOUND:                -0.231
REMARK SMILES O=c1c(O)c(-c2ccc(O)c(O)c2)oc2cc(O)cc(O)c12
REMARK SMILES IDX 5 1 3 2 2 3 1 4 22 5 20 6 19 7 17 8 16 9 15 10 14 11 6 12
REMARK SMILES IDX 7 13 8 14 9 15 13 16 11 17 10 18 12 20 4 22 21 24 18 26
REMARK H PARENT 10 19 12 21 4 23 21 25 18 27
REMARK Flexibility Score: inf
ROOT
ATOM      1  C   UNL     1      -4.201   5.198  -2.436  1.00  0.00     0.180 A 
ATOM      2  C   UNL     1      -2.926   4.613  -2.351  1.00  0.00     0.208 A 
ATOM      3  C   UNL     1      -2.395   3.967  -3.479  1.00  0.00     0.238 A 
ATOM      4  O   UNL     1      -1.277   3.398  -3.380  1.00  0.00    -0.285 OA
ATOM      5  C   UNL     1      -3.140   3.929  -4.683  1.00  0.00     0.111 A 
ATOM      6  C   UNL     1      -2.683   3.336  -5.899  1.00  0.00     0.134 A 
ATOM      7  C   UNL     1      -3.556   3.241  -6.990  1.00  0.00     0.093 A 
ATOM      8  C   UNL     1      -4.845   3.775  -6.931  1.00  0.00     0.123 A 
ATOM      9  C   UNL     1      -5.279   4.408  -5.769  1.00  0.00     0.094 A 
ATOM     10  C   UNL     1      -4.445   4.486  -4.651  1.00  0.00     0.146 A 
ATOM     11  O   UNL     1      -4.901   5.089  -3.559  1.00  0.00    -0.452 OA
ENDROOT
BRANCH   1  12
ATOM     12  C   UNL     1      -4.816   5.918  -1.297  1.00  0.00     0.025 A 
ATOM     13  C   UNL     1      -5.370   7.200  -1.456  1.00  0.00     0.016 A 
ATOM     14  C   UNL     1      -5.966   7.851  -0.373  1.00  0.00     0.051 A 
ATOM     15  C   UNL     1      -6.030   7.226   0.880  1.00  0.00     0.157 A 
ATOM     16  C   UNL     1      -4.900   5.287  -0.045  1.00  0.00     0.062 A 
ATOM     17  C   UNL     1      -5.496   5.937   1.042  1.00  0.00     0.158 A 
BRANCH  15  18
ATOM     18  O   UNL     1      -6.623   7.879   1.959  1.00  0.00    -0.504 OA
ATOM     19  H   UNL     1      -6.095   8.121   2.789  1.00  0.00     0.293 HD
ENDBRANCH  15  18
BRANCH  17  20
ATOM     20  O   UNL     1      -5.548   5.285   2.274  1.00  0.00    -0.504 OA
ATOM     21  H   UNL     1      -4.878   5.470   3.010  1.00  0.00     0.293 HD
ENDBRANCH  17  20
ENDBRANCH   1  12
BRANCH   2  22
ATOM     22  O   UNL     1      -2.218   4.644  -1.146  1.00  0.00    -0.502 OA
ATOM     23  H   UNL     1      -1.699   3.845  -0.799  1.00  0.00     0.293 HD
ENDBRANCH   2  22
BRANCH   6  24
ATOM     24  O   UNL     1      -1.385   2.855  -6.094  1.00  0.00    -0.507 OA
ATOM     25  H   UNL     1      -1.145   1.882  -6.209  1.00  0.00     0.293 HD
ENDBRANCH   6  24
BRANCH   8  26
ATOM     26  O   UNL     1      -5.702   3.690  -8.026  1.00  0.00    -0.508 OA
ATOM     27  H   UNL     1      -5.479   3.113  -8.829  1.00  0.00     0.293 HD
ENDBRANCH   8  26
TORSDOF 6
ENDMDL
MODEL 6
REMARK VINA RESULT:    -6.037      1.934      7.399
REMARK INTER + INTRA:          -7.503
REMARK INTER:                  -7.169
REMARK INTRA:                  -0.334
REMARK UNBOUND:                -0.231
REMARK SMILES O=c1c(O)c(-c2ccc(O)c(O)c2)oc2cc(O)cc(O)c12
REMARK SMILES IDX 5 1 3 2 2 3 1 4 22 5 20 6 19 7 17 8 16 9 15 10 14 11 6 12
REMARK SMILES IDX 7 13 8 14 9 15 13 16 11 17 10 18 12 20 4 22 21 24 18 26
REMARK H PARENT 10 19 12 21 4 23 21 25 18 27
REMARK Flexibility Score: inf
ROOT
ATOM      1  C   UNL     1      -3.017   4.732  -3.529  1.00  0.00     0.180 A 
ATOM      2  C   UNL     1      -2.244   4.953  -2.376  1.00  0.00     0.208 A 
ATOM      3  C   UNL     1      -2.887   5.318  -1.183  1.00  0.00     0.238 A 
ATOM      4  O   UNL     1      -2.186   5.568  -0.168  1.00  0.00    -0.285 OA
ATOM      5  C   UNL     1      -4.298   5.441  -1.154  1.00  0.00     0.111 A 
ATOM      6  C   UNL     1      -5.059   5.767   0.009  1.00  0.00     0.134 A 
ATOM      7  C   UNL     1      -6.436   5.990  -0.108  1.00  0.00     0.093 A 
ATOM      8  C   UNL     1      -7.090   5.836  -1.332  1.00  0.00     0.123 A 
ATOM      9  C   UNL     1      -6.366   5.460  -2.461  1.00  0.00     0.094 A 
ATOM     10  C   UNL     1      -4.985   5.266  -2.384  1.00  0.00     0.146 A 
ATOM     11  O   UNL     1      -4.331   4.919  -3.486  1.00  0.00    -0.452 OA
ENDROOT
BRANCH   1  12
ATOM     12  C   UNL     1      -2.412   4.319  -4.817  1.00  0.00     0.025 A 
ATOM     13  C   UNL     1      -2.203   2.964  -5.126  1.00  0.00     0.016 A 
ATOM     14  C   UNL     1      -1.653   2.597  -6.356  1.00  0.00     0.051 A 
ATOM     15  C   UNL     1      -1.316   3.576  -7.301  1.00  0.00     0.157 A 
ATOM     16  C   UNL     1      -2.092   5.296  -5.774  1.00  0.00     0.062 A 
ATOM     17  C   UNL     1      -1.540   4.932  -7.008  1.00  0.00     0.158 A 
BRANCH  15  18
ATOM     18  O   UNL     1      -0.765   3.207  -8.527  1.00  0.00    -0.504 OA
ATOM     19  H   UNL     1      -1.131   2.427  -9.060  1.00  0.00     0.293 HD
ENDBRANCH  15  18
BRANCH  17  20
ATOM     20  O   UNL     1      -1.221   5.930  -7.928  1.00  0.00    -0.504 OA
ATOM     21  H   UNL     1      -0.281   6.295  -8.022  1.00  0.00     0.293 HD
ENDBRANCH  17  20
ENDBRANCH   1  12
BRANCH   2  22
ATOM     22  O   UNL     1      -0.851   4.847  -2.433  1.00  0.00    -0.502 OA
ATOM     23  H   UNL     1      -0.242   5.657  -2.401  1.00  0.00     0.293 HD
ENDBRANCH   2  22
BRANCH   6  24
ATOM     24  O   UNL     1      -4.519   5.856   1.295  1.00  0.00    -0.507 OA
ATOM     25  H   UNL     1      -4.717   6.596   1.952  1.00  0.00     0.293 HD
ENDBRANCH   6  24
BRANCH   8  26
ATOM     26  O   UNL     1      -8.464   6.045  -1.437  1.00  0.00    -0.508 OA
ATOM     27  H   UNL     1      -9.115   5.270  -1.487  1.00  0.00     0.293 HD
ENDBRANCH   8  26
TORSDOF 6
ENDMDL
MODEL 7
REMARK VINA RESULT:    -6.025      2.244      3.533
REMARK INTER + INTRA:          -7.488
REMARK INTER:                  -7.263
REMARK INTRA:                  -0.225
REMARK UNBOUND:                -0.231
REMARK SMILES O=c1c(O)c(-c2ccc(O)c(O)c2)oc2cc(O)cc(O)c12
REMARK SMILES IDX 5 1 3 2 2 3 1 4 22 5 20 6 19 7 17 8 16 9 15 10 14 11 6 12
REMARK SMILES IDX 7 13 8 14 9 15 13 16 11 17 10 18 12 20 4 22 21 24 18 26
REMARK H PARENT 10 19 12 21 4 23 21 25 18 27
REMARK Flexibility Score: inf
ROOT
ATOM      1  C   UNL     1      -4.582   5.073  -3.665  1.00  0.00     0.180 A 
ATOM      2  C   UNL     1      -3.332   4.736  -3.117  1.00  0.00     0.208 A 
ATOM      3  C   UNL     1      -2.357   4.160  -3.946  1.00  0.00     0.238 A 
ATOM      4  O   UNL     1      -1.260   3.809  -3.438  1.00  0.00    -0.285 OA
ATOM      5  C   UNL     1      -2.638   3.944  -5.317  1.00  0.00     0.111 A 
ATOM      6  C   UNL     1      -1.710   3.404  -6.259  1.00  0.00     0.134 A 
ATOM      7  C   UNL     1      -2.139   3.113  -7.560  1.00  0.00     0.093 A 
ATOM      8  C   UNL     1      -3.442   3.403  -7.972  1.00  0.00     0.123 A 
ATOM      9  C   UNL     1      -4.337   3.984  -7.077  1.00  0.00     0.094 A 
ATOM     10  C   UNL     1      -3.950   4.253  -5.762  1.00  0.00     0.146 A 
ATOM     11  O   UNL     1      -4.837   4.799  -4.939  1.00  0.00    -0.452 OA
ENDROOT
BRANCH   1  12
ATOM     12  C   UNL     1      -5.651   5.707  -2.859  1.00  0.00     0.025 A 
ATOM     13  C   UNL     1      -5.520   7.020  -2.374  1.00  0.00     0.016 A 
ATOM     14  C   UNL     1      -6.552   7.606  -1.636  1.00  0.00     0.051 A 
ATOM     15  C   UNL     1      -7.733   6.895  -1.384  1.00  0.00     0.157 A 
ATOM     16  C   UNL     1      -6.845   5.006  -2.621  1.00  0.00     0.062 A 
ATOM     17  C   UNL     1      -7.880   5.590  -1.882  1.00  0.00     0.158 A 
BRANCH  15  18
ATOM     18  O   UNL     1      -8.760   7.482  -0.645  1.00  0.00    -0.504 OA
ATOM     19  H   UNL     1      -9.700   7.105  -0.649  1.00  0.00     0.293 HD
ENDBRANCH  15  18
BRANCH  17  20
ATOM     20  O   UNL     1      -9.045   4.858  -1.654  1.00  0.00    -0.504 OA
ATOM     21  H   UNL     1      -9.750   4.732  -2.370  1.00  0.00     0.293 HD
ENDBRANCH  17  20
ENDBRANCH   1  12
BRANCH   2  22
ATOM     22  O   UNL     1      -3.085   4.937  -1.756  1.00  0.00    -0.502 OA
ATOM     23  H   UNL     1      -2.176   5.216  -1.404  1.00  0.00     0.293 HD
ENDBRANCH   2  22
BRANCH   6  24
ATOM     24  O   UNL     1      -0.363   3.163  -5.977  1.00  0.00    -0.507 OA
ATOM     25  H   UNL     1       0.013   2.273  -5.686  1.00  0.00     0.293 HD
ENDBRANCH   6  24
BRANCH   8  26
ATOM     26  O   UNL     1      -3.856   3.124  -9.273  1.00  0.00    -0.508 OA
ATOM     27  H   UNL     1      -3.532   3.673 -10.060  1.00  0.00     0.293 HD
ENDBRANCH   8  26
TORSDOF 6
ENDMDL
MODEL 8
REMARK VINA RESULT:    -5.846      2.028      4.302
REMARK INTER + INTRA:          -7.273
REMARK INTER:                  -7.240
REMARK INTRA:                  -0.033
REMARK UNBOUND:                -0.231
REMARK SMILES O=c1c(O)c(-c2ccc(O)c(O)c2)oc2cc(O)cc(O)c12
REMARK SMILES IDX 5 1 3 2 2 3 1 4 22 5 20 6 19 7 17 8 16 9 15 10 14 11 6 12
REMARK SMILES IDX 7 13 8 14 9 15 13 16 11 17 10 18 12 20 4 22 21 24 18 26
REMARK H PARENT 10 19 12 21 4 23 21 25 18 27
REMARK Flexibility Score: inf
ROOT
ATOM      1  C   UNL     1      -2.659   4.603  -4.061  1.00  0.00     0.180 A 
ATOM      2  C   UNL     1      -1.291   4.901  -4.195  1.00  0.00     0.208 A 
ATOM      3  C   UNL     1      -0.688   4.776  -5.456  1.00  0.00     0.238 A 
ATOM      4  O   UNL     1       0.549   4.991  -5.560  1.00  0.00    -0.285 OA
ATOM      5  C   UNL     1      -1.462   4.373  -6.571  1.00  0.00     0.111 A 
ATOM      6  C   UNL     1      -0.964   4.252  -7.903  1.00  0.00     0.134 A 
ATOM      7  C   UNL     1      -1.787   3.719  -8.902  1.00  0.00     0.093 A 
ATOM      8  C   UNL     1      -3.111   3.363  -8.632  1.00  0.00     0.123 A 
ATOM      9  C   UNL     1      -3.624   3.533  -7.349  1.00  0.00     0.094 A 
ATOM     10  C   UNL     1      -2.816   4.028  -6.322  1.00  0.00     0.146 A 
ATOM     11  O   UNL     1      -3.343   4.164  -5.111  1.00  0.00    -0.452 OA
ENDROOT
BRANCH   1  12
ATOM     12  C   UNL     1      -3.371   4.735  -2.768  1.00  0.00     0.025 A 
ATOM     13  C   UNL     1      -2.903   4.095  -1.607  1.00  0.00     0.016 A 
ATOM     14  C   UNL     1      -3.578   4.253  -0.394  1.00  0.00     0.051 A 
ATOM     15  C   UNL     1      -4.720   5.062  -0.320  1.00  0.00     0.157 A 
ATOM     16  C   UNL     1      -4.504   5.560  -2.685  1.00  0.00     0.062 A 
ATOM     17  C   UNL     1      -5.183   5.720  -1.472  1.00  0.00     0.158 A 
BRANCH  15  18
ATOM     18  O   UNL     1      -5.393   5.215   0.892  1.00  0.00    -0.504 OA
ATOM     19  H   UNL     1      -5.359   6.084   1.412  1.00  0.00     0.293 HD
ENDBRANCH  15  18
BRANCH  17  20
ATOM     20  O   UNL     1      -6.312   6.537  -1.430  1.00  0.00    -0.504 OA
ATOM     21  H   UNL     1      -6.806   6.815  -2.269  1.00  0.00     0.293 HD
ENDBRANCH  17  20
ENDBRANCH   1  12
BRANCH   2  22
ATOM     22  O   UNL     1      -0.541   5.276  -3.077  1.00  0.00    -0.502 OA
ATOM     23  H   UNL     1       0.301   5.836  -3.150  1.00  0.00     0.293 HD
ENDBRANCH   2  22
BRANCH   6  24
ATOM     24  O   UNL     1       0.312   4.663  -8.299  1.00  0.00    -0.507 OA
ATOM     25  H   UNL     1       1.057   4.040  -8.575  1.00  0.00     0.293 HD
ENDBRANCH   6  24
BRANCH   8  26
ATOM     26  O   UNL     1      -3.928   2.847  -9.636  1.00  0.00    -0.508 OA
ATOM     27  H   UNL     1      -4.881   2.559  -9.447  1.00  0.00     0.293 HD
ENDBRANCH   8  26
TORSDOF 6
ENDMDL
MODEL 9
REMARK VINA RESULT:    -5.795      3.364      7.751
REMARK INTER + INTRA:          -7.211
REMARK INTER:                  -6.890
REMARK INTRA:                  -0.321
REMARK UNBOUND:                -0.231
REMARK SMILES O=c1c(O)c(-c2ccc(O)c(O)c2)oc2cc(O)cc(O)c12
REMARK SMILES IDX 5 1 3 2 2 3 1 4 22 5 20 6 19 7 17 8 16 9 15 10 14 11 6 12
REMARK SMILES IDX 7 13 8 14 9 15 13 16 11 17 10 18 12 20 4 22 21 24 18 26
REMARK H PARENT 10 19 12 21 4 23 21 25 18 27
REMARK Flexibility Score: inf
ROOT
ATOM      1  C   UNL     1      -1.059   5.060  -4.311  1.00  0.00     0.180 A 
ATOM      2  C   UNL     1      -2.272   4.611  -3.761  1.00  0.00     0.208 A 
ATOM      3  C   UNL     1      -2.558   4.898  -2.417  1.00  0.00     0.238 A 
ATOM      4  O   UNL     1      -3.620   4.447  -1.915  1.00  0.00    -0.285 OA
ATOM      5  C   UNL     1      -1.635   5.645  -1.645  1.00  0.00     0.111 A 
ATOM      6  C   UNL     1      -1.840   6.029  -0.285  1.00  0.00     0.134 A 
ATOM      7  C   UNL     1      -0.803   6.653   0.419  1.00  0.00     0.093 A 
ATOM      8  C   UNL     1       0.406   6.967  -0.206  1.00  0.00     0.123 A 
ATOM      9  C   UNL     1       0.593   6.651  -1.549  1.00  0.00     0.094 A 
ATOM     10  C   UNL     1      -0.409   5.994  -2.268  1.00  0.00     0.146 A 
ATOM     11  O   UNL     1      -0.186   5.702  -3.544  1.00  0.00    -0.452 OA
ENDROOT
BRANCH   1  12
ATOM     12  C   UNL     1      -0.698   4.818  -5.728  1.00  0.00     0.025 A 
ATOM     13  C   UNL     1      -0.052   3.634  -6.126  1.00  0.00     0.016 A 
ATOM     14  C   UNL     1       0.257   3.417  -7.471  1.00  0.00     0.051 A 
ATOM     15  C   UNL     1      -0.086   4.371  -8.439  1.00  0.00     0.157 A 
ATOM     16  C   UNL     1      -1.058   5.761  -6.703  1.00  0.00     0.062 A 
ATOM     17  C   UNL     1      -0.750   5.547  -8.052  1.00  0.00     0.158 A 
BRANCH  15  18
ATOM     18  O   UNL     1       0.226   4.152  -9.780  1.00  0.00    -0.504 OA
ATOM     19  H   UNL     1      -0.017   3.286 -10.247  1.00  0.00     0.293 HD
ENDBRANCH  15  18
BRANCH  17  20
ATOM     20  O   UNL     1      -1.110   6.513  -8.991  1.00  0.00    -0.504 OA
ATOM     21  H   UNL     1      -0.903   7.496  -8.859  1.00  0.00     0.293 HD
ENDBRANCH  17  20
ENDBRANCH   1  12
BRANCH   2  22
ATOM     22  O   UNL     1      -3.158   3.857  -4.536  1.00  0.00    -0.502 OA
ATOM     23  H   UNL     1      -3.089   2.848  -4.614  1.00  0.00     0.293 HD
ENDBRANCH   2  22
BRANCH   6  24
ATOM     24  O   UNL     1      -3.041   5.844   0.405  1.00  0.00    -0.507 OA
ATOM     25  H   UNL     1      -3.190   5.152   1.125  1.00  0.00     0.293 HD
ENDBRANCH   6  24
BRANCH   8  26
ATOM     26  O   UNL     1       1.426   7.603   0.498  1.00  0.00    -0.508 OA
ATOM     27  H   UNL     1       2.318   7.811   0.065  1.00  0.00     0.293 HD
ENDBRANCH   8  26
TORSDOF 6
ENDMDL
