MODEL 1
REMARK VINA RESULT:    -1.599      0.000      0.000
REMARK INTER + INTRA:          -2.195
REMARK INTER:                  -1.879
REMARK INTRA:                  -0.317
REMARK UNBOUND:                -0.317
REMARK SMILES O=c1cc(-c2ccc(O)c(O)c2)oc2cc(O)cc(O)c12
REMARK SMILES IDX 4 1 3 2 2 3 1 4 21 5 19 6 18 7 16 8 15 9 14 10 13 11 5 12
REMARK SMILES IDX 6 13 7 14 8 15 12 16 10 17 9 18 11 20 20 22 17 24
REMARK H PARENT 9 19 11 21 20 23 17 25
REMARK Flexibility Score: inf
ROOT
ATOM      1  C   UNL     1      12.922  -9.505 -28.033  1.00  0.00     0.138 A 
ATOM      2  C   UNL     1      14.028  -9.975 -27.312  1.00  0.00     0.100 A 
ATOM      3  C   UNL     1      14.108 -11.326 -26.972  1.00  0.00     0.197 A 
ATOM      4  O   UNL     1      15.142 -11.729 -26.379  1.00  0.00    -0.289 OA
ATOM      5  C   UNL     1      13.058 -12.204 -27.331  1.00  0.00     0.107 A 
ATOM      6  C   UNL     1      13.013 -13.593 -27.003  1.00  0.00     0.134 A 
ATOM      7  C   UNL     1      11.979 -14.388 -27.513  1.00  0.00     0.093 A 
ATOM      8  C   UNL     1      10.959 -13.836 -28.286  1.00  0.00     0.123 A 
ATOM      9  C   UNL     1      10.964 -12.469 -28.568  1.00  0.00     0.094 A 
ATOM     10  C   UNL     1      12.000 -11.655 -28.104  1.00  0.00     0.146 A 
ATOM     11  O   UNL     1      11.976 -10.362 -28.406  1.00  0.00    -0.456 OA
ENDROOT
BRANCH   1  12
ATOM     12  C   UNL     1      12.786  -8.078 -28.419  1.00  0.00     0.021 A 
ATOM     13  C   UNL     1      13.873  -7.205 -28.239  1.00  0.00     0.016 A 
ATOM     14  C   UNL     1      13.770  -5.860 -28.602  1.00  0.00     0.051 A 
ATOM     15  C   UNL     1      12.589  -5.365 -29.159  1.00  0.00     0.157 A 
ATOM     16  C   UNL     1      11.601  -7.577 -28.994  1.00  0.00     0.062 A 
ATOM     17  C   UNL     1      11.499  -6.226 -29.360  1.00  0.00     0.158 A 
BRANCH  15  18
ATOM     18  O   UNL     1      12.518  -4.016 -29.510  1.00  0.00    -0.504 OA
ATOM     19  H   UNL     1      13.325  -3.406 -29.467  1.00  0.00     0.293 HD
ENDBRANCH  15  18
BRANCH  17  20
ATOM     20  O   UNL     1      10.321  -5.741 -29.925  1.00  0.00    -0.504 OA
ATOM     21  H   UNL     1       9.416  -5.926 -29.508  1.00  0.00     0.293 HD
ENDBRANCH  17  20
ENDBRANCH   1  12
BRANCH   6  22
ATOM     22  O   UNL     1      13.936 -14.228 -26.168  1.00  0.00    -0.507 OA
ATOM     23  H   UNL     1      14.938 -14.169 -26.266  1.00  0.00     0.293 HD
ENDBRANCH   6  22
BRANCH   8  24
ATOM     24  O   UNL     1       9.938 -14.656 -28.763  1.00  0.00    -0.508 OA
ATOM     25  H   UNL     1       9.039 -14.710 -28.297  1.00  0.00     0.293 HD
ENDBRANCH   8  24
TORSDOF 5
ENDMDL
MODEL 2
REMARK VINA RESULT:    -1.212      2.005      3.061
REMARK INTER + INTRA:          -1.741
REMARK INTER:                  -1.428
REMARK INTRA:                  -0.313
REMARK UNBOUND:                -0.317
REMARK SMILES O=c1cc(-c2ccc(O)c(O)c2)oc2cc(O)cc(O)c12
REMARK SMILES IDX 4 1 3 2 2 3 1 4 21 5 19 6 18 7 16 8 15 9 14 10 13 11 5 12
REMARK SMILES IDX 6 13 7 14 8 15 12 16 10 17 9 18 11 20 20 22 17 24
REMARK H PARENT 9 19 11 21 20 23 17 25
REMARK Flexibility Score: inf
ROOT
ATOM      1  C   UNL     1      13.100  -9.679 -27.550  1.00  0.00     0.138 A 
ATOM      2  C   UNL     1      11.840  -9.834 -26.956  1.00  0.00     0.100 A 
ATOM      3  C   UNL     1      11.492 -11.059 -26.385  1.00  0.00     0.197 A 
ATOM      4  O   UNL     1      10.380 -11.149 -25.804  1.00  0.00    -0.289 OA
ATOM      5  C   UNL     1      12.400 -12.143 -26.439  1.00  0.00     0.107 A 
ATOM      6  C   UNL     1      12.138 -13.449 -25.927  1.00  0.00     0.134 A 
ATOM      7  C   UNL     1      13.156 -14.410 -25.932  1.00  0.00     0.093 A 
ATOM      8  C   UNL     1      14.406 -14.133 -26.484  1.00  0.00     0.123 A 
ATOM      9  C   UNL     1      14.657 -12.876 -27.037  1.00  0.00     0.094 A 
ATOM     10  C   UNL     1      13.673 -11.885 -27.016  1.00  0.00     0.146 A 
ATOM     11  O   UNL     1      13.956 -10.697 -27.539  1.00  0.00    -0.456 OA
ENDROOT
BRANCH   1  12
ATOM     12  C   UNL     1      13.521  -8.399 -28.173  1.00  0.00     0.021 A 
ATOM     13  C   UNL     1      12.838  -7.214 -27.849  1.00  0.00     0.016 A 
ATOM     14  C   UNL     1      13.222  -5.996 -28.416  1.00  0.00     0.051 A 
ATOM     15  C   UNL     1      14.296  -5.937 -29.307  1.00  0.00     0.157 A 
ATOM     16  C   UNL     1      14.614  -8.332 -29.060  1.00  0.00     0.062 A 
ATOM     17  C   UNL     1      14.999  -7.108 -29.629  1.00  0.00     0.158 A 
BRANCH  15  18
ATOM     18  O   UNL     1      14.654  -4.706 -29.857  1.00  0.00    -0.504 OA
ATOM     19  H   UNL     1      13.963  -4.010 -30.113  1.00  0.00     0.293 HD
ENDBRANCH  15  18
BRANCH  17  20
ATOM     20  O   UNL     1      16.079  -7.055 -30.508  1.00  0.00    -0.504 OA
ATOM     21  H   UNL     1      17.015  -7.310 -30.217  1.00  0.00     0.293 HD
ENDBRANCH  17  20
ENDBRANCH   1  12
BRANCH   6  22
ATOM     22  O   UNL     1      10.897 -13.858 -25.429  1.00  0.00    -0.507 OA
ATOM     23  H   UNL     1      10.531 -13.614 -24.521  1.00  0.00     0.293 HD
ENDBRANCH   6  22
BRANCH   8  24
ATOM     24  O   UNL     1      15.391 -15.119 -26.486  1.00  0.00    -0.508 OA
ATOM     25  H   UNL     1      15.981 -15.278 -27.295  1.00  0.00     0.293 HD
ENDBRANCH   8  24
TORSDOF 5
ENDMDL
MODEL 3
REMARK VINA RESULT:    -1.035      1.523      1.986
REMARK INTER + INTRA:          -1.533
REMARK INTER:                  -1.270
REMARK INTRA:                  -0.263
REMARK UNBOUND:                -0.317
REMARK SMILES O=c1cc(-c2ccc(O)c(O)c2)oc2cc(O)cc(O)c12
REMARK SMILES IDX 4 1 3 2 2 3 1 4 21 5 19 6 18 7 16 8 15 9 14 10 13 11 5 12
REMARK SMILES IDX 6 13 7 14 8 15 12 16 10 17 9 18 11 20 20 22 17 24
REMARK H PARENT 9 19 11 21 20 23 17 25
REMARK Flexibility Score: inf
ROOT
ATOM      1  C   UNL     1      13.120  -9.640 -27.995  1.00  0.00     0.138 A 
ATOM      2  C   UNL     1      13.711 -10.270 -26.892  1.00  0.00     0.100 A 
ATOM      3  C   UNL     1      13.289 -11.547 -26.518  1.00  0.00     0.197 A 
ATOM      4  O   UNL     1      13.880 -12.112 -25.561  1.00  0.00    -0.289 OA
ATOM      5  C   UNL     1      12.247 -12.181 -27.236  1.00  0.00     0.107 A 
ATOM      6  C   UNL     1      11.708 -13.465 -26.920  1.00  0.00     0.134 A 
ATOM      7  C   UNL     1      10.759 -14.042 -27.773  1.00  0.00     0.093 A 
ATOM      8  C   UNL     1      10.286 -13.360 -28.893  1.00  0.00     0.123 A 
ATOM      9  C   UNL     1      10.767 -12.082 -29.182  1.00  0.00     0.094 A 
ATOM     10  C   UNL     1      11.740 -11.493 -28.370  1.00  0.00     0.146 A 
ATOM     11  O   UNL     1      12.182 -10.281 -28.687  1.00  0.00    -0.456 OA
ENDROOT
BRANCH   1  12
ATOM     12  C   UNL     1      13.530  -8.283 -28.436  1.00  0.00     0.021 A 
ATOM     13  C   UNL     1      12.783  -7.166 -28.022  1.00  0.00     0.016 A 
ATOM     14  C   UNL     1      13.153  -5.878 -28.418  1.00  0.00     0.051 A 
ATOM     15  C   UNL     1      14.277  -5.681 -29.223  1.00  0.00     0.157 A 
ATOM     16  C   UNL     1      14.671  -8.078 -29.237  1.00  0.00     0.062 A 
ATOM     17  C   UNL     1      15.043  -6.784 -29.633  1.00  0.00     0.158 A 
BRANCH  15  18
ATOM     18  O   UNL     1      14.620  -4.383 -29.603  1.00  0.00    -0.504 OA
ATOM     19  H   UNL     1      14.137  -3.895 -30.347  1.00  0.00     0.293 HD
ENDBRANCH  15  18
BRANCH  17  20
ATOM     20  O   UNL     1      16.172  -6.593 -30.428  1.00  0.00    -0.504 OA
ATOM     21  H   UNL     1      16.863  -7.324 -30.554  1.00  0.00     0.293 HD
ENDBRANCH  17  20
ENDBRANCH   1  12
BRANCH   6  22
ATOM     22  O   UNL     1      12.049 -14.196 -25.779  1.00  0.00    -0.507 OA
ATOM     23  H   UNL     1      12.783 -14.885 -25.734  1.00  0.00     0.293 HD
ENDBRANCH   6  22
BRANCH   8  24
ATOM     24  O   UNL     1       9.330 -13.960 -29.710  1.00  0.00    -0.508 OA
ATOM     25  H   UNL     1       8.491 -13.468 -29.995  1.00  0.00     0.293 HD
ENDBRANCH   8  24
TORSDOF 5
ENDMDL
MODEL 4
REMARK VINA RESULT:    -0.679      1.787      2.751
REMARK INTER + INTRA:          -1.115
REMARK INTER:                  -0.821
REMARK INTRA:                  -0.294
REMARK UNBOUND:                -0.317
REMARK SMILES O=c1cc(-c2ccc(O)c(O)c2)oc2cc(O)cc(O)c12
REMARK SMILES IDX 4 1 3 2 2 3 1 4 21 5 19 6 18 7 16 8 15 9 14 10 13 11 5 12
REMARK SMILES IDX 6 13 7 14 8 15 12 16 10 17 9 18 11 20 20 22 17 24
REMARK H PARENT 9 19 11 21 20 23 17 25
REMARK Flexibility Score: inf
ROOT
ATOM      1  C   UNL     1      13.173  -9.422 -27.661  1.00  0.00     0.138 A 
ATOM      2  C   UNL     1      11.904  -9.604 -27.096  1.00  0.00     0.100 A 
ATOM      3  C   UNL     1      11.566 -10.840 -26.542  1.00  0.00     0.197 A 
ATOM      4  O   UNL     1      10.442 -10.954 -25.987  1.00  0.00    -0.289 OA
ATOM      5  C   UNL     1      12.494 -11.907 -26.584  1.00  0.00     0.107 A 
ATOM      6  C   UNL     1      12.244 -13.221 -26.087  1.00  0.00     0.134 A 
ATOM      7  C   UNL     1      13.280 -14.163 -26.076  1.00  0.00     0.093 A 
ATOM      8  C   UNL     1      14.536 -13.859 -26.599  1.00  0.00     0.123 A 
ATOM      9  C   UNL     1      14.777 -12.594 -27.137  1.00  0.00     0.094 A 
ATOM     10  C   UNL     1      13.774 -11.621 -27.130  1.00  0.00     0.146 A 
ATOM     11  O   UNL     1      14.047 -10.424 -27.639  1.00  0.00    -0.456 OA
ENDROOT
BRANCH   1  12
ATOM     12  C   UNL     1      13.585  -8.130 -28.265  1.00  0.00     0.021 A 
ATOM     13  C   UNL     1      14.720  -8.083 -29.093  1.00  0.00     0.016 A 
ATOM     14  C   UNL     1      15.123  -6.880 -29.679  1.00  0.00     0.051 A 
ATOM     15  C   UNL     1      14.397  -5.708 -29.458  1.00  0.00     0.157 A 
ATOM     16  C   UNL     1      12.848  -6.947 -28.057  1.00  0.00     0.062 A 
ATOM     17  C   UNL     1      13.252  -5.739 -28.646  1.00  0.00     0.158 A 
BRANCH  15  18
ATOM     18  O   UNL     1      14.826  -4.522 -30.055  1.00  0.00    -0.504 OA
ATOM     19  H   UNL     1      15.470  -3.890 -29.595  1.00  0.00     0.293 HD
ENDBRANCH  15  18
BRANCH  17  20
ATOM     20  O   UNL     1      12.517  -4.575 -28.430  1.00  0.00    -0.504 OA
ATOM     21  H   UNL     1      11.719  -4.335 -29.007  1.00  0.00     0.293 HD
ENDBRANCH  17  20
ENDBRANCH   1  12
BRANCH   6  22
ATOM     22  O   UNL     1      11.001 -13.656 -25.619  1.00  0.00    -0.507 OA
ATOM     23  H   UNL     1      10.777 -14.608 -25.376  1.00  0.00     0.293 HD
ENDBRANCH   6  22
BRANCH   8  24
ATOM     24  O   UNL     1      15.539 -14.827 -26.585  1.00  0.00    -0.508 OA
ATOM     25  H   UNL     1      15.957 -15.169 -27.443  1.00  0.00     0.293 HD
ENDBRANCH   8  24
TORSDOF 5
ENDMDL
MODEL 5
REMARK VINA RESULT:    -0.509      2.274      3.191
REMARK INTER + INTRA:          -0.914
REMARK INTER:                  -0.648
REMARK INTRA:                  -0.267
REMARK UNBOUND:                -0.317
REMARK SMILES O=c1cc(-c2ccc(O)c(O)c2)oc2cc(O)cc(O)c12
REMARK SMILES IDX 4 1 3 2 2 3 1 4 21 5 19 6 18 7 16 8 15 9 14 10 13 11 5 12
REMARK SMILES IDX 6 13 7 14 8 15 12 16 10 17 9 18 11 20 20 22 17 24
REMARK H PARENT 9 19 11 21 20 23 17 25
REMARK Flexibility Score: inf
ROOT
ATOM      1  C   UNL     1      12.532  -9.622 -28.050  1.00  0.00     0.138 A 
ATOM      2  C   UNL     1      12.170 -10.581 -29.006  1.00  0.00     0.100 A 
ATOM      3  C   UNL     1      11.607 -11.789 -28.593  1.00  0.00     0.197 A 
ATOM      4  O   UNL     1      11.235 -12.604 -29.478  1.00  0.00    -0.289 OA
ATOM      5  C   UNL     1      11.435 -12.050 -27.213  1.00  0.00     0.107 A 
ATOM      6  C   UNL     1      10.908 -13.262 -26.675  1.00  0.00     0.134 A 
ATOM      7  C   UNL     1      10.674 -13.361 -25.298  1.00  0.00     0.093 A 
ATOM      8  C   UNL     1      11.003 -12.318 -24.434  1.00  0.00     0.123 A 
ATOM      9  C   UNL     1      11.569 -11.147 -24.943  1.00  0.00     0.094 A 
ATOM     10  C   UNL     1      11.782 -11.004 -26.316  1.00  0.00     0.146 A 
ATOM     11  O   UNL     1      12.309  -9.869 -26.762  1.00  0.00    -0.456 OA
ENDROOT
BRANCH   1  12
ATOM     12  C   UNL     1      13.136  -8.321 -28.432  1.00  0.00     0.021 A 
ATOM     13  C   UNL     1      12.465  -7.127 -28.116  1.00  0.00     0.016 A 
ATOM     14  C   UNL     1      13.017  -5.890 -28.459  1.00  0.00     0.051 A 
ATOM     15  C   UNL     1      14.249  -5.822 -29.113  1.00  0.00     0.157 A 
ATOM     16  C   UNL     1      14.385  -8.247 -29.079  1.00  0.00     0.062 A 
ATOM     17  C   UNL     1      14.940  -7.004 -29.422  1.00  0.00     0.158 A 
BRANCH  15  18
ATOM     18  O   UNL     1      14.774  -4.572 -29.443  1.00  0.00    -0.504 OA
ATOM     19  H   UNL     1      15.671  -4.470 -29.903  1.00  0.00     0.293 HD
ENDBRANCH  15  18
BRANCH  17  20
ATOM     20  O   UNL     1      16.176  -6.943 -30.065  1.00  0.00    -0.504 OA
ATOM     21  H   UNL     1      16.979  -7.455 -29.721  1.00  0.00     0.293 HD
ENDBRANCH  17  20
ENDBRANCH   1  12
BRANCH   6  22
ATOM     22  O   UNL     1      10.624 -14.398 -27.439  1.00  0.00    -0.507 OA
ATOM     23  H   UNL     1      10.465 -15.320 -27.065  1.00  0.00     0.293 HD
ENDBRANCH   6  22
BRANCH   8  24
ATOM     24  O   UNL     1      10.770 -12.458 -23.067  1.00  0.00    -0.508 OA
ATOM     25  H   UNL     1      10.723 -11.653 -22.452  1.00  0.00     0.293 HD
ENDBRANCH   8  24
TORSDOF 5
ENDMDL
