MODEL 1
REMARK VINA RESULT:    -6.204      0.000      0.000
REMARK INTER + INTRA:          -7.881
REMARK INTER:                  -7.473
REMARK INTRA:                  -0.407
REMARK UNBOUND:                -0.407
REMARK SMILES O=c1c(O)c(-c2ccc(O)cc2O)oc2cc(O)cc(O)c12
REMARK SMILES IDX 5 1 3 2 2 3 1 4 22 5 20 6 19 7 17 8 16 9 15 10 14 11 6 12
REMARK SMILES IDX 8 13 7 14 9 15 11 16 12 17 10 18 13 20 4 22 21 24 18 26
REMARK H PARENT 10 19 13 21 4 23 21 25 18 27
REMARK Flexibility Score: inf
ROOT
ATOM      1  C   UNL     1      19.713 -13.675  24.681  1.00  0.00     0.184 A 
ATOM      2  C   UNL     1      18.629 -12.936  25.178  1.00  0.00     0.208 A 
ATOM      3  C   UNL     1      18.878 -11.867  26.053  1.00  0.00     0.238 A 
ATOM      4  O   UNL     1      17.906 -11.174  26.453  1.00  0.00    -0.285 OA
ATOM      5  C   UNL     1      20.209 -11.562  26.430  1.00  0.00     0.111 A 
ATOM      6  C   UNL     1      20.575 -10.527  27.341  1.00  0.00     0.134 A 
ATOM      7  C   UNL     1      21.928 -10.230  27.542  1.00  0.00     0.093 A 
ATOM      8  C   UNL     1      22.930 -10.975  26.913  1.00  0.00     0.123 A 
ATOM      9  C   UNL     1      22.583 -12.026  26.068  1.00  0.00     0.094 A 
ATOM     10  C   UNL     1      21.241 -12.323  25.821  1.00  0.00     0.146 A 
ATOM     11  O   UNL     1      20.953 -13.326  25.000  1.00  0.00    -0.451 OA
ENDROOT
BRANCH   1  12
ATOM     12  C   UNL     1      19.519 -14.823  23.770  1.00  0.00     0.063 A 
ATOM     13  C   UNL     1      19.181 -17.214  23.485  1.00  0.00     0.047 A 
ATOM     14  C   UNL     1      19.372 -16.108  24.317  1.00  0.00     0.020 A 
ATOM     15  C   UNL     1      19.120 -17.049  22.099  1.00  0.00     0.119 A 
ATOM     16  C   UNL     1      19.241 -15.769  21.545  1.00  0.00     0.093 A 
ATOM     17  C   UNL     1      19.428 -14.652  22.373  1.00  0.00     0.130 A 
BRANCH  15  18
ATOM     18  O   UNL     1      18.934 -18.162  21.282  1.00  0.00    -0.508 OA
ATOM     19  H   UNL     1      19.212 -18.157  20.308  1.00  0.00     0.293 HD
ENDBRANCH  15  18
BRANCH  17  20
ATOM     20  O   UNL     1      19.498 -13.377  21.813  1.00  0.00    -0.507 OA
ATOM     21  H   UNL     1      18.717 -12.973  21.310  1.00  0.00     0.293 HD
ENDBRANCH  17  20
ENDBRANCH   1  12
BRANCH   2  22
ATOM     22  O   UNL     1      17.327 -13.247  24.775  1.00  0.00    -0.502 OA
ATOM     23  H   UNL     1      17.132 -13.809  23.956  1.00  0.00     0.293 HD
ENDBRANCH   2  22
BRANCH   6  24
ATOM     24  O   UNL     1      19.657  -9.783  28.089  1.00  0.00    -0.507 OA
ATOM     25  H   UNL     1      19.116  -9.010  27.731  1.00  0.00     0.293 HD
ENDBRANCH   6  24
BRANCH   8  26
ATOM     26  O   UNL     1      24.275 -10.684  27.131  1.00  0.00    -0.508 OA
ATOM     27  H   UNL     1      24.698  -9.835  26.773  1.00  0.00     0.293 HD
ENDBRANCH   8  26
TORSDOF 6
ENDMDL
MODEL 2
REMARK VINA RESULT:    -6.113      2.694      4.454
REMARK INTER + INTRA:          -7.771
REMARK INTER:                  -7.351
REMARK INTRA:                  -0.420
REMARK UNBOUND:                -0.407
REMARK SMILES O=c1c(O)c(-c2ccc(O)cc2O)oc2cc(O)cc(O)c12
REMARK SMILES IDX 5 1 3 2 2 3 1 4 22 5 20 6 19 7 17 8 16 9 15 10 14 11 6 12
REMARK SMILES IDX 8 13 7 14 9 15 11 16 12 17 10 18 13 20 4 22 21 24 18 26
REMARK H PARENT 10 19 13 21 4 23 21 25 18 27
REMARK Flexibility Score: inf
ROOT
ATOM      1  C   UNL     1      17.621 -14.593  24.578  1.00  0.00     0.184 A 
ATOM      2  C   UNL     1      18.524 -13.548  24.827  1.00  0.00     0.208 A 
ATOM      3  C   UNL     1      18.245 -12.639  25.861  1.00  0.00     0.238 A 
ATOM      4  O   UNL     1      19.084 -11.736  26.115  1.00  0.00    -0.285 OA
ATOM      5  C   UNL     1      17.058 -12.781  26.620  1.00  0.00     0.111 A 
ATOM      6  C   UNL     1      16.655 -11.896  27.664  1.00  0.00     0.134 A 
ATOM      7  C   UNL     1      15.527 -12.205  28.435  1.00  0.00     0.093 A 
ATOM      8  C   UNL     1      14.752 -13.334  28.156  1.00  0.00     0.123 A 
ATOM      9  C   UNL     1      15.104 -14.172  27.101  1.00  0.00     0.094 A 
ATOM     10  C   UNL     1      16.244 -13.909  26.337  1.00  0.00     0.146 A 
ATOM     11  O   UNL     1      16.550 -14.739  25.347  1.00  0.00    -0.451 OA
ENDROOT
BRANCH   1  12
ATOM     12  C   UNL     1      17.846 -15.572  23.494  1.00  0.00     0.063 A 
ATOM     13  C   UNL     1      19.025 -17.537  22.682  1.00  0.00     0.047 A 
ATOM     14  C   UNL     1      18.792 -16.592  23.684  1.00  0.00     0.020 A 
ATOM     15  C   UNL     1      18.309 -17.484  21.484  1.00  0.00     0.119 A 
ATOM     16  C   UNL     1      17.346 -16.485  21.294  1.00  0.00     0.093 A 
ATOM     17  C   UNL     1      17.101 -15.535  22.296  1.00  0.00     0.130 A 
BRANCH  15  18
ATOM     18  O   UNL     1      18.555 -18.430  20.493  1.00  0.00    -0.508 OA
ATOM     19  H   UNL     1      18.060 -18.414  19.609  1.00  0.00     0.293 HD
ENDBRANCH  15  18
BRANCH  17  20
ATOM     20  O   UNL     1      16.107 -14.574  22.115  1.00  0.00    -0.507 OA
ATOM     21  H   UNL     1      15.147 -14.743  22.391  1.00  0.00     0.293 HD
ENDBRANCH  17  20
ENDBRANCH   1  12
BRANCH   2  22
ATOM     22  O   UNL     1      19.697 -13.442  24.074  1.00  0.00    -0.502 OA
ATOM     23  H   UNL     1      20.285 -12.619  24.098  1.00  0.00     0.293 HD
ENDBRANCH   2  22
BRANCH   6  24
ATOM     24  O   UNL     1      17.305 -10.696  27.966  1.00  0.00    -0.507 OA
ATOM     25  H   UNL     1      17.384 -10.302  28.892  1.00  0.00     0.293 HD
ENDBRANCH   6  24
BRANCH   8  26
ATOM     26  O   UNL     1      13.622 -13.627  28.918  1.00  0.00    -0.508 OA
ATOM     27  H   UNL     1      13.261 -12.972  29.602  1.00  0.00     0.293 HD
ENDBRANCH   8  26
TORSDOF 6
ENDMDL
MODEL 3
REMARK VINA RESULT:    -6.105      2.977      3.613
REMARK INTER + INTRA:          -7.762
REMARK INTER:                  -7.352
REMARK INTRA:                  -0.410
REMARK UNBOUND:                -0.407
REMARK SMILES O=c1c(O)c(-c2ccc(O)cc2O)oc2cc(O)cc(O)c12
REMARK SMILES IDX 5 1 3 2 2 3 1 4 22 5 20 6 19 7 17 8 16 9 15 10 14 11 6 12
REMARK SMILES IDX 8 13 7 14 9 15 11 16 12 17 10 18 13 20 4 22 21 24 18 26
REMARK H PARENT 10 19 13 21 4 23 21 25 18 27
REMARK Flexibility Score: inf
ROOT
ATOM      1  C   UNL     1      17.262 -14.020  25.451  1.00  0.00     0.184 A 
ATOM      2  C   UNL     1      16.379 -14.386  26.478  1.00  0.00     0.208 A 
ATOM      3  C   UNL     1      16.058 -13.442  27.468  1.00  0.00     0.238 A 
ATOM      4  O   UNL     1      15.224 -13.758  28.356  1.00  0.00    -0.285 OA
ATOM      5  C   UNL     1      16.638 -12.151  27.423  1.00  0.00     0.111 A 
ATOM      6  C   UNL     1      16.415 -11.130  28.394  1.00  0.00     0.134 A 
ATOM      7  C   UNL     1      16.938  -9.848  28.181  1.00  0.00     0.093 A 
ATOM      8  C   UNL     1      17.729  -9.570  27.063  1.00  0.00     0.123 A 
ATOM      9  C   UNL     1      18.001 -10.576  26.140  1.00  0.00     0.094 A 
ATOM     10  C   UNL     1      17.464 -11.855  26.307  1.00  0.00     0.146 A 
ATOM     11  O   UNL     1      17.739 -12.783  25.398  1.00  0.00    -0.451 OA
ENDROOT
BRANCH   1  12
ATOM     12  C   UNL     1      17.654 -14.971  24.389  1.00  0.00     0.063 A 
ATOM     13  C   UNL     1      19.139 -16.740  23.631  1.00  0.00     0.047 A 
ATOM     14  C   UNL     1      18.745 -15.826  24.611  1.00  0.00     0.020 A 
ATOM     15  C   UNL     1      18.441 -16.821  22.423  1.00  0.00     0.119 A 
ATOM     16  C   UNL     1      17.337 -15.989  22.202  1.00  0.00     0.093 A 
ATOM     17  C   UNL     1      16.931 -15.072  23.182  1.00  0.00     0.130 A 
BRANCH  15  18
ATOM     18  O   UNL     1      18.849 -17.734  21.454  1.00  0.00    -0.508 OA
ATOM     19  H   UNL     1      18.182 -18.312  20.956  1.00  0.00     0.293 HD
ENDBRANCH  15  18
BRANCH  17  20
ATOM     20  O   UNL     1      15.801 -14.283  22.970  1.00  0.00    -0.507 OA
ATOM     21  H   UNL     1      15.548 -13.954  22.045  1.00  0.00     0.293 HD
ENDBRANCH  17  20
ENDBRANCH   1  12
BRANCH   2  22
ATOM     22  O   UNL     1      15.807 -15.661  26.488  1.00  0.00    -0.502 OA
ATOM     23  H   UNL     1      15.729 -16.227  25.653  1.00  0.00     0.293 HD
ENDBRANCH   2  22
BRANCH   6  24
ATOM     24  O   UNL     1      15.716 -11.326  29.589  1.00  0.00    -0.507 OA
ATOM     25  H   UNL     1      15.757 -12.167  30.146  1.00  0.00     0.293 HD
ENDBRANCH   6  24
BRANCH   8  26
ATOM     26  O   UNL     1      18.259  -8.296  26.866  1.00  0.00    -0.508 OA
ATOM     27  H   UNL     1      18.370  -7.644  27.634  1.00  0.00     0.293 HD
ENDBRANCH   8  26
TORSDOF 6
ENDMDL
MODEL 4
REMARK VINA RESULT:    -6.018      6.095      8.544
REMARK INTER + INTRA:          -7.657
REMARK INTER:                  -7.238
REMARK INTRA:                  -0.419
REMARK UNBOUND:                -0.407
REMARK SMILES O=c1c(O)c(-c2ccc(O)cc2O)oc2cc(O)cc(O)c12
REMARK SMILES IDX 5 1 3 2 2 3 1 4 22 5 20 6 19 7 17 8 16 9 15 10 14 11 6 12
REMARK SMILES IDX 8 13 7 14 9 15 11 16 12 17 10 18 13 20 4 22 21 24 18 26
REMARK H PARENT 10 19 13 21 4 23 21 25 18 27
REMARK Flexibility Score: inf
ROOT
ATOM      1  C   UNL     1      13.886 -13.410  24.149  1.00  0.00     0.184 A 
ATOM      2  C   UNL     1      13.119 -13.125  25.289  1.00  0.00     0.208 A 
ATOM      3  C   UNL     1      11.780 -12.734  25.129  1.00  0.00     0.238 A 
ATOM      4  O   UNL     1      11.082 -12.532  26.156  1.00  0.00    -0.285 OA
ATOM      5  C   UNL     1      11.233 -12.617  23.827  1.00  0.00     0.111 A 
ATOM      6  C   UNL     1       9.901 -12.191  23.545  1.00  0.00     0.134 A 
ATOM      7  C   UNL     1       9.425 -12.237  22.229  1.00  0.00     0.093 A 
ATOM      8  C   UNL     1      10.255 -12.633  21.177  1.00  0.00     0.123 A 
ATOM      9  C   UNL     1      11.575 -12.995  21.435  1.00  0.00     0.094 A 
ATOM     10  C   UNL     1      12.067 -12.993  22.742  1.00  0.00     0.146 A 
ATOM     11  O   UNL     1      13.328 -13.355  22.946  1.00  0.00    -0.451 OA
ENDROOT
BRANCH   1  12
ATOM     12  C   UNL     1      15.305 -13.810  24.247  1.00  0.00     0.063 A 
ATOM     13  C   UNL     1      16.948 -15.540  24.717  1.00  0.00     0.047 A 
ATOM     14  C   UNL     1      15.617 -15.127  24.620  1.00  0.00     0.020 A 
ATOM     15  C   UNL     1      17.984 -14.647  24.431  1.00  0.00     0.119 A 
ATOM     16  C   UNL     1      17.684 -13.338  24.035  1.00  0.00     0.093 A 
ATOM     17  C   UNL     1      16.350 -12.917  23.929  1.00  0.00     0.130 A 
BRANCH  15  18
ATOM     18  O   UNL     1      19.306 -15.072  24.536  1.00  0.00    -0.508 OA
ATOM     19  H   UNL     1      20.070 -14.525  24.158  1.00  0.00     0.293 HD
ENDBRANCH  15  18
BRANCH  17  20
ATOM     20  O   UNL     1      16.063 -11.625  23.488  1.00  0.00    -0.507 OA
ATOM     21  H   UNL     1      16.206 -10.817  24.081  1.00  0.00     0.293 HD
ENDBRANCH  17  20
ENDBRANCH   1  12
BRANCH   2  22
ATOM     22  O   UNL     1      13.679 -13.266  26.562  1.00  0.00    -0.502 OA
ATOM     23  H   UNL     1      14.625 -13.598  26.705  1.00  0.00     0.293 HD
ENDBRANCH   2  22
BRANCH   6  24
ATOM     24  O   UNL     1       9.019 -11.691  24.509  1.00  0.00    -0.507 OA
ATOM     25  H   UNL     1       8.885 -10.712  24.712  1.00  0.00     0.293 HD
ENDBRANCH   6  24
BRANCH   8  26
ATOM     26  O   UNL     1       9.779 -12.661  19.867  1.00  0.00    -0.508 OA
ATOM     27  H   UNL     1       9.282 -13.465  19.502  1.00  0.00     0.293 HD
ENDBRANCH   8  26
TORSDOF 6
ENDMDL
MODEL 5
REMARK VINA RESULT:    -5.930      2.825      6.849
REMARK INTER + INTRA:          -7.550
REMARK INTER:                  -7.124
REMARK INTRA:                  -0.426
REMARK UNBOUND:                -0.407
REMARK SMILES O=c1c(O)c(-c2ccc(O)cc2O)oc2cc(O)cc(O)c12
REMARK SMILES IDX 5 1 3 2 2 3 1 4 22 5 20 6 19 7 17 8 16 9 15 10 14 11 6 12
REMARK SMILES IDX 8 13 7 14 9 15 11 16 12 17 10 18 13 20 4 22 21 24 18 26
REMARK H PARENT 10 19 13 21 4 23 21 25 18 27
REMARK Flexibility Score: inf
ROOT
ATOM      1  C   UNL     1      19.116 -11.123  27.618  1.00  0.00     0.184 A 
ATOM      2  C   UNL     1      20.486 -10.921  27.844  1.00  0.00     0.208 A 
ATOM      3  C   UNL     1      21.408 -11.366  26.883  1.00  0.00     0.238 A 
ATOM      4  O   UNL     1      22.632 -11.134  27.065  1.00  0.00    -0.285 OA
ATOM      5  C   UNL     1      20.945 -12.021  25.715  1.00  0.00     0.111 A 
ATOM      6  C   UNL     1      21.791 -12.548  24.694  1.00  0.00     0.134 A 
ATOM      7  C   UNL     1      21.222 -13.060  23.522  1.00  0.00     0.093 A 
ATOM      8  C   UNL     1      19.835 -13.123  23.362  1.00  0.00     0.123 A 
ATOM      9  C   UNL     1      19.000 -12.665  24.379  1.00  0.00     0.094 A 
ATOM     10  C   UNL     1      19.539 -12.116  25.545  1.00  0.00     0.146 A 
ATOM     11  O   UNL     1      18.708 -11.681  26.485  1.00  0.00    -0.451 OA
ENDROOT
BRANCH   1  12
ATOM     12  C   UNL     1      18.096 -10.694  28.597  1.00  0.00     0.063 A 
ATOM     13  C   UNL     1      16.957 -11.075  30.711  1.00  0.00     0.047 A 
ATOM     14  C   UNL     1      17.909 -11.455  29.762  1.00  0.00     0.020 A 
ATOM     15  C   UNL     1      16.189  -9.924  30.515  1.00  0.00     0.119 A 
ATOM     16  C   UNL     1      16.384  -9.145  29.368  1.00  0.00     0.093 A 
ATOM     17  C   UNL     1      17.342  -9.516  28.413  1.00  0.00     0.130 A 
BRANCH  15  18
ATOM     18  O   UNL     1      15.241  -9.560  31.468  1.00  0.00    -0.508 OA
ATOM     19  H   UNL     1      15.368  -9.771  32.451  1.00  0.00     0.293 HD
ENDBRANCH  15  18
BRANCH  17  20
ATOM     20  O   UNL     1      17.561  -8.706  27.298  1.00  0.00    -0.507 OA
ATOM     21  H   UNL     1      18.205  -7.925  27.327  1.00  0.00     0.293 HD
ENDBRANCH  17  20
ENDBRANCH   1  12
BRANCH   2  22
ATOM     22  O   UNL     1      20.914 -10.256  28.996  1.00  0.00    -0.502 OA
ATOM     23  H   UNL     1      21.562 -10.671  29.654  1.00  0.00     0.293 HD
ENDBRANCH   2  22
BRANCH   6  24
ATOM     24  O   UNL     1      23.184 -12.617  24.792  1.00  0.00    -0.507 OA
ATOM     25  H   UNL     1      23.772 -13.208  24.222  1.00  0.00     0.293 HD
ENDBRANCH   6  24
BRANCH   8  26
ATOM     26  O   UNL     1      19.276 -13.649  22.200  1.00  0.00    -0.508 OA
ATOM     27  H   UNL     1      18.786 -14.536  22.202  1.00  0.00     0.293 HD
ENDBRANCH   8  26
TORSDOF 6
ENDMDL
MODEL 6
REMARK VINA RESULT:    -5.920      2.102      3.029
REMARK INTER + INTRA:          -7.538
REMARK INTER:                  -7.148
REMARK INTRA:                  -0.390
REMARK UNBOUND:                -0.407
REMARK SMILES O=c1c(O)c(-c2ccc(O)cc2O)oc2cc(O)cc(O)c12
REMARK SMILES IDX 5 1 3 2 2 3 1 4 22 5 20 6 19 7 17 8 16 9 15 10 14 11 6 12
REMARK SMILES IDX 8 13 7 14 9 15 11 16 12 17 10 18 13 20 4 22 21 24 18 26
REMARK H PARENT 10 19 13 21 4 23 21 25 18 27
REMARK Flexibility Score: inf
ROOT
ATOM      1  C   UNL     1      17.539 -14.584  24.408  1.00  0.00     0.184 A 
ATOM      2  C   UNL     1      16.375 -14.560  25.191  1.00  0.00     0.208 A 
ATOM      3  C   UNL     1      16.264 -13.607  26.217  1.00  0.00     0.238 A 
ATOM      4  O   UNL     1      15.196 -13.555  26.881  1.00  0.00    -0.285 OA
ATOM      5  C   UNL     1      17.328 -12.703  26.455  1.00  0.00     0.111 A 
ATOM      6  C   UNL     1      17.340 -11.723  27.492  1.00  0.00     0.134 A 
ATOM      7  C   UNL     1      18.388 -10.796  27.553  1.00  0.00     0.093 A 
ATOM      8  C   UNL     1      19.456 -10.854  26.653  1.00  0.00     0.123 A 
ATOM      9  C   UNL     1      19.481 -11.844  25.674  1.00  0.00     0.094 A 
ATOM     10  C   UNL     1      18.433 -12.761  25.566  1.00  0.00     0.146 A 
ATOM     11  O   UNL     1      18.491 -13.682  24.611  1.00  0.00    -0.451 OA
ENDROOT
BRANCH   1  12
ATOM     12  C   UNL     1      17.726 -15.571  23.325  1.00  0.00     0.063 A 
ATOM     13  C   UNL     1      17.086 -16.389  21.127  1.00  0.00     0.047 A 
ATOM     14  C   UNL     1      16.931 -15.475  22.172  1.00  0.00     0.020 A 
ATOM     15  C   UNL     1      18.045 -17.402  21.214  1.00  0.00     0.119 A 
ATOM     16  C   UNL     1      18.860 -17.491  22.349  1.00  0.00     0.093 A 
ATOM     17  C   UNL     1      18.715 -16.575  23.401  1.00  0.00     0.130 A 
BRANCH  15  18
ATOM     18  O   UNL     1      18.185 -18.308  20.165  1.00  0.00    -0.508 OA
ATOM     19  H   UNL     1      18.221 -19.307  20.329  1.00  0.00     0.293 HD
ENDBRANCH  15  18
BRANCH  17  20
ATOM     20  O   UNL     1      19.564 -16.645  24.505  1.00  0.00    -0.507 OA
ATOM     21  H   UNL     1      20.541 -16.380  24.442  1.00  0.00     0.293 HD
ENDBRANCH  17  20
ENDBRANCH   1  12
BRANCH   2  22
ATOM     22  O   UNL     1      15.333 -15.452  24.924  1.00  0.00    -0.502 OA
ATOM     23  H   UNL     1      15.201 -15.874  24.013  1.00  0.00     0.293 HD
ENDBRANCH   2  22
BRANCH   6  24
ATOM     24  O   UNL     1      16.371 -11.634  28.495  1.00  0.00    -0.507 OA
ATOM     25  H   UNL     1      16.228 -12.323  29.219  1.00  0.00     0.293 HD
ENDBRANCH   6  24
BRANCH   8  26
ATOM     26  O   UNL     1      20.502  -9.938  26.731  1.00  0.00    -0.508 OA
ATOM     27  H   UNL     1      21.442 -10.182  26.441  1.00  0.00     0.293 HD
ENDBRANCH   8  26
TORSDOF 6
ENDMDL
MODEL 7
REMARK VINA RESULT:    -5.913      1.575      6.702
REMARK INTER + INTRA:          -7.530
REMARK INTER:                  -7.153
REMARK INTRA:                  -0.377
REMARK UNBOUND:                -0.407
REMARK SMILES O=c1c(O)c(-c2ccc(O)cc2O)oc2cc(O)cc(O)c12
REMARK SMILES IDX 5 1 3 2 2 3 1 4 22 5 20 6 19 7 17 8 16 9 15 10 14 11 6 12
REMARK SMILES IDX 8 13 7 14 9 15 11 16 12 17 10 18 13 20 4 22 21 24 18 26
REMARK H PARENT 10 19 13 21 4 23 21 25 18 27
REMARK Flexibility Score: inf
ROOT
ATOM      1  C   UNL     1      19.784 -12.414  24.928  1.00  0.00     0.184 A 
ATOM      2  C   UNL     1      19.866 -11.781  23.679  1.00  0.00     0.208 A 
ATOM      3  C   UNL     1      19.804 -12.563  22.514  1.00  0.00     0.238 A 
ATOM      4  O   UNL     1      19.824 -11.985  21.396  1.00  0.00    -0.285 OA
ATOM      5  C   UNL     1      19.676 -13.970  22.617  1.00  0.00     0.111 A 
ATOM      6  C   UNL     1      19.643 -14.863  21.505  1.00  0.00     0.134 A 
ATOM      7  C   UNL     1      19.383 -16.222  21.718  1.00  0.00     0.093 A 
ATOM      8  C   UNL     1      19.219 -16.730  23.010  1.00  0.00     0.123 A 
ATOM      9  C   UNL     1      19.309 -15.876  24.106  1.00  0.00     0.094 A 
ATOM     10  C   UNL     1      19.531 -14.509  23.922  1.00  0.00     0.146 A 
ATOM     11  O   UNL     1      19.599 -13.727  24.993  1.00  0.00    -0.451 OA
ENDROOT
BRANCH   1  12
ATOM     12  C   UNL     1      19.860 -11.652  26.192  1.00  0.00     0.063 A 
ATOM     13  C   UNL     1      18.713 -10.663  28.094  1.00  0.00     0.047 A 
ATOM     14  C   UNL     1      18.676 -11.376  26.893  1.00  0.00     0.020 A 
ATOM     15  C   UNL     1      19.934 -10.228  28.616  1.00  0.00     0.119 A 
ATOM     16  C   UNL     1      21.123 -10.520  27.937  1.00  0.00     0.093 A 
ATOM     17  C   UNL     1      21.096 -11.240  26.734  1.00  0.00     0.130 A 
BRANCH  15  18
ATOM     18  O   UNL     1      19.955  -9.515  29.812  1.00  0.00    -0.508 OA
ATOM     19  H   UNL     1      19.466  -9.845  30.635  1.00  0.00     0.293 HD
ENDBRANCH  15  18
BRANCH  17  20
ATOM     20  O   UNL     1      22.291 -11.566  26.092  1.00  0.00    -0.507 OA
ATOM     21  H   UNL     1      22.416 -11.421  25.097  1.00  0.00     0.293 HD
ENDBRANCH  17  20
ENDBRANCH   1  12
BRANCH   2  22
ATOM     22  O   UNL     1      19.974 -10.390  23.606  1.00  0.00    -0.502 OA
ATOM     23  H   UNL     1      20.505  -9.850  24.278  1.00  0.00     0.293 HD
ENDBRANCH   2  22
BRANCH   6  24
ATOM     24  O   UNL     1      19.884 -14.475  20.183  1.00  0.00    -0.507 OA
ATOM     25  H   UNL     1      19.856 -13.523  19.850  1.00  0.00     0.293 HD
ENDBRANCH   6  24
BRANCH   8  26
ATOM     26  O   UNL     1      18.977 -18.087  23.215  1.00  0.00    -0.508 OA
ATOM     27  H   UNL     1      18.064 -18.425  23.496  1.00  0.00     0.293 HD
ENDBRANCH   8  26
TORSDOF 6
ENDMDL
MODEL 8
REMARK VINA RESULT:    -5.907      6.435      9.326
REMARK INTER + INTRA:          -7.523
REMARK INTER:                  -7.096
REMARK INTRA:                  -0.426
REMARK UNBOUND:                -0.407
REMARK SMILES O=c1c(O)c(-c2ccc(O)cc2O)oc2cc(O)cc(O)c12
REMARK SMILES IDX 5 1 3 2 2 3 1 4 22 5 20 6 19 7 17 8 16 9 15 10 14 11 6 12
REMARK SMILES IDX 8 13 7 14 9 15 11 16 12 17 10 18 13 20 4 22 21 24 18 26
REMARK H PARENT 10 19 13 21 4 23 21 25 18 27
REMARK Flexibility Score: inf
ROOT
ATOM      1  C   UNL     1      13.011 -13.007  24.481  1.00  0.00     0.184 A 
ATOM      2  C   UNL     1      11.657 -12.782  24.770  1.00  0.00     0.208 A 
ATOM      3  C   UNL     1      10.755 -12.599  23.710  1.00  0.00     0.238 A 
ATOM      4  O   UNL     1       9.533 -12.451  23.973  1.00  0.00    -0.285 OA
ATOM      5  C   UNL     1      11.226 -12.627  22.374  1.00  0.00     0.111 A 
ATOM      6  C   UNL     1      10.409 -12.415  21.223  1.00  0.00     0.134 A 
ATOM      7  C   UNL     1      10.955 -12.594  19.946  1.00  0.00     0.093 A 
ATOM      8  C   UNL     1      12.304 -12.916  19.778  1.00  0.00     0.123 A 
ATOM      9  C   UNL     1      13.123 -13.068  20.894  1.00  0.00     0.094 A 
ATOM     10  C   UNL     1      12.600 -12.930  22.182  1.00  0.00     0.146 A 
ATOM     11  O   UNL     1      13.413 -13.094  23.219  1.00  0.00    -0.451 OA
ENDROOT
BRANCH   1  12
ATOM     12  C   UNL     1      14.014 -13.191  25.551  1.00  0.00     0.063 A 
ATOM     13  C   UNL     1      15.426 -12.203  27.266  1.00  0.00     0.047 A 
ATOM     14  C   UNL     1      14.482 -12.064  26.245  1.00  0.00     0.020 A 
ATOM     15  C   UNL     1      15.904 -13.468  27.615  1.00  0.00     0.119 A 
ATOM     16  C   UNL     1      15.426 -14.601  26.945  1.00  0.00     0.093 A 
ATOM     17  C   UNL     1      14.474 -14.472  25.923  1.00  0.00     0.130 A 
BRANCH  15  18
ATOM     18  O   UNL     1      16.848 -13.590  28.632  1.00  0.00    -0.508 OA
ATOM     19  H   UNL     1      17.606 -14.259  28.574  1.00  0.00     0.293 HD
ENDBRANCH  15  18
BRANCH  17  20
ATOM     20  O   UNL     1      13.970 -15.611  25.296  1.00  0.00    -0.507 OA
ATOM     21  H   UNL     1      13.794 -15.634  24.298  1.00  0.00     0.293 HD
ENDBRANCH  17  20
ENDBRANCH   1  12
BRANCH   2  22
ATOM     22  O   UNL     1      11.217 -12.777  26.097  1.00  0.00    -0.502 OA
ATOM     23  H   UNL     1      11.845 -12.630  26.877  1.00  0.00     0.293 HD
ENDBRANCH   2  22
BRANCH   6  24
ATOM     24  O   UNL     1       9.074 -12.002  21.278  1.00  0.00    -0.507 OA
ATOM     25  H   UNL     1       8.701 -11.352  21.954  1.00  0.00     0.293 HD
ENDBRANCH   6  24
BRANCH   8  26
ATOM     26  O   UNL     1      12.844 -13.077  18.504  1.00  0.00    -0.508 OA
ATOM     27  H   UNL     1      12.520 -13.808  17.880  1.00  0.00     0.293 HD
ENDBRANCH   8  26
TORSDOF 6
ENDMDL
MODEL 9
REMARK VINA RESULT:    -5.719      5.480      9.006
REMARK INTER + INTRA:          -7.296
REMARK INTER:                  -6.893
REMARK INTRA:                  -0.403
REMARK UNBOUND:                -0.407
REMARK SMILES O=c1c(O)c(-c2ccc(O)cc2O)oc2cc(O)cc(O)c12
REMARK SMILES IDX 5 1 3 2 2 3 1 4 22 5 20 6 19 7 17 8 16 9 15 10 14 11 6 12
REMARK SMILES IDX 8 13 7 14 9 15 11 16 12 17 10 18 13 20 4 22 21 24 18 26
REMARK H PARENT 10 19 13 21 4 23 21 25 18 27
REMARK Flexibility Score: inf
ROOT
ATOM      1  C   UNL     1      14.500 -12.393  25.486  1.00  0.00     0.184 A 
ATOM      2  C   UNL     1      14.837 -12.856  24.204  1.00  0.00     0.208 A 
ATOM      3  C   UNL     1      13.817 -13.049  23.259  1.00  0.00     0.238 A 
ATOM      4  O   UNL     1      14.131 -13.412  22.096  1.00  0.00    -0.285 OA
ATOM      5  C   UNL     1      12.470 -12.791  23.617  1.00  0.00     0.111 A 
ATOM      6  C   UNL     1      11.352 -12.990  22.753  1.00  0.00     0.134 A 
ATOM      7  C   UNL     1      10.079 -12.580  23.166  1.00  0.00     0.093 A 
ATOM      8  C   UNL     1       9.874 -12.038  24.437  1.00  0.00     0.123 A 
ATOM      9  C   UNL     1      10.950 -11.895  25.310  1.00  0.00     0.094 A 
ATOM     10  C   UNL     1      12.238 -12.262  24.913  1.00  0.00     0.146 A 
ATOM     11  O   UNL     1      13.238 -12.098  25.771  1.00  0.00    -0.451 OA
ENDROOT
BRANCH   1  12
ATOM     12  C   UNL     1      15.524 -12.185  26.531  1.00  0.00     0.063 A 
ATOM     13  C   UNL     1      17.398 -10.886  27.374  1.00  0.00     0.047 A 
ATOM     14  C   UNL     1      16.422 -11.114  26.401  1.00  0.00     0.020 A 
ATOM     15  C   UNL     1      17.481 -11.716  28.495  1.00  0.00     0.119 A 
ATOM     16  C   UNL     1      16.575 -12.773  28.646  1.00  0.00     0.093 A 
ATOM     17  C   UNL     1      15.588 -13.006  27.677  1.00  0.00     0.130 A 
BRANCH  15  18
ATOM     18  O   UNL     1      18.462 -11.479  29.454  1.00  0.00    -0.508 OA
ATOM     19  H   UNL     1      18.348 -11.778  30.415  1.00  0.00     0.293 HD
ENDBRANCH  15  18
BRANCH  17  20
ATOM     20  O   UNL     1      14.661 -14.031  27.863  1.00  0.00    -0.507 OA
ATOM     21  H   UNL     1      14.046 -14.333  27.115  1.00  0.00     0.293 HD
ENDBRANCH  17  20
ENDBRANCH   1  12
BRANCH   2  22
ATOM     22  O   UNL     1      16.176 -13.084  23.873  1.00  0.00    -0.502 OA
ATOM     23  H   UNL     1      16.924 -12.481  24.190  1.00  0.00     0.293 HD
ENDBRANCH   2  22
BRANCH   6  24
ATOM     24  O   UNL     1      11.432 -13.606  21.500  1.00  0.00    -0.507 OA
ATOM     25  H   UNL     1      11.845 -14.511  21.330  1.00  0.00     0.293 HD
ENDBRANCH   6  24
BRANCH   8  26
ATOM     26  O   UNL     1       8.601 -11.647  24.848  1.00  0.00    -0.508 OA
ATOM     27  H   UNL     1       8.351 -10.669  24.940  1.00  0.00     0.293 HD
ENDBRANCH   8  26
TORSDOF 6
ENDMDL
