MODEL 1
REMARK VINA RESULT:    -6.263      0.000      0.000
REMARK INTER + INTRA:          -7.855
REMARK INTER:                  -7.544
REMARK INTRA:                  -0.311
REMARK UNBOUND:                -0.311
REMARK SMILES O=c1c(O)c(-c2ccc(O)c(O)c2)oc2cc(O)cc(O)c12
REMARK SMILES IDX 5 1 3 2 2 3 1 4 22 5 20 6 19 7 17 8 16 9 15 10 14 11 6 12
REMARK SMILES IDX 7 13 8 14 9 15 13 16 11 17 10 18 12 20 4 22 21 24 18 26
REMARK H PARENT 10 19 12 21 4 23 21 25 18 27
REMARK Flexibility Score: inf
ROOT
ATOM      1  C   UNL     1      20.706  31.271  12.564  1.00  0.00     0.180 A 
ATOM      2  C   UNL     1      22.029  30.869  12.311  1.00  0.00     0.208 A 
ATOM      3  C   UNL     1      22.334  29.498  12.303  1.00  0.00     0.238 A 
ATOM      4  O   UNL     1      23.508  29.142  12.023  1.00  0.00    -0.285 OA
ATOM      5  C   UNL     1      21.317  28.548  12.564  1.00  0.00     0.111 A 
ATOM      6  C   UNL     1      21.523  27.136  12.621  1.00  0.00     0.134 A 
ATOM      7  C   UNL     1      20.420  26.284  12.756  1.00  0.00     0.093 A 
ATOM      8  C   UNL     1      19.130  26.792  12.902  1.00  0.00     0.123 A 
ATOM      9  C   UNL     1      18.925  28.173  12.908  1.00  0.00     0.094 A 
ATOM     10  C   UNL     1      20.000  29.048  12.739  1.00  0.00     0.146 A 
ATOM     11  O   UNL     1      19.762  30.353  12.739  1.00  0.00    -0.452 OA
ENDROOT
BRANCH   1  12
ATOM     12  C   UNL     1      20.313  32.698  12.613  1.00  0.00     0.025 A 
ATOM     13  C   UNL     1      20.299  33.369  13.846  1.00  0.00     0.016 A 
ATOM     14  C   UNL     1      19.952  34.721  13.913  1.00  0.00     0.051 A 
ATOM     15  C   UNL     1      19.629  35.424  12.745  1.00  0.00     0.157 A 
ATOM     16  C   UNL     1      20.008  33.414  11.441  1.00  0.00     0.062 A 
ATOM     17  C   UNL     1      19.661  34.771  11.507  1.00  0.00     0.158 A 
BRANCH  15  18
ATOM     18  O   UNL     1      19.281  36.773  12.807  1.00  0.00    -0.504 OA
ATOM     19  H   UNL     1      18.638  37.186  12.142  1.00  0.00     0.293 HD
ENDBRANCH  15  18
BRANCH  17  20
ATOM     20  O   UNL     1      19.352  35.478  10.345  1.00  0.00    -0.504 OA
ATOM     21  H   UNL     1      18.502  35.296   9.824  1.00  0.00     0.293 HD
ENDBRANCH  17  20
ENDBRANCH   1  12
BRANCH   2  22
ATOM     22  O   UNL     1      23.013  31.822  12.034  1.00  0.00    -0.502 OA
ATOM     23  H   UNL     1      23.971  31.723  12.349  1.00  0.00     0.293 HD
ENDBRANCH   2  22
BRANCH   6  24
ATOM     24  O   UNL     1      22.781  26.528  12.577  1.00  0.00    -0.507 OA
ATOM     25  H   UNL     1      22.946  25.541  12.702  1.00  0.00     0.293 HD
ENDBRANCH   6  24
BRANCH   8  26
ATOM     26  O   UNL     1      18.058  25.915  13.052  1.00  0.00    -0.508 OA
ATOM     27  H   UNL     1      17.491  25.630  12.261  1.00  0.00     0.293 HD
ENDBRANCH   8  26
TORSDOF 6
ENDMDL
MODEL 2
REMARK VINA RESULT:    -6.080      2.247      6.881
REMARK INTER + INTRA:          -7.635
REMARK INTER:                  -7.396
REMARK INTRA:                  -0.239
REMARK UNBOUND:                -0.311
REMARK SMILES O=c1c(O)c(-c2ccc(O)c(O)c2)oc2cc(O)cc(O)c12
REMARK SMILES IDX 5 1 3 2 2 3 1 4 22 5 20 6 19 7 17 8 16 9 15 10 14 11 6 12
REMARK SMILES IDX 7 13 8 14 9 15 13 16 11 17 10 18 12 20 4 22 21 24 18 26
REMARK H PARENT 10 19 12 21 4 23 21 25 18 27
REMARK Flexibility Score: inf
ROOT
ATOM      1  C   UNL     1      20.315  31.006  12.410  1.00  0.00     0.180 A 
ATOM      2  C   UNL     1      20.359  31.858  13.527  1.00  0.00     0.208 A 
ATOM      3  C   UNL     1      21.002  33.101  13.411  1.00  0.00     0.238 A 
ATOM      4  O   UNL     1      20.992  33.881  14.398  1.00  0.00    -0.285 OA
ATOM      5  C   UNL     1      21.606  33.470  12.185  1.00  0.00     0.111 A 
ATOM      6  C   UNL     1      22.319  34.688  11.967  1.00  0.00     0.134 A 
ATOM      7  C   UNL     1      22.762  35.005  10.677  1.00  0.00     0.093 A 
ATOM      8  C   UNL     1      22.577  34.124   9.613  1.00  0.00     0.123 A 
ATOM      9  C   UNL     1      21.934  32.904   9.828  1.00  0.00     0.094 A 
ATOM     10  C   UNL     1      21.449  32.574  11.096  1.00  0.00     0.146 A 
ATOM     11  O   UNL     1      20.833  31.409  11.256  1.00  0.00    -0.452 OA
ENDROOT
BRANCH   1  12
ATOM     12  C   UNL     1      19.677  29.671  12.463  1.00  0.00     0.025 A 
ATOM     13  C   UNL     1      18.514  29.431  11.713  1.00  0.00     0.016 A 
ATOM     14  C   UNL     1      17.908  28.173  11.731  1.00  0.00     0.051 A 
ATOM     15  C   UNL     1      18.464  27.132  12.487  1.00  0.00     0.157 A 
ATOM     16  C   UNL     1      20.243  28.617  13.203  1.00  0.00     0.062 A 
ATOM     17  C   UNL     1      19.636  27.354  13.220  1.00  0.00     0.158 A 
BRANCH  15  18
ATOM     18  O   UNL     1      17.861  25.875  12.508  1.00  0.00    -0.504 OA
ATOM     19  H   UNL     1      18.237  25.116  13.064  1.00  0.00     0.293 HD
ENDBRANCH  15  18
BRANCH  17  20
ATOM     20  O   UNL     1      20.195  26.312  13.960  1.00  0.00    -0.504 OA
ATOM     21  H   UNL     1      21.175  26.070  13.878  1.00  0.00     0.293 HD
ENDBRANCH  17  20
ENDBRANCH   1  12
BRANCH   2  22
ATOM     22  O   UNL     1      19.737  31.484  14.722  1.00  0.00    -0.502 OA
ATOM     23  H   UNL     1      18.994  30.797  14.758  1.00  0.00     0.293 HD
ENDBRANCH   2  22
BRANCH   6  24
ATOM     24  O   UNL     1      22.639  35.597  12.979  1.00  0.00    -0.507 OA
ATOM     25  H   UNL     1      23.572  35.915  13.192  1.00  0.00     0.293 HD
ENDBRANCH   6  24
BRANCH   8  26
ATOM     26  O   UNL     1      23.046  34.466   8.347  1.00  0.00    -0.508 OA
ATOM     27  H   UNL     1      23.119  33.780   7.605  1.00  0.00     0.293 HD
ENDBRANCH   8  26
TORSDOF 6
ENDMDL
MODEL 3
REMARK VINA RESULT:    -5.977      3.320      4.691
REMARK INTER + INTRA:          -7.511
REMARK INTER:                  -7.204
REMARK INTRA:                  -0.308
REMARK UNBOUND:                -0.311
REMARK SMILES O=c1c(O)c(-c2ccc(O)c(O)c2)oc2cc(O)cc(O)c12
REMARK SMILES IDX 5 1 3 2 2 3 1 4 22 5 20 6 19 7 17 8 16 9 15 10 14 11 6 12
REMARK SMILES IDX 7 13 8 14 9 15 13 16 11 17 10 18 12 20 4 22 21 24 18 26
REMARK H PARENT 10 19 12 21 4 23 21 25 18 27
REMARK Flexibility Score: inf
ROOT
ATOM      1  C   UNL     1      21.841  34.106  10.956  1.00  0.00     0.180 A 
ATOM      2  C   UNL     1      21.927  34.300  12.345  1.00  0.00     0.208 A 
ATOM      3  C   UNL     1      21.331  33.361  13.202  1.00  0.00     0.238 A 
ATOM      4  O   UNL     1      21.458  33.511  14.445  1.00  0.00    -0.285 OA
ATOM      5  C   UNL     1      20.643  32.249  12.660  1.00  0.00     0.111 A 
ATOM      6  C   UNL     1      19.967  31.258  13.434  1.00  0.00     0.134 A 
ATOM      7  C   UNL     1      19.432  30.132  12.796  1.00  0.00     0.093 A 
ATOM      8  C   UNL     1      19.489  29.993  11.411  1.00  0.00     0.123 A 
ATOM      9  C   UNL     1      20.095  30.986  10.639  1.00  0.00     0.094 A 
ATOM     10  C   UNL     1      20.669  32.103  11.248  1.00  0.00     0.146 A 
ATOM     11  O   UNL     1      21.245  33.019  10.480  1.00  0.00    -0.452 OA
ENDROOT
BRANCH   1  12
ATOM     12  C   UNL     1      22.423  35.066   9.989  1.00  0.00     0.025 A 
ATOM     13  C   UNL     1      23.632  34.752   9.347  1.00  0.00     0.016 A 
ATOM     14  C   UNL     1      24.188  35.632   8.416  1.00  0.00     0.051 A 
ATOM     15  C   UNL     1      23.535  36.832   8.101  1.00  0.00     0.157 A 
ATOM     16  C   UNL     1      21.760  36.260   9.653  1.00  0.00     0.062 A 
ATOM     17  C   UNL     1      22.317  37.143   8.718  1.00  0.00     0.158 A 
BRANCH  15  18
ATOM     18  O   UNL     1      24.087  37.713   7.174  1.00  0.00    -0.504 OA
ATOM     19  H   UNL     1      24.265  38.683   7.405  1.00  0.00     0.293 HD
ENDBRANCH  15  18
BRANCH  17  20
ATOM     20  O   UNL     1      21.663  38.331   8.392  1.00  0.00    -0.504 OA
ATOM     21  H   UNL     1      20.701  38.499   8.664  1.00  0.00     0.293 HD
ENDBRANCH  17  20
ENDBRANCH   1  12
BRANCH   2  22
ATOM     22  O   UNL     1      22.631  35.393  12.861  1.00  0.00    -0.502 OA
ATOM     23  H   UNL     1      22.170  36.172  13.316  1.00  0.00     0.293 HD
ENDBRANCH   2  22
BRANCH   6  24
ATOM     24  O   UNL     1      19.773  31.345  14.816  1.00  0.00    -0.507 OA
ATOM     25  H   UNL     1      20.365  31.862  15.447  1.00  0.00     0.293 HD
ENDBRANCH   6  24
BRANCH   8  26
ATOM     26  O   UNL     1      18.931  28.867  10.809  1.00  0.00    -0.508 OA
ATOM     27  H   UNL     1      19.271  27.934  11.010  1.00  0.00     0.293 HD
ENDBRANCH   8  26
TORSDOF 6
ENDMDL
MODEL 4
REMARK VINA RESULT:    -5.977      1.739      6.785
REMARK INTER + INTRA:          -7.510
REMARK INTER:                  -7.300
REMARK INTRA:                  -0.210
REMARK UNBOUND:                -0.311
REMARK SMILES O=c1c(O)c(-c2ccc(O)c(O)c2)oc2cc(O)cc(O)c12
REMARK SMILES IDX 5 1 3 2 2 3 1 4 22 5 20 6 19 7 17 8 16 9 15 10 14 11 6 12
REMARK SMILES IDX 7 13 8 14 9 15 13 16 11 17 10 18 12 20 4 22 21 24 18 26
REMARK H PARENT 10 19 12 21 4 23 21 25 18 27
REMARK Flexibility Score: inf
ROOT
ATOM      1  C   UNL     1      20.516  31.192  11.816  1.00  0.00     0.180 A 
ATOM      2  C   UNL     1      21.693  31.284  11.052  1.00  0.00     0.208 A 
ATOM      3  C   UNL     1      22.237  32.551  10.790  1.00  0.00     0.238 A 
ATOM      4  O   UNL     1      23.320  32.624  10.153  1.00  0.00    -0.285 OA
ATOM      5  C   UNL     1      21.591  33.711  11.281  1.00  0.00     0.111 A 
ATOM      6  C   UNL     1      22.032  35.048  11.041  1.00  0.00     0.134 A 
ATOM      7  C   UNL     1      21.388  36.112  11.685  1.00  0.00     0.093 A 
ATOM      8  C   UNL     1      20.282  35.896  12.505  1.00  0.00     0.123 A 
ATOM      9  C   UNL     1      19.806  34.598  12.699  1.00  0.00     0.094 A 
ATOM     10  C   UNL     1      20.448  33.513  12.099  1.00  0.00     0.146 A 
ATOM     11  O   UNL     1      19.970  32.294  12.317  1.00  0.00    -0.452 OA
ENDROOT
BRANCH   1  12
ATOM     12  C   UNL     1      19.870  29.893  12.112  1.00  0.00     0.025 A 
ATOM     13  C   UNL     1      18.666  29.558  11.472  1.00  0.00     0.016 A 
ATOM     14  C   UNL     1      18.050  28.329  11.720  1.00  0.00     0.051 A 
ATOM     15  C   UNL     1      18.637  27.411  12.601  1.00  0.00     0.157 A 
ATOM     16  C   UNL     1      20.466  28.959  12.979  1.00  0.00     0.062 A 
ATOM     17  C   UNL     1      19.849  27.725  13.227  1.00  0.00     0.158 A 
BRANCH  15  18
ATOM     18  O   UNL     1      18.025  26.184  12.852  1.00  0.00    -0.504 OA
ATOM     19  H   UNL     1      17.172  26.119  13.394  1.00  0.00     0.293 HD
ENDBRANCH  15  18
BRANCH  17  20
ATOM     20  O   UNL     1      20.438  26.803  14.093  1.00  0.00    -0.504 OA
ATOM     21  H   UNL     1      21.173  26.178  13.782  1.00  0.00     0.293 HD
ENDBRANCH  17  20
ENDBRANCH   1  12
BRANCH   2  22
ATOM     22  O   UNL     1      22.328  30.126  10.596  1.00  0.00    -0.502 OA
ATOM     23  H   UNL     1      21.913  29.206  10.684  1.00  0.00     0.293 HD
ENDBRANCH   2  22
BRANCH   6  24
ATOM     24  O   UNL     1      23.070  35.383  10.167  1.00  0.00    -0.507 OA
ATOM     25  H   UNL     1      23.587  34.721   9.610  1.00  0.00     0.293 HD
ENDBRANCH   6  24
BRANCH   8  26
ATOM     26  O   UNL     1      19.657  36.980  13.117  1.00  0.00    -0.508 OA
ATOM     27  H   UNL     1      19.182  36.886  14.007  1.00  0.00     0.293 HD
ENDBRANCH   8  26
TORSDOF 6
ENDMDL
MODEL 5
REMARK VINA RESULT:    -5.915      2.305      3.303
REMARK INTER + INTRA:          -7.437
REMARK INTER:                  -7.113
REMARK INTRA:                  -0.323
REMARK UNBOUND:                -0.311
REMARK SMILES O=c1c(O)c(-c2ccc(O)c(O)c2)oc2cc(O)cc(O)c12
REMARK SMILES IDX 5 1 3 2 2 3 1 4 22 5 20 6 19 7 17 8 16 9 15 10 14 11 6 12
REMARK SMILES IDX 7 13 8 14 9 15 13 16 11 17 10 18 12 20 4 22 21 24 18 26
REMARK H PARENT 10 19 12 21 4 23 21 25 18 27
REMARK Flexibility Score: inf
ROOT
ATOM      1  C   UNL     1      20.152  32.124  11.133  1.00  0.00     0.180 A 
ATOM      2  C   UNL     1      19.360  31.859  10.002  1.00  0.00     0.208 A 
ATOM      3  C   UNL     1      18.782  30.587   9.858  1.00  0.00     0.238 A 
ATOM      4  O   UNL     1      18.030  30.373   8.872  1.00  0.00    -0.285 OA
ATOM      5  C   UNL     1      19.017  29.592  10.837  1.00  0.00     0.111 A 
ATOM      6  C   UNL     1      18.515  28.256  10.771  1.00  0.00     0.134 A 
ATOM      7  C   UNL     1      18.701  27.396  11.860  1.00  0.00     0.093 A 
ATOM      8  C   UNL     1      19.425  27.797  12.981  1.00  0.00     0.123 A 
ATOM      9  C   UNL     1      19.971  29.081  13.030  1.00  0.00     0.094 A 
ATOM     10  C   UNL     1      19.772  29.975  11.975  1.00  0.00     0.146 A 
ATOM     11  O   UNL     1      20.299  31.190  12.065  1.00  0.00    -0.452 OA
ENDROOT
BRANCH   1  12
ATOM     12  C   UNL     1      20.813  33.432  11.342  1.00  0.00     0.025 A 
ATOM     13  C   UNL     1      22.088  33.657  10.797  1.00  0.00     0.016 A 
ATOM     14  C   UNL     1      22.722  34.890  10.963  1.00  0.00     0.051 A 
ATOM     15  C   UNL     1      22.083  35.923  11.664  1.00  0.00     0.157 A 
ATOM     16  C   UNL     1      20.168  34.478  12.025  1.00  0.00     0.062 A 
ATOM     17  C   UNL     1      20.803  35.717  12.191  1.00  0.00     0.158 A 
BRANCH  15  18
ATOM     18  O   UNL     1      22.712  37.155  11.833  1.00  0.00    -0.504 OA
ATOM     19  H   UNL     1      22.183  38.002  11.999  1.00  0.00     0.293 HD
ENDBRANCH  15  18
BRANCH  17  20
ATOM     20  O   UNL     1      20.164  36.751  12.876  1.00  0.00    -0.504 OA
ATOM     21  H   UNL     1      19.318  36.591  13.410  1.00  0.00     0.293 HD
ENDBRANCH  17  20
ENDBRANCH   1  12
BRANCH   2  22
ATOM     22  O   UNL     1      19.122  32.863   9.059  1.00  0.00    -0.502 OA
ATOM     23  H   UNL     1      18.749  32.667   8.137  1.00  0.00     0.293 HD
ENDBRANCH   2  22
BRANCH   6  24
ATOM     24  O   UNL     1      17.857  27.724   9.659  1.00  0.00    -0.507 OA
ATOM     25  H   UNL     1      18.291  27.543   8.767  1.00  0.00     0.293 HD
ENDBRANCH   6  24
BRANCH   8  26
ATOM     26  O   UNL     1      19.605  26.909  14.038  1.00  0.00    -0.508 OA
ATOM     27  H   UNL     1      19.190  25.984  14.031  1.00  0.00     0.293 HD
ENDBRANCH   8  26
TORSDOF 6
ENDMDL
MODEL 6
REMARK VINA RESULT:    -5.881      1.508      2.231
REMARK INTER + INTRA:          -7.396
REMARK INTER:                  -7.066
REMARK INTRA:                  -0.329
REMARK UNBOUND:                -0.311
REMARK SMILES O=c1c(O)c(-c2ccc(O)c(O)c2)oc2cc(O)cc(O)c12
REMARK SMILES IDX 5 1 3 2 2 3 1 4 22 5 20 6 19 7 17 8 16 9 15 10 14 11 6 12
REMARK SMILES IDX 7 13 8 14 9 15 13 16 11 17 10 18 12 20 4 22 21 24 18 26
REMARK H PARENT 10 19 12 21 4 23 21 25 18 27
REMARK Flexibility Score: inf
ROOT
ATOM      1  C   UNL     1      19.996  30.987  12.256  1.00  0.00     0.180 A 
ATOM      2  C   UNL     1      21.056  30.122  12.581  1.00  0.00     0.208 A 
ATOM      3  C   UNL     1      20.804  28.745  12.683  1.00  0.00     0.238 A 
ATOM      4  O   UNL     1      21.767  27.970  12.921  1.00  0.00    -0.285 OA
ATOM      5  C   UNL     1      19.494  28.250  12.475  1.00  0.00     0.111 A 
ATOM      6  C   UNL     1      19.117  26.878  12.593  1.00  0.00     0.134 A 
ATOM      7  C   UNL     1      17.821  26.486  12.236  1.00  0.00     0.093 A 
ATOM      8  C   UNL     1      16.870  27.421  11.831  1.00  0.00     0.123 A 
ATOM      9  C   UNL     1      17.212  28.774  11.769  1.00  0.00     0.094 A 
ATOM     10  C   UNL     1      18.506  29.191  12.084  1.00  0.00     0.146 A 
ATOM     11  O   UNL     1      18.793  30.485  12.002  1.00  0.00    -0.452 OA
ENDROOT
BRANCH   1  12
ATOM     12  C   UNL     1      20.179  32.453  12.155  1.00  0.00     0.025 A 
ATOM     13  C   UNL     1      20.377  33.039  10.894  1.00  0.00     0.016 A 
ATOM     14  C   UNL     1      20.530  34.422  10.773  1.00  0.00     0.051 A 
ATOM     15  C   UNL     1      20.471  35.241  11.909  1.00  0.00     0.157 A 
ATOM     16  C   UNL     1      20.099  33.281  13.289  1.00  0.00     0.062 A 
ATOM     17  C   UNL     1      20.251  34.670  13.167  1.00  0.00     0.158 A 
BRANCH  15  18
ATOM     18  O   UNL     1      20.625  36.621  11.792  1.00  0.00    -0.504 OA
ATOM     19  H   UNL     1      21.109  37.036  11.004  1.00  0.00     0.293 HD
ENDBRANCH  15  18
BRANCH  17  20
ATOM     20  O   UNL     1      20.180  35.488  14.294  1.00  0.00    -0.504 OA
ATOM     21  H   UNL     1      20.803  36.278  14.416  1.00  0.00     0.293 HD
ENDBRANCH  17  20
ENDBRANCH   1  12
BRANCH   2  22
ATOM     22  O   UNL     1      22.347  30.628  12.761  1.00  0.00    -0.502 OA
ATOM     23  H   UNL     1      22.592  31.233  13.536  1.00  0.00     0.293 HD
ENDBRANCH   2  22
BRANCH   6  24
ATOM     24  O   UNL     1      19.963  25.875  13.076  1.00  0.00    -0.507 OA
ATOM     25  H   UNL     1      19.806  25.350  13.922  1.00  0.00     0.293 HD
ENDBRANCH   6  24
BRANCH   8  26
ATOM     26  O   UNL     1      15.586  26.998  11.500  1.00  0.00    -0.508 OA
ATOM     27  H   UNL     1      14.839  27.659  11.315  1.00  0.00     0.293 HD
ENDBRANCH   8  26
TORSDOF 6
ENDMDL
MODEL 7
REMARK VINA RESULT:    -5.837      2.345      3.825
REMARK INTER + INTRA:          -7.342
REMARK INTER:                  -7.085
REMARK INTRA:                  -0.256
REMARK UNBOUND:                -0.311
REMARK SMILES O=c1c(O)c(-c2ccc(O)c(O)c2)oc2cc(O)cc(O)c12
REMARK SMILES IDX 5 1 3 2 2 3 1 4 22 5 20 6 19 7 17 8 16 9 15 10 14 11 6 12
REMARK SMILES IDX 7 13 8 14 9 15 13 16 11 17 10 18 12 20 4 22 21 24 18 26
REMARK H PARENT 10 19 12 21 4 23 21 25 18 27
REMARK Flexibility Score: inf
ROOT
ATOM      1  C   UNL     1      21.639  32.728  11.411  1.00  0.00     0.180 A 
ATOM      2  C   UNL     1      20.607  32.469  12.330  1.00  0.00     0.208 A 
ATOM      3  C   UNL     1      20.452  31.167  12.831  1.00  0.00     0.238 A 
ATOM      4  O   UNL     1      19.562  30.953  13.694  1.00  0.00    -0.285 OA
ATOM      5  C   UNL     1      21.321  30.137  12.396  1.00  0.00     0.111 A 
ATOM      6  C   UNL     1      21.229  28.772  12.808  1.00  0.00     0.134 A 
ATOM      7  C   UNL     1      22.222  27.866  12.414  1.00  0.00     0.093 A 
ATOM      8  C   UNL     1      23.263  28.256  11.574  1.00  0.00     0.123 A 
ATOM      9  C   UNL     1      23.328  29.574  11.118  1.00  0.00     0.094 A 
ATOM     10  C   UNL     1      22.374  30.510  11.521  1.00  0.00     0.146 A 
ATOM     11  O   UNL     1      22.477  31.755  11.073  1.00  0.00    -0.452 OA
ENDROOT
BRANCH   1  12
ATOM     12  C   UNL     1      21.849  34.070  10.820  1.00  0.00     0.025 A 
ATOM     13  C   UNL     1      21.419  34.322   9.507  1.00  0.00     0.016 A 
ATOM     14  C   UNL     1      21.587  35.586   8.938  1.00  0.00     0.051 A 
ATOM     15  C   UNL     1      22.174  36.621   9.678  1.00  0.00     0.157 A 
ATOM     16  C   UNL     1      22.417  35.118  11.567  1.00  0.00     0.062 A 
ATOM     17  C   UNL     1      22.585  36.388  10.996  1.00  0.00     0.158 A 
BRANCH  15  18
ATOM     18  O   UNL     1      22.345  37.884   9.113  1.00  0.00    -0.504 OA
ATOM     19  H   UNL     1      23.030  38.050   8.385  1.00  0.00     0.293 HD
ENDBRANCH  15  18
BRANCH  17  20
ATOM     20  O   UNL     1      23.156  37.423  11.734  1.00  0.00    -0.504 OA
ATOM     21  H   UNL     1      22.610  37.972  12.389  1.00  0.00     0.293 HD
ENDBRANCH  17  20
ENDBRANCH   1  12
BRANCH   2  22
ATOM     22  O   UNL     1      19.775  33.505  12.764  1.00  0.00    -0.502 OA
ATOM     23  H   UNL     1      19.797  34.431  12.352  1.00  0.00     0.293 HD
ENDBRANCH   2  22
BRANCH   6  24
ATOM     24  O   UNL     1      20.180  28.256  13.573  1.00  0.00    -0.507 OA
ATOM     25  H   UNL     1      19.799  28.696  14.397  1.00  0.00     0.293 HD
ENDBRANCH   6  24
BRANCH   8  26
ATOM     26  O   UNL     1      24.224  27.324  11.190  1.00  0.00    -0.508 OA
ATOM     27  H   UNL     1      24.246  26.391  11.585  1.00  0.00     0.293 HD
ENDBRANCH   8  26
TORSDOF 6
ENDMDL
MODEL 8
REMARK VINA RESULT:    -5.836      2.886      3.813
REMARK INTER + INTRA:          -7.342
REMARK INTER:                  -7.020
REMARK INTRA:                  -0.322
REMARK UNBOUND:                -0.311
REMARK SMILES O=c1c(O)c(-c2ccc(O)c(O)c2)oc2cc(O)cc(O)c12
REMARK SMILES IDX 5 1 3 2 2 3 1 4 22 5 20 6 19 7 17 8 16 9 15 10 14 11 6 12
REMARK SMILES IDX 7 13 8 14 9 15 13 16 11 17 10 18 12 20 4 22 21 24 18 26
REMARK H PARENT 10 19 12 21 4 23 21 25 18 27
REMARK Flexibility Score: inf
ROOT
ATOM      1  C   UNL     1      19.711  31.193  11.483  1.00  0.00     0.180 A 
ATOM      2  C   UNL     1      19.646  31.379  10.092  1.00  0.00     0.208 A 
ATOM      3  C   UNL     1      18.854  30.510   9.324  1.00  0.00     0.238 A 
ATOM      4  O   UNL     1      18.756  30.715   8.087  1.00  0.00    -0.285 OA
ATOM      5  C   UNL     1      18.150  29.456   9.955  1.00  0.00     0.111 A 
ATOM      6  C   UNL     1      17.351  28.491   9.271  1.00  0.00     0.134 A 
ATOM      7  C   UNL     1      16.596  27.572  10.010  1.00  0.00     0.093 A 
ATOM      8  C   UNL     1      16.661  27.539  11.402  1.00  0.00     0.123 A 
ATOM      9  C   UNL     1      17.486  28.439  12.078  1.00  0.00     0.094 A 
ATOM     10  C   UNL     1      18.223  29.391  11.371  1.00  0.00     0.146 A 
ATOM     11  O   UNL     1      18.987  30.236  12.053  1.00  0.00    -0.452 OA
ENDROOT
BRANCH   1  12
ATOM     12  C   UNL     1      20.543  32.054  12.355  1.00  0.00     0.025 A 
ATOM     13  C   UNL     1      21.877  31.695  12.609  1.00  0.00     0.016 A 
ATOM     14  C   UNL     1      22.687  32.503  13.411  1.00  0.00     0.051 A 
ATOM     15  C   UNL     1      22.179  33.690  13.957  1.00  0.00     0.157 A 
ATOM     16  C   UNL     1      20.045  33.256  12.888  1.00  0.00     0.062 A 
ATOM     17  C   UNL     1      20.858  34.069  13.691  1.00  0.00     0.158 A 
BRANCH  15  18
ATOM     18  O   UNL     1      22.983  34.498  14.759  1.00  0.00    -0.504 OA
ATOM     19  H   UNL     1      22.714  35.446  14.995  1.00  0.00     0.293 HD
ENDBRANCH  15  18
BRANCH  17  20
ATOM     20  O   UNL     1      20.360  35.257  14.225  1.00  0.00    -0.504 OA
ATOM     21  H   UNL     1      20.976  36.008  14.513  1.00  0.00     0.293 HD
ENDBRANCH  17  20
ENDBRANCH   1  12
BRANCH   2  22
ATOM     22  O   UNL     1      20.330  32.440   9.491  1.00  0.00    -0.502 OA
ATOM     23  H   UNL     1      20.482  32.494   8.491  1.00  0.00     0.293 HD
ENDBRANCH   2  22
BRANCH   6  24
ATOM     24  O   UNL     1      17.286  28.377   7.879  1.00  0.00    -0.507 OA
ATOM     25  H   UNL     1      17.617  27.584   7.351  1.00  0.00     0.293 HD
ENDBRANCH   6  24
BRANCH   8  26
ATOM     26  O   UNL     1      15.909  26.600  12.103  1.00  0.00    -0.508 OA
ATOM     27  H   UNL     1      15.631  26.754  13.066  1.00  0.00     0.293 HD
ENDBRANCH   8  26
TORSDOF 6
ENDMDL
MODEL 9
REMARK VINA RESULT:    -5.818      2.670      7.189
REMARK INTER + INTRA:          -7.320
REMARK INTER:                  -6.995
REMARK INTRA:                  -0.325
REMARK UNBOUND:                -0.311
REMARK SMILES O=c1c(O)c(-c2ccc(O)c(O)c2)oc2cc(O)cc(O)c12
REMARK SMILES IDX 5 1 3 2 2 3 1 4 22 5 20 6 19 7 17 8 16 9 15 10 14 11 6 12
REMARK SMILES IDX 7 13 8 14 9 15 13 16 11 17 10 18 12 20 4 22 21 24 18 26
REMARK H PARENT 10 19 12 21 4 23 21 25 18 27
REMARK Flexibility Score: inf
ROOT
ATOM      1  C   UNL     1      20.827  32.325  11.851  1.00  0.00     0.180 A 
ATOM      2  C   UNL     1      20.649  33.345  12.802  1.00  0.00     0.208 A 
ATOM      3  C   UNL     1      21.239  34.599  12.574  1.00  0.00     0.238 A 
ATOM      4  O   UNL     1      21.032  35.524  13.401  1.00  0.00    -0.285 OA
ATOM      5  C   UNL     1      22.012  34.812  11.407  1.00  0.00     0.111 A 
ATOM      6  C   UNL     1      22.690  36.030  11.095  1.00  0.00     0.134 A 
ATOM      7  C   UNL     1      23.317  36.170   9.850  1.00  0.00     0.093 A 
ATOM      8  C   UNL     1      23.348  35.119   8.936  1.00  0.00     0.123 A 
ATOM      9  C   UNL     1      22.741  33.904   9.256  1.00  0.00     0.094 A 
ATOM     10  C   UNL     1      22.076  33.745  10.474  1.00  0.00     0.146 A 
ATOM     11  O   UNL     1      21.502  32.577  10.736  1.00  0.00    -0.452 OA
ENDROOT
BRANCH   1  12
ATOM     12  C   UNL     1      20.256  30.971  12.033  1.00  0.00     0.025 A 
ATOM     13  C   UNL     1      19.055  30.634  11.387  1.00  0.00     0.016 A 
ATOM     14  C   UNL     1      18.510  29.356  11.528  1.00  0.00     0.051 A 
ATOM     15  C   UNL     1      19.166  28.391  12.304  1.00  0.00     0.157 A 
ATOM     16  C   UNL     1      20.920  29.992  12.794  1.00  0.00     0.062 A 
ATOM     17  C   UNL     1      20.374  28.709  12.934  1.00  0.00     0.158 A 
BRANCH  15  18
ATOM     18  O   UNL     1      18.624  27.115  12.448  1.00  0.00    -0.504 OA
ATOM     19  H   UNL     1      18.001  26.887  13.213  1.00  0.00     0.293 HD
ENDBRANCH  15  18
BRANCH  17  20
ATOM     20  O   UNL     1      21.031  27.742  13.695  1.00  0.00    -0.504 OA
ATOM     21  H   UNL     1      20.847  27.631  14.685  1.00  0.00     0.293 HD
ENDBRANCH  17  20
ENDBRANCH   1  12
BRANCH   2  22
ATOM     22  O   UNL     1      19.864  33.121  13.936  1.00  0.00    -0.502 OA
ATOM     23  H   UNL     1      19.077  32.483  13.936  1.00  0.00     0.293 HD
ENDBRANCH   2  22
BRANCH   6  24
ATOM     24  O   UNL     1      22.798  37.111  11.974  1.00  0.00    -0.507 OA
ATOM     25  H   UNL     1      22.340  38.001  11.849  1.00  0.00     0.293 HD
ENDBRANCH   6  24
BRANCH   8  26
ATOM     26  O   UNL     1      23.996  35.289   7.714  1.00  0.00    -0.508 OA
ATOM     27  H   UNL     1      23.906  36.146   7.180  1.00  0.00     0.293 HD
ENDBRANCH   8  26
TORSDOF 6
ENDMDL
