MODEL 1
REMARK VINA RESULT:    -7.552      0.000      0.000
REMARK INTER + INTRA:          -8.373
REMARK INTER:                  -8.877
REMARK INTRA:                   0.504
REMARK UNBOUND:                 0.504
REMARK SMILES O=c1c(O)c(-c2ccc(O)cc2)oc2cc(O)cc(O)c12
REMARK SMILES IDX 5 1 3 2 2 3 1 4 21 5 19 6 18 7 16 8 15 9 14 10 13 11 6 12
REMARK SMILES IDX 7 13 8 14 9 15 12 16 11 17 10 18 4 20 20 22 17 24
REMARK H PARENT 10 19 4 21 20 23 17 25
REMARK Flexibility Score: inf
ROOT
ATOM      1  C   UNL     1      14.964  23.888  41.769  1.00  0.00     0.180 A 
ATOM      2  C   UNL     1      15.121  24.847  40.754  1.00  0.00     0.208 A 
ATOM      3  C   UNL     1      16.171  24.699  39.834  1.00  0.00     0.238 A 
ATOM      4  O   UNL     1      16.274  25.531  38.895  1.00  0.00    -0.285 OA
ATOM      5  C   UNL     1      17.060  23.603  39.949  1.00  0.00     0.111 A 
ATOM      6  C   UNL     1      18.182  23.376  39.097  1.00  0.00     0.134 A 
ATOM      7  C   UNL     1      18.916  22.190  39.222  1.00  0.00     0.093 A 
ATOM      8  C   UNL     1      18.607  21.253  40.211  1.00  0.00     0.123 A 
ATOM      9  C   UNL     1      17.550  21.494  41.087  1.00  0.00     0.094 A 
ATOM     10  C   UNL     1      16.777  22.651  40.963  1.00  0.00     0.146 A 
ATOM     11  O   UNL     1      15.772  22.836  41.811  1.00  0.00    -0.452 OA
ENDROOT
BRANCH   1  12
ATOM     12  C   UNL     1      13.896  23.989  42.790  1.00  0.00     0.021 A 
ATOM     13  C   UNL     1      12.961  25.040  42.772  1.00  0.00     0.016 A 
ATOM     14  C   UNL     1      11.977  25.129  43.761  1.00  0.00     0.047 A 
ATOM     15  C   UNL     1      11.923  24.176  44.787  1.00  0.00     0.115 A 
ATOM     16  C   UNL     1      13.847  23.050  43.835  1.00  0.00     0.016 A 
ATOM     17  C   UNL     1      12.860  23.140  44.823  1.00  0.00     0.047 A 
BRANCH  15  18
ATOM     18  O   UNL     1      10.945  24.254  45.778  1.00  0.00    -0.508 OA
ATOM     19  H   UNL     1      10.419  25.105  45.935  1.00  0.00     0.293 HD
ENDBRANCH  15  18
ENDBRANCH   1  12
BRANCH   2  20
ATOM     20  O   UNL     1      14.219  25.909  40.644  1.00  0.00    -0.502 OA
ATOM     21  H   UNL     1      13.215  25.773  40.652  1.00  0.00     0.293 HD
ENDBRANCH   2  20
BRANCH   6  22
ATOM     22  O   UNL     1      18.631  24.289  38.139  1.00  0.00    -0.507 OA
ATOM     23  H   UNL     1      18.888  24.051  37.193  1.00  0.00     0.293 HD
ENDBRANCH   6  22
BRANCH   8  24
ATOM     24  O   UNL     1      19.351  20.083  40.338  1.00  0.00    -0.508 OA
ATOM     25  H   UNL     1      20.290  20.090  40.719  1.00  0.00     0.293 HD
ENDBRANCH   8  24
TORSDOF 5
ENDMDL
MODEL 2
REMARK VINA RESULT:    -7.482      1.174      1.812
REMARK INTER + INTRA:          -8.290
REMARK INTER:                  -8.740
REMARK INTRA:                   0.450
REMARK UNBOUND:                 0.504
REMARK SMILES O=c1c(O)c(-c2ccc(O)cc2)oc2cc(O)cc(O)c12
REMARK SMILES IDX 5 1 3 2 2 3 1 4 21 5 19 6 18 7 16 8 15 9 14 10 13 11 6 12
REMARK SMILES IDX 7 13 8 14 9 15 12 16 11 17 10 18 4 20 20 22 17 24
REMARK H PARENT 10 19 4 21 20 23 17 25
REMARK Flexibility Score: inf
ROOT
ATOM      1  C   UNL     1      16.255  23.358  40.974  1.00  0.00     0.180 A 
ATOM      2  C   UNL     1      16.748  24.174  39.941  1.00  0.00     0.208 A 
ATOM      3  C   UNL     1      17.903  23.776  39.251  1.00  0.00     0.238 A 
ATOM      4  O   UNL     1      18.308  24.483  38.291  1.00  0.00    -0.285 OA
ATOM      5  C   UNL     1      18.562  22.576  39.613  1.00  0.00     0.111 A 
ATOM      6  C   UNL     1      19.763  22.097  39.009  1.00  0.00     0.134 A 
ATOM      7  C   UNL     1      20.255  20.833  39.357  1.00  0.00     0.093 A 
ATOM      8  C   UNL     1      19.624  20.059  40.334  1.00  0.00     0.123 A 
ATOM      9  C   UNL     1      18.484  20.544  40.973  1.00  0.00     0.094 A 
ATOM     10  C   UNL     1      17.950  21.786  40.621  1.00  0.00     0.146 A 
ATOM     11  O   UNL     1      16.856  22.206  41.246  1.00  0.00    -0.452 OA
ENDROOT
BRANCH   1  12
ATOM     12  C   UNL     1      15.056  23.723  41.764  1.00  0.00     0.021 A 
ATOM     13  C   UNL     1      14.163  24.716  41.323  1.00  0.00     0.016 A 
ATOM     14  C   UNL     1      13.051  25.061  42.097  1.00  0.00     0.047 A 
ATOM     15  C   UNL     1      12.825  24.427  43.326  1.00  0.00     0.115 A 
ATOM     16  C   UNL     1      14.833  23.107  43.007  1.00  0.00     0.016 A 
ATOM     17  C   UNL     1      13.719  23.453  43.779  1.00  0.00     0.047 A 
BRANCH  15  18
ATOM     18  O   UNL     1      11.719  24.762  44.106  1.00  0.00    -0.508 OA
ATOM     19  H   UNL     1      11.535  24.298  44.989  1.00  0.00     0.293 HD
ENDBRANCH  15  18
ENDBRANCH   1  12
BRANCH   2  20
ATOM     20  O   UNL     1      16.069  25.343  39.585  1.00  0.00    -0.502 OA
ATOM     21  H   UNL     1      15.207  25.630  40.034  1.00  0.00     0.293 HD
ENDBRANCH   2  20
BRANCH   6  22
ATOM     22  O   UNL     1      20.520  22.829  38.090  1.00  0.00    -0.507 OA
ATOM     23  H   UNL     1      20.911  22.455  37.238  1.00  0.00     0.293 HD
ENDBRANCH   6  22
BRANCH   8  24
ATOM     24  O   UNL     1      20.128  18.809  40.685  1.00  0.00    -0.508 OA
ATOM     25  H   UNL     1      19.704  18.253  41.419  1.00  0.00     0.293 HD
ENDBRANCH   8  24
TORSDOF 5
ENDMDL
MODEL 3
REMARK VINA RESULT:    -7.277      1.767      6.821
REMARK INTER + INTRA:          -8.050
REMARK INTER:                  -8.512
REMARK INTRA:                   0.462
REMARK UNBOUND:                 0.504
REMARK SMILES O=c1c(O)c(-c2ccc(O)cc2)oc2cc(O)cc(O)c12
REMARK SMILES IDX 5 1 3 2 2 3 1 4 21 5 19 6 18 7 16 8 15 9 14 10 13 11 6 12
REMARK SMILES IDX 7 13 8 14 9 15 12 16 11 17 10 18 4 20 20 22 17 24
REMARK H PARENT 10 19 4 21 20 23 17 25
REMARK Flexibility Score: inf
ROOT
ATOM      1  C   UNL     1      18.178  22.761  40.047  1.00  0.00     0.180 A 
ATOM      2  C   UNL     1      18.000  23.897  39.239  1.00  0.00     0.208 A 
ATOM      3  C   UNL     1      16.866  24.701  39.437  1.00  0.00     0.238 A 
ATOM      4  O   UNL     1      16.740  25.748  38.748  1.00  0.00    -0.285 OA
ATOM      5  C   UNL     1      15.917  24.351  40.427  1.00  0.00     0.111 A 
ATOM      6  C   UNL     1      14.712  25.071  40.686  1.00  0.00     0.134 A 
ATOM      7  C   UNL     1      13.912  24.709  41.776  1.00  0.00     0.093 A 
ATOM      8  C   UNL     1      14.240  23.612  42.578  1.00  0.00     0.123 A 
ATOM      9  C   UNL     1      15.383  22.867  42.297  1.00  0.00     0.094 A 
ATOM     10  C   UNL     1      16.220  23.226  41.238  1.00  0.00     0.146 A 
ATOM     11  O   UNL     1      17.306  22.496  41.011  1.00  0.00    -0.452 OA
ENDROOT
BRANCH   1  12
ATOM     12  C   UNL     1      19.336  21.851  39.883  1.00  0.00     0.021 A 
ATOM     13  C   UNL     1      19.314  20.538  40.389  1.00  0.00     0.016 A 
ATOM     14  C   UNL     1      20.427  19.706  40.244  1.00  0.00     0.047 A 
ATOM     15  C   UNL     1      21.579  20.177  39.602  1.00  0.00     0.115 A 
ATOM     16  C   UNL     1      20.503  22.322  39.259  1.00  0.00     0.016 A 
ATOM     17  C   UNL     1      21.615  21.486  39.113  1.00  0.00     0.047 A 
BRANCH  15  18
ATOM     18  O   UNL     1      22.695  19.356  39.450  1.00  0.00    -0.508 OA
ATOM     19  H   UNL     1      23.199  18.994  40.252  1.00  0.00     0.293 HD
ENDBRANCH  15  18
ENDBRANCH   1  12
BRANCH   2  20
ATOM     20  O   UNL     1      18.961  24.238  38.283  1.00  0.00    -0.502 OA
ATOM     21  H   UNL     1      19.085  25.187  37.951  1.00  0.00     0.293 HD
ENDBRANCH   2  20
BRANCH   6  22
ATOM     22  O   UNL     1      14.246  26.122  39.891  1.00  0.00    -0.507 OA
ATOM     23  H   UNL     1      14.673  27.034  39.836  1.00  0.00     0.293 HD
ENDBRANCH   6  22
BRANCH   8  24
ATOM     24  O   UNL     1      13.430  23.250  43.652  1.00  0.00    -0.508 OA
ATOM     25  H   UNL     1      13.817  23.070  44.570  1.00  0.00     0.293 HD
ENDBRANCH   8  24
TORSDOF 5
ENDMDL
MODEL 4
REMARK VINA RESULT:    -6.568      2.070      3.441
REMARK INTER + INTRA:          -7.216
REMARK INTER:                  -6.940
REMARK INTRA:                  -0.276
REMARK UNBOUND:                 0.504
REMARK SMILES O=c1c(O)c(-c2ccc(O)cc2)oc2cc(O)cc(O)c12
REMARK SMILES IDX 5 1 3 2 2 3 1 4 21 5 19 6 18 7 16 8 15 9 14 10 13 11 6 12
REMARK SMILES IDX 7 13 8 14 9 15 12 16 11 17 10 18 4 20 20 22 17 24
REMARK H PARENT 10 19 4 21 20 23 17 25
REMARK Flexibility Score: inf
ROOT
ATOM      1  C   UNL     1      16.874  22.800  40.682  1.00  0.00     0.180 A 
ATOM      2  C   UNL     1      16.881  21.619  39.921  1.00  0.00     0.208 A 
ATOM      3  C   UNL     1      18.047  21.266  39.224  1.00  0.00     0.238 A 
ATOM      4  O   UNL     1      18.066  20.179  38.589  1.00  0.00    -0.285 OA
ATOM      5  C   UNL     1      19.185  22.106  39.281  1.00  0.00     0.111 A 
ATOM      6  C   UNL     1      20.406  21.868  38.582  1.00  0.00     0.134 A 
ATOM      7  C   UNL     1      21.510  22.697  38.815  1.00  0.00     0.093 A 
ATOM      8  C   UNL     1      21.416  23.795  39.674  1.00  0.00     0.123 A 
ATOM      9  C   UNL     1      20.211  24.071  40.316  1.00  0.00     0.094 A 
ATOM     10  C   UNL     1      19.103  23.241  40.131  1.00  0.00     0.146 A 
ATOM     11  O   UNL     1      17.977  23.533  40.770  1.00  0.00    -0.452 OA
ENDROOT
BRANCH   1  12
ATOM     12  C   UNL     1      15.674  23.252  41.425  1.00  0.00     0.021 A 
ATOM     13  C   UNL     1      14.796  24.210  40.887  1.00  0.00     0.016 A 
ATOM     14  C   UNL     1      13.684  24.639  41.617  1.00  0.00     0.047 A 
ATOM     15  C   UNL     1      13.442  24.126  42.898  1.00  0.00     0.115 A 
ATOM     16  C   UNL     1      15.436  22.758  42.719  1.00  0.00     0.016 A 
ATOM     17  C   UNL     1      14.321  23.188  43.447  1.00  0.00     0.047 A 
BRANCH  15  18
ATOM     18  O   UNL     1      12.336  24.545  43.635  1.00  0.00    -0.508 OA
ATOM     19  H   UNL     1      12.096  24.112  44.520  1.00  0.00     0.293 HD
ENDBRANCH  15  18
ENDBRANCH   1  12
BRANCH   2  20
ATOM     20  O   UNL     1      15.755  20.792  39.896  1.00  0.00    -0.502 OA
ATOM     21  H   UNL     1      15.171  20.692  39.075  1.00  0.00     0.293 HD
ENDBRANCH   2  20
BRANCH   6  22
ATOM     22  O   UNL     1      20.576  20.855  37.634  1.00  0.00    -0.507 OA
ATOM     23  H   UNL     1      20.251  19.905  37.741  1.00  0.00     0.293 HD
ENDBRANCH   6  22
BRANCH   8  24
ATOM     24  O   UNL     1      22.515  24.623  39.890  1.00  0.00    -0.508 OA
ATOM     25  H   UNL     1      22.410  25.550  40.287  1.00  0.00     0.293 HD
ENDBRANCH   8  24
TORSDOF 5
ENDMDL
MODEL 5
REMARK VINA RESULT:    -5.880      2.668      5.112
REMARK INTER + INTRA:          -6.407
REMARK INTER:                  -6.980
REMARK INTRA:                   0.573
REMARK UNBOUND:                 0.504
REMARK SMILES O=c1c(O)c(-c2ccc(O)cc2)oc2cc(O)cc(O)c12
REMARK SMILES IDX 5 1 3 2 2 3 1 4 21 5 19 6 18 7 16 8 15 9 14 10 13 11 6 12
REMARK SMILES IDX 7 13 8 14 9 15 12 16 11 17 10 18 4 20 20 22 17 24
REMARK H PARENT 10 19 4 21 20 23 17 25
REMARK Flexibility Score: inf
ROOT
ATOM      1  C   UNL     1      18.117  22.343  40.098  1.00  0.00     0.180 A 
ATOM      2  C   UNL     1      18.131  21.209  40.927  1.00  0.00     0.208 A 
ATOM      3  C   UNL     1      19.199  20.304  40.826  1.00  0.00     0.238 A 
ATOM      4  O   UNL     1      19.234  19.319  41.610  1.00  0.00    -0.285 OA
ATOM      5  C   UNL     1      20.231  20.535  39.885  1.00  0.00     0.111 A 
ATOM      6  C   UNL     1      21.341  19.663  39.668  1.00  0.00     0.134 A 
ATOM      7  C   UNL     1      22.370  20.056  38.803  1.00  0.00     0.093 A 
ATOM      8  C   UNL     1      22.297  21.260  38.098  1.00  0.00     0.123 A 
ATOM      9  C   UNL     1      21.190  22.090  38.258  1.00  0.00     0.094 A 
ATOM     10  C   UNL     1      20.164  21.742  39.141  1.00  0.00     0.146 A 
ATOM     11  O   UNL     1      19.132  22.567  39.272  1.00  0.00    -0.452 OA
ENDROOT
BRANCH   1  12
ATOM     12  C   UNL     1      17.013  23.330  40.129  1.00  0.00     0.021 A 
ATOM     13  C   UNL     1      17.056  24.504  39.356  1.00  0.00     0.016 A 
ATOM     14  C   UNL     1      16.014  25.433  39.421  1.00  0.00     0.047 A 
ATOM     15  C   UNL     1      14.921  25.206  40.268  1.00  0.00     0.115 A 
ATOM     16  C   UNL     1      15.923  23.121  40.992  1.00  0.00     0.016 A 
ATOM     17  C   UNL     1      14.880  24.051  41.054  1.00  0.00     0.047 A 
BRANCH  15  18
ATOM     18  O   UNL     1      13.875  26.124  40.340  1.00  0.00    -0.508 OA
ATOM     19  H   UNL     1      14.050  27.121  40.410  1.00  0.00     0.293 HD
ENDBRANCH  15  18
ENDBRANCH   1  12
BRANCH   2  20
ATOM     20  O   UNL     1      17.114  21.013  41.866  1.00  0.00    -0.502 OA
ATOM     21  H   UNL     1      16.560  20.165  41.898  1.00  0.00     0.293 HD
ENDBRANCH   2  20
BRANCH   6  22
ATOM     22  O   UNL     1      21.464  18.399  40.251  1.00  0.00    -0.507 OA
ATOM     23  H   UNL     1      21.908  18.216  41.139  1.00  0.00     0.293 HD
ENDBRANCH   6  22
BRANCH   8  24
ATOM     24  O   UNL     1      23.318  21.637  37.229  1.00  0.00    -0.508 OA
ATOM     25  H   UNL     1      23.815  22.513  37.342  1.00  0.00     0.293 HD
ENDBRANCH   8  24
TORSDOF 5
ENDMDL
MODEL 6
REMARK VINA RESULT:    -5.607     19.934     21.748
REMARK INTER + INTRA:          -6.087
REMARK INTER:                  -6.661
REMARK INTRA:                   0.573
REMARK UNBOUND:                 0.504
REMARK SMILES O=c1c(O)c(-c2ccc(O)cc2)oc2cc(O)cc(O)c12
REMARK SMILES IDX 5 1 3 2 2 3 1 4 21 5 19 6 18 7 16 8 15 9 14 10 13 11 6 12
REMARK SMILES IDX 7 13 8 14 9 15 12 16 11 17 10 18 4 20 20 22 17 24
REMARK H PARENT 10 19 4 21 20 23 17 25
REMARK Flexibility Score: inf
ROOT
ATOM      1  C   UNL     1      30.856   9.542  39.729  1.00  0.00     0.180 A 
ATOM      2  C   UNL     1      30.743   8.147  39.857  1.00  0.00     0.208 A 
ATOM      3  C   UNL     1      30.778   7.576  41.138  1.00  0.00     0.238 A 
ATOM      4  O   UNL     1      30.621   6.332  41.251  1.00  0.00    -0.285 OA
ATOM      5  C   UNL     1      30.943   8.404  42.275  1.00  0.00     0.111 A 
ATOM      6  C   UNL     1      31.033   7.929  43.618  1.00  0.00     0.134 A 
ATOM      7  C   UNL     1      31.065   8.847  44.675  1.00  0.00     0.093 A 
ATOM      8  C   UNL     1      31.075  10.223  44.433  1.00  0.00     0.123 A 
ATOM      9  C   UNL     1      31.047  10.696  43.122  1.00  0.00     0.094 A 
ATOM     10  C   UNL     1      30.979   9.805  42.049  1.00  0.00     0.146 A 
ATOM     11  O   UNL     1      30.943  10.297  40.817  1.00  0.00    -0.452 OA
ENDROOT
BRANCH   1  12
ATOM     12  C   UNL     1      30.852  10.216  38.409  1.00  0.00     0.021 A 
ATOM     13  C   UNL     1      30.839  11.618  38.302  1.00  0.00     0.016 A 
ATOM     14  C   UNL     1      30.810  12.232  37.047  1.00  0.00     0.047 A 
ATOM     15  C   UNL     1      30.782  11.452  35.883  1.00  0.00     0.115 A 
ATOM     16  C   UNL     1      30.802   9.441  37.238  1.00  0.00     0.016 A 
ATOM     17  C   UNL     1      30.775  10.058  35.982  1.00  0.00     0.047 A 
BRANCH  15  18
ATOM     18  O   UNL     1      30.755  12.052  34.626  1.00  0.00    -0.508 OA
ATOM     19  H   UNL     1      31.606  12.219  34.101  1.00  0.00     0.293 HD
ENDBRANCH  15  18
ENDBRANCH   1  12
BRANCH   2  20
ATOM     20  O   UNL     1      30.557   7.350  38.724  1.00  0.00    -0.502 OA
ATOM     21  H   UNL     1      30.878   6.391  38.675  1.00  0.00     0.293 HD
ENDBRANCH   2  20
BRANCH   6  22
ATOM     22  O   UNL     1      31.123   6.577  43.963  1.00  0.00    -0.507 OA
ATOM     23  H   UNL     1      31.716   6.207  44.690  1.00  0.00     0.293 HD
ENDBRANCH   6  22
BRANCH   8  24
ATOM     24  O   UNL     1      31.122  11.130  45.489  1.00  0.00    -0.508 OA
ATOM     25  H   UNL     1      31.707  11.956  45.453  1.00  0.00     0.293 HD
ENDBRANCH   8  24
TORSDOF 5
ENDMDL
MODEL 7
REMARK VINA RESULT:    -5.590     18.899     20.766
REMARK INTER + INTRA:          -6.067
REMARK INTER:                  -6.506
REMARK INTRA:                   0.439
REMARK UNBOUND:                 0.504
REMARK SMILES O=c1c(O)c(-c2ccc(O)cc2)oc2cc(O)cc(O)c12
REMARK SMILES IDX 5 1 3 2 2 3 1 4 21 5 19 6 18 7 16 8 15 9 14 10 13 11 6 12
REMARK SMILES IDX 7 13 8 14 9 15 12 16 11 17 10 18 4 20 20 22 17 24
REMARK H PARENT 10 19 4 21 20 23 17 25
REMARK Flexibility Score: inf
ROOT
ATOM      1  C   UNL     1      30.796  10.991  39.782  1.00  0.00     0.180 A 
ATOM      2  C   UNL     1      30.727  12.317  40.243  1.00  0.00     0.208 A 
ATOM      3  C   UNL     1      30.695  12.556  41.625  1.00  0.00     0.238 A 
ATOM      4  O   UNL     1      30.689  13.748  42.033  1.00  0.00    -0.285 OA
ATOM      5  C   UNL     1      30.716  11.467  42.530  1.00  0.00     0.111 A 
ATOM      6  C   UNL     1      30.648  11.591  43.950  1.00  0.00     0.134 A 
ATOM      7  C   UNL     1      30.808  10.454  44.752  1.00  0.00     0.093 A 
ATOM      8  C   UNL     1      30.970   9.189  44.182  1.00  0.00     0.123 A 
ATOM      9  C   UNL     1      30.979   9.050  42.796  1.00  0.00     0.094 A 
ATOM     10  C   UNL     1      30.857  10.171  41.970  1.00  0.00     0.146 A 
ATOM     11  O   UNL     1      30.882   9.995  40.655  1.00  0.00    -0.452 OA
ENDROOT
BRANCH   1  12
ATOM     12  C   UNL     1      30.808  10.658  38.338  1.00  0.00     0.021 A 
ATOM     13  C   UNL     1      30.454  11.608  37.364  1.00  0.00     0.016 A 
ATOM     14  C   UNL     1      30.448  11.264  36.009  1.00  0.00     0.047 A 
ATOM     15  C   UNL     1      30.785   9.963  35.612  1.00  0.00     0.115 A 
ATOM     16  C   UNL     1      31.125   9.350  37.933  1.00  0.00     0.016 A 
ATOM     17  C   UNL     1      31.120   9.008  36.577  1.00  0.00     0.047 A 
BRANCH  15  18
ATOM     18  O   UNL     1      30.786   9.608  34.265  1.00  0.00    -0.508 OA
ATOM     19  H   UNL     1      30.357   8.747  33.945  1.00  0.00     0.293 HD
ENDBRANCH  15  18
ENDBRANCH   1  12
BRANCH   2  20
ATOM     20  O   UNL     1      30.730  13.378  39.333  1.00  0.00    -0.502 OA
ATOM     21  H   UNL     1      30.767  13.236  38.331  1.00  0.00     0.293 HD
ENDBRANCH   2  20
BRANCH   6  22
ATOM     22  O   UNL     1      30.398  12.794  44.617  1.00  0.00    -0.507 OA
ATOM     23  H   UNL     1      30.386  13.703  44.178  1.00  0.00     0.293 HD
ENDBRANCH   6  22
BRANCH   8  24
ATOM     24  O   UNL     1      31.114   8.061  44.986  1.00  0.00    -0.508 OA
ATOM     25  H   UNL     1      30.630   7.976  45.873  1.00  0.00     0.293 HD
ENDBRANCH   8  24
TORSDOF 5
ENDMDL
MODEL 8
REMARK VINA RESULT:    -5.425     18.987     20.329
REMARK INTER + INTRA:          -5.873
REMARK INTER:                  -6.457
REMARK INTRA:                   0.584
REMARK UNBOUND:                 0.504
REMARK SMILES O=c1c(O)c(-c2ccc(O)cc2)oc2cc(O)cc(O)c12
REMARK SMILES IDX 5 1 3 2 2 3 1 4 21 5 19 6 18 7 16 8 15 9 14 10 13 11 6 12
REMARK SMILES IDX 7 13 8 14 9 15 12 16 11 17 10 18 4 20 20 22 17 24
REMARK H PARENT 10 19 4 21 20 23 17 25
REMARK Flexibility Score: inf
ROOT
ATOM      1  C   UNL     1      30.976  10.837  41.580  1.00  0.00     0.180 A 
ATOM      2  C   UNL     1      30.942  12.232  41.410  1.00  0.00     0.208 A 
ATOM      3  C   UNL     1      30.908  12.758  40.109  1.00  0.00     0.238 A 
ATOM      4  O   UNL     1      30.822  14.006  39.964  1.00  0.00    -0.285 OA
ATOM      5  C   UNL     1      30.925  11.885  38.995  1.00  0.00     0.111 A 
ATOM      6  C   UNL     1      30.934  12.310  37.632  1.00  0.00     0.134 A 
ATOM      7  C   UNL     1      30.820  11.359  36.611  1.00  0.00     0.093 A 
ATOM      8  C   UNL     1      30.762   9.994  36.902  1.00  0.00     0.123 A 
ATOM      9  C   UNL     1      30.812   9.565  38.227  1.00  0.00     0.094 A 
ATOM     10  C   UNL     1      30.890  10.493  39.269  1.00  0.00     0.146 A 
ATOM     11  O   UNL     1      30.924  10.043  40.517  1.00  0.00    -0.452 OA
ENDROOT
BRANCH   1  12
ATOM     12  C   UNL     1      31.037  10.207  42.920  1.00  0.00     0.021 A 
ATOM     13  C   UNL     1      31.093   8.810  43.071  1.00  0.00     0.016 A 
ATOM     14  C   UNL     1      31.125   8.237  44.345  1.00  0.00     0.047 A 
ATOM     15  C   UNL     1      31.090   9.052  45.484  1.00  0.00     0.115 A 
ATOM     16  C   UNL     1      30.981  11.016  44.067  1.00  0.00     0.016 A 
ATOM     17  C   UNL     1      31.016  10.441  45.342  1.00  0.00     0.047 A 
BRANCH  15  18
ATOM     18  O   UNL     1      31.124   8.493  46.760  1.00  0.00    -0.508 OA
ATOM     19  H   UNL     1      31.284   7.501  46.899  1.00  0.00     0.293 HD
ENDBRANCH  15  18
ENDBRANCH   1  12
BRANCH   2  20
ATOM     20  O   UNL     1      30.902  13.074  42.524  1.00  0.00    -0.502 OA
ATOM     21  H   UNL     1      30.228  12.958  43.271  1.00  0.00     0.293 HD
ENDBRANCH   2  20
BRANCH   6  22
ATOM     22  O   UNL     1      31.081  13.641  37.232  1.00  0.00    -0.507 OA
ATOM     23  H   UNL     1      31.847  13.994  36.678  1.00  0.00     0.293 HD
ENDBRANCH   6  22
BRANCH   8  24
ATOM     24  O   UNL     1      30.663   9.053  35.879  1.00  0.00    -0.508 OA
ATOM     25  H   UNL     1      29.828   8.492  35.754  1.00  0.00     0.293 HD
ENDBRANCH   8  24
TORSDOF 5
ENDMDL
