MODEL 1
REMARK VINA RESULT:    -6.791      0.000      0.000
REMARK INTER + INTRA:          -7.382
REMARK INTER:                  -7.387
REMARK INTRA:                   0.005
REMARK UNBOUND:                 0.005
REMARK SMILES CC1(C)CC[C@]2(C(=O)[O-])CC[C@]3(C)C(=CC[C@@H]4[C@]5(C)CC[C@H](O)C(C)(C)[C@H]5CC[C@]43C)[C@H]2C1
REMARK SMILES IDX 6 1 5 2 10 3 32 4 4 5 11 6 14 7 33 8 2 9 12 10 15 11 1 12
REMARK SMILES IDX 3 13 13 14 30 15 16 16 17 17 29 18 31 19 18 20 28 21 27 22
REMARK SMILES IDX 20 23 19 24 24 25 21 26 22 27 25 28 26 29 7 30 8 31 9 32
REMARK SMILES IDX 23 33
REMARK H PARENT 23 34
REMARK Flexibility Score: inf
ROOT
ATOM      1  C   UNL     1      -1.680  57.418  12.342  1.00  0.00     0.017 C 
ATOM      2  C   UNL     1      -2.179  58.698  13.109  1.00  0.00     0.014 C 
ATOM      3  C   UNL     1      -0.510  56.721  13.125  1.00  0.00     0.014 C 
ATOM      4  C   UNL     1      -1.216  57.883  10.929  1.00  0.00     0.028 C 
ATOM      5  C   UNL     1      -2.644  59.880  12.218  1.00  0.00     0.007 C 
ATOM      6  C   UNL     1       0.903  56.974  12.552  1.00  0.00     0.013 C 
ATOM      7  C   UNL     1      -0.272  56.871  10.290  1.00  0.00    -0.064 C 
ATOM      8  C   UNL     1      -2.410  58.395  10.088  1.00  0.00     0.015 C 
ATOM      9  C   UNL     1      -3.258  59.490  10.837  1.00  0.00    -0.035 C 
ATOM     10  C   UNL     1       1.091  56.695  11.000  1.00  0.00    -0.006 C 
ATOM     11  C   UNL     1      -0.627  56.141   9.196  1.00  0.00    -0.027 C 
ATOM     12  C   UNL     1      -3.317  60.763   9.963  1.00  0.00     0.011 C 
ATOM     13  C   UNL     1      -4.714  59.005  11.042  1.00  0.00     0.011 C 
ATOM     14  C   UNL     1       2.034  57.838  10.489  1.00  0.00     0.017 C 
ATOM     15  C   UNL     1       1.678  55.228  10.683  1.00  0.00    -0.020 C 
ATOM     16  C   UNL     1       0.177  54.983   8.643  1.00  0.00     0.032 C 
ATOM     17  C   UNL     1       1.642  55.008   9.117  1.00  0.00     0.006 C 
ATOM     18  C   UNL     1       3.154  55.059  11.140  1.00  0.00     0.008 C 
ATOM     19  C   UNL     1       0.791  54.185  11.446  1.00  0.00     0.012 C 
ATOM     20  C   UNL     1       2.673  53.938   8.478  1.00  0.00    -0.025 C 
ATOM     21  C   UNL     1       3.743  53.660  10.863  1.00  0.00     0.005 C 
ATOM     22  C   UNL     1       3.218  52.953   9.576  1.00  0.00     0.003 C 
ATOM     23  C   UNL     1       1.993  53.085   7.360  1.00  0.00     0.010 C 
ATOM     24  C   UNL     1       3.838  54.743   7.817  1.00  0.00     0.012 C 
ATOM     25  C   UNL     1       4.120  51.749   9.078  1.00  0.00    -0.006 C 
ATOM     26  C   UNL     1       2.865  51.942   6.806  1.00  0.00     0.033 C 
ATOM     27  C   UNL     1       3.403  50.997   7.899  1.00  0.00     0.120 C 
ATOM     28  C   UNL     1       5.551  52.172   8.619  1.00  0.00     0.014 C 
ATOM     29  C   UNL     1       4.306  50.744  10.250  1.00  0.00     0.014 C 
ENDROOT
BRANCH   1  30
ATOM     30  C   UNL     1      -2.800  56.378  12.246  1.00  0.00     0.048 C 
ATOM     31  O   UNL     1      -3.889  56.543  12.862  1.00  0.00    -0.550 OA
ATOM     32  O   UNL     1      -2.566  55.144  11.646  1.00  0.00    -0.550 OA
ENDBRANCH   1  30
BRANCH  27  33
ATOM     33  O   UNL     1       2.387  50.126   8.342  1.00  0.00    -0.393 OA
ATOM     34  H   UNL     1       2.700  49.656   9.157  1.00  0.00     0.210 HD
ENDBRANCH  27  33
TORSDOF 2
ENDMDL
MODEL 2
REMARK VINA RESULT:    -5.634      7.773     12.155
REMARK INTER + INTRA:          -6.123
REMARK INTER:                  -6.164
REMARK INTRA:                   0.042
REMARK UNBOUND:                 0.005
REMARK SMILES CC1(C)CC[C@]2(C(=O)[O-])CC[C@]3(C)C(=CC[C@@H]4[C@]5(C)CC[C@H](O)C(C)(C)[C@H]5CC[C@]43C)[C@H]2C1
REMARK SMILES IDX 6 1 5 2 10 3 32 4 4 5 11 6 14 7 33 8 2 9 12 10 15 11 1 12
REMARK SMILES IDX 3 13 13 14 30 15 16 16 17 17 29 18 31 19 18 20 28 21 27 22
REMARK SMILES IDX 20 23 19 24 24 25 21 26 22 27 25 28 26 29 7 30 8 31 9 32
REMARK SMILES IDX 23 33
REMARK H PARENT 23 34
REMARK Flexibility Score: inf
ROOT
ATOM      1  C   UNL     1      -8.121  67.100   7.219  1.00  0.00     0.017 C 
ATOM      2  C   UNL     1      -8.858  68.125   6.280  1.00  0.00     0.014 C 
ATOM      3  C   UNL     1      -7.197  67.850   8.244  1.00  0.00     0.014 C 
ATOM      4  C   UNL     1      -7.294  66.151   6.301  1.00  0.00     0.028 C 
ATOM      5  C   UNL     1      -9.092  67.655   4.820  1.00  0.00     0.007 C 
ATOM      6  C   UNL     1      -5.688  67.824   7.906  1.00  0.00     0.013 C 
ATOM      7  C   UNL     1      -6.176  65.461   7.075  1.00  0.00    -0.064 C 
ATOM      8  C   UNL     1      -8.220  65.273   5.425  1.00  0.00     0.015 C 
ATOM      9  C   UNL     1      -9.280  66.117   4.623  1.00  0.00    -0.035 C 
ATOM     10  C   UNL     1      -5.062  66.395   7.604  1.00  0.00    -0.006 C 
ATOM     11  C   UNL     1      -6.185  64.121   7.318  1.00  0.00    -0.027 C 
ATOM     12  C   UNL     1      -9.133  65.807   3.116  1.00  0.00     0.011 C 
ATOM     13  C   UNL     1     -10.718  65.720   5.037  1.00  0.00     0.011 C 
ATOM     14  C   UNL     1      -4.052  66.630   6.429  1.00  0.00     0.017 C 
ATOM     15  C   UNL     1      -4.362  65.722   8.890  1.00  0.00    -0.020 C 
ATOM     16  C   UNL     1      -5.220  63.414   8.247  1.00  0.00     0.032 C 
ATOM     17  C   UNL     1      -3.949  64.243   8.512  1.00  0.00     0.006 C 
ATOM     18  C   UNL     1      -3.069  66.466   9.329  1.00  0.00     0.008 C 
ATOM     19  C   UNL     1      -5.393  65.763  10.071  1.00  0.00     0.012 C 
ATOM     20  C   UNL     1      -2.745  63.556   9.345  1.00  0.00    -0.025 C 
ATOM     21  C   UNL     1      -2.381  65.854  10.567  1.00  0.00     0.005 C 
ATOM     22  C   UNL     1      -2.498  64.306  10.705  1.00  0.00     0.003 C 
ATOM     23  C   UNL     1      -3.055  62.059   9.668  1.00  0.00     0.010 C 
ATOM     24  C   UNL     1      -1.469  63.591   8.445  1.00  0.00     0.012 C 
ATOM     25  C   UNL     1      -1.454  63.657  11.705  1.00  0.00    -0.006 C 
ATOM     26  C   UNL     1      -2.025  61.376  10.590  1.00  0.00     0.033 C 
ATOM     27  C   UNL     1      -1.785  62.135  11.910  1.00  0.00     0.120 C 
ATOM     28  C   UNL     1       0.033  63.799  11.253  1.00  0.00     0.014 C 
ATOM     29  C   UNL     1      -1.572  64.367  13.083  1.00  0.00     0.014 C 
ENDROOT
BRANCH   1  30
ATOM     30  C   UNL     1      -9.134  66.319   8.061  1.00  0.00     0.048 C 
ATOM     31  O   UNL     1     -10.372  66.536   7.949  1.00  0.00    -0.550 OA
ATOM     32  O   UNL     1      -8.703  65.503   9.103  1.00  0.00    -0.550 OA
ENDBRANCH   1  30
BRANCH  27  33
ATOM     33  O   UNL     1      -2.856  61.922  12.802  1.00  0.00    -0.393 OA
ATOM     34  H   UNL     1      -2.489  61.748  13.707  1.00  0.00     0.210 HD
ENDBRANCH  27  33
TORSDOF 2
ENDMDL
MODEL 3
REMARK VINA RESULT:    -5.410      2.186      8.117
REMARK INTER + INTRA:          -5.879
REMARK INTER:                  -5.901
REMARK INTRA:                   0.022
REMARK UNBOUND:                 0.005
REMARK SMILES CC1(C)CC[C@]2(C(=O)[O-])CC[C@]3(C)C(=CC[C@@H]4[C@]5(C)CC[C@H](O)C(C)(C)[C@H]5CC[C@]43C)[C@H]2C1
REMARK SMILES IDX 6 1 5 2 10 3 32 4 4 5 11 6 14 7 33 8 2 9 12 10 15 11 1 12
REMARK SMILES IDX 3 13 13 14 30 15 16 16 17 17 29 18 31 19 18 20 28 21 27 22
REMARK SMILES IDX 20 23 19 24 24 25 21 26 22 27 25 28 26 29 7 30 8 31 9 32
REMARK SMILES IDX 23 33
REMARK H PARENT 23 34
REMARK Flexibility Score: inf
ROOT
ATOM      1  C   UNL     1       3.512  54.106  10.151  1.00  0.00     0.017 C 
ATOM      2  C   UNL     1       4.415  52.859  10.478  1.00  0.00     0.014 C 
ATOM      3  C   UNL     1       3.896  55.325  11.064  1.00  0.00     0.014 C 
ATOM      4  C   UNL     1       2.033  53.672  10.379  1.00  0.00     0.028 C 
ATOM      5  C   UNL     1       3.724  51.475  10.354  1.00  0.00     0.007 C 
ATOM      6  C   UNL     1       2.929  55.592  12.240  1.00  0.00     0.013 C 
ATOM      7  C   UNL     1       1.123  54.879  10.585  1.00  0.00    -0.064 C 
ATOM      8  C   UNL     1       1.598  52.602   9.349  1.00  0.00     0.015 C 
ATOM      9  C   UNL     1       2.585  51.377   9.291  1.00  0.00    -0.035 C 
ATOM     10  C   UNL     1       1.388  55.696  11.871  1.00  0.00    -0.006 C 
ATOM     11  C   UNL     1       0.176  55.233   9.674  1.00  0.00    -0.027 C 
ATOM     12  C   UNL     1       1.790  50.079   9.560  1.00  0.00     0.011 C 
ATOM     13  C   UNL     1       3.211  51.248   7.881  1.00  0.00     0.011 C 
ATOM     14  C   UNL     1       0.635  54.978  13.043  1.00  0.00     0.017 C 
ATOM     15  C   UNL     1       0.885  57.213  11.658  1.00  0.00    -0.020 C 
ATOM     16  C   UNL     1      -0.613  56.526   9.719  1.00  0.00     0.032 C 
ATOM     17  C   UNL     1      -0.600  57.171  11.117  1.00  0.00     0.006 C 
ATOM     18  C   UNL     1       0.875  58.035  12.977  1.00  0.00     0.008 C 
ATOM     19  C   UNL     1       1.863  57.901  10.643  1.00  0.00     0.012 C 
ATOM     20  C   UNL     1      -1.537  58.464  11.373  1.00  0.00    -0.025 C 
ATOM     21  C   UNL     1       0.411  59.496  12.805  1.00  0.00     0.005 C 
ATOM     22  C   UNL     1      -0.670  59.733  11.707  1.00  0.00     0.003 C 
ATOM     23  C   UNL     1      -2.413  58.793  10.122  1.00  0.00     0.010 C 
ATOM     24  C   UNL     1      -2.504  58.120  12.551  1.00  0.00     0.012 C 
ATOM     25  C   UNL     1      -1.435  61.115  11.830  1.00  0.00    -0.006 C 
ATOM     26  C   UNL     1      -3.221  60.101  10.232  1.00  0.00     0.033 C 
ATOM     27  C   UNL     1      -2.356  61.330  10.575  1.00  0.00     0.120 C 
ATOM     28  C   UNL     1      -2.297  61.252  13.125  1.00  0.00     0.014 C 
ATOM     29  C   UNL     1      -0.390  62.266  11.865  1.00  0.00     0.014 C 
ENDROOT
BRANCH   1  30
ATOM     30  C   UNL     1       3.741  54.572   8.710  1.00  0.00     0.048 C 
ATOM     31  O   UNL     1       4.589  53.998   7.973  1.00  0.00    -0.550 OA
ATOM     32  O   UNL     1       3.167  55.754   8.253  1.00  0.00    -0.550 OA
ENDBRANCH   1  30
BRANCH  27  33
ATOM     33  O   UNL     1      -1.643  61.763   9.439  1.00  0.00    -0.393 OA
ATOM     34  H   UNL     1      -2.005  61.303   8.640  1.00  0.00     0.210 HD
ENDBRANCH  27  33
TORSDOF 2
ENDMDL
MODEL 4
REMARK VINA RESULT:    -4.437      3.638      5.739
REMARK INTER + INTRA:          -4.821
REMARK INTER:                  -4.828
REMARK INTRA:                   0.007
REMARK UNBOUND:                 0.005
REMARK SMILES CC1(C)CC[C@]2(C(=O)[O-])CC[C@]3(C)C(=CC[C@@H]4[C@]5(C)CC[C@H](O)C(C)(C)[C@H]5CC[C@]43C)[C@H]2C1
REMARK SMILES IDX 6 1 5 2 10 3 32 4 4 5 11 6 14 7 33 8 2 9 12 10 15 11 1 12
REMARK SMILES IDX 3 13 13 14 30 15 16 16 17 17 29 18 31 19 18 20 28 21 27 22
REMARK SMILES IDX 20 23 19 24 24 25 21 26 22 27 25 28 26 29 7 30 8 31 9 32
REMARK SMILES IDX 23 33
REMARK H PARENT 23 34
REMARK Flexibility Score: inf
ROOT
ATOM      1  C   UNL     1       3.465  56.522  10.595  1.00  0.00     0.017 C 
ATOM      2  C   UNL     1       4.003  57.860   9.967  1.00  0.00     0.014 C 
ATOM      3  C   UNL     1       3.561  55.343   9.562  1.00  0.00     0.014 C 
ATOM      4  C   UNL     1       1.989  56.778  11.024  1.00  0.00     0.028 C 
ATOM      5  C   UNL     1       3.279  59.157  10.419  1.00  0.00     0.007 C 
ATOM      6  C   UNL     1       2.225  54.951   8.890  1.00  0.00     0.013 C 
ATOM      7  C   UNL     1       1.216  55.472  11.174  1.00  0.00    -0.064 C 
ATOM      8  C   UNL     1       1.912  57.805  12.180  1.00  0.00     0.015 C 
ATOM      9  C   UNL     1       2.690  59.137  11.864  1.00  0.00    -0.035 C 
ATOM     10  C   UNL     1       1.004  54.674   9.867  1.00  0.00    -0.006 C 
ATOM     11  C   UNL     1       0.785  55.023  12.385  1.00  0.00    -0.027 C 
ATOM     12  C   UNL     1       1.718  60.331  12.000  1.00  0.00     0.011 C 
ATOM     13  C   UNL     1       3.833  59.355  12.886  1.00  0.00     0.011 C 
ATOM     14  C   UNL     1      -0.246  55.285   9.145  1.00  0.00     0.017 C 
ATOM     15  C   UNL     1       0.808  53.113  10.216  1.00  0.00    -0.020 C 
ATOM     16  C   UNL     1       0.198  53.648  12.628  1.00  0.00     0.032 C 
ATOM     17  C   UNL     1      -0.307  52.990  11.330  1.00  0.00     0.006 C 
ATOM     18  C   UNL     1       0.335  52.278   8.993  1.00  0.00     0.008 C 
ATOM     19  C   UNL     1       2.191  52.556  10.701  1.00  0.00     0.012 C 
ATOM     20  C   UNL     1      -1.116  51.594  11.443  1.00  0.00    -0.025 C 
ATOM     21  C   UNL     1       0.151  50.775   9.290  1.00  0.00     0.005 C 
ATOM     22  C   UNL     1      -0.335  50.429  10.731  1.00  0.00     0.003 C 
ATOM     23  C   UNL     1      -1.342  51.182  12.933  1.00  0.00     0.010 C 
ATOM     24  C   UNL     1      -2.520  51.809  10.793  1.00  0.00     0.012 C 
ATOM     25  C   UNL     1      -0.924  48.966  10.889  1.00  0.00    -0.006 C 
ATOM     26  C   UNL     1      -1.972  49.789  13.124  1.00  0.00     0.033 C 
ATOM     27  C   UNL     1      -1.202  48.663  12.405  1.00  0.00     0.120 C 
ATOM     28  C   UNL     1      -2.229  48.713  10.070  1.00  0.00     0.014 C 
ATOM     29  C   UNL     1       0.130  47.944  10.377  1.00  0.00     0.014 C 
ENDROOT
BRANCH   1  30
ATOM     30  C   UNL     1       4.328  56.105  11.790  1.00  0.00     0.048 C 
ATOM     31  O   UNL     1       5.424  56.682  12.028  1.00  0.00    -0.550 OA
ATOM     32  O   UNL     1       4.021  54.956  12.513  1.00  0.00    -0.550 OA
ENDBRANCH   1  30
BRANCH  27  33
ATOM     33  O   UNL     1      -0.034  48.331  13.121  1.00  0.00    -0.393 OA
ATOM     34  H   UNL     1       0.196  47.384  12.935  1.00  0.00     0.210 HD
ENDBRANCH  27  33
TORSDOF 2
ENDMDL
MODEL 5
REMARK VINA RESULT:    -4.399      1.724      2.353
REMARK INTER + INTRA:          -4.779
REMARK INTER:                  -4.800
REMARK INTRA:                   0.021
REMARK UNBOUND:                 0.005
REMARK SMILES CC1(C)CC[C@]2(C(=O)[O-])CC[C@]3(C)C(=CC[C@@H]4[C@]5(C)CC[C@H](O)C(C)(C)[C@H]5CC[C@]43C)[C@H]2C1
REMARK SMILES IDX 6 1 5 2 10 3 32 4 4 5 11 6 14 7 33 8 2 9 12 10 15 11 1 12
REMARK SMILES IDX 3 13 13 14 30 15 16 16 17 17 29 18 31 19 18 20 28 21 27 22
REMARK SMILES IDX 20 23 19 24 24 25 21 26 22 27 25 28 26 29 7 30 8 31 9 32
REMARK SMILES IDX 23 33
REMARK H PARENT 23 34
REMARK Flexibility Score: inf
ROOT
ATOM      1  C   UNL     1      -1.212  58.136  11.919  1.00  0.00     0.017 C 
ATOM      2  C   UNL     1      -1.850  59.123  12.964  1.00  0.00     0.014 C 
ATOM      3  C   UNL     1      -1.359  56.647  12.397  1.00  0.00     0.014 C 
ATOM      4  C   UNL     1       0.287  58.535  11.769  1.00  0.00     0.028 C 
ATOM      5  C   UNL     1      -1.135  60.491  13.125  1.00  0.00     0.007 C 
ATOM      6  C   UNL     1      -0.076  56.019  12.989  1.00  0.00     0.013 C 
ATOM      7  C   UNL     1       1.116  57.390  11.197  1.00  0.00    -0.064 C 
ATOM      8  C   UNL     1       0.431  59.932  11.118  1.00  0.00     0.015 C 
ATOM      9  C   UNL     1      -0.418  61.036  11.850  1.00  0.00    -0.035 C 
ATOM     10  C   UNL     1       1.237  56.143  12.105  1.00  0.00    -0.006 C 
ATOM     11  C   UNL     1       1.670  57.448   9.955  1.00  0.00    -0.027 C 
ATOM     12  C   UNL     1       0.520  62.185  12.285  1.00  0.00     0.011 C 
ATOM     13  C   UNL     1      -1.471  61.640  10.889  1.00  0.00     0.011 C 
ATOM     14  C   UNL     1       2.394  56.419  13.125  1.00  0.00     0.017 C 
ATOM     15  C   UNL     1       1.518  54.842  11.196  1.00  0.00    -0.020 C 
ATOM     16  C   UNL     1       2.324  56.276   9.254  1.00  0.00     0.032 C 
ATOM     17  C   UNL     1       2.733  55.161  10.236  1.00  0.00     0.006 C 
ATOM     18  C   UNL     1       1.908  53.594  12.037  1.00  0.00     0.008 C 
ATOM     19  C   UNL     1       0.205  54.523  10.401  1.00  0.00     0.012 C 
ATOM     20  C   UNL     1       3.597  53.918   9.667  1.00  0.00    -0.025 C 
ATOM     21  C   UNL     1       2.171  52.326  11.197  1.00  0.00     0.005 C 
ATOM     22  C   UNL     1       2.796  52.570   9.790  1.00  0.00     0.003 C 
ATOM     23  C   UNL     1       3.971  54.121   8.164  1.00  0.00     0.010 C 
ATOM     24  C   UNL     1       4.928  53.857  10.482  1.00  0.00     0.012 C 
ATOM     25  C   UNL     1       3.448  51.284   9.132  1.00  0.00    -0.006 C 
ATOM     26  C   UNL     1       4.664  52.912   7.507  1.00  0.00     0.033 C 
ATOM     27  C   UNL     1       3.872  51.597   7.652  1.00  0.00     0.120 C 
ATOM     28  C   UNL     1       4.682  50.727   9.910  1.00  0.00     0.014 C 
ATOM     29  C   UNL     1       2.389  50.146   9.101  1.00  0.00     0.014 C 
ENDROOT
BRANCH   1  30
ATOM     30  C   UNL     1      -1.948  58.221  10.579  1.00  0.00     0.048 C 
ATOM     31  O   UNL     1      -2.956  58.968  10.442  1.00  0.00    -0.550 OA
ATOM     32  O   UNL     1      -1.646  57.333   9.551  1.00  0.00    -0.550 OA
ENDBRANCH   1  30
BRANCH  27  33
ATOM     33  O   UNL     1       2.786  51.574   6.754  1.00  0.00    -0.393 OA
ATOM     34  H   UNL     1       2.556  50.631   6.554  1.00  0.00     0.210 HD
ENDBRANCH  27  33
TORSDOF 2
ENDMDL
MODEL 6
REMARK VINA RESULT:    -4.349      4.168      8.187
REMARK INTER + INTRA:          -4.725
REMARK INTER:                  -4.773
REMARK INTRA:                   0.048
REMARK UNBOUND:                 0.005
REMARK SMILES CC1(C)CC[C@]2(C(=O)[O-])CC[C@]3(C)C(=CC[C@@H]4[C@]5(C)CC[C@H](O)C(C)(C)[C@H]5CC[C@]43C)[C@H]2C1
REMARK SMILES IDX 6 1 5 2 10 3 32 4 4 5 11 6 14 7 33 8 2 9 12 10 15 11 1 12
REMARK SMILES IDX 3 13 13 14 30 15 16 16 17 17 29 18 31 19 18 20 28 21 27 22
REMARK SMILES IDX 20 23 19 24 24 25 21 26 22 27 25 28 26 29 7 30 8 31 9 32
REMARK SMILES IDX 23 33
REMARK H PARENT 23 34
REMARK Flexibility Score: inf
ROOT
ATOM      1  C   UNL     1      -5.229  63.836   7.999  1.00  0.00     0.017 C 
ATOM      2  C   UNL     1      -6.337  64.941   7.838  1.00  0.00     0.014 C 
ATOM      3  C   UNL     1      -5.874  62.449   8.358  1.00  0.00     0.014 C 
ATOM      4  C   UNL     1      -4.262  64.317   9.122  1.00  0.00     0.028 C 
ATOM      5  C   UNL     1      -5.941  66.367   8.305  1.00  0.00     0.007 C 
ATOM      6  C   UNL     1      -5.759  62.038   9.844  1.00  0.00     0.013 C 
ATOM      7  C   UNL     1      -3.469  63.155   9.711  1.00  0.00    -0.064 C 
ATOM      8  C   UNL     1      -3.484  65.582   8.687  1.00  0.00     0.015 C 
ATOM      9  C   UNL     1      -4.429  66.730   8.169  1.00  0.00    -0.035 C 
ATOM     10  C   UNL     1      -4.304  62.104  10.479  1.00  0.00    -0.006 C 
ATOM     11  C   UNL     1      -2.124  63.034   9.532  1.00  0.00    -0.027 C 
ATOM     12  C   UNL     1      -4.168  68.007   8.999  1.00  0.00     0.011 C 
ATOM     13  C   UNL     1      -4.114  67.069   6.692  1.00  0.00     0.011 C 
ATOM     14  C   UNL     1      -4.515  62.646  11.934  1.00  0.00     0.017 C 
ATOM     15  C   UNL     1      -3.536  60.687  10.457  1.00  0.00    -0.020 C 
ATOM     16  C   UNL     1      -1.318  61.810   9.912  1.00  0.00     0.032 C 
ATOM     17  C   UNL     1      -2.048  60.923  10.938  1.00  0.00     0.006 C 
ATOM     18  C   UNL     1      -4.172  59.643  11.417  1.00  0.00     0.008 C 
ATOM     19  C   UNL     1      -3.601  60.131   8.993  1.00  0.00     0.012 C 
ATOM     20  C   UNL     1      -1.248  59.669  11.574  1.00  0.00    -0.025 C 
ATOM     21  C   UNL     1      -3.468  58.270  11.411  1.00  0.00     0.005 C 
ATOM     22  C   UNL     1      -1.927  58.307  11.178  1.00  0.00     0.003 C 
ATOM     23  C   UNL     1       0.235  59.630  11.087  1.00  0.00     0.010 C 
ATOM     24  C   UNL     1      -1.232  59.859  13.125  1.00  0.00     0.012 C 
ATOM     25  C   UNL     1      -1.170  56.979  11.596  1.00  0.00    -0.006 C 
ATOM     26  C   UNL     1       1.022  58.380  11.528  1.00  0.00     0.033 C 
ATOM     27  C   UNL     1       0.333  57.055  11.145  1.00  0.00     0.120 C 
ATOM     28  C   UNL     1      -1.229  56.667  13.125  1.00  0.00     0.014 C 
ATOM     29  C   UNL     1      -1.833  55.775  10.869  1.00  0.00     0.014 C 
ENDROOT
BRANCH   1  30
ATOM     30  C   UNL     1      -4.486  63.623   6.677  1.00  0.00     0.048 C 
ATOM     31  O   UNL     1      -4.778  64.304   5.655  1.00  0.00    -0.550 OA
ATOM     32  O   UNL     1      -3.619  62.546   6.521  1.00  0.00    -0.550 OA
ENDBRANCH   1  30
BRANCH  27  33
ATOM     33  O   UNL     1       0.507  56.788   9.772  1.00  0.00    -0.393 OA
ATOM     34  H   UNL     1       0.557  57.648   9.282  1.00  0.00     0.210 HD
ENDBRANCH  27  33
TORSDOF 2
ENDMDL
MODEL 7
REMARK VINA RESULT:    -4.341      7.672     11.052
REMARK INTER + INTRA:          -4.716
REMARK INTER:                  -5.283
REMARK INTRA:                   0.567
REMARK UNBOUND:                 0.005
REMARK SMILES CC1(C)CC[C@]2(C(=O)[O-])CC[C@]3(C)C(=CC[C@@H]4[C@]5(C)CC[C@H](O)C(C)(C)[C@H]5CC[C@]43C)[C@H]2C1
REMARK SMILES IDX 6 1 5 2 10 3 32 4 4 5 11 6 14 7 33 8 2 9 12 10 15 11 1 12
REMARK SMILES IDX 3 13 13 14 30 15 16 16 17 17 29 18 31 19 18 20 28 21 27 22
REMARK SMILES IDX 20 23 19 24 24 25 21 26 22 27 25 28 26 29 7 30 8 31 9 32
REMARK SMILES IDX 23 33
REMARK H PARENT 23 34
REMARK Flexibility Score: inf
ROOT
ATOM      1  C   UNL     1      -6.316  62.630   5.125  1.00  0.00     0.017 C 
ATOM      2  C   UNL     1      -7.621  62.187   4.366  1.00  0.00     0.014 C 
ATOM      3  C   UNL     1      -5.618  61.395   5.799  1.00  0.00     0.014 C 
ATOM      4  C   UNL     1      -6.742  63.688   6.186  1.00  0.00     0.028 C 
ATOM      5  C   UNL     1      -8.790  63.207   4.382  1.00  0.00     0.007 C 
ATOM      6  C   UNL     1      -5.836  61.273   7.325  1.00  0.00     0.013 C 
ATOM      7  C   UNL     1      -5.699  63.820   7.292  1.00  0.00    -0.064 C 
ATOM      8  C   UNL     1      -7.253  64.984   5.512  1.00  0.00     0.015 C 
ATOM      9  C   UNL     1      -8.378  64.712   4.445  1.00  0.00    -0.035 C 
ATOM     10  C   UNL     1      -5.518  62.570   8.185  1.00  0.00    -0.006 C 
ATOM     11  C   UNL     1      -4.951  64.947   7.449  1.00  0.00    -0.027 C 
ATOM     12  C   UNL     1      -9.632  65.535   4.817  1.00  0.00     0.011 C 
ATOM     13  C   UNL     1      -7.922  65.177   3.041  1.00  0.00     0.011 C 
ATOM     14  C   UNL     1      -6.633  62.617   9.285  1.00  0.00     0.017 C 
ATOM     15  C   UNL     1      -4.035  62.570   8.815  1.00  0.00    -0.020 C 
ATOM     16  C   UNL     1      -3.767  65.064   8.387  1.00  0.00     0.032 C 
ATOM     17  C   UNL     1      -3.779  63.981   9.481  1.00  0.00     0.006 C 
ATOM     18  C   UNL     1      -3.852  61.494   9.922  1.00  0.00     0.008 C 
ATOM     19  C   UNL     1      -3.023  62.274   7.654  1.00  0.00     0.012 C 
ATOM     20  C   UNL     1      -2.678  64.073  10.663  1.00  0.00    -0.025 C 
ATOM     21  C   UNL     1      -2.438  61.458  10.537  1.00  0.00     0.005 C 
ATOM     22  C   UNL     1      -1.710  62.834  10.631  1.00  0.00     0.003 C 
ATOM     23  C   UNL     1      -1.812  65.366  10.538  1.00  0.00     0.010 C 
ATOM     24  C   UNL     1      -3.449  64.149  12.020  1.00  0.00     0.012 C 
ATOM     25  C   UNL     1      -0.480  62.857  11.630  1.00  0.00    -0.006 C 
ATOM     26  C   UNL     1      -0.641  65.453  11.537  1.00  0.00     0.033 C 
ATOM     27  C   UNL     1       0.287  64.222  11.502  1.00  0.00     0.120 C 
ATOM     28  C   UNL     1      -0.869  62.628  13.124  1.00  0.00     0.014 C 
ATOM     29  C   UNL     1       0.500  61.714  11.244  1.00  0.00     0.014 C 
ENDROOT
BRANCH   1  30
ATOM     30  C   UNL     1      -5.293  63.206   4.142  1.00  0.00     0.048 C 
ATOM     31  O   UNL     1      -4.878  62.522   3.166  1.00  0.00    -0.550 OA
ATOM     32  O   UNL     1      -4.653  64.411   4.417  1.00  0.00    -0.550 OA
ENDBRANCH   1  30
BRANCH  27  33
ATOM     33  O   UNL     1       1.131  64.273  10.374  1.00  0.00    -0.393 OA
ATOM     34  H   UNL     1       1.809  64.982  10.514  1.00  0.00     0.210 HD
ENDBRANCH  27  33
TORSDOF 2
ENDMDL
MODEL 8
REMARK VINA RESULT:    -4.034      7.895     12.725
REMARK INTER + INTRA:          -4.382
REMARK INTER:                  -4.395
REMARK INTRA:                   0.013
REMARK UNBOUND:                 0.005
REMARK SMILES CC1(C)CC[C@]2(C(=O)[O-])CC[C@]3(C)C(=CC[C@@H]4[C@]5(C)CC[C@H](O)C(C)(C)[C@H]5CC[C@]43C)[C@H]2C1
REMARK SMILES IDX 6 1 5 2 10 3 32 4 4 5 11 6 14 7 33 8 2 9 12 10 15 11 1 12
REMARK SMILES IDX 3 13 13 14 30 15 16 16 17 17 29 18 31 19 18 20 28 21 27 22
REMARK SMILES IDX 20 23 19 24 24 25 21 26 22 27 25 28 26 29 7 30 8 31 9 32
REMARK SMILES IDX 23 33
REMARK H PARENT 23 34
REMARK Flexibility Score: inf
ROOT
ATOM      1  C   UNL     1      -3.495  62.010   9.465  1.00  0.00     0.017 C 
ATOM      2  C   UNL     1      -2.128  61.775  10.207  1.00  0.00     0.014 C 
ATOM      3  C   UNL     1      -3.342  61.756   7.922  1.00  0.00     0.014 C 
ATOM      4  C   UNL     1      -3.927  63.478   9.756  1.00  0.00     0.028 C 
ATOM      5  C   UNL     1      -1.851  62.701  11.421  1.00  0.00     0.007 C 
ATOM      6  C   UNL     1      -3.252  63.033   7.055  1.00  0.00     0.013 C 
ATOM      7  C   UNL     1      -4.933  63.979   8.725  1.00  0.00    -0.064 C 
ATOM      8  C   UNL     1      -4.263  63.676  11.254  1.00  0.00     0.015 C 
ATOM      9  C   UNL     1      -3.110  63.185  12.207  1.00  0.00    -0.035 C 
ATOM     10  C   UNL     1      -4.391  64.117   7.283  1.00  0.00    -0.006 C 
ATOM     11  C   UNL     1      -6.229  64.242   9.048  1.00  0.00    -0.027 C 
ATOM     12  C   UNL     1      -2.681  64.355  13.121  1.00  0.00     0.011 C 
ATOM     13  C   UNL     1      -3.611  62.044  13.125  1.00  0.00     0.011 C 
ATOM     14  C   UNL     1      -3.663  65.502   7.188  1.00  0.00     0.017 C 
ATOM     15  C   UNL     1      -5.609  63.991   6.236  1.00  0.00    -0.020 C 
ATOM     16  C   UNL     1      -7.319  64.541   8.039  1.00  0.00     0.032 C 
ATOM     17  C   UNL     1      -6.750  64.992   6.681  1.00  0.00     0.006 C 
ATOM     18  C   UNL     1      -5.198  64.372   4.786  1.00  0.00     0.008 C 
ATOM     19  C   UNL     1      -6.095  62.501   6.246  1.00  0.00     0.012 C 
ATOM     20  C   UNL     1      -7.784  65.513   5.551  1.00  0.00    -0.025 C 
ATOM     21  C   UNL     1      -6.339  64.250   3.755  1.00  0.00     0.005 C 
ATOM     22  C   UNL     1      -7.767  64.572   4.292  1.00  0.00     0.003 C 
ATOM     23  C   UNL     1      -9.247  65.566   6.096  1.00  0.00     0.010 C 
ATOM     24  C   UNL     1      -7.369  66.970   5.169  1.00  0.00     0.012 C 
ATOM     25  C   UNL     1      -8.841  64.862   3.163  1.00  0.00    -0.006 C 
ATOM     26  C   UNL     1     -10.313  65.907   5.037  1.00  0.00     0.033 C 
ATOM     27  C   UNL     1     -10.270  64.984   3.803  1.00  0.00     0.120 C 
ATOM     28  C   UNL     1      -8.548  66.144   2.321  1.00  0.00     0.014 C 
ATOM     29  C   UNL     1      -8.857  63.668   2.167  1.00  0.00     0.014 C 
ENDROOT
BRANCH   1  30
ATOM     30  C   UNL     1      -4.549  61.011   9.952  1.00  0.00     0.048 C 
ATOM     31  O   UNL     1      -4.244  60.094  10.764  1.00  0.00    -0.550 OA
ATOM     32  O   UNL     1      -5.808  60.971   9.360  1.00  0.00    -0.550 OA
ENDBRANCH   1  30
BRANCH  27  33
ATOM     33  O   UNL     1     -10.844  63.732   4.104  1.00  0.00    -0.393 OA
ATOM     34  H   UNL     1     -11.664  63.877   4.642  1.00  0.00     0.210 HD
ENDBRANCH  27  33
TORSDOF 2
ENDMDL
MODEL 9
REMARK VINA RESULT:    -4.004      5.300     11.861
REMARK INTER + INTRA:          -4.350
REMARK INTER:                  -4.357
REMARK INTRA:                   0.007
REMARK UNBOUND:                 0.005
REMARK SMILES CC1(C)CC[C@]2(C(=O)[O-])CC[C@]3(C)C(=CC[C@@H]4[C@]5(C)CC[C@H](O)C(C)(C)[C@H]5CC[C@]43C)[C@H]2C1
REMARK SMILES IDX 6 1 5 2 10 3 32 4 4 5 11 6 14 7 33 8 2 9 12 10 15 11 1 12
REMARK SMILES IDX 3 13 13 14 30 15 16 16 17 17 29 18 31 19 18 20 28 21 27 22
REMARK SMILES IDX 20 23 19 24 24 25 21 26 22 27 25 28 26 29 7 30 8 31 9 32
REMARK SMILES IDX 23 33
REMARK H PARENT 23 34
REMARK Flexibility Score: inf
ROOT
ATOM      1  C   UNL     1      -3.242  59.644  10.729  1.00  0.00     0.017 C 
ATOM      2  C   UNL     1      -2.419  58.323  10.499  1.00  0.00     0.014 C 
ATOM      3  C   UNL     1      -4.487  59.698   9.773  1.00  0.00     0.014 C 
ATOM      4  C   UNL     1      -2.275  60.837  10.467  1.00  0.00     0.028 C 
ATOM      5  C   UNL     1      -0.881  58.448  10.665  1.00  0.00     0.007 C 
ATOM      6  C   UNL     1      -4.331  60.630   8.548  1.00  0.00     0.013 C 
ATOM      7  C   UNL     1      -3.040  62.121  10.167  1.00  0.00    -0.064 C 
ATOM      8  C   UNL     1      -1.152  60.892  11.531  1.00  0.00     0.015 C 
ATOM      9  C   UNL     1      -0.393  59.522  11.687  1.00  0.00    -0.035 C 
ATOM     10  C   UNL     1      -3.856  62.115   8.853  1.00  0.00    -0.006 C 
ATOM     11  C   UNL     1      -3.039  63.181  11.022  1.00  0.00    -0.027 C 
ATOM     12  C   UNL     1       1.117  59.755  11.452  1.00  0.00     0.011 C 
ATOM     13  C   UNL     1      -0.555  58.971  13.125  1.00  0.00     0.011 C 
ATOM     14  C   UNL     1      -2.871  62.477   7.689  1.00  0.00     0.017 C 
ATOM     15  C   UNL     1      -5.076  63.161   8.972  1.00  0.00    -0.020 C 
ATOM     16  C   UNL     1      -3.935  64.393  10.884  1.00  0.00     0.032 C 
ATOM     17  C   UNL     1      -4.493  64.549   9.456  1.00  0.00     0.006 C 
ATOM     18  C   UNL     1      -5.792  63.408   7.614  1.00  0.00     0.008 C 
ATOM     19  C   UNL     1      -6.114  62.570   9.988  1.00  0.00     0.012 C 
ATOM     20  C   UNL     1      -5.328  65.888   9.101  1.00  0.00    -0.025 C 
ATOM     21  C   UNL     1      -6.974  64.396   7.696  1.00  0.00     0.005 C 
ATOM     22  C   UNL     1      -6.819  65.545   8.739  1.00  0.00     0.003 C 
ATOM     23  C   UNL     1      -5.340  66.890  10.300  1.00  0.00     0.010 C 
ATOM     24  C   UNL     1      -4.606  66.590   7.906  1.00  0.00     0.012 C 
ATOM     25  C   UNL     1      -7.805  66.766   8.518  1.00  0.00    -0.006 C 
ATOM     26  C   UNL     1      -6.241  68.123  10.095  1.00  0.00     0.033 C 
ATOM     27  C   UNL     1      -7.695  67.766   9.725  1.00  0.00     0.120 C 
ATOM     28  C   UNL     1      -7.566  67.544   7.186  1.00  0.00     0.014 C 
ATOM     29  C   UNL     1      -9.263  66.230   8.466  1.00  0.00     0.014 C 
ENDROOT
BRANCH   1  30
ATOM     30  C   UNL     1      -3.804  59.686  12.153  1.00  0.00     0.048 C 
ATOM     31  O   UNL     1      -3.756  58.668  12.897  1.00  0.00    -0.550 OA
ATOM     32  O   UNL     1      -4.555  60.776  12.582  1.00  0.00    -0.550 OA
ENDBRANCH   1  30
BRANCH  27  33
ATOM     33  O   UNL     1      -8.401  67.331  10.864  1.00  0.00    -0.393 OA
ATOM     34  H   UNL     1      -8.218  66.366  11.004  1.00  0.00     0.210 HD
ENDBRANCH  27  33
TORSDOF 2
ENDMDL
