MODEL 1
REMARK VINA RESULT:    -1.302      0.000      0.000
REMARK INTER + INTRA:          -1.456
REMARK INTER:                  -1.568
REMARK INTRA:                   0.112
REMARK UNBOUND:                 0.112
REMARK SMILES O=c1c(O)c(-c2ccc(O)cc2O)oc2cc(O)cc(O)c12
REMARK SMILES IDX 5 1 3 2 2 3 1 4 22 5 20 6 19 7 17 8 16 9 15 10 14 11 6 12
REMARK SMILES IDX 8 13 7 14 9 15 11 16 12 17 10 18 13 20 4 22 21 24 18 26
REMARK H PARENT 10 19 13 21 4 23 21 25 18 27
REMARK Flexibility Score: inf
ROOT
ATOM      1  C   UNL     1      20.685 -15.316   2.940  1.00  0.00     0.184 A 
ATOM      2  C   UNL     1      20.454 -14.548   1.791  1.00  0.00     0.208 A 
ATOM      3  C   UNL     1      20.190 -15.201   0.576  1.00  0.00     0.238 A 
ATOM      4  O   UNL     1      19.923 -14.506  -0.438  1.00  0.00    -0.285 OA
ATOM      5  C   UNL     1      20.191 -16.616   0.524  1.00  0.00     0.111 A 
ATOM      6  C   UNL     1      19.975 -17.384  -0.659  1.00  0.00     0.134 A 
ATOM      7  C   UNL     1      19.875 -18.778  -0.570  1.00  0.00     0.093 A 
ATOM      8  C   UNL     1      20.048 -19.436   0.647  1.00  0.00     0.123 A 
ATOM      9  C   UNL     1      20.317 -18.700   1.802  1.00  0.00     0.094 A 
ATOM     10  C   UNL     1      20.385 -17.305   1.751  1.00  0.00     0.146 A 
ATOM     11  O   UNL     1      20.629 -16.641   2.874  1.00  0.00    -0.451 OA
ENDROOT
BRANCH   1  12
ATOM     12  C   UNL     1      20.991 -14.684   4.242  1.00  0.00     0.063 A 
ATOM     13  C   UNL     1      22.046 -12.875   5.482  1.00  0.00     0.047 A 
ATOM     14  C   UNL     1      21.695 -13.467   4.267  1.00  0.00     0.020 A 
ATOM     15  C   UNL     1      21.704 -13.494   6.690  1.00  0.00     0.119 A 
ATOM     16  C   UNL     1      21.005 -14.704   6.675  1.00  0.00     0.093 A 
ATOM     17  C   UNL     1      20.639 -15.302   5.463  1.00  0.00     0.130 A 
BRANCH  15  18
ATOM     18  O   UNL     1      22.052 -12.916   7.908  1.00  0.00    -0.508 OA
ATOM     19  H   UNL     1      22.932 -12.429   8.030  1.00  0.00     0.293 HD
ENDBRANCH  15  18
BRANCH  17  20
ATOM     20  O   UNL     1      19.910 -16.493   5.510  1.00  0.00    -0.507 OA
ATOM     21  H   UNL     1      20.335 -17.405   5.395  1.00  0.00     0.293 HD
ENDBRANCH  17  20
ENDBRANCH   1  12
BRANCH   2  22
ATOM     22  O   UNL     1      20.464 -13.153   1.870  1.00  0.00    -0.502 OA
ATOM     23  H   UNL     1      20.140 -12.563   1.113  1.00  0.00     0.293 HD
ENDBRANCH   2  22
BRANCH   6  24
ATOM     24  O   UNL     1      19.879 -16.834  -1.941  1.00  0.00    -0.507 OA
ATOM     25  H   UNL     1      20.586 -16.911  -2.656  1.00  0.00     0.293 HD
ENDBRANCH   6  24
BRANCH   8  26
ATOM     26  O   UNL     1      19.958 -20.825   0.696  1.00  0.00    -0.508 OA
ATOM     27  H   UNL     1      19.222 -21.292   1.215  1.00  0.00     0.293 HD
ENDBRANCH   8  26
TORSDOF 6
ENDMDL
MODEL 2
REMARK VINA RESULT:    -1.018      1.924      6.770
REMARK INTER + INTRA:          -1.115
REMARK INTER:                  -1.398
REMARK INTRA:                   0.283
REMARK UNBOUND:                 0.112
REMARK SMILES O=c1c(O)c(-c2ccc(O)cc2O)oc2cc(O)cc(O)c12
REMARK SMILES IDX 5 1 3 2 2 3 1 4 22 5 20 6 19 7 17 8 16 9 15 10 14 11 6 12
REMARK SMILES IDX 8 13 7 14 9 15 11 16 12 17 10 18 13 20 4 22 21 24 18 26
REMARK H PARENT 10 19 13 21 4 23 21 25 18 27
REMARK Flexibility Score: inf
ROOT
ATOM      1  C   UNL     1      21.063 -16.109   3.786  1.00  0.00     0.184 A 
ATOM      2  C   UNL     1      20.621 -14.788   3.937  1.00  0.00     0.208 A 
ATOM      3  C   UNL     1      20.959 -14.084   5.104  1.00  0.00     0.238 A 
ATOM      4  O   UNL     1      20.611 -12.879   5.206  1.00  0.00    -0.285 OA
ATOM      5  C   UNL     1      21.712 -14.725   6.118  1.00  0.00     0.111 A 
ATOM      6  C   UNL     1      22.079 -14.124   7.359  1.00  0.00     0.134 A 
ATOM      7  C   UNL     1      22.929 -14.810   8.235  1.00  0.00     0.093 A 
ATOM      8  C   UNL     1      23.373 -16.099   7.946  1.00  0.00     0.123 A 
ATOM      9  C   UNL     1      22.974 -16.721   6.762  1.00  0.00     0.094 A 
ATOM     10  C   UNL     1      22.156 -16.048   5.850  1.00  0.00     0.146 A 
ATOM     11  O   UNL     1      21.811 -16.669   4.729  1.00  0.00    -0.451 OA
ENDROOT
BRANCH   1  12
ATOM     12  C   UNL     1      20.718 -16.906   2.589  1.00  0.00     0.063 A 
ATOM     13  C   UNL     1      19.936 -19.005   1.638  1.00  0.00     0.047 A 
ATOM     14  C   UNL     1      20.218 -18.210   2.751  1.00  0.00     0.020 A 
ATOM     15  C   UNL     1      20.156 -18.511   0.347  1.00  0.00     0.119 A 
ATOM     16  C   UNL     1      20.654 -17.217   0.177  1.00  0.00     0.093 A 
ATOM     17  C   UNL     1      20.932 -16.406   1.284  1.00  0.00     0.130 A 
BRANCH  15  18
ATOM     18  O   UNL     1      19.884 -19.297  -0.770  1.00  0.00    -0.508 OA
ATOM     19  H   UNL     1      18.986 -19.257  -1.239  1.00  0.00     0.293 HD
ENDBRANCH  15  18
BRANCH  17  20
ATOM     20  O   UNL     1      21.394 -15.109   1.051  1.00  0.00    -0.507 OA
ATOM     21  H   UNL     1      21.035 -14.299   1.542  1.00  0.00     0.293 HD
ENDBRANCH  17  20
ENDBRANCH   1  12
BRANCH   2  22
ATOM     22  O   UNL     1      19.875 -14.181   2.922  1.00  0.00    -0.502 OA
ATOM     23  H   UNL     1      20.089 -13.256   2.570  1.00  0.00     0.293 HD
ENDBRANCH   2  22
BRANCH   6  24
ATOM     24  O   UNL     1      21.618 -12.875   7.788  1.00  0.00    -0.507 OA
ATOM     25  H   UNL     1      21.306 -12.667   8.724  1.00  0.00     0.293 HD
ENDBRANCH   6  24
BRANCH   8  26
ATOM     26  O   UNL     1      24.205 -16.758   8.848  1.00  0.00    -0.508 OA
ATOM     27  H   UNL     1      24.004 -16.773   9.842  1.00  0.00     0.293 HD
ENDBRANCH   8  26
TORSDOF 6
ENDMDL
MODEL 3
REMARK VINA RESULT:    -0.382      2.662      6.859
REMARK INTER + INTRA:          -0.349
REMARK INTER:                  -1.110
REMARK INTRA:                   0.761
REMARK UNBOUND:                 0.112
REMARK SMILES O=c1c(O)c(-c2ccc(O)cc2O)oc2cc(O)cc(O)c12
REMARK SMILES IDX 5 1 3 2 2 3 1 4 22 5 20 6 19 7 17 8 16 9 15 10 14 11 6 12
REMARK SMILES IDX 8 13 7 14 9 15 11 16 12 17 10 18 13 20 4 22 21 24 18 26
REMARK H PARENT 10 19 13 21 4 23 21 25 18 27
REMARK Flexibility Score: inf
ROOT
ATOM      1  C   UNL     1      20.725 -19.934   0.918  1.00  0.00     0.184 A 
ATOM      2  C   UNL     1      20.579 -19.681  -0.452  1.00  0.00     0.208 A 
ATOM      3  C   UNL     1      20.424 -18.355  -0.889  1.00  0.00     0.238 A 
ATOM      4  O   UNL     1      20.355 -18.130  -2.125  1.00  0.00    -0.285 OA
ATOM      5  C   UNL     1      20.387 -17.304   0.059  1.00  0.00     0.111 A 
ATOM      6  C   UNL     1      20.195 -15.927  -0.265  1.00  0.00     0.134 A 
ATOM      7  C   UNL     1      20.300 -14.959   0.742  1.00  0.00     0.093 A 
ATOM      8  C   UNL     1      20.525 -15.322   2.068  1.00  0.00     0.123 A 
ATOM      9  C   UNL     1      20.657 -16.669   2.407  1.00  0.00     0.094 A 
ATOM     10  C   UNL     1      20.595 -17.655   1.419  1.00  0.00     0.146 A 
ATOM     11  O   UNL     1      20.739 -18.924   1.781  1.00  0.00    -0.451 OA
ENDROOT
BRANCH   1  12
ATOM     12  C   UNL     1      20.870 -21.311   1.437  1.00  0.00     0.063 A 
ATOM     13  C   UNL     1      20.346 -22.956   3.152  1.00  0.00     0.047 A 
ATOM     14  C   UNL     1      20.185 -21.680   2.609  1.00  0.00     0.020 A 
ATOM     15  C   UNL     1      21.199 -23.880   2.537  1.00  0.00     0.119 A 
ATOM     16  C   UNL     1      21.885 -23.522   1.373  1.00  0.00     0.093 A 
ATOM     17  C   UNL     1      21.724 -22.249   0.813  1.00  0.00     0.130 A 
BRANCH  15  18
ATOM     18  O   UNL     1      21.372 -25.154   3.073  1.00  0.00    -0.508 OA
ATOM     19  H   UNL     1      21.099 -25.985   2.561  1.00  0.00     0.293 HD
ENDBRANCH  15  18
BRANCH  17  20
ATOM     20  O   UNL     1      22.407 -21.959  -0.371  1.00  0.00    -0.507 OA
ATOM     21  H   UNL     1      22.672 -21.020  -0.639  1.00  0.00     0.293 HD
ENDBRANCH  17  20
ENDBRANCH   1  12
BRANCH   2  22
ATOM     22  O   UNL     1      20.614 -20.739  -1.365  1.00  0.00    -0.502 OA
ATOM     23  H   UNL     1      20.526 -21.706  -1.078  1.00  0.00     0.293 HD
ENDBRANCH   2  22
BRANCH   6  24
ATOM     24  O   UNL     1      19.875 -15.463  -1.545  1.00  0.00    -0.507 OA
ATOM     25  H   UNL     1      19.704 -14.498  -1.782  1.00  0.00     0.293 HD
ENDBRANCH   6  24
BRANCH   8  26
ATOM     26  O   UNL     1      20.608 -14.333   3.046  1.00  0.00    -0.508 OA
ATOM     27  H   UNL     1      20.504 -14.551   4.032  1.00  0.00     0.293 HD
ENDBRANCH   8  26
TORSDOF 6
ENDMDL
MODEL 4
REMARK VINA RESULT:    -0.382     22.260     23.395
REMARK INTER + INTRA:          -0.348
REMARK INTER:                  -0.016
REMARK INTRA:                  -0.332
REMARK UNBOUND:                 0.112
REMARK SMILES O=c1c(O)c(-c2ccc(O)cc2O)oc2cc(O)cc(O)c12
REMARK SMILES IDX 5 1 3 2 2 3 1 4 22 5 20 6 19 7 17 8 16 9 15 10 14 11 6 12
REMARK SMILES IDX 8 13 7 14 9 15 11 16 12 17 10 18 13 20 4 22 21 24 18 26
REMARK H PARENT 10 19 13 21 4 23 21 25 18 27
REMARK Flexibility Score: inf
ROOT
ATOM      1  C   UNL     1      36.808 -30.999   9.658  1.00  0.00     0.184 A 
ATOM      2  C   UNL     1      35.516 -31.437   9.979  1.00  0.00     0.208 A 
ATOM      3  C   UNL     1      34.737 -32.052   8.985  1.00  0.00     0.238 A 
ATOM      4  O   UNL     1      33.602 -32.498   9.296  1.00  0.00    -0.285 OA
ATOM      5  C   UNL     1      35.254 -32.193   7.675  1.00  0.00     0.111 A 
ATOM      6  C   UNL     1      34.541 -32.765   6.578  1.00  0.00     0.134 A 
ATOM      7  C   UNL     1      35.196 -32.967   5.357  1.00  0.00     0.093 A 
ATOM      8  C   UNL     1      36.516 -32.559   5.173  1.00  0.00     0.123 A 
ATOM      9  C   UNL     1      37.206 -31.945   6.219  1.00  0.00     0.094 A 
ATOM     10  C   UNL     1      36.592 -31.765   7.461  1.00  0.00     0.146 A 
ATOM     11  O   UNL     1      37.287 -31.191   8.435  1.00  0.00    -0.451 OA
ENDROOT
BRANCH   1  12
ATOM     12  C   UNL     1      37.664 -30.324  10.657  1.00  0.00     0.063 A 
ATOM     13  C   UNL     1      38.048 -28.422  12.126  1.00  0.00     0.047 A 
ATOM     14  C   UNL     1      37.236 -29.109  11.221  1.00  0.00     0.020 A 
ATOM     15  C   UNL     1      39.303 -28.935  12.474  1.00  0.00     0.119 A 
ATOM     16  C   UNL     1      39.737 -30.140  11.917  1.00  0.00     0.093 A 
ATOM     17  C   UNL     1      38.928 -30.845  11.017  1.00  0.00     0.130 A 
BRANCH  15  18
ATOM     18  O   UNL     1      40.124 -28.256  13.370  1.00  0.00    -0.508 OA
ATOM     19  H   UNL     1      39.743 -27.614  14.056  1.00  0.00     0.293 HD
ENDBRANCH  15  18
BRANCH  17  20
ATOM     20  O   UNL     1      39.400 -32.062  10.520  1.00  0.00    -0.507 OA
ATOM     21  H   UNL     1      40.252 -32.499  10.849  1.00  0.00     0.293 HD
ENDBRANCH  17  20
ENDBRANCH   1  12
BRANCH   2  22
ATOM     22  O   UNL     1      35.029 -31.279  11.280  1.00  0.00    -0.502 OA
ATOM     23  H   UNL     1      35.524 -31.629  12.091  1.00  0.00     0.293 HD
ENDBRANCH   2  22
BRANCH   6  24
ATOM     24  O   UNL     1      33.191 -33.125   6.628  1.00  0.00    -0.507 OA
ATOM     25  H   UNL     1      32.425 -32.477   6.730  1.00  0.00     0.293 HD
ENDBRANCH   6  24
BRANCH   8  26
ATOM     26  O   UNL     1      37.131 -32.760   3.939  1.00  0.00    -0.508 OA
ATOM     27  H   UNL     1      37.281 -33.692   3.566  1.00  0.00     0.293 HD
ENDBRANCH   8  26
TORSDOF 6
ENDMDL
MODEL 5
REMARK VINA RESULT:     0.073      1.385      1.793
REMARK INTER + INTRA:           0.200
REMARK INTER:                   0.500
REMARK INTRA:                  -0.300
REMARK UNBOUND:                 0.112
REMARK SMILES O=c1c(O)c(-c2ccc(O)cc2O)oc2cc(O)cc(O)c12
REMARK SMILES IDX 5 1 3 2 2 3 1 4 22 5 20 6 19 7 17 8 16 9 15 10 14 11 6 12
REMARK SMILES IDX 8 13 7 14 9 15 11 16 12 17 10 18 13 20 4 22 21 24 18 26
REMARK H PARENT 10 19 13 21 4 23 21 25 18 27
REMARK Flexibility Score: inf
ROOT
ATOM      1  C   UNL     1      21.279 -15.286   3.995  1.00  0.00     0.184 A 
ATOM      2  C   UNL     1      20.957 -14.117   3.292  1.00  0.00     0.208 A 
ATOM      3  C   UNL     1      20.534 -14.219   1.957  1.00  0.00     0.238 A 
ATOM      4  O   UNL     1      20.188 -13.172   1.351  1.00  0.00    -0.285 OA
ATOM      5  C   UNL     1      20.466 -15.490   1.337  1.00  0.00     0.111 A 
ATOM      6  C   UNL     1      20.088 -15.711  -0.022  1.00  0.00     0.134 A 
ATOM      7  C   UNL     1      19.937 -17.021  -0.494  1.00  0.00     0.093 A 
ATOM      8  C   UNL     1      20.213 -18.116   0.323  1.00  0.00     0.123 A 
ATOM      9  C   UNL     1      20.639 -17.913   1.636  1.00  0.00     0.094 A 
ATOM     10  C   UNL     1      20.762 -16.618   2.147  1.00  0.00     0.146 A 
ATOM     11  O   UNL     1      21.157 -16.469   3.406  1.00  0.00    -0.451 OA
ENDROOT
BRANCH   1  12
ATOM     12  C   UNL     1      21.752 -15.237   5.395  1.00  0.00     0.063 A 
ATOM     13  C   UNL     1      23.411 -14.482   7.008  1.00  0.00     0.047 A 
ATOM     14  C   UNL     1      22.909 -14.500   5.705  1.00  0.00     0.020 A 
ATOM     15  C   UNL     1      22.768 -15.205   8.020  1.00  0.00     0.119 A 
ATOM     16  C   UNL     1      21.619 -15.942   7.721  1.00  0.00     0.093 A 
ATOM     17  C   UNL     1      21.100 -15.960   6.420  1.00  0.00     0.130 A 
BRANCH  15  18
ATOM     18  O   UNL     1      23.262 -15.199   9.322  1.00  0.00    -0.508 OA
ATOM     19  H   UNL     1      23.043 -14.449   9.967  1.00  0.00     0.293 HD
ENDBRANCH  15  18
BRANCH  17  20
ATOM     20  O   UNL     1      19.928 -16.685   6.189  1.00  0.00    -0.507 OA
ATOM     21  H   UNL     1      19.865 -17.428   5.504  1.00  0.00     0.293 HD
ENDBRANCH  17  20
ENDBRANCH   1  12
BRANCH   2  22
ATOM     22  O   UNL     1      21.038 -12.875   3.928  1.00  0.00    -0.502 OA
ATOM     23  H   UNL     1      20.830 -12.006   3.451  1.00  0.00     0.293 HD
ENDBRANCH   2  22
BRANCH   6  24
ATOM     24  O   UNL     1      19.877 -14.686  -0.950  1.00  0.00    -0.507 OA
ATOM     25  H   UNL     1      19.994 -13.703  -0.759  1.00  0.00     0.293 HD
ENDBRANCH   6  24
BRANCH   8  26
ATOM     26  O   UNL     1      20.067 -19.405  -0.185  1.00  0.00    -0.508 OA
ATOM     27  H   UNL     1      19.759 -20.175   0.400  1.00  0.00     0.293 HD
ENDBRANCH   8  26
TORSDOF 6
ENDMDL
MODEL 6
REMARK VINA RESULT:     0.305      1.479      2.009
REMARK INTER + INTRA:           0.479
REMARK INTER:                  -2.731
REMARK INTRA:                   3.210
REMARK UNBOUND:                 0.112
REMARK SMILES O=c1c(O)c(-c2ccc(O)cc2O)oc2cc(O)cc(O)c12
REMARK SMILES IDX 5 1 3 2 2 3 1 4 22 5 20 6 19 7 17 8 16 9 15 10 14 11 6 12
REMARK SMILES IDX 8 13 7 14 9 15 11 16 12 17 10 18 13 20 4 22 21 24 18 26
REMARK H PARENT 10 19 13 21 4 23 21 25 18 27
REMARK Flexibility Score: inf
ROOT
ATOM      1  C   UNL     1      19.983 -16.276   3.151  1.00  0.00     0.184 A 
ATOM      2  C   UNL     1      19.966 -15.731   1.860  1.00  0.00     0.208 A 
ATOM      3  C   UNL     1      19.971 -16.597   0.754  1.00  0.00     0.238 A 
ATOM      4  O   UNL     1      19.894 -16.104  -0.400  1.00  0.00    -0.285 OA
ATOM      5  C   UNL     1      20.021 -17.997   0.959  1.00  0.00     0.111 A 
ATOM      6  C   UNL     1      20.069 -18.969  -0.086  1.00  0.00     0.134 A 
ATOM      7  C   UNL     1      19.992 -20.330   0.232  1.00  0.00     0.093 A 
ATOM      8  C   UNL     1      19.934 -20.758   1.557  1.00  0.00     0.123 A 
ATOM      9  C   UNL     1      19.945 -19.820   2.591  1.00  0.00     0.094 A 
ATOM     10  C   UNL     1      19.983 -18.453   2.304  1.00  0.00     0.146 A 
ATOM     11  O   UNL     1      19.978 -17.593   3.315  1.00  0.00    -0.451 OA
ENDROOT
BRANCH   1  12
ATOM     12  C   UNL     1      20.002 -15.412   4.352  1.00  0.00     0.063 A 
ATOM     13  C   UNL     1      20.005 -15.218   6.778  1.00  0.00     0.047 A 
ATOM     14  C   UNL     1      20.041 -16.006   5.626  1.00  0.00     0.020 A 
ATOM     15  C   UNL     1      19.921 -13.824   6.673  1.00  0.00     0.119 A 
ATOM     16  C   UNL     1      19.881 -13.225   5.412  1.00  0.00     0.093 A 
ATOM     17  C   UNL     1      19.927 -14.004   4.249  1.00  0.00     0.130 A 
BRANCH  15  18
ATOM     18  O   UNL     1      19.879 -13.028   7.815  1.00  0.00    -0.508 OA
ATOM     19  H   UNL     1      19.518 -12.081   7.787  1.00  0.00     0.293 HD
ENDBRANCH  15  18
BRANCH  17  20
ATOM     20  O   UNL     1      19.919 -13.348   3.016  1.00  0.00    -0.507 OA
ATOM     21  H   UNL     1      19.791 -12.348   2.924  1.00  0.00     0.293 HD
ENDBRANCH  17  20
ENDBRANCH   1  12
BRANCH   2  22
ATOM     22  O   UNL     1      19.922 -14.345   1.688  1.00  0.00    -0.502 OA
ATOM     23  H   UNL     1      20.591 -13.848   1.113  1.00  0.00     0.293 HD
ENDBRANCH   2  22
BRANCH   6  24
ATOM     24  O   UNL     1      20.218 -18.652  -1.440  1.00  0.00    -0.507 OA
ATOM     25  H   UNL     1      21.093 -18.663  -1.941  1.00  0.00     0.293 HD
ENDBRANCH   6  24
BRANCH   8  26
ATOM     26  O   UNL     1      19.875 -22.122   1.837  1.00  0.00    -0.508 OA
ATOM     27  H   UNL     1      20.714 -22.665   2.011  1.00  0.00     0.293 HD
ENDBRANCH   8  26
TORSDOF 6
ENDMDL
MODEL 7
REMARK VINA RESULT:     0.381      2.067      3.601
REMARK INTER + INTRA:           0.570
REMARK INTER:                   0.125
REMARK INTRA:                   0.446
REMARK UNBOUND:                 0.112
REMARK SMILES O=c1c(O)c(-c2ccc(O)cc2O)oc2cc(O)cc(O)c12
REMARK SMILES IDX 5 1 3 2 2 3 1 4 22 5 20 6 19 7 17 8 16 9 15 10 14 11 6 12
REMARK SMILES IDX 8 13 7 14 9 15 11 16 12 17 10 18 13 20 4 22 21 24 18 26
REMARK H PARENT 10 19 13 21 4 23 21 25 18 27
REMARK Flexibility Score: inf
ROOT
ATOM      1  C   UNL     1      20.314 -17.877   1.346  1.00  0.00     0.184 A 
ATOM      2  C   UNL     1      20.229 -17.834  -0.052  1.00  0.00     0.208 A 
ATOM      3  C   UNL     1      20.414 -19.020  -0.783  1.00  0.00     0.238 A 
ATOM      4  O   UNL     1      20.276 -18.986  -2.033  1.00  0.00    -0.285 OA
ATOM      5  C   UNL     1      20.710 -20.225  -0.102  1.00  0.00     0.111 A 
ATOM      6  C   UNL     1      20.955 -21.478  -0.741  1.00  0.00     0.134 A 
ATOM      7  C   UNL     1      21.117 -22.631   0.037  1.00  0.00     0.093 A 
ATOM      8  C   UNL     1      21.107 -22.567   1.429  1.00  0.00     0.123 A 
ATOM      9  C   UNL     1      20.926 -21.339   2.067  1.00  0.00     0.094 A 
ATOM     10  C   UNL     1      20.724 -20.177   1.317  1.00  0.00     0.146 A 
ATOM     11  O   UNL     1      20.542 -19.031   1.962  1.00  0.00    -0.451 OA
ENDROOT
BRANCH   1  12
ATOM     12  C   UNL     1      20.151 -16.656   2.165  1.00  0.00     0.063 A 
ATOM     13  C   UNL     1      20.114 -14.227   2.299  1.00  0.00     0.047 A 
ATOM     14  C   UNL     1      20.209 -15.397   1.543  1.00  0.00     0.020 A 
ATOM     15  C   UNL     1      19.966 -14.298   3.689  1.00  0.00     0.119 A 
ATOM     16  C   UNL     1      19.908 -15.545   4.317  1.00  0.00     0.093 A 
ATOM     17  C   UNL     1      19.993 -16.726   3.569  1.00  0.00     0.130 A 
BRANCH  15  18
ATOM     18  O   UNL     1      19.875 -13.138   4.454  1.00  0.00    -0.508 OA
ATOM     19  H   UNL     1      19.385 -12.318   4.116  1.00  0.00     0.293 HD
ENDBRANCH  15  18
BRANCH  17  20
ATOM     20  O   UNL     1      19.893 -17.943   4.246  1.00  0.00    -0.507 OA
ATOM     21  H   UNL     1      19.445 -18.760   3.850  1.00  0.00     0.293 HD
ENDBRANCH  17  20
ENDBRANCH   1  12
BRANCH   2  22
ATOM     22  O   UNL     1      19.941 -16.629  -0.698  1.00  0.00    -0.502 OA
ATOM     23  H   UNL     1      20.614 -15.876  -0.770  1.00  0.00     0.293 HD
ENDBRANCH   2  22
BRANCH   6  24
ATOM     24  O   UNL     1      21.076 -21.638  -2.125  1.00  0.00    -0.507 OA
ATOM     25  H   UNL     1      21.018 -20.890  -2.799  1.00  0.00     0.293 HD
ENDBRANCH   6  24
BRANCH   8  26
ATOM     26  O   UNL     1      21.287 -23.732   2.172  1.00  0.00    -0.508 OA
ATOM     27  H   UNL     1      21.990 -23.794   2.901  1.00  0.00     0.293 HD
ENDBRANCH   8  26
TORSDOF 6
ENDMDL
