MODEL 1
REMARK VINA RESULT:    -4.304      0.000      0.000
REMARK INTER + INTRA:          -5.276
REMARK INTER:                  -5.185
REMARK INTRA:                  -0.091
REMARK UNBOUND:                -0.091
REMARK SMILES O=c1c(O)c(-c2ccc(O)c(O)c2)oc2cc(O)cc(O)c12
REMARK SMILES IDX 5 1 3 2 2 3 1 4 22 5 20 6 19 7 17 8 16 9 15 10 14 11 6 12
REMARK SMILES IDX 7 13 8 14 9 15 13 16 11 17 10 18 12 20 4 22 21 24 18 26
REMARK H PARENT 10 19 12 21 4 23 21 25 18 27
REMARK Flexibility Score: inf
ROOT
ATOM      1  C   UNL     1       0.178  23.585 -14.207  1.00  0.00     0.180 A 
ATOM      2  C   UNL     1      -0.805  23.406 -15.196  1.00  0.00     0.208 A 
ATOM      3  C   UNL     1      -2.140  23.217 -14.804  1.00  0.00     0.238 A 
ATOM      4  O   UNL     1      -3.007  23.003 -15.691  1.00  0.00    -0.285 OA
ATOM      5  C   UNL     1      -2.478  23.225 -13.428  1.00  0.00     0.111 A 
ATOM      6  C   UNL     1      -3.803  23.084 -12.919  1.00  0.00     0.134 A 
ATOM      7  C   UNL     1      -4.005  22.976 -11.537  1.00  0.00     0.093 A 
ATOM      8  C   UNL     1      -2.934  23.071 -10.644  1.00  0.00     0.123 A 
ATOM      9  C   UNL     1      -1.644  23.269 -11.130  1.00  0.00     0.094 A 
ATOM     10  C   UNL     1      -1.407  23.343 -12.504  1.00  0.00     0.146 A 
ATOM     11  O   UNL     1      -0.161  23.522 -12.925  1.00  0.00    -0.452 OA
ENDROOT
BRANCH   1  12
ATOM     12  C   UNL     1       1.601  23.813 -14.544  1.00  0.00     0.025 A 
ATOM     13  C   UNL     1       1.953  24.902 -15.354  1.00  0.00     0.016 A 
ATOM     14  C   UNL     1       3.286  25.124 -15.700  1.00  0.00     0.051 A 
ATOM     15  C   UNL     1       4.292  24.258 -15.260  1.00  0.00     0.157 A 
ATOM     16  C   UNL     1       2.606  22.927 -14.118  1.00  0.00     0.062 A 
ATOM     17  C   UNL     1       3.947  23.140 -14.463  1.00  0.00     0.158 A 
BRANCH  15  18
ATOM     18  O   UNL     1       5.608  24.540 -15.635  1.00  0.00    -0.504 OA
ATOM     19  H   UNL     1       6.174  25.261 -15.212  1.00  0.00     0.293 HD
ENDBRANCH  15  18
BRANCH  17  20
ATOM     20  O   UNL     1       4.892  22.221 -14.004  1.00  0.00    -0.504 OA
ATOM     21  H   UNL     1       5.867  22.438 -13.857  1.00  0.00     0.293 HD
ENDBRANCH  17  20
ENDBRANCH   1  12
BRANCH   2  22
ATOM     22  O   UNL     1      -0.447  23.379 -16.546  1.00  0.00    -0.502 OA
ATOM     23  H   UNL     1      -0.966  22.849 -17.237  1.00  0.00     0.293 HD
ENDBRANCH   2  22
BRANCH   6  24
ATOM     24  O   UNL     1      -4.950  23.073 -13.719  1.00  0.00    -0.507 OA
ATOM     25  H   UNL     1      -5.449  23.896 -14.019  1.00  0.00     0.293 HD
ENDBRANCH   6  24
BRANCH   8  26
ATOM     26  O   UNL     1      -3.145  22.979  -9.270  1.00  0.00    -0.508 OA
ATOM     27  H   UNL     1      -3.839  22.351  -8.881  1.00  0.00     0.293 HD
ENDBRANCH   8  26
TORSDOF 6
ENDMDL
MODEL 2
REMARK VINA RESULT:    -4.124     12.350     15.688
REMARK INTER + INTRA:          -5.059
REMARK INTER:                  -4.736
REMARK INTRA:                  -0.323
REMARK UNBOUND:                -0.091
REMARK SMILES O=c1c(O)c(-c2ccc(O)c(O)c2)oc2cc(O)cc(O)c12
REMARK SMILES IDX 5 1 3 2 2 3 1 4 22 5 20 6 19 7 17 8 16 9 15 10 14 11 6 12
REMARK SMILES IDX 7 13 8 14 9 15 13 16 11 17 10 18 12 20 4 22 21 24 18 26
REMARK H PARENT 10 19 12 21 4 23 21 25 18 27
REMARK Flexibility Score: inf
ROOT
ATOM      1  C   UNL     1      11.758  23.574  -4.647  1.00  0.00     0.180 A 
ATOM      2  C   UNL     1      12.975  23.345  -5.312  1.00  0.00     0.208 A 
ATOM      3  C   UNL     1      13.049  23.572  -6.695  1.00  0.00     0.238 A 
ATOM      4  O   UNL     1      14.125  23.314  -7.294  1.00  0.00    -0.285 OA
ATOM      5  C   UNL     1      11.909  24.041  -7.394  1.00  0.00     0.111 A 
ATOM      6  C   UNL     1      11.881  24.343  -8.788  1.00  0.00     0.134 A 
ATOM      7  C   UNL     1      10.665  24.675  -9.399  1.00  0.00     0.093 A 
ATOM      8  C   UNL     1       9.489  24.779  -8.652  1.00  0.00     0.123 A 
ATOM      9  C   UNL     1       9.519  24.544  -7.279  1.00  0.00     0.094 A 
ATOM     10  C   UNL     1      10.709  24.175  -6.648  1.00  0.00     0.146 A 
ATOM     11  O   UNL     1      10.690  23.950  -5.340  1.00  0.00    -0.452 OA
ENDROOT
BRANCH   1  12
ATOM     12  C   UNL     1      11.610  23.380  -3.186  1.00  0.00     0.025 A 
ATOM     13  C   UNL     1      11.889  24.444  -2.316  1.00  0.00     0.016 A 
ATOM     14  C   UNL     1      11.776  24.276  -0.936  1.00  0.00     0.051 A 
ATOM     15  C   UNL     1      11.399  23.043  -0.394  1.00  0.00     0.157 A 
ATOM     16  C   UNL     1      11.253  22.133  -2.646  1.00  0.00     0.062 A 
ATOM     17  C   UNL     1      11.140  21.954  -1.261  1.00  0.00     0.158 A 
BRANCH  15  18
ATOM     18  O   UNL     1      11.297  22.943   0.995  1.00  0.00    -0.504 OA
ATOM     19  H   UNL     1      10.443  23.098   1.511  1.00  0.00     0.293 HD
ENDBRANCH  15  18
BRANCH  17  20
ATOM     20  O   UNL     1      10.779  20.689  -0.794  1.00  0.00    -0.504 OA
ATOM     21  H   UNL     1      11.004  20.341   0.127  1.00  0.00     0.293 HD
ENDBRANCH  17  20
ENDBRANCH   1  12
BRANCH   2  22
ATOM     22  O   UNL     1      14.081  22.862  -4.608  1.00  0.00    -0.502 OA
ATOM     23  H   UNL     1      14.324  23.192  -3.681  1.00  0.00     0.293 HD
ENDBRANCH   2  22
BRANCH   6  24
ATOM     24  O   UNL     1      13.015  24.360  -9.606  1.00  0.00    -0.507 OA
ATOM     25  H   UNL     1      13.759  23.681  -9.570  1.00  0.00     0.293 HD
ENDBRANCH   6  24
BRANCH   8  26
ATOM     26  O   UNL     1       8.287  25.125  -9.265  1.00  0.00    -0.508 OA
ATOM     27  H   UNL     1       8.224  25.270 -10.265  1.00  0.00     0.293 HD
ENDBRANCH   8  26
TORSDOF 6
ENDMDL
MODEL 3
REMARK VINA RESULT:    -4.001     14.687     17.166
REMARK INTER + INTRA:          -4.911
REMARK INTER:                  -4.618
REMARK INTRA:                  -0.293
REMARK UNBOUND:                -0.091
REMARK SMILES O=c1c(O)c(-c2ccc(O)c(O)c2)oc2cc(O)cc(O)c12
REMARK SMILES IDX 5 1 3 2 2 3 1 4 22 5 20 6 19 7 17 8 16 9 15 10 14 11 6 12
REMARK SMILES IDX 7 13 8 14 9 15 13 16 11 17 10 18 12 20 4 22 21 24 18 26
REMARK H PARENT 10 19 12 21 4 23 21 25 18 27
REMARK Flexibility Score: inf
ROOT
ATOM      1  C   UNL     1      11.815  23.226  -2.673  1.00  0.00     0.180 A 
ATOM      2  C   UNL     1      10.839  23.792  -1.835  1.00  0.00     0.208 A 
ATOM      3  C   UNL     1      10.728  23.334  -0.513  1.00  0.00     0.238 A 
ATOM      4  O   UNL     1       9.817  23.806   0.216  1.00  0.00    -0.285 OA
ATOM      5  C   UNL     1      11.604  22.327  -0.040  1.00  0.00     0.111 A 
ATOM      6  C   UNL     1      11.607  21.817   1.293  1.00  0.00     0.134 A 
ATOM      7  C   UNL     1      12.430  20.729   1.614  1.00  0.00     0.093 A 
ATOM      8  C   UNL     1      13.298  20.178   0.667  1.00  0.00     0.123 A 
ATOM      9  C   UNL     1      13.344  20.710  -0.620  1.00  0.00     0.094 A 
ATOM     10  C   UNL     1      12.509  21.769  -0.980  1.00  0.00     0.146 A 
ATOM     11  O   UNL     1      12.578  22.238  -2.220  1.00  0.00    -0.452 OA
ENDROOT
BRANCH   1  12
ATOM     12  C   UNL     1      12.009  23.674  -4.071  1.00  0.00     0.025 A 
ATOM     13  C   UNL     1      13.013  24.606  -4.365  1.00  0.00     0.016 A 
ATOM     14  C   UNL     1      13.199  25.057  -5.672  1.00  0.00     0.051 A 
ATOM     15  C   UNL     1      12.378  24.601  -6.709  1.00  0.00     0.157 A 
ATOM     16  C   UNL     1      11.167  23.230  -5.105  1.00  0.00     0.062 A 
ATOM     17  C   UNL     1      11.344  23.679  -6.420  1.00  0.00     0.158 A 
BRANCH  15  18
ATOM     18  O   UNL     1      12.621  25.085  -7.996  1.00  0.00    -0.504 OA
ATOM     19  H   UNL     1      12.170  25.900  -8.387  1.00  0.00     0.293 HD
ENDBRANCH  15  18
BRANCH  17  20
ATOM     20  O   UNL     1      10.472  23.195  -7.398  1.00  0.00    -0.504 OA
ATOM     21  H   UNL     1      10.316  23.643  -8.289  1.00  0.00     0.293 HD
ENDBRANCH  17  20
ENDBRANCH   1  12
BRANCH   2  22
ATOM     22  O   UNL     1       9.970  24.769  -2.328  1.00  0.00    -0.502 OA
ATOM     23  H   UNL     1      10.036  25.131  -3.272  1.00  0.00     0.293 HD
ENDBRANCH   2  22
BRANCH   6  24
ATOM     24  O   UNL     1      10.849  22.354   2.337  1.00  0.00    -0.507 OA
ATOM     25  H   UNL     1      11.120  23.150   2.893  1.00  0.00     0.293 HD
ENDBRANCH   6  24
BRANCH   8  26
ATOM     26  O   UNL     1      14.124  19.107   0.999  1.00  0.00    -0.508 OA
ATOM     27  H   UNL     1      13.758  18.169   1.107  1.00  0.00     0.293 HD
ENDBRANCH   8  26
TORSDOF 6
ENDMDL
MODEL 4
REMARK VINA RESULT:    -3.998      1.827      6.735
REMARK INTER + INTRA:          -4.907
REMARK INTER:                  -4.710
REMARK INTRA:                  -0.197
REMARK UNBOUND:                -0.091
REMARK SMILES O=c1c(O)c(-c2ccc(O)c(O)c2)oc2cc(O)cc(O)c12
REMARK SMILES IDX 5 1 3 2 2 3 1 4 22 5 20 6 19 7 17 8 16 9 15 10 14 11 6 12
REMARK SMILES IDX 7 13 8 14 9 15 13 16 11 17 10 18 12 20 4 22 21 24 18 26
REMARK H PARENT 10 19 12 21 4 23 21 25 18 27
REMARK Flexibility Score: inf
ROOT
ATOM      1  C   UNL     1       0.683  23.690 -13.917  1.00  0.00     0.180 A 
ATOM      2  C   UNL     1       0.643  23.174 -15.224  1.00  0.00     0.208 A 
ATOM      3  C   UNL     1       1.847  23.002 -15.926  1.00  0.00     0.238 A 
ATOM      4  O   UNL     1       1.800  22.591 -17.114  1.00  0.00    -0.285 OA
ATOM      5  C   UNL     1       3.077  23.334 -15.306  1.00  0.00     0.111 A 
ATOM      6  C   UNL     1       4.359  23.162 -15.909  1.00  0.00     0.134 A 
ATOM      7  C   UNL     1       5.499  23.646 -15.255  1.00  0.00     0.093 A 
ATOM      8  C   UNL     1       5.410  24.234 -13.991  1.00  0.00     0.123 A 
ATOM      9  C   UNL     1       4.168  24.351 -13.370  1.00  0.00     0.094 A 
ATOM     10  C   UNL     1       3.009  23.912 -14.013  1.00  0.00     0.146 A 
ATOM     11  O   UNL     1       1.846  24.053 -13.389  1.00  0.00    -0.452 OA
ENDROOT
BRANCH   1  12
ATOM     12  C   UNL     1      -0.542  23.876 -13.106  1.00  0.00     0.025 A 
ATOM     13  C   UNL     1      -1.454  24.882 -13.454  1.00  0.00     0.016 A 
ATOM     14  C   UNL     1      -2.604  25.088 -12.691  1.00  0.00     0.051 A 
ATOM     15  C   UNL     1      -2.860  24.307 -11.559  1.00  0.00     0.157 A 
ATOM     16  C   UNL     1      -0.783  23.104 -11.957  1.00  0.00     0.062 A 
ATOM     17  C   UNL     1      -1.934  23.305 -11.183  1.00  0.00     0.158 A 
BRANCH  15  18
ATOM     18  O   UNL     1      -4.033  24.558 -10.844  1.00  0.00    -0.504 OA
ATOM     19  H   UNL     1      -4.212  25.411 -10.334  1.00  0.00     0.293 HD
ENDBRANCH  15  18
BRANCH  17  20
ATOM     20  O   UNL     1      -2.110  22.500 -10.056  1.00  0.00    -0.504 OA
ATOM     21  H   UNL     1      -2.085  21.491 -10.072  1.00  0.00     0.293 HD
ENDBRANCH  17  20
ENDBRANCH   1  12
BRANCH   2  22
ATOM     22  O   UNL     1      -0.583  22.874 -15.825  1.00  0.00    -0.502 OA
ATOM     23  H   UNL     1      -1.388  22.566 -15.293  1.00  0.00     0.293 HD
ENDBRANCH   2  22
BRANCH   6  24
ATOM     24  O   UNL     1       4.569  22.505 -17.125  1.00  0.00    -0.507 OA
ATOM     25  H   UNL     1       3.896  22.456 -17.875  1.00  0.00     0.293 HD
ENDBRANCH   6  24
BRANCH   8  26
ATOM     26  O   UNL     1       6.551  24.698 -13.341  1.00  0.00    -0.508 OA
ATOM     27  H   UNL     1       6.497  25.385 -12.599  1.00  0.00     0.293 HD
ENDBRANCH   8  26
TORSDOF 6
ENDMDL
MODEL 5
REMARK VINA RESULT:    -3.894     14.602     17.175
REMARK INTER + INTRA:          -4.782
REMARK INTER:                  -4.810
REMARK INTRA:                   0.028
REMARK UNBOUND:                -0.091
REMARK SMILES O=c1c(O)c(-c2ccc(O)c(O)c2)oc2cc(O)cc(O)c12
REMARK SMILES IDX 5 1 3 2 2 3 1 4 22 5 20 6 19 7 17 8 16 9 15 10 14 11 6 12
REMARK SMILES IDX 7 13 8 14 9 15 13 16 11 17 10 18 12 20 4 22 21 24 18 26
REMARK H PARENT 10 19 12 21 4 23 21 25 18 27
REMARK Flexibility Score: inf
ROOT
ATOM      1  C   UNL     1      12.198  23.099  -2.892  1.00  0.00     0.180 A 
ATOM      2  C   UNL     1      12.927  24.014  -2.111  1.00  0.00     0.208 A 
ATOM      3  C   UNL     1      13.005  23.814  -0.724  1.00  0.00     0.238 A 
ATOM      4  O   UNL     1      13.612  24.665  -0.023  1.00  0.00    -0.285 OA
ATOM      5  C   UNL     1      12.367  22.694  -0.136  1.00  0.00     0.111 A 
ATOM      6  C   UNL     1      12.415  22.371   1.253  1.00  0.00     0.134 A 
ATOM      7  C   UNL     1      11.639  21.313   1.743  1.00  0.00     0.093 A 
ATOM      8  C   UNL     1      10.871  20.524   0.883  1.00  0.00     0.123 A 
ATOM      9  C   UNL     1      10.865  20.796  -0.483  1.00  0.00     0.094 A 
ATOM     10  C   UNL     1      11.599  21.867  -0.997  1.00  0.00     0.146 A 
ATOM     11  O   UNL     1      11.558  22.096  -2.304  1.00  0.00    -0.452 OA
ENDROOT
BRANCH   1  12
ATOM     12  C   UNL     1      12.091  23.230  -4.363  1.00  0.00     0.025 A 
ATOM     13  C   UNL     1      13.250  23.439  -5.124  1.00  0.00     0.016 A 
ATOM     14  C   UNL     1      13.169  23.585  -6.509  1.00  0.00     0.051 A 
ATOM     15  C   UNL     1      11.933  23.543  -7.161  1.00  0.00     0.157 A 
ATOM     16  C   UNL     1      10.844  23.210  -5.011  1.00  0.00     0.062 A 
ATOM     17  C   UNL     1      10.753  23.358  -6.401  1.00  0.00     0.158 A 
BRANCH  15  18
ATOM     18  O   UNL     1      11.921  23.688  -8.550  1.00  0.00    -0.504 OA
ATOM     19  H   UNL     1      12.392  23.062  -9.187  1.00  0.00     0.293 HD
ENDBRANCH  15  18
BRANCH  17  20
ATOM     20  O   UNL     1       9.482  23.326  -6.978  1.00  0.00    -0.504 OA
ATOM     21  H   UNL     1       8.876  22.519  -6.965  1.00  0.00     0.293 HD
ENDBRANCH  17  20
ENDBRANCH   1  12
BRANCH   2  22
ATOM     22  O   UNL     1      13.529  25.124  -2.708  1.00  0.00    -0.502 OA
ATOM     23  H   UNL     1      14.501  25.127  -2.996  1.00  0.00     0.293 HD
ENDBRANCH   2  22
BRANCH   6  24
ATOM     24  O   UNL     1      13.222  23.036   2.182  1.00  0.00    -0.507 OA
ATOM     25  H   UNL     1      13.770  23.858   1.982  1.00  0.00     0.293 HD
ENDBRANCH   6  24
BRANCH   8  26
ATOM     26  O   UNL     1      10.115  19.464   1.377  1.00  0.00    -0.508 OA
ATOM     27  H   UNL     1      10.141  18.548   0.946  1.00  0.00     0.293 HD
ENDBRANCH   8  26
TORSDOF 6
ENDMDL
MODEL 6
REMARK VINA RESULT:    -3.864     13.518     16.141
REMARK INTER + INTRA:          -4.746
REMARK INTER:                  -5.112
REMARK INTRA:                   0.367
REMARK UNBOUND:                -0.091
REMARK SMILES O=c1c(O)c(-c2ccc(O)c(O)c2)oc2cc(O)cc(O)c12
REMARK SMILES IDX 5 1 3 2 2 3 1 4 22 5 20 6 19 7 17 8 16 9 15 10 14 11 6 12
REMARK SMILES IDX 7 13 8 14 9 15 13 16 11 17 10 18 12 20 4 22 21 24 18 26
REMARK H PARENT 10 19 12 21 4 23 21 25 18 27
REMARK Flexibility Score: inf
ROOT
ATOM      1  C   UNL     1      11.970  23.584  -4.161  1.00  0.00     0.180 A 
ATOM      2  C   UNL     1      13.071  22.892  -3.627  1.00  0.00     0.208 A 
ATOM      3  C   UNL     1      13.109  22.636  -2.247  1.00  0.00     0.238 A 
ATOM      4  O   UNL     1      14.122  22.064  -1.766  1.00  0.00    -0.285 OA
ATOM      5  C   UNL     1      12.040  23.061  -1.421  1.00  0.00     0.111 A 
ATOM      6  C   UNL     1      11.956  22.820  -0.017  1.00  0.00     0.134 A 
ATOM      7  C   UNL     1      10.917  23.400   0.722  1.00  0.00     0.093 A 
ATOM      8  C   UNL     1       9.923  24.157   0.096  1.00  0.00     0.123 A 
ATOM      9  C   UNL     1       9.965  24.348  -1.284  1.00  0.00     0.094 A 
ATOM     10  C   UNL     1      11.009  23.813  -2.042  1.00  0.00     0.146 A 
ATOM     11  O   UNL     1      11.016  24.027  -3.352  1.00  0.00    -0.452 OA
ENDROOT
BRANCH   1  12
ATOM     12  C   UNL     1      11.847  23.869  -5.609  1.00  0.00     0.025 A 
ATOM     13  C   UNL     1      10.931  24.836  -6.047  1.00  0.00     0.016 A 
ATOM     14  C   UNL     1      10.785  25.105  -7.409  1.00  0.00     0.051 A 
ATOM     15  C   UNL     1      11.536  24.406  -8.360  1.00  0.00     0.157 A 
ATOM     16  C   UNL     1      12.587  23.148  -6.562  1.00  0.00     0.062 A 
ATOM     17  C   UNL     1      12.445  23.410  -7.931  1.00  0.00     0.158 A 
BRANCH  15  18
ATOM     18  O   UNL     1      11.348  24.728  -9.706  1.00  0.00    -0.504 OA
ATOM     19  H   UNL     1      11.545  25.636 -10.102  1.00  0.00     0.293 HD
ENDBRANCH  15  18
BRANCH  17  20
ATOM     20  O   UNL     1      13.213  22.657  -8.822  1.00  0.00    -0.504 OA
ATOM     21  H   UNL     1      12.904  21.794  -9.245  1.00  0.00     0.293 HD
ENDBRANCH  17  20
ENDBRANCH   1  12
BRANCH   2  22
ATOM     22  O   UNL     1      14.125  22.500  -4.455  1.00  0.00    -0.502 OA
ATOM     23  H   UNL     1      14.320  22.953  -5.340  1.00  0.00     0.293 HD
ENDBRANCH   2  22
BRANCH   6  24
ATOM     24  O   UNL     1      12.843  22.003   0.690  1.00  0.00    -0.507 OA
ATOM     25  H   UNL     1      12.725  21.011   0.827  1.00  0.00     0.293 HD
ENDBRANCH   6  24
BRANCH   8  26
ATOM     26  O   UNL     1       8.884  24.717   0.836  1.00  0.00    -0.508 OA
ATOM     27  H   UNL     1       8.038  24.199   1.040  1.00  0.00     0.293 HD
ENDBRANCH   8  26
TORSDOF 6
ENDMDL
MODEL 7
REMARK VINA RESULT:    -3.848     16.360     18.830
REMARK INTER + INTRA:          -4.726
REMARK INTER:                  -4.765
REMARK INTRA:                   0.039
REMARK UNBOUND:                -0.091
REMARK SMILES O=c1c(O)c(-c2ccc(O)c(O)c2)oc2cc(O)cc(O)c12
REMARK SMILES IDX 5 1 3 2 2 3 1 4 22 5 20 6 19 7 17 8 16 9 15 10 14 11 6 12
REMARK SMILES IDX 7 13 8 14 9 15 13 16 11 17 10 18 12 20 4 22 21 24 18 26
REMARK H PARENT 10 19 12 21 4 23 21 25 18 27
REMARK Flexibility Score: inf
ROOT
ATOM      1  C   UNL     1       7.039  22.757   2.145  1.00  0.00     0.180 A 
ATOM      2  C   UNL     1       7.357  21.461   2.586  1.00  0.00     0.208 A 
ATOM      3  C   UNL     1       8.675  20.999   2.444  1.00  0.00     0.238 A 
ATOM      4  O   UNL     1       8.943  19.819   2.791  1.00  0.00    -0.285 OA
ATOM      5  C   UNL     1       9.661  21.843   1.876  1.00  0.00     0.111 A 
ATOM      6  C   UNL     1      11.036  21.492   1.721  1.00  0.00     0.134 A 
ATOM      7  C   UNL     1      11.894  22.355   1.028  1.00  0.00     0.093 A 
ATOM      8  C   UNL     1      11.442  23.585   0.543  1.00  0.00     0.123 A 
ATOM      9  C   UNL     1      10.116  23.961   0.743  1.00  0.00     0.094 A 
ATOM     10  C   UNL     1       9.227  23.106   1.397  1.00  0.00     0.146 A 
ATOM     11  O   UNL     1       7.969  23.500   1.558  1.00  0.00    -0.452 OA
ENDROOT
BRANCH   1  12
ATOM     12  C   UNL     1       5.677  23.323   2.284  1.00  0.00     0.025 A 
ATOM     13  C   UNL     1       5.510  24.581   2.880  1.00  0.00     0.016 A 
ATOM     14  C   UNL     1       4.234  25.123   3.040  1.00  0.00     0.051 A 
ATOM     15  C   UNL     1       3.100  24.418   2.623  1.00  0.00     0.157 A 
ATOM     16  C   UNL     1       4.540  22.601   1.884  1.00  0.00     0.062 A 
ATOM     17  C   UNL     1       3.255  23.136   2.042  1.00  0.00     0.158 A 
BRANCH  15  18
ATOM     18  O   UNL     1       1.853  25.020   2.804  1.00  0.00    -0.504 OA
ATOM     19  H   UNL     1       1.000  24.692   2.373  1.00  0.00     0.293 HD
ENDBRANCH  15  18
BRANCH  17  20
ATOM     20  O   UNL     1       2.170  22.364   1.621  1.00  0.00    -0.504 OA
ATOM     21  H   UNL     1       1.310  22.268   2.140  1.00  0.00     0.293 HD
ENDBRANCH  17  20
ENDBRANCH   1  12
BRANCH   2  22
ATOM     22  O   UNL     1       6.365  20.637   3.123  1.00  0.00    -0.502 OA
ATOM     23  H   UNL     1       6.431  19.626   3.109  1.00  0.00     0.293 HD
ENDBRANCH   2  22
BRANCH   6  24
ATOM     24  O   UNL     1      11.610  20.332   2.248  1.00  0.00    -0.507 OA
ATOM     25  H   UNL     1      12.559  20.261   2.581  1.00  0.00     0.293 HD
ENDBRANCH   6  24
BRANCH   8  26
ATOM     26  O   UNL     1      12.307  24.444  -0.132  1.00  0.00    -0.508 OA
ATOM     27  H   UNL     1      12.499  25.378   0.209  1.00  0.00     0.293 HD
ENDBRANCH   8  26
TORSDOF 6
ENDMDL
MODEL 8
REMARK VINA RESULT:    -3.794      1.514      6.736
REMARK INTER + INTRA:          -4.662
REMARK INTER:                  -4.424
REMARK INTRA:                  -0.238
REMARK UNBOUND:                -0.091
REMARK SMILES O=c1c(O)c(-c2ccc(O)c(O)c2)oc2cc(O)cc(O)c12
REMARK SMILES IDX 5 1 3 2 2 3 1 4 22 5 20 6 19 7 17 8 16 9 15 10 14 11 6 12
REMARK SMILES IDX 7 13 8 14 9 15 13 16 11 17 10 18 12 20 4 22 21 24 18 26
REMARK H PARENT 10 19 12 21 4 23 21 25 18 27
REMARK Flexibility Score: inf
ROOT
ATOM      1  C   UNL     1      -1.167  23.733 -12.975  1.00  0.00     0.180 A 
ATOM      2  C   UNL     1      -1.441  24.383 -14.191  1.00  0.00     0.208 A 
ATOM      3  C   UNL     1      -0.421  24.495 -15.148  1.00  0.00     0.238 A 
ATOM      4  O   UNL     1      -0.655  25.125 -16.212  1.00  0.00    -0.285 OA
ATOM      5  C   UNL     1       0.856  23.941 -14.884  1.00  0.00     0.111 A 
ATOM      6  C   UNL     1       1.952  23.960 -15.799  1.00  0.00     0.134 A 
ATOM      7  C   UNL     1       3.207  23.499 -15.383  1.00  0.00     0.093 A 
ATOM      8  C   UNL     1       3.389  22.958 -14.107  1.00  0.00     0.123 A 
ATOM      9  C   UNL     1       2.310  22.881 -13.229  1.00  0.00     0.094 A 
ATOM     10  C   UNL     1       1.055  23.367 -13.602  1.00  0.00     0.146 A 
ATOM     11  O   UNL     1       0.057  23.282 -12.731  1.00  0.00    -0.452 OA
ENDROOT
BRANCH   1  12
ATOM     12  C   UNL     1      -2.199  23.555 -11.928  1.00  0.00     0.025 A 
ATOM     13  C   UNL     1      -3.248  22.649 -12.138  1.00  0.00     0.016 A 
ATOM     14  C   UNL     1      -4.242  22.482 -11.173  1.00  0.00     0.051 A 
ATOM     15  C   UNL     1      -4.219  23.223  -9.988  1.00  0.00     0.157 A 
ATOM     16  C   UNL     1      -2.184  24.319 -10.748  1.00  0.00     0.062 A 
ATOM     17  C   UNL     1      -3.179  24.160  -9.775  1.00  0.00     0.158 A 
BRANCH  15  18
ATOM     18  O   UNL     1      -5.239  23.003  -9.059  1.00  0.00    -0.504 OA
ATOM     19  H   UNL     1      -6.167  23.393  -9.137  1.00  0.00     0.293 HD
ENDBRANCH  15  18
BRANCH  17  20
ATOM     20  O   UNL     1      -3.101  24.950  -8.626  1.00  0.00    -0.504 OA
ATOM     21  H   UNL     1      -3.436  24.663  -7.718  1.00  0.00     0.293 HD
ENDBRANCH  17  20
ENDBRANCH   1  12
BRANCH   2  22
ATOM     22  O   UNL     1      -2.701  24.941 -14.422  1.00  0.00    -0.502 OA
ATOM     23  H   UNL     1      -2.832  25.782 -14.972  1.00  0.00     0.293 HD
ENDBRANCH   2  22
BRANCH   6  24
ATOM     24  O   UNL     1       1.855  24.393 -17.125  1.00  0.00    -0.507 OA
ATOM     25  H   UNL     1       1.394  25.239 -17.421  1.00  0.00     0.293 HD
ENDBRANCH   6  24
BRANCH   8  26
ATOM     26  O   UNL     1       4.637  22.487 -13.707  1.00  0.00    -0.508 OA
ATOM     27  H   UNL     1       5.130  22.893 -12.921  1.00  0.00     0.293 HD
ENDBRANCH   8  26
TORSDOF 6
ENDMDL
MODEL 9
REMARK VINA RESULT:    -3.728      1.033      1.250
REMARK INTER + INTRA:          -4.583
REMARK INTER:                  -4.491
REMARK INTRA:                  -0.091
REMARK UNBOUND:                -0.091
REMARK SMILES O=c1c(O)c(-c2ccc(O)c(O)c2)oc2cc(O)cc(O)c12
REMARK SMILES IDX 5 1 3 2 2 3 1 4 22 5 20 6 19 7 17 8 16 9 15 10 14 11 6 12
REMARK SMILES IDX 7 13 8 14 9 15 13 16 11 17 10 18 12 20 4 22 21 24 18 26
REMARK H PARENT 10 19 12 21 4 23 21 25 18 27
REMARK Flexibility Score: inf
ROOT
ATOM      1  C   UNL     1      -0.954  23.527 -13.880  1.00  0.00     0.180 A 
ATOM      2  C   UNL     1      -2.014  23.144 -14.720  1.00  0.00     0.208 A 
ATOM      3  C   UNL     1      -3.276  22.897 -14.155  1.00  0.00     0.238 A 
ATOM      4  O   UNL     1      -4.207  22.502 -14.903  1.00  0.00    -0.285 OA
ATOM      5  C   UNL     1      -3.465  23.053 -12.760  1.00  0.00     0.111 A 
ATOM      6  C   UNL     1      -4.710  22.869 -12.086  1.00  0.00     0.134 A 
ATOM      7  C   UNL     1      -4.752  22.921 -10.687  1.00  0.00     0.093 A 
ATOM      8  C   UNL     1      -3.607  23.218  -9.942  1.00  0.00     0.123 A 
ATOM      9  C   UNL     1      -2.400  23.457 -10.596  1.00  0.00     0.094 A 
ATOM     10  C   UNL     1      -2.319  23.375 -11.987  1.00  0.00     0.146 A 
ATOM     11  O   UNL     1      -1.147  23.601 -12.569  1.00  0.00    -0.452 OA
ENDROOT
BRANCH   1  12
ATOM     12  C   UNL     1       0.397  23.828 -14.406  1.00  0.00     0.025 A 
ATOM     13  C   UNL     1       0.555  24.832 -15.371  1.00  0.00     0.016 A 
ATOM     14  C   UNL     1       1.817  25.117 -15.895  1.00  0.00     0.051 A 
ATOM     15  C   UNL     1       2.942  24.398 -15.479  1.00  0.00     0.157 A 
ATOM     16  C   UNL     1       1.521  23.087 -14.001  1.00  0.00     0.062 A 
ATOM     17  C   UNL     1       2.792  23.364 -14.523  1.00  0.00     0.158 A 
BRANCH  15  18
ATOM     18  O   UNL     1       4.177  24.737 -16.036  1.00  0.00    -0.504 OA
ATOM     19  H   UNL     1       4.433  25.674 -16.315  1.00  0.00     0.293 HD
ENDBRANCH  15  18
BRANCH  17  20
ATOM     20  O   UNL     1       3.864  22.591 -14.075  1.00  0.00    -0.504 OA
ATOM     21  H   UNL     1       4.826  22.895 -14.092  1.00  0.00     0.293 HD
ENDBRANCH  17  20
ENDBRANCH   1  12
BRANCH   2  22
ATOM     22  O   UNL     1      -1.800  22.975 -16.090  1.00  0.00    -0.502 OA
ATOM     23  H   UNL     1      -1.291  22.185 -16.469  1.00  0.00     0.293 HD
ENDBRANCH   2  22
BRANCH   6  24
ATOM     24  O   UNL     1      -5.928  22.661 -12.739  1.00  0.00    -0.507 OA
ATOM     25  H   UNL     1      -6.027  22.238 -13.649  1.00  0.00     0.293 HD
ENDBRANCH   6  24
BRANCH   8  26
ATOM     26  O   UNL     1      -3.662  23.283  -8.552  1.00  0.00    -0.508 OA
ATOM     27  H   UNL     1      -2.857  23.061  -7.978  1.00  0.00     0.293 HD
ENDBRANCH   8  26
TORSDOF 6
ENDMDL
