MODEL 1
REMARK VINA RESULT:    -3.131      0.000      0.000
REMARK INTER + INTRA:         -10.796
REMARK INTER:                  -6.791
REMARK INTRA:                  -4.005
REMARK UNBOUND:                -4.005
REMARK SMILES CCCCCCCCCCCCCCCCCCCCCC(=O)[O-]
REMARK SMILES IDX 12 1 11 2 10 3 9 4 8 5 7 6 6 7 5 8 4 9 3 10 2 11 1 12 13 13
REMARK SMILES IDX 14 14 15 15 16 16 17 17 18 18 19 19 20 20 21 21 22 22 23 23
REMARK SMILES IDX 24 24
REMARK H PARENT
REMARK Flexibility Score: inf
ROOT
ATOM      1  C   UNL     1      10.196  43.622 152.519  1.00  0.00     0.000 C 
ENDROOT
BRANCH   1   2
ATOM      2  C   UNL     1      10.502  43.458 151.020  1.00  0.00     0.000 C 
BRANCH   2   3
ATOM      3  C   UNL     1      11.897  42.842 150.774  1.00  0.00     0.000 C 
BRANCH   3   4
ATOM      4  C   UNL     1      11.853  41.366 150.338  1.00  0.00    -0.000 C 
BRANCH   4   5
ATOM      5  C   UNL     1      11.996  40.390 151.517  1.00  0.00    -0.000 C 
BRANCH   5   6
ATOM      6  C   UNL     1      10.647  39.833 151.997  1.00  0.00    -0.000 C 
BRANCH   6   7
ATOM      7  C   UNL     1       9.574  39.846 150.895  1.00  0.00    -0.000 C 
BRANCH   7   8
ATOM      8  C   UNL     1       8.214  40.351 151.402  1.00  0.00    -0.000 C 
BRANCH   8   9
ATOM      9  C   UNL     1       8.086  40.279 152.934  1.00  0.00    -0.000 C 
BRANCH   9  10
ATOM     10  C   UNL     1       6.896  41.110 153.460  1.00  0.00    -0.000 C 
BRANCH  10  11
ATOM     11  C   UNL     1       6.745  42.476 152.769  1.00  0.00    -0.003 C 
ATOM     12  C   UNL     1       5.481  43.223 153.191  1.00  0.00     0.004 C 
ENDBRANCH  10  11
ENDBRANCH   9  10
ENDBRANCH   8   9
ENDBRANCH   7   8
ENDBRANCH   6   7
ENDBRANCH   5   6
ENDBRANCH   4   5
ENDBRANCH   3   4
ENDBRANCH   2   3
ENDBRANCH   1   2
BRANCH   1  13
ATOM     13  C   UNL     1      11.464  43.821 153.363  1.00  0.00     0.000 C 
BRANCH  13  14
ATOM     14  C   UNL     1      11.564  42.817 154.525  1.00  0.00     0.000 C 
BRANCH  14  15
ATOM     15  C   UNL     1      10.195  42.252 154.938  1.00  0.00     0.000 C 
BRANCH  15  16
ATOM     16  C   UNL     1       9.638  42.921 156.207  1.00  0.00     0.000 C 
BRANCH  16  17
ATOM     17  C   UNL     1       8.129  43.199 156.113  1.00  0.00     0.000 C 
BRANCH  17  18
ATOM     18  C   UNL     1       7.803  44.700 156.028  1.00  0.00     0.000 C 
BRANCH  18  19
ATOM     19  C   UNL     1       8.634  45.533 157.027  1.00  0.00     0.000 C 
BRANCH  19  20
ATOM     20  C   UNL     1       9.294  46.772 156.398  1.00  0.00     0.006 C 
BRANCH  20  21
ATOM     21  C   UNL     1       9.667  46.567 154.926  1.00  0.00     0.053 C 
BRANCH  21  22
ATOM     22  C   UNL     1       9.926  47.883 154.265  1.00  0.00     0.041 C 
ATOM     23  O   UNL     1      10.376  48.852 154.933  1.00  0.00    -0.550 OA
ATOM     24  O   UNL     1       9.725  48.027 152.898  1.00  0.00    -0.550 OA
ENDBRANCH  21  22
ENDBRANCH  20  21
ENDBRANCH  19  20
ENDBRANCH  18  19
ENDBRANCH  17  18
ENDBRANCH  16  17
ENDBRANCH  15  16
ENDBRANCH  14  15
ENDBRANCH  13  14
ENDBRANCH   1  13
TORSDOF 20
ENDMDL
MODEL 2
REMARK VINA RESULT:    -2.979      2.836      6.252
REMARK INTER + INTRA:         -10.468
REMARK INTER:                  -6.783
REMARK INTRA:                  -3.685
REMARK UNBOUND:                -4.005
REMARK SMILES CCCCCCCCCCCCCCCCCCCCCC(=O)[O-]
REMARK SMILES IDX 12 1 11 2 10 3 9 4 8 5 7 6 6 7 5 8 4 9 3 10 2 11 1 12 13 13
REMARK SMILES IDX 14 14 15 15 16 16 17 17 18 18 19 19 20 20 21 21 22 22 23 23
REMARK SMILES IDX 24 24
REMARK H PARENT
REMARK Flexibility Score: inf
ROOT
ATOM      1  C   UNL     1      12.668  42.886 149.852  1.00  0.00     0.000 C 
ENDROOT
BRANCH   1   2
ATOM      2  C   UNL     1      11.203  43.100 150.269  1.00  0.00     0.000 C 
BRANCH   2   3
ATOM      3  C   UNL     1      11.072  43.501 151.755  1.00  0.00     0.000 C 
BRANCH   3   4
ATOM      4  C   UNL     1      12.219  42.980 152.639  1.00  0.00    -0.000 C 
BRANCH   4   5
ATOM      5  C   UNL     1      11.871  42.987 154.136  1.00  0.00    -0.000 C 
BRANCH   5   6
ATOM      6  C   UNL     1      10.585  42.209 154.453  1.00  0.00    -0.000 C 
BRANCH   6   7
ATOM      7  C   UNL     1      10.102  42.427 155.897  1.00  0.00    -0.000 C 
BRANCH   7   8
ATOM      8  C   UNL     1       9.015  43.509 155.998  1.00  0.00    -0.000 C 
BRANCH   8   9
ATOM      9  C   UNL     1       8.369  43.832 154.639  1.00  0.00    -0.000 C 
BRANCH   9  10
ATOM     10  C   UNL     1       8.347  45.348 154.350  1.00  0.00    -0.000 C 
BRANCH  10  11
ATOM     11  C   UNL     1       9.746  45.973 154.225  1.00  0.00    -0.003 C 
ATOM     12  C   UNL     1       9.941  47.192 155.125  1.00  0.00     0.004 C 
ENDBRANCH  10  11
ENDBRANCH   9  10
ENDBRANCH   8   9
ENDBRANCH   7   8
ENDBRANCH   6   7
ENDBRANCH   5   6
ENDBRANCH   4   5
ENDBRANCH   3   4
ENDBRANCH   2   3
ENDBRANCH   1   2
BRANCH   1  13
ATOM     13  C   UNL     1      12.799  42.178 148.495  1.00  0.00     0.000 C 
BRANCH  13  14
ATOM     14  C   UNL     1      11.812  41.007 148.341  1.00  0.00     0.000 C 
BRANCH  14  15
ATOM     15  C   UNL     1      12.484  39.638 148.538  1.00  0.00     0.000 C 
BRANCH  15  16
ATOM     16  C   UNL     1      11.818  38.808 149.649  1.00  0.00     0.000 C 
BRANCH  16  17
ATOM     17  C   UNL     1      11.985  39.441 151.039  1.00  0.00     0.000 C 
BRANCH  17  18
ATOM     18  C   UNL     1      10.641  39.736 151.727  1.00  0.00     0.000 C 
BRANCH  18  19
ATOM     19  C   UNL     1       9.441  39.500 150.784  1.00  0.00     0.000 C 
BRANCH  19  20
ATOM     20  C   UNL     1       8.311  40.530 150.954  1.00  0.00     0.006 C 
BRANCH  20  21
ATOM     21  C   UNL     1       7.959  40.794 152.422  1.00  0.00     0.053 C 
BRANCH  21  22
ATOM     22  C   UNL     1       6.499  40.567 152.657  1.00  0.00     0.041 C 
ATOM     23  O   UNL     1       5.751  40.207 151.709  1.00  0.00    -0.550 OA
ATOM     24  O   UNL     1       5.972  40.698 153.935  1.00  0.00    -0.550 OA
ENDBRANCH  21  22
ENDBRANCH  20  21
ENDBRANCH  19  20
ENDBRANCH  18  19
ENDBRANCH  17  18
ENDBRANCH  16  17
ENDBRANCH  15  16
ENDBRANCH  14  15
ENDBRANCH  13  14
ENDBRANCH   1  13
TORSDOF 20
ENDMDL
MODEL 3
REMARK VINA RESULT:    -2.924      1.429      3.799
REMARK INTER + INTRA:         -10.348
REMARK INTER:                  -6.679
REMARK INTRA:                  -3.669
REMARK UNBOUND:                -4.005
REMARK SMILES CCCCCCCCCCCCCCCCCCCCCC(=O)[O-]
REMARK SMILES IDX 12 1 11 2 10 3 9 4 8 5 7 6 6 7 5 8 4 9 3 10 2 11 1 12 13 13
REMARK SMILES IDX 14 14 15 15 16 16 17 17 18 18 19 19 20 20 21 21 22 22 23 23
REMARK SMILES IDX 24 24
REMARK H PARENT
REMARK Flexibility Score: inf
ROOT
ATOM      1  C   UNL     1      12.000  40.934 151.866  1.00  0.00     0.000 C 
ENDROOT
BRANCH   1   2
ATOM      2  C   UNL     1      11.584  42.366 151.488  1.00  0.00     0.000 C 
BRANCH   2   3
ATOM      3  C   UNL     1      12.280  43.427 152.368  1.00  0.00     0.000 C 
BRANCH   3   4
ATOM      4  C   UNL     1      12.203  43.127 153.876  1.00  0.00    -0.000 C 
BRANCH   4   5
ATOM      5  C   UNL     1      10.796  43.340 154.457  1.00  0.00    -0.000 C 
BRANCH   5   6
ATOM      6  C   UNL     1      10.477  42.381 155.614  1.00  0.00    -0.000 C 
BRANCH   6   7
ATOM      7  C   UNL     1       9.396  42.932 156.560  1.00  0.00    -0.000 C 
BRANCH   7   8
ATOM      8  C   UNL     1       8.114  43.339 155.817  1.00  0.00    -0.000 C 
BRANCH   8   9
ATOM      9  C   UNL     1       7.133  44.124 156.707  1.00  0.00    -0.000 C 
BRANCH   9  10
ATOM     10  C   UNL     1       5.728  43.487 156.729  1.00  0.00    -0.000 C 
BRANCH  10  11
ATOM     11  C   UNL     1       5.503  42.449 155.616  1.00  0.00    -0.003 C 
ATOM     12  C   UNL     1       4.650  42.981 154.465  1.00  0.00     0.004 C 
ENDBRANCH  10  11
ENDBRANCH   9  10
ENDBRANCH   8   9
ENDBRANCH   7   8
ENDBRANCH   6   7
ENDBRANCH   5   6
ENDBRANCH   4   5
ENDBRANCH   3   4
ENDBRANCH   2   3
ENDBRANCH   1   2
BRANCH   1  13
ATOM     13  C   UNL     1      10.841  39.932 151.751  1.00  0.00     0.000 C 
BRANCH  13  14
ATOM     14  C   UNL     1       9.785  40.120 152.855  1.00  0.00     0.000 C 
BRANCH  14  15
ATOM     15  C   UNL     1       8.354  40.192 152.298  1.00  0.00     0.000 C 
BRANCH  15  16
ATOM     16  C   UNL     1       7.633  41.494 152.690  1.00  0.00     0.000 C 
BRANCH  16  17
ATOM     17  C   UNL     1       8.032  42.681 151.799  1.00  0.00     0.000 C 
BRANCH  17  18
ATOM     18  C   UNL     1       7.618  44.038 152.391  1.00  0.00     0.000 C 
BRANCH  18  19
ATOM     19  C   UNL     1       8.700  45.120 152.178  1.00  0.00     0.000 C 
BRANCH  19  20
ATOM     20  C   UNL     1       8.418  46.431 152.932  1.00  0.00     0.006 C 
BRANCH  20  21
ATOM     21  C   UNL     1       9.640  47.353 153.004  1.00  0.00     0.053 C 
BRANCH  21  22
ATOM     22  C   UNL     1       9.994  47.639 154.429  1.00  0.00     0.041 C 
ATOM     23  O   UNL     1      10.469  48.760 154.753  1.00  0.00    -0.550 OA
ATOM     24  O   UNL     1       9.748  46.689 155.411  1.00  0.00    -0.550 OA
ENDBRANCH  21  22
ENDBRANCH  20  21
ENDBRANCH  19  20
ENDBRANCH  18  19
ENDBRANCH  17  18
ENDBRANCH  16  17
ENDBRANCH  15  16
ENDBRANCH  14  15
ENDBRANCH  13  14
ENDBRANCH   1  13
TORSDOF 20
ENDMDL
MODEL 4
REMARK VINA RESULT:    -2.909      3.813      6.304
REMARK INTER + INTRA:         -10.316
REMARK INTER:                  -6.285
REMARK INTRA:                  -4.031
REMARK UNBOUND:                -4.005
REMARK SMILES CCCCCCCCCCCCCCCCCCCCCC(=O)[O-]
REMARK SMILES IDX 12 1 11 2 10 3 9 4 8 5 7 6 6 7 5 8 4 9 3 10 2 11 1 12 13 13
REMARK SMILES IDX 14 14 15 15 16 16 17 17 18 18 19 19 20 20 21 21 22 22 23 23
REMARK SMILES IDX 24 24
REMARK H PARENT
REMARK Flexibility Score: inf
ROOT
ATOM      1  C   UNL     1      12.068  42.932 151.878  1.00  0.00     0.000 C 
ENDROOT
BRANCH   1   2
ATOM      2  C   UNL     1      12.203  42.607 153.375  1.00  0.00     0.000 C 
BRANCH   2   3
ATOM      3  C   UNL     1      11.066  43.232 154.212  1.00  0.00     0.000 C 
BRANCH   3   4
ATOM      4  C   UNL     1      10.725  42.436 155.485  1.00  0.00    -0.000 C 
BRANCH   4   5
ATOM      5  C   UNL     1       9.335  42.772 156.047  1.00  0.00    -0.000 C 
BRANCH   5   6
ATOM      6  C   UNL     1       8.622  43.877 155.252  1.00  0.00    -0.000 C 
BRANCH   6   7
ATOM      7  C   UNL     1       7.135  43.566 155.008  1.00  0.00    -0.000 C 
BRANCH   7   8
ATOM      8  C   UNL     1       6.624  44.137 153.676  1.00  0.00    -0.000 C 
BRANCH   8   9
ATOM      9  C   UNL     1       7.761  44.642 152.769  1.00  0.00    -0.000 C 
BRANCH   9  10
ATOM     10  C   UNL     1       7.846  43.853 151.446  1.00  0.00    -0.000 C 
BRANCH  10  11
ATOM     11  C   UNL     1       8.991  44.311 150.527  1.00  0.00    -0.003 C 
ATOM     12  C   UNL     1       9.177  43.409 149.308  1.00  0.00     0.004 C 
ENDBRANCH  10  11
ENDBRANCH   9  10
ENDBRANCH   8   9
ENDBRANCH   7   8
ENDBRANCH   6   7
ENDBRANCH   5   6
ENDBRANCH   4   5
ENDBRANCH   3   4
ENDBRANCH   2   3
ENDBRANCH   1   2
BRANCH   1  13
ATOM     13  C   UNL     1      11.986  41.670 151.004  1.00  0.00     0.000 C 
BRANCH  13  14
ATOM     14  C   UNL     1      11.757  40.392 151.830  1.00  0.00     0.000 C 
BRANCH  14  15
ATOM     15  C   UNL     1      10.546  39.581 151.342  1.00  0.00     0.000 C 
BRANCH  15  16
ATOM     16  C   UNL     1       9.225  40.360 151.466  1.00  0.00     0.000 C 
BRANCH  16  17
ATOM     17  C   UNL     1       8.896  40.736 152.920  1.00  0.00     0.000 C 
BRANCH  17  18
ATOM     18  C   UNL     1       7.567  40.134 153.407  1.00  0.00     0.000 C 
BRANCH  18  19
ATOM     19  C   UNL     1       6.384  40.524 152.495  1.00  0.00     0.000 C 
BRANCH  19  20
ATOM     20  C   UNL     1       5.081  40.811 153.264  1.00  0.00     0.006 C 
BRANCH  20  21
ATOM     21  C   UNL     1       4.954  39.989 154.551  1.00  0.00     0.053 C 
BRANCH  21  22
ATOM     22  C   UNL     1       3.944  38.900 154.378  1.00  0.00     0.041 C 
ATOM     23  O   UNL     1       3.809  38.012 155.261  1.00  0.00    -0.550 OA
ATOM     24  O   UNL     1       3.110  38.896 153.267  1.00  0.00    -0.550 OA
ENDBRANCH  21  22
ENDBRANCH  20  21
ENDBRANCH  19  20
ENDBRANCH  18  19
ENDBRANCH  17  18
ENDBRANCH  16  17
ENDBRANCH  15  16
ENDBRANCH  14  15
ENDBRANCH  13  14
ENDBRANCH   1  13
TORSDOF 20
ENDMDL
MODEL 5
REMARK VINA RESULT:    -2.858      1.181      2.079
REMARK INTER + INTRA:         -10.205
REMARK INTER:                  -6.631
REMARK INTRA:                  -3.574
REMARK UNBOUND:                -4.005
REMARK SMILES CCCCCCCCCCCCCCCCCCCCCC(=O)[O-]
REMARK SMILES IDX 12 1 11 2 10 3 9 4 8 5 7 6 6 7 5 8 4 9 3 10 2 11 1 12 13 13
REMARK SMILES IDX 14 14 15 15 16 16 17 17 18 18 19 19 20 20 21 21 22 22 23 23
REMARK SMILES IDX 24 24
REMARK H PARENT
REMARK Flexibility Score: inf
ROOT
ATOM      1  C   UNL     1      11.889  41.932 150.997  1.00  0.00     0.000 C 
ENDROOT
BRANCH   1   2
ATOM      2  C   UNL     1      11.960  40.654 151.850  1.00  0.00     0.000 C 
BRANCH   2   3
ATOM      3  C   UNL     1      11.882  39.374 150.990  1.00  0.00     0.000 C 
BRANCH   3   4
ATOM      4  C   UNL     1      11.224  39.591 149.616  1.00  0.00    -0.000 C 
BRANCH   4   5
ATOM      5  C   UNL     1       9.805  39.006 149.533  1.00  0.00    -0.000 C 
BRANCH   5   6
ATOM      6  C   UNL     1       8.713  40.086 149.534  1.00  0.00    -0.000 C 
BRANCH   6   7
ATOM      7  C   UNL     1       7.711  39.915 150.690  1.00  0.00    -0.000 C 
BRANCH   7   8
ATOM      8  C   UNL     1       8.340  40.199 152.063  1.00  0.00    -0.000 C 
BRANCH   8   9
ATOM      9  C   UNL     1       7.830  41.508 152.692  1.00  0.00    -0.000 C 
BRANCH   9  10
ATOM     10  C   UNL     1       8.410  42.755 151.993  1.00  0.00    -0.000 C 
BRANCH  10  11
ATOM     11  C   UNL     1       7.448  43.955 151.973  1.00  0.00    -0.003 C 
ATOM     12  C   UNL     1       6.161  43.704 152.757  1.00  0.00     0.004 C 
ENDBRANCH  10  11
ENDBRANCH   9  10
ENDBRANCH   8   9
ENDBRANCH   7   8
ENDBRANCH   6   7
ENDBRANCH   5   6
ENDBRANCH   4   5
ENDBRANCH   3   4
ENDBRANCH   2   3
ENDBRANCH   1   2
BRANCH   1  13
ATOM     13  C   UNL     1      12.159  43.205 151.815  1.00  0.00     0.000 C 
BRANCH  13  14
ATOM     14  C   UNL     1      12.376  42.912 153.310  1.00  0.00     0.000 C 
BRANCH  14  15
ATOM     15  C   UNL     1      11.236  43.452 154.190  1.00  0.00     0.000 C 
BRANCH  15  16
ATOM     16  C   UNL     1      10.499  42.338 154.952  1.00  0.00     0.000 C 
BRANCH  16  17
ATOM     17  C   UNL     1       9.682  42.875 156.138  1.00  0.00     0.000 C 
BRANCH  17  18
ATOM     18  C   UNL     1       8.447  43.679 155.698  1.00  0.00     0.000 C 
BRANCH  18  19
ATOM     19  C   UNL     1       8.583  45.181 156.027  1.00  0.00     0.000 C 
BRANCH  19  20
ATOM     20  C   UNL     1       8.795  46.068 154.787  1.00  0.00     0.006 C 
BRANCH  20  21
ATOM     21  C   UNL     1      10.096  46.877 154.847  1.00  0.00     0.053 C 
BRANCH  21  22
ATOM     22  C   UNL     1       9.800  48.323 155.085  1.00  0.00     0.041 C 
ATOM     23  O   UNL     1      10.512  49.214 154.549  1.00  0.00    -0.550 OA
ATOM     24  O   UNL     1       8.704  48.691 155.854  1.00  0.00    -0.550 OA
ENDBRANCH  21  22
ENDBRANCH  20  21
ENDBRANCH  19  20
ENDBRANCH  18  19
ENDBRANCH  17  18
ENDBRANCH  16  17
ENDBRANCH  15  16
ENDBRANCH  14  15
ENDBRANCH  13  14
ENDBRANCH   1  13
TORSDOF 20
ENDMDL
MODEL 6
REMARK VINA RESULT:    -2.855      1.471      2.848
REMARK INTER + INTRA:         -10.197
REMARK INTER:                  -5.970
REMARK INTRA:                  -4.227
REMARK UNBOUND:                -4.005
REMARK SMILES CCCCCCCCCCCCCCCCCCCCCC(=O)[O-]
REMARK SMILES IDX 12 1 11 2 10 3 9 4 8 5 7 6 6 7 5 8 4 9 3 10 2 11 1 12 13 13
REMARK SMILES IDX 14 14 15 15 16 16 17 17 18 18 19 19 20 20 21 21 22 22 23 23
REMARK SMILES IDX 24 24
REMARK H PARENT
REMARK Flexibility Score: inf
ROOT
ATOM      1  C   UNL     1      12.003  40.645 151.518  1.00  0.00     0.000 C 
ENDROOT
BRANCH   1   2
ATOM      2  C   UNL     1      11.273  40.609 150.164  1.00  0.00     0.000 C 
BRANCH   2   3
ATOM      3  C   UNL     1      11.584  41.851 149.300  1.00  0.00     0.000 C 
BRANCH   3   4
ATOM      4  C   UNL     1      12.857  42.601 149.732  1.00  0.00    -0.000 C 
BRANCH   4   5
ATOM      5  C   UNL     1      12.574  44.037 150.204  1.00  0.00    -0.000 C 
BRANCH   5   6
ATOM      6  C   UNL     1      11.134  44.486 149.918  1.00  0.00    -0.000 C 
BRANCH   6   7
ATOM      7  C   UNL     1      10.512  45.266 151.089  1.00  0.00    -0.000 C 
BRANCH   7   8
ATOM      8  C   UNL     1       9.321  44.529 151.723  1.00  0.00    -0.000 C 
BRANCH   8   9
ATOM      9  C   UNL     1       8.738  43.440 150.804  1.00  0.00    -0.000 C 
BRANCH   9  10
ATOM     10  C   UNL     1       7.600  42.651 151.485  1.00  0.00    -0.000 C 
BRANCH  10  11
ATOM     11  C   UNL     1       7.740  41.126 151.350  1.00  0.00    -0.003 C 
ATOM     12  C   UNL     1       7.310  40.371 152.607  1.00  0.00     0.004 C 
ENDBRANCH  10  11
ENDBRANCH   9  10
ENDBRANCH   8   9
ENDBRANCH   7   8
ENDBRANCH   6   7
ENDBRANCH   5   6
ENDBRANCH   4   5
ENDBRANCH   3   4
ENDBRANCH   2   3
ENDBRANCH   1   2
BRANCH   1  13
ATOM     13  C   UNL     1      11.142  41.249 152.638  1.00  0.00     0.000 C 
BRANCH  13  14
ATOM     14  C   UNL     1      11.872  42.361 153.412  1.00  0.00     0.000 C 
BRANCH  14  15
ATOM     15  C   UNL     1      11.018  42.952 154.544  1.00  0.00     0.000 C 
BRANCH  15  16
ATOM     16  C   UNL     1       9.687  42.203 154.733  1.00  0.00     0.000 C 
BRANCH  16  17
ATOM     17  C   UNL     1       8.536  43.138 155.135  1.00  0.00     0.000 C 
BRANCH  17  18
ATOM     18  C   UNL     1       9.020  44.407 155.856  1.00  0.00     0.000 C 
BRANCH  18  19
ATOM     19  C   UNL     1       8.784  45.680 155.014  1.00  0.00     0.000 C 
BRANCH  19  20
ATOM     20  C   UNL     1      10.052  46.527 154.806  1.00  0.00     0.006 C 
BRANCH  20  21
ATOM     21  C   UNL     1       9.782  47.829 154.045  1.00  0.00     0.053 C 
BRANCH  21  22
ATOM     22  C   UNL     1       9.433  48.928 154.998  1.00  0.00     0.041 C 
ATOM     23  O   UNL     1       9.635  48.785 156.234  1.00  0.00    -0.550 OA
ATOM     24  O   UNL     1       8.937  50.133 154.519  1.00  0.00    -0.550 OA
ENDBRANCH  21  22
ENDBRANCH  20  21
ENDBRANCH  19  20
ENDBRANCH  18  19
ENDBRANCH  17  18
ENDBRANCH  16  17
ENDBRANCH  15  16
ENDBRANCH  14  15
ENDBRANCH  13  14
ENDBRANCH   1  13
TORSDOF 20
ENDMDL
MODEL 7
REMARK VINA RESULT:    -2.838      1.744      3.835
REMARK INTER + INTRA:         -10.160
REMARK INTER:                  -6.351
REMARK INTRA:                  -3.810
REMARK UNBOUND:                -4.005
REMARK SMILES CCCCCCCCCCCCCCCCCCCCCC(=O)[O-]
REMARK SMILES IDX 12 1 11 2 10 3 9 4 8 5 7 6 6 7 5 8 4 9 3 10 2 11 1 12 13 13
REMARK SMILES IDX 14 14 15 15 16 16 17 17 18 18 19 19 20 20 21 21 22 22 23 23
REMARK SMILES IDX 24 24
REMARK H PARENT
REMARK Flexibility Score: inf
ROOT
ATOM      1  C   UNL     1       7.273  41.808 152.209  1.00  0.00     0.000 C 
ENDROOT
BRANCH   1   2
ATOM      2  C   UNL     1       8.181  40.587 152.439  1.00  0.00     0.000 C 
BRANCH   2   3
ATOM      3  C   UNL     1       9.302  40.486 151.381  1.00  0.00     0.000 C 
BRANCH   3   4
ATOM      4  C   UNL     1      10.565  39.766 151.886  1.00  0.00    -0.000 C 
BRANCH   4   5
ATOM      5  C   UNL     1      11.861  40.511 151.530  1.00  0.00    -0.000 C 
BRANCH   5   6
ATOM      6  C   UNL     1      11.610  41.949 151.052  1.00  0.00    -0.000 C 
BRANCH   6   7
ATOM      7  C   UNL     1      12.378  42.992 151.882  1.00  0.00    -0.000 C 
BRANCH   7   8
ATOM      8  C   UNL     1      12.366  42.674 153.386  1.00  0.00    -0.000 C 
BRANCH   8   9
ATOM      9  C   UNL     1      11.197  43.346 154.127  1.00  0.00    -0.000 C 
BRANCH   9  10
ATOM     10  C   UNL     1      10.261  42.317 154.795  1.00  0.00    -0.000 C 
BRANCH  10  11
ATOM     11  C   UNL     1       9.426  42.899 155.948  1.00  0.00    -0.003 C 
ATOM     12  C   UNL     1       7.993  43.234 155.540  1.00  0.00     0.004 C 
ENDBRANCH  10  11
ENDBRANCH   9  10
ENDBRANCH   8   9
ENDBRANCH   7   8
ENDBRANCH   6   7
ENDBRANCH   5   6
ENDBRANCH   4   5
ENDBRANCH   3   4
ENDBRANCH   2   3
ENDBRANCH   1   2
BRANCH   1  13
ATOM     13  C   UNL     1       7.900  42.840 151.259  1.00  0.00     0.000 C 
BRANCH  13  14
ATOM     14  C   UNL     1       8.211  44.175 151.957  1.00  0.00     0.000 C 
BRANCH  14  15
ATOM     15  C   UNL     1       9.365  44.939 151.287  1.00  0.00     0.000 C 
BRANCH  15  16
ATOM     16  C   UNL     1       9.685  46.267 151.996  1.00  0.00     0.000 C 
BRANCH  16  17
ATOM     17  C   UNL     1       9.196  46.290 153.452  1.00  0.00     0.000 C 
BRANCH  17  18
ATOM     18  C   UNL     1      10.273  46.778 154.437  1.00  0.00     0.000 C 
BRANCH  18  19
ATOM     19  C   UNL     1       9.808  48.009 155.243  1.00  0.00     0.000 C 
BRANCH  19  20
ATOM     20  C   UNL     1       9.766  49.307 154.418  1.00  0.00     0.006 C 
BRANCH  20  21
ATOM     21  C   UNL     1       8.454  50.082 154.591  1.00  0.00     0.053 C 
BRANCH  21  22
ATOM     22  C   UNL     1       7.665  50.062 153.321  1.00  0.00     0.041 C 
ATOM     23  O   UNL     1       6.550  50.644 153.256  1.00  0.00    -0.550 OA
ATOM     24  O   UNL     1       8.185  49.448 152.189  1.00  0.00    -0.550 OA
ENDBRANCH  21  22
ENDBRANCH  20  21
ENDBRANCH  19  20
ENDBRANCH  18  19
ENDBRANCH  17  18
ENDBRANCH  16  17
ENDBRANCH  15  16
ENDBRANCH  14  15
ENDBRANCH  13  14
ENDBRANCH   1  13
TORSDOF 20
ENDMDL
MODEL 8
REMARK VINA RESULT:    -2.829      1.435      3.278
REMARK INTER + INTRA:         -10.142
REMARK INTER:                  -6.538
REMARK INTRA:                  -3.605
REMARK UNBOUND:                -4.005
REMARK SMILES CCCCCCCCCCCCCCCCCCCCCC(=O)[O-]
REMARK SMILES IDX 12 1 11 2 10 3 9 4 8 5 7 6 6 7 5 8 4 9 3 10 2 11 1 12 13 13
REMARK SMILES IDX 14 14 15 15 16 16 17 17 18 18 19 19 20 20 21 21 22 22 23 23
REMARK SMILES IDX 24 24
REMARK H PARENT
REMARK Flexibility Score: inf
ROOT
ATOM      1  C   UNL     1       9.122  41.706 154.135  1.00  0.00     0.000 C 
ENDROOT
BRANCH   1   2
ATOM      2  C   UNL     1       9.740  40.504 153.400  1.00  0.00     0.000 C 
BRANCH   2   3
ATOM      3  C   UNL     1       9.125  40.297 151.999  1.00  0.00     0.000 C 
BRANCH   3   4
ATOM      4  C   UNL     1      10.120  39.749 150.961  1.00  0.00    -0.000 C 
BRANCH   4   5
ATOM      5  C   UNL     1      11.575  40.148 151.258  1.00  0.00    -0.000 C 
BRANCH   5   6
ATOM      6  C   UNL     1      12.232  40.915 150.101  1.00  0.00    -0.000 C 
BRANCH   6   7
ATOM      7  C   UNL     1      12.272  42.433 150.343  1.00  0.00    -0.000 C 
BRANCH   7   8
ATOM      8  C   UNL     1      12.155  42.796 151.832  1.00  0.00    -0.000 C 
BRANCH   8   9
ATOM      9  C   UNL     1      11.195  43.973 152.084  1.00  0.00    -0.000 C 
BRANCH   9  10
ATOM     10  C   UNL     1      10.325  44.290 150.850  1.00  0.00    -0.000 C 
BRANCH  10  11
ATOM     11  C   UNL     1       8.859  43.850 151.000  1.00  0.00    -0.003 C 
ATOM     12  C   UNL     1       8.135  44.555 152.146  1.00  0.00     0.004 C 
ENDBRANCH  10  11
ENDBRANCH   9  10
ENDBRANCH   8   9
ENDBRANCH   7   8
ENDBRANCH   6   7
ENDBRANCH   5   6
ENDBRANCH   4   5
ENDBRANCH   3   4
ENDBRANCH   2   3
ENDBRANCH   1   2
BRANCH   1  13
ATOM     13  C   UNL     1      10.097  42.358 155.127  1.00  0.00     0.000 C 
BRANCH  13  14
ATOM     14  C   UNL     1       9.375  43.067 156.286  1.00  0.00     0.000 C 
BRANCH  14  15
ATOM     15  C   UNL     1       7.941  43.485 155.923  1.00  0.00     0.000 C 
BRANCH  15  16
ATOM     16  C   UNL     1       7.780  45.011 155.814  1.00  0.00     0.000 C 
BRANCH  16  17
ATOM     17  C   UNL     1       8.712  45.772 156.771  1.00  0.00     0.000 C 
BRANCH  17  18
ATOM     18  C   UNL     1       9.435  46.947 156.092  1.00  0.00     0.000 C 
BRANCH  18  19
ATOM     19  C   UNL     1      10.054  46.544 154.736  1.00  0.00     0.000 C 
BRANCH  19  20
ATOM     20  C   UNL     1       9.779  47.554 153.607  1.00  0.00     0.006 C 
BRANCH  20  21
ATOM     21  C   UNL     1       9.970  49.009 154.048  1.00  0.00     0.053 C 
BRANCH  21  22
ATOM     22  C   UNL     1       8.674  49.753 153.970  1.00  0.00     0.041 C 
ATOM     23  O   UNL     1       7.927  49.622 152.964  1.00  0.00    -0.550 OA
ATOM     24  O   UNL     1       8.263  50.547 155.031  1.00  0.00    -0.550 OA
ENDBRANCH  21  22
ENDBRANCH  20  21
ENDBRANCH  19  20
ENDBRANCH  18  19
ENDBRANCH  17  18
ENDBRANCH  16  17
ENDBRANCH  15  16
ENDBRANCH  14  15
ENDBRANCH  13  14
ENDBRANCH   1  13
TORSDOF 20
ENDMDL
MODEL 9
REMARK VINA RESULT:    -2.820      3.324      4.867
REMARK INTER + INTRA:         -10.122
REMARK INTER:                  -6.024
REMARK INTRA:                  -4.098
REMARK UNBOUND:                -4.005
REMARK SMILES CCCCCCCCCCCCCCCCCCCCCC(=O)[O-]
REMARK SMILES IDX 12 1 11 2 10 3 9 4 8 5 7 6 6 7 5 8 4 9 3 10 2 11 1 12 13 13
REMARK SMILES IDX 14 14 15 15 16 16 17 17 18 18 19 19 20 20 21 21 22 22 23 23
REMARK SMILES IDX 24 24
REMARK H PARENT
REMARK Flexibility Score: inf
ROOT
ATOM      1  C   UNL     1      11.067  43.251 154.208  1.00  0.00     0.000 C 
ENDROOT
BRANCH   1   2
ATOM      2  C   UNL     1      12.149  42.538 153.378  1.00  0.00     0.000 C 
BRANCH   2   3
ATOM      3  C   UNL     1      11.601  42.020 152.030  1.00  0.00     0.000 C 
BRANCH   3   4
ATOM      4  C   UNL     1      11.738  40.497 151.852  1.00  0.00    -0.000 C 
BRANCH   4   5
ATOM      5  C   UNL     1      10.385  39.792 151.668  1.00  0.00    -0.000 C 
BRANCH   5   6
ATOM      6  C   UNL     1       9.453  39.964 152.876  1.00  0.00    -0.000 C 
BRANCH   6   7
ATOM      7  C   UNL     1       8.060  40.484 152.481  1.00  0.00    -0.000 C 
BRANCH   7   8
ATOM      8  C   UNL     1       7.823  41.935 152.931  1.00  0.00    -0.000 C 
BRANCH   8   9
ATOM      9  C   UNL     1       7.852  42.933 151.759  1.00  0.00    -0.000 C 
BRANCH   9  10
ATOM     10  C   UNL     1       7.302  44.318 152.160  1.00  0.00    -0.000 C 
BRANCH  10  11
ATOM     11  C   UNL     1       8.325  45.457 152.006  1.00  0.00    -0.003 C 
ATOM     12  C   UNL     1       9.637  45.001 151.371  1.00  0.00     0.004 C 
ENDBRANCH  10  11
ENDBRANCH   9  10
ENDBRANCH   8   9
ENDBRANCH   7   8
ENDBRANCH   6   7
ENDBRANCH   5   6
ENDBRANCH   4   5
ENDBRANCH   3   4
ENDBRANCH   2   3
ENDBRANCH   1   2
BRANCH   1  13
ATOM     13  C   UNL     1      10.533  42.379 155.355  1.00  0.00     0.000 C 
BRANCH  13  14
ATOM     14  C   UNL     1       9.384  43.054 156.125  1.00  0.00     0.000 C 
BRANCH  14  15
ATOM     15  C   UNL     1       9.036  44.444 155.569  1.00  0.00     0.000 C 
BRANCH  15  16
ATOM     16  C   UNL     1       7.563  44.822 155.802  1.00  0.00     0.000 C 
BRANCH  16  17
ATOM     17  C   UNL     1       6.944  44.076 156.994  1.00  0.00     0.000 C 
BRANCH  17  18
ATOM     18  C   UNL     1       5.819  43.113 156.578  1.00  0.00     0.000 C 
BRANCH  18  19
ATOM     19  C   UNL     1       5.261  43.442 155.176  1.00  0.00     0.000 C 
BRANCH  19  20
ATOM     20  C   UNL     1       4.542  42.258 154.506  1.00  0.00     0.006 C 
BRANCH  20  21
ATOM     21  C   UNL     1       4.628  40.965 155.325  1.00  0.00     0.053 C 
BRANCH  21  22
ATOM     22  C   UNL     1       4.774  39.783 154.420  1.00  0.00     0.041 C 
ATOM     23  O   UNL     1       5.000  38.640 154.900  1.00  0.00    -0.550 OA
ATOM     24  O   UNL     1       4.604  39.931 153.050  1.00  0.00    -0.550 OA
ENDBRANCH  21  22
ENDBRANCH  20  21
ENDBRANCH  19  20
ENDBRANCH  18  19
ENDBRANCH  17  18
ENDBRANCH  16  17
ENDBRANCH  15  16
ENDBRANCH  14  15
ENDBRANCH  13  14
ENDBRANCH   1  13
TORSDOF 20
ENDMDL
