MODEL 1
REMARK VINA RESULT:    -1.608      0.000      0.000
REMARK INTER + INTRA:          -5.174
REMARK INTER:                  -2.923
REMARK INTRA:                  -2.250
REMARK UNBOUND:                -2.250
REMARK SMILES CCCCCCCCCCCCCCCC(=O)[O-]
REMARK SMILES IDX 9 1 10 2 11 3 12 4 13 5 14 6 15 7 16 8 17 9 18 10 8 11 7 12
REMARK SMILES IDX 6 13 5 14 4 15 3 16 2 17 1 18
REMARK H PARENT
REMARK Flexibility Score: inf
ROOT
ATOM      1  C   UNL     1     174.185 180.431 194.393  1.00  0.00     0.000 C 
ENDROOT
BRANCH   1   2
ATOM      2  C   UNL     1     172.741 180.912 194.607  1.00  0.00     0.000 C 
BRANCH   2   3
ATOM      3  C   UNL     1     172.637 182.010 195.677  1.00  0.00     0.000 C 
BRANCH   3   4
ATOM      4  C   UNL     1     173.556 181.751 196.884  1.00  0.00     0.000 C 
BRANCH   4   5
ATOM      5  C   UNL     1     172.835 181.038 198.042  1.00  0.00     0.000 C 
BRANCH   5   6
ATOM      6  C   UNL     1     173.537 179.766 198.561  1.00  0.00     0.006 C 
BRANCH   6   7
ATOM      7  C   UNL     1     172.663 178.501 198.539  1.00  0.00     0.053 C 
BRANCH   7   8
ATOM      8  C   UNL     1     172.144 178.154 199.899  1.00  0.00     0.041 C 
ATOM      9  O   UNL     1     171.289 177.239 200.037  1.00  0.00    -0.550 OA
ATOM     10  O   UNL     1     172.577 178.864 201.012  1.00  0.00    -0.550 OA
ENDBRANCH   7   8
ENDBRANCH   6   7
ENDBRANCH   5   6
ENDBRANCH   4   5
ENDBRANCH   3   4
ENDBRANCH   2   3
ENDBRANCH   1   2
BRANCH   1  11
ATOM     11  C   UNL     1     174.345 178.915 194.588  1.00  0.00     0.000 C 
BRANCH  11  12
ATOM     12  C   UNL     1     173.052 178.210 195.051  1.00  0.00    -0.000 C 
BRANCH  12  13
ATOM     13  C   UNL     1     172.826 176.875 194.321  1.00  0.00    -0.000 C 
BRANCH  13  14
ATOM     14  C   UNL     1     171.647 176.930 193.336  1.00  0.00    -0.000 C 
BRANCH  14  15
ATOM     15  C   UNL     1     172.055 177.455 191.951  1.00  0.00    -0.000 C 
BRANCH  15  16
ATOM     16  C   UNL     1     171.489 178.862 191.710  1.00  0.00    -0.000 C 
BRANCH  16  17
ATOM     17  C   UNL     1     172.517 179.813 191.079  1.00  0.00    -0.003 C 
ATOM     18  C   UNL     1     173.873 179.147 190.842  1.00  0.00     0.004 C 
ENDBRANCH  16  17
ENDBRANCH  15  16
ENDBRANCH  14  15
ENDBRANCH  13  14
ENDBRANCH  12  13
ENDBRANCH  11  12
ENDBRANCH   1  11
TORSDOF 14
ENDMDL
MODEL 2
REMARK VINA RESULT:    -1.499      1.155      2.622
REMARK INTER + INTRA:          -4.977
REMARK INTER:                  -2.863
REMARK INTRA:                  -2.114
REMARK UNBOUND:                -2.250
REMARK SMILES CCCCCCCCCCCCCCCC(=O)[O-]
REMARK SMILES IDX 9 1 10 2 11 3 12 4 13 5 14 6 15 7 16 8 17 9 18 10 8 11 7 12
REMARK SMILES IDX 6 13 5 14 4 15 3 16 2 17 1 18
REMARK H PARENT
REMARK Flexibility Score: inf
ROOT
ATOM      1  C   UNL     1     173.152 181.151 194.023  1.00  0.00     0.000 C 
ENDROOT
BRANCH   1   2
ATOM      2  C   UNL     1     173.247 180.347 195.329  1.00  0.00     0.000 C 
BRANCH   2   3
ATOM      3  C   UNL     1     173.108 181.231 196.579  1.00  0.00     0.000 C 
BRANCH   3   4
ATOM      4  C   UNL     1     173.337 180.450 197.885  1.00  0.00     0.000 C 
BRANCH   4   5
ATOM      5  C   UNL     1     174.539 179.491 197.806  1.00  0.00     0.000 C 
BRANCH   5   6
ATOM      6  C   UNL     1     174.222 178.021 198.149  1.00  0.00     0.006 C 
BRANCH   6   7
ATOM      7  C   UNL     1     172.727 177.720 198.346  1.00  0.00     0.053 C 
BRANCH   7   8
ATOM      8  C   UNL     1     172.410 177.361 199.764  1.00  0.00     0.041 C 
ATOM      9  O   UNL     1     173.339 177.136 200.584  1.00  0.00    -0.550 OA
ATOM     10  O   UNL     1     171.087 177.242 200.173  1.00  0.00    -0.550 OA
ENDBRANCH   7   8
ENDBRANCH   6   7
ENDBRANCH   5   6
ENDBRANCH   4   5
ENDBRANCH   3   4
ENDBRANCH   2   3
ENDBRANCH   1   2
BRANCH   1  11
ATOM     11  C   UNL     1     171.977 180.711 193.134  1.00  0.00     0.000 C 
BRANCH  11  12
ATOM     12  C   UNL     1     172.407 179.881 191.906  1.00  0.00    -0.000 C 
BRANCH  12  13
ATOM     13  C   UNL     1     171.611 178.569 191.787  1.00  0.00    -0.000 C 
BRANCH  13  14
ATOM     14  C   UNL     1     172.387 177.355 192.322  1.00  0.00    -0.000 C 
BRANCH  14  15
ATOM     15  C   UNL     1     172.016 177.005 193.770  1.00  0.00    -0.000 C 
BRANCH  15  16
ATOM     16  C   UNL     1     173.274 176.875 194.643  1.00  0.00    -0.000 C 
BRANCH  16  17
ATOM     17  C   UNL     1     174.564 177.186 193.869  1.00  0.00    -0.003 C 
ATOM     18  C   UNL     1     175.721 177.588 194.783  1.00  0.00     0.004 C 
ENDBRANCH  16  17
ENDBRANCH  15  16
ENDBRANCH  14  15
ENDBRANCH  13  14
ENDBRANCH  12  13
ENDBRANCH  11  12
ENDBRANCH   1  11
TORSDOF 14
ENDMDL
MODEL 3
REMARK VINA RESULT:    -1.488      1.786      3.586
REMARK INTER + INTRA:          -4.956
REMARK INTER:                  -2.250
REMARK INTRA:                  -2.706
REMARK UNBOUND:                -2.250
REMARK SMILES CCCCCCCCCCCCCCCC(=O)[O-]
REMARK SMILES IDX 9 1 10 2 11 3 12 4 13 5 14 6 15 7 16 8 17 9 18 10 8 11 7 12
REMARK SMILES IDX 6 13 5 14 4 15 3 16 2 17 1 18
REMARK H PARENT
REMARK Flexibility Score: inf
ROOT
ATOM      1  C   UNL     1     176.510 179.585 195.997  1.00  0.00     0.000 C 
ENDROOT
BRANCH   1   2
ATOM      2  C   UNL     1     176.371 178.722 197.261  1.00  0.00     0.000 C 
BRANCH   2   3
ATOM      3  C   UNL     1     175.598 177.419 197.005  1.00  0.00     0.000 C 
BRANCH   3   4
ATOM      4  C   UNL     1     174.475 177.591 195.966  1.00  0.00     0.000 C 
BRANCH   4   5
ATOM      5  C   UNL     1     173.093 177.803 196.611  1.00  0.00     0.000 C 
BRANCH   5   6
ATOM      6  C   UNL     1     173.022 177.485 198.118  1.00  0.00     0.006 C 
BRANCH   6   7
ATOM      7  C   UNL     1     172.672 178.689 199.009  1.00  0.00     0.053 C 
BRANCH   7   8
ATOM      8  C   UNL     1     171.714 178.320 200.098  1.00  0.00     0.041 C 
ATOM      9  O   UNL     1     171.485 179.125 201.040  1.00  0.00    -0.550 OA
ATOM     10  O   UNL     1     171.099 177.074 200.094  1.00  0.00    -0.550 OA
ENDBRANCH   7   8
ENDBRANCH   6   7
ENDBRANCH   5   6
ENDBRANCH   4   5
ENDBRANCH   3   4
ENDBRANCH   2   3
ENDBRANCH   1   2
BRANCH   1  11
ATOM     11  C   UNL     1     175.949 181.005 196.178  1.00  0.00     0.000 C 
BRANCH  11  12
ATOM     12  C   UNL     1     174.825 181.097 197.232  1.00  0.00    -0.000 C 
BRANCH  12  13
ATOM     13  C   UNL     1     173.483 181.523 196.611  1.00  0.00    -0.000 C 
BRANCH  13  14
ATOM     14  C   UNL     1     173.557 181.666 195.083  1.00  0.00    -0.000 C 
BRANCH  14  15
ATOM     15  C   UNL     1     172.382 180.984 194.366  1.00  0.00    -0.000 C 
BRANCH  15  16
ATOM     16  C   UNL     1     172.881 179.869 193.434  1.00  0.00    -0.000 C 
BRANCH  16  17
ATOM     17  C   UNL     1     174.325 180.096 192.962  1.00  0.00    -0.003 C 
ATOM     18  C   UNL     1     175.016 178.805 192.526  1.00  0.00     0.004 C 
ENDBRANCH  16  17
ENDBRANCH  15  16
ENDBRANCH  14  15
ENDBRANCH  13  14
ENDBRANCH  12  13
ENDBRANCH  11  12
ENDBRANCH   1  11
TORSDOF 14
ENDMDL
MODEL 4
REMARK VINA RESULT:    -1.467      3.084      6.333
REMARK INTER + INTRA:          -4.918
REMARK INTER:                  -2.346
REMARK INTRA:                  -2.572
REMARK UNBOUND:                -2.250
REMARK SMILES CCCCCCCCCCCCCCCC(=O)[O-]
REMARK SMILES IDX 9 1 10 2 11 3 12 4 13 5 14 6 15 7 16 8 17 9 18 10 8 11 7 12
REMARK SMILES IDX 6 13 5 14 4 15 3 16 2 17 1 18
REMARK H PARENT
REMARK Flexibility Score: inf
ROOT
ATOM      1  C   UNL     1     176.108 178.740 196.042  1.00  0.00     0.000 C 
ENDROOT
BRANCH   1   2
ATOM      2  C   UNL     1     175.519 177.332 195.857  1.00  0.00     0.000 C 
BRANCH   2   3
ATOM      3  C   UNL     1     174.263 177.100 196.711  1.00  0.00     0.000 C 
BRANCH   3   4
ATOM      4  C   UNL     1     172.984 177.633 196.041  1.00  0.00     0.000 C 
BRANCH   4   5
ATOM      5  C   UNL     1     172.751 177.039 194.640  1.00  0.00     0.000 C 
BRANCH   5   6
ATOM      6  C   UNL     1     172.533 178.077 193.520  1.00  0.00     0.006 C 
BRANCH   6   7
ATOM      7  C   UNL     1     173.192 179.443 193.780  1.00  0.00     0.053 C 
BRANCH   7   8
ATOM      8  C   UNL     1     172.286 180.579 193.420  1.00  0.00     0.041 C 
ATOM      9  O   UNL     1     171.825 180.677 192.253  1.00  0.00    -0.550 OA
ATOM     10  O   UNL     1     171.978 181.550 194.365  1.00  0.00    -0.550 OA
ENDBRANCH   7   8
ENDBRANCH   6   7
ENDBRANCH   5   6
ENDBRANCH   4   5
ENDBRANCH   3   4
ENDBRANCH   2   3
ENDBRANCH   1   2
BRANCH   1  11
ATOM     11  C   UNL     1     176.253 179.136 197.521  1.00  0.00     0.000 C 
BRANCH  11  12
ATOM     12  C   UNL     1     175.657 180.521 197.853  1.00  0.00    -0.000 C 
BRANCH  12  13
ATOM     13  C   UNL     1     174.451 180.861 196.960  1.00  0.00    -0.000 C 
BRANCH  13  14
ATOM     14  C   UNL     1     173.204 181.249 197.771  1.00  0.00    -0.000 C 
BRANCH  14  15
ATOM     15  C   UNL     1     173.162 180.577 199.152  1.00  0.00    -0.000 C 
BRANCH  15  16
ATOM     16  C   UNL     1     172.165 179.409 199.163  1.00  0.00    -0.000 C 
BRANCH  16  17
ATOM     17  C   UNL     1     172.707 178.176 199.902  1.00  0.00    -0.003 C 
ATOM     18  C   UNL     1     174.101 178.402 200.488  1.00  0.00     0.004 C 
ENDBRANCH  16  17
ENDBRANCH  15  16
ENDBRANCH  14  15
ENDBRANCH  13  14
ENDBRANCH  12  13
ENDBRANCH  11  12
ENDBRANCH   1  11
TORSDOF 14
ENDMDL
MODEL 5
REMARK VINA RESULT:    -1.442      2.982      4.234
REMARK INTER + INTRA:          -4.872
REMARK INTER:                  -2.353
REMARK INTRA:                  -2.519
REMARK UNBOUND:                -2.250
REMARK SMILES CCCCCCCCCCCCCCCC(=O)[O-]
REMARK SMILES IDX 9 1 10 2 11 3 12 4 13 5 14 6 15 7 16 8 17 9 18 10 8 11 7 12
REMARK SMILES IDX 6 13 5 14 4 15 3 16 2 17 1 18
REMARK H PARENT
REMARK Flexibility Score: inf
ROOT
ATOM      1  C   UNL     1     175.442 178.540 197.584  1.00  0.00     0.000 C 
ENDROOT
BRANCH   1   2
ATOM      2  C   UNL     1     174.429 179.634 197.960  1.00  0.00     0.000 C 
BRANCH   2   3
ATOM      3  C   UNL     1     174.481 180.838 197.007  1.00  0.00     0.000 C 
BRANCH   3   4
ATOM      4  C   UNL     1     175.202 180.518 195.685  1.00  0.00     0.000 C 
BRANCH   4   5
ATOM      5  C   UNL     1     174.282 180.645 194.457  1.00  0.00     0.000 C 
BRANCH   5   6
ATOM      6  C   UNL     1     172.772 180.554 194.763  1.00  0.00     0.006 C 
BRANCH   6   7
ATOM      7  C   UNL     1     171.930 181.690 194.159  1.00  0.00     0.053 C 
BRANCH   7   8
ATOM      8  C   UNL     1     172.416 183.039 194.589  1.00  0.00     0.041 C 
ATOM      9  O   UNL     1     172.269 183.414 195.782  1.00  0.00    -0.550 OA
ATOM     10  O   UNL     1     173.001 183.896 193.665  1.00  0.00    -0.550 OA
ENDBRANCH   7   8
ENDBRANCH   6   7
ENDBRANCH   5   6
ENDBRANCH   4   5
ENDBRANCH   3   4
ENDBRANCH   2   3
ENDBRANCH   1   2
BRANCH   1  11
ATOM     11  C   UNL     1     174.782 177.313 196.934  1.00  0.00     0.000 C 
BRANCH  11  12
ATOM     12  C   UNL     1     173.252 177.442 196.779  1.00  0.00    -0.000 C 
BRANCH  12  13
ATOM     13  C   UNL     1     172.760 176.897 195.427  1.00  0.00    -0.000 C 
BRANCH  13  14
ATOM     14  C   UNL     1     173.864 176.875 194.359  1.00  0.00    -0.000 C 
BRANCH  14  15
ATOM     15  C   UNL     1     173.307 176.916 192.928  1.00  0.00    -0.000 C 
BRANCH  15  16
ATOM     16  C   UNL     1     171.844 177.381 192.923  1.00  0.00    -0.000 C 
BRANCH  16  17
ATOM     17  C   UNL     1     171.614 178.601 192.019  1.00  0.00    -0.003 C 
ATOM     18  C   UNL     1     172.876 179.028 191.268  1.00  0.00     0.004 C 
ENDBRANCH  16  17
ENDBRANCH  15  16
ENDBRANCH  14  15
ENDBRANCH  13  14
ENDBRANCH  12  13
ENDBRANCH  11  12
ENDBRANCH   1  11
TORSDOF 14
ENDMDL
MODEL 6
REMARK VINA RESULT:    -1.431      3.225      6.393
REMARK INTER + INTRA:          -4.852
REMARK INTER:                  -2.578
REMARK INTRA:                  -2.274
REMARK UNBOUND:                -2.250
REMARK SMILES CCCCCCCCCCCCCCCC(=O)[O-]
REMARK SMILES IDX 9 1 10 2 11 3 12 4 13 5 14 6 15 7 16 8 17 9 18 10 8 11 7 12
REMARK SMILES IDX 6 13 5 14 4 15 3 16 2 17 1 18
REMARK H PARENT
REMARK Flexibility Score: inf
ROOT
ATOM      1  C   UNL     1     173.517 182.975 198.303  1.00  0.00     0.000 C 
ENDROOT
BRANCH   1   2
ATOM      2  C   UNL     1     174.622 182.382 199.191  1.00  0.00     0.000 C 
BRANCH   2   3
ATOM      3  C   UNL     1     174.688 180.849 199.108  1.00  0.00     0.000 C 
BRANCH   3   4
ATOM      4  C   UNL     1     175.480 180.355 197.885  1.00  0.00     0.000 C 
BRANCH   4   5
ATOM      5  C   UNL     1     174.954 179.017 197.333  1.00  0.00     0.000 C 
BRANCH   5   6
ATOM      6  C   UNL     1     173.459 179.012 196.953  1.00  0.00     0.006 C 
BRANCH   6   7
ATOM      7  C   UNL     1     172.975 177.716 196.283  1.00  0.00     0.053 C 
BRANCH   7   8
ATOM      8  C   UNL     1     172.789 177.883 194.807  1.00  0.00     0.041 C 
ATOM      9  O   UNL     1     172.163 177.014 194.145  1.00  0.00    -0.550 OA
ATOM     10  O   UNL     1     173.336 178.981 194.156  1.00  0.00    -0.550 OA
ENDBRANCH   7   8
ENDBRANCH   6   7
ENDBRANCH   5   6
ENDBRANCH   4   5
ENDBRANCH   3   4
ENDBRANCH   2   3
ENDBRANCH   1   2
BRANCH   1  11
ATOM     11  C   UNL     1     172.198 182.188 198.385  1.00  0.00     0.000 C 
BRANCH  11  12
ATOM     12  C   UNL     1     171.288 182.624 199.552  1.00  0.00    -0.000 C 
BRANCH  12  13
ATOM     13  C   UNL     1     170.911 181.444 200.465  1.00  0.00    -0.000 C 
BRANCH  13  14
ATOM     14  C   UNL     1     171.175 180.080 199.809  1.00  0.00    -0.000 C 
BRANCH  14  15
ATOM     15  C   UNL     1     171.612 179.010 200.820  1.00  0.00    -0.000 C 
BRANCH  15  16
ATOM     16  C   UNL     1     171.787 177.647 200.135  1.00  0.00    -0.000 C 
BRANCH  16  17
ATOM     17  C   UNL     1     173.262 177.236 200.005  1.00  0.00    -0.003 C 
ATOM     18  C   UNL     1     174.135 177.801 201.125  1.00  0.00     0.004 C 
ENDBRANCH  16  17
ENDBRANCH  15  16
ENDBRANCH  14  15
ENDBRANCH  13  14
ENDBRANCH  12  13
ENDBRANCH  11  12
ENDBRANCH   1  11
TORSDOF 14
ENDMDL
MODEL 7
REMARK VINA RESULT:    -1.430      1.414      2.044
REMARK INTER + INTRA:          -4.850
REMARK INTER:                  -2.256
REMARK INTRA:                  -2.594
REMARK UNBOUND:                -2.250
REMARK SMILES CCCCCCCCCCCCCCCC(=O)[O-]
REMARK SMILES IDX 9 1 10 2 11 3 12 4 13 5 14 6 15 7 16 8 17 9 18 10 8 11 7 12
REMARK SMILES IDX 6 13 5 14 4 15 3 16 2 17 1 18
REMARK H PARENT
REMARK Flexibility Score: inf
ROOT
ATOM      1  C   UNL     1     176.189 180.361 193.785  1.00  0.00     0.000 C 
ENDROOT
BRANCH   1   2
ATOM      2  C   UNL     1     174.858 181.130 193.744  1.00  0.00     0.000 C 
BRANCH   2   3
ATOM      3  C   UNL     1     174.422 181.629 195.131  1.00  0.00     0.000 C 
BRANCH   3   4
ATOM      4  C   UNL     1     173.044 181.086 195.550  1.00  0.00     0.000 C 
BRANCH   4   5
ATOM      5  C   UNL     1     173.053 180.453 196.953  1.00  0.00     0.000 C 
BRANCH   5   6
ATOM      6  C   UNL     1     174.456 180.185 197.537  1.00  0.00     0.006 C 
BRANCH   6   7
ATOM      7  C   UNL     1     174.723 178.716 197.906  1.00  0.00     0.053 C 
BRANCH   7   8
ATOM      8  C   UNL     1     173.611 178.132 198.720  1.00  0.00     0.041 C 
ATOM      9  O   UNL     1     173.455 178.478 199.921  1.00  0.00    -0.550 OA
ATOM     10  O   UNL     1     172.767 177.178 198.164  1.00  0.00    -0.550 OA
ENDBRANCH   7   8
ENDBRANCH   6   7
ENDBRANCH   5   6
ENDBRANCH   4   5
ENDBRANCH   3   4
ENDBRANCH   2   3
ENDBRANCH   1   2
BRANCH   1  11
ATOM     11  C   UNL     1     176.065 178.988 194.466  1.00  0.00     0.000 C 
BRANCH  11  12
ATOM     12  C   UNL     1     175.452 177.900 193.559  1.00  0.00    -0.000 C 
BRANCH  12  13
ATOM     13  C   UNL     1     174.540 176.940 194.342  1.00  0.00    -0.000 C 
BRANCH  13  14
ATOM     14  C   UNL     1     173.180 177.566 194.691  1.00  0.00    -0.000 C 
BRANCH  14  15
ATOM     15  C   UNL     1     172.009 176.876 193.977  1.00  0.00    -0.000 C 
BRANCH  15  16
ATOM     16  C   UNL     1     171.884 177.368 192.528  1.00  0.00    -0.000 C 
BRANCH  16  17
ATOM     17  C   UNL     1     171.954 178.898 192.415  1.00  0.00    -0.003 C 
ATOM     18  C   UNL     1     172.836 179.367 191.258  1.00  0.00     0.004 C 
ENDBRANCH  16  17
ENDBRANCH  15  16
ENDBRANCH  14  15
ENDBRANCH  13  14
ENDBRANCH  12  13
ENDBRANCH  11  12
ENDBRANCH   1  11
TORSDOF 14
ENDMDL
MODEL 8
REMARK VINA RESULT:    -1.389      1.505      4.197
REMARK INTER + INTRA:          -4.776
REMARK INTER:                  -2.838
REMARK INTRA:                  -1.939
REMARK UNBOUND:                -2.250
REMARK SMILES CCCCCCCCCCCCCCCC(=O)[O-]
REMARK SMILES IDX 9 1 10 2 11 3 12 4 13 5 14 6 15 7 16 8 17 9 18 10 8 11 7 12
REMARK SMILES IDX 6 13 5 14 4 15 3 16 2 17 1 18
REMARK H PARENT
REMARK Flexibility Score: inf
ROOT
ATOM      1  C   UNL     1     171.621 177.350 192.584  1.00  0.00     0.000 C 
ENDROOT
BRANCH   1   2
ATOM      2  C   UNL     1     172.630 177.085 193.712  1.00  0.00     0.000 C 
BRANCH   2   3
ATOM      3  C   UNL     1     174.082 177.335 193.276  1.00  0.00     0.000 C 
BRANCH   3   4
ATOM      4  C   UNL     1     175.098 177.020 194.389  1.00  0.00     0.000 C 
BRANCH   4   5
ATOM      5  C   UNL     1     174.846 177.831 195.674  1.00  0.00     0.000 C 
BRANCH   5   6
ATOM      6  C   UNL     1     174.471 176.989 196.911  1.00  0.00     0.006 C 
BRANCH   6   7
ATOM      7  C   UNL     1     173.038 177.209 197.422  1.00  0.00     0.053 C 
BRANCH   7   8
ATOM      8  C   UNL     1     173.012 177.607 198.864  1.00  0.00     0.041 C 
ATOM      9  O   UNL     1     172.366 178.625 199.230  1.00  0.00    -0.550 OA
ATOM     10  O   UNL     1     173.729 176.875 199.802  1.00  0.00    -0.550 OA
ENDBRANCH   7   8
ENDBRANCH   6   7
ENDBRANCH   5   6
ENDBRANCH   4   5
ENDBRANCH   3   4
ENDBRANCH   2   3
ENDBRANCH   1   2
BRANCH   1  11
ATOM     11  C   UNL     1     172.295 177.766 191.266  1.00  0.00     0.000 C 
BRANCH  11  12
ATOM     12  C   UNL     1     171.655 179.007 190.608  1.00  0.00    -0.000 C 
BRANCH  12  13
ATOM     13  C   UNL     1     171.199 180.044 191.649  1.00  0.00    -0.000 C 
BRANCH  13  14
ATOM     14  C   UNL     1     172.375 180.802 192.285  1.00  0.00    -0.000 C 
BRANCH  14  15
ATOM     15  C   UNL     1     172.032 181.377 193.667  1.00  0.00    -0.000 C 
BRANCH  15  16
ATOM     16  C   UNL     1     172.729 180.581 194.780  1.00  0.00    -0.000 C 
BRANCH  16  17
ATOM     17  C   UNL     1     173.739 181.429 195.569  1.00  0.00    -0.003 C 
ATOM     18  C   UNL     1     173.706 181.146 197.071  1.00  0.00     0.004 C 
ENDBRANCH  16  17
ENDBRANCH  15  16
ENDBRANCH  14  15
ENDBRANCH  13  14
ENDBRANCH  12  13
ENDBRANCH  11  12
ENDBRANCH   1  11
TORSDOF 14
ENDMDL
MODEL 9
REMARK VINA RESULT:    -1.388      2.935      6.552
REMARK INTER + INTRA:          -4.775
REMARK INTER:                  -2.985
REMARK INTRA:                  -1.789
REMARK UNBOUND:                -2.250
REMARK SMILES CCCCCCCCCCCCCCCC(=O)[O-]
REMARK SMILES IDX 9 1 10 2 11 3 12 4 13 5 14 6 15 7 16 8 17 9 18 10 8 11 7 12
REMARK SMILES IDX 6 13 5 14 4 15 3 16 2 17 1 18
REMARK H PARENT
REMARK Flexibility Score: inf
ROOT
ATOM      1  C   UNL     1     173.052 177.249 197.919  1.00  0.00     0.000 C 
ENDROOT
BRANCH   1   2
ATOM      2  C   UNL     1     173.145 178.329 196.829  1.00  0.00     0.000 C 
BRANCH   2   3
ATOM      3  C   UNL     1     174.510 178.339 196.123  1.00  0.00     0.000 C 
BRANCH   3   4
ATOM      4  C   UNL     1     174.441 177.782 194.690  1.00  0.00     0.000 C 
BRANCH   4   5
ATOM      5  C   UNL     1     173.019 177.354 194.284  1.00  0.00     0.000 C 
BRANCH   5   6
ATOM      6  C   UNL     1     172.400 178.167 193.128  1.00  0.00     0.006 C 
BRANCH   6   7
ATOM      7  C   UNL     1     173.078 179.523 192.868  1.00  0.00     0.053 C 
BRANCH   7   8
ATOM      8  C   UNL     1     172.288 180.662 193.434  1.00  0.00     0.041 C 
ATOM      9  O   UNL     1     172.437 181.000 194.637  1.00  0.00    -0.550 OA
ATOM     10  O   UNL     1     171.362 181.329 192.641  1.00  0.00    -0.550 OA
ENDBRANCH   7   8
ENDBRANCH   6   7
ENDBRANCH   5   6
ENDBRANCH   4   5
ENDBRANCH   3   4
ENDBRANCH   2   3
ENDBRANCH   1   2
BRANCH   1  11
ATOM     11  C   UNL     1     173.344 177.794 199.326  1.00  0.00     0.000 C 
BRANCH  11  12
ATOM     12  C   UNL     1     172.390 177.251 200.412  1.00  0.00    -0.000 C 
BRANCH  12  13
ATOM     13  C   UNL     1     171.154 178.147 200.597  1.00  0.00    -0.000 C 
BRANCH  13  14
ATOM     14  C   UNL     1     171.520 179.596 200.954  1.00  0.00    -0.000 C 
BRANCH  14  15
ATOM     15  C   UNL     1     170.875 180.621 200.010  1.00  0.00    -0.000 C 
BRANCH  15  16
ATOM     16  C   UNL     1     171.864 181.742 199.658  1.00  0.00    -0.000 C 
BRANCH  16  17
ATOM     17  C   UNL     1     172.666 181.444 198.382  1.00  0.00    -0.003 C 
ATOM     18  C   UNL     1     174.177 181.484 198.608  1.00  0.00     0.004 C 
ENDBRANCH  16  17
ENDBRANCH  15  16
ENDBRANCH  14  15
ENDBRANCH  13  14
ENDBRANCH  12  13
ENDBRANCH  11  12
ENDBRANCH   1  11
TORSDOF 14
ENDMDL
