MODEL 1
REMARK VINA RESULT:    -4.345      0.000      0.000
REMARK INTER + INTRA:         -15.231
REMARK INTER:                 -10.949
REMARK INTRA:                  -4.282
REMARK UNBOUND:                -4.282
REMARK SMILES CCCCCCCCCCCCCCCCCCCCCCCCCCCC(=O)[O-]
REMARK SMILES IDX 15 1 16 2 17 3 18 4 19 5 20 6 21 7 22 8 23 9 24 10 25 11
REMARK SMILES IDX 26 12 27 13 28 14 29 15 30 16 14 17 13 18 12 19 11 20 10 21
REMARK SMILES IDX 9 22 8 23 7 24 6 25 5 26 4 27 3 28 2 29 1 30
REMARK H PARENT
REMARK Flexibility Score: inf
ROOT
ATOM      1  C   UNL     1      60.421  29.731  12.752  1.00  0.00     0.000 C 
ENDROOT
BRANCH   1   2
ATOM      2  C   UNL     1      60.225  28.899  11.473  1.00  0.00     0.000 C 
BRANCH   2   3
ATOM      3  C   UNL     1      59.998  29.722  10.190  1.00  0.00     0.000 C 
BRANCH   3   4
ATOM      4  C   UNL     1      61.081  29.561   9.104  1.00  0.00     0.000 C 
BRANCH   4   5
ATOM      5  C   UNL     1      62.156  28.501   9.404  1.00  0.00     0.000 C 
BRANCH   5   6
ATOM      6  C   UNL     1      63.578  28.970   9.045  1.00  0.00     0.000 C 
BRANCH   6   7
ATOM      7  C   UNL     1      64.094  30.065   9.995  1.00  0.00     0.000 C 
BRANCH   7   8
ATOM      8  C   UNL     1      64.040  29.636  11.472  1.00  0.00     0.000 C 
BRANCH   8   9
ATOM      9  C   UNL     1      63.942  30.834  12.430  1.00  0.00     0.000 C 
BRANCH   9  10
ATOM     10  C   UNL     1      64.427  30.498  13.852  1.00  0.00     0.000 C 
BRANCH  10  11
ATOM     11  C   UNL     1      65.103  31.692  14.543  1.00  0.00     0.000 C 
BRANCH  11  12
ATOM     12  C   UNL     1      64.871  33.015  13.794  1.00  0.00     0.006 C 
BRANCH  12  13
ATOM     13  C   UNL     1      66.189  33.709  13.424  1.00  0.00     0.053 C 
BRANCH  13  14
ATOM     14  C   UNL     1      66.195  34.164  11.997  1.00  0.00     0.041 C 
ATOM     15  O   UNL     1      66.019  33.333  11.067  1.00  0.00    -0.550 OA
ATOM     16  O   UNL     1      66.368  35.508  11.696  1.00  0.00    -0.550 OA
ENDBRANCH  13  14
ENDBRANCH  12  13
ENDBRANCH  11  12
ENDBRANCH  10  11
ENDBRANCH   9  10
ENDBRANCH   8   9
ENDBRANCH   7   8
ENDBRANCH   6   7
ENDBRANCH   5   6
ENDBRANCH   4   5
ENDBRANCH   3   4
ENDBRANCH   2   3
ENDBRANCH   1   2
BRANCH   1  17
ATOM     17  C   UNL     1      60.539  31.236  12.461  1.00  0.00     0.000 C 
BRANCH  17  18
ATOM     18  C   UNL     1      60.054  32.118  13.626  1.00  0.00     0.000 C 
BRANCH  18  19
ATOM     19  C   UNL     1      61.166  32.766  14.472  1.00  0.00     0.000 C 
BRANCH  19  20
ATOM     20  C   UNL     1      61.579  31.914  15.680  1.00  0.00     0.000 C 
BRANCH  20  21
ATOM     21  C   UNL     1      61.832  32.789  16.918  1.00  0.00     0.000 C 
BRANCH  21  22
ATOM     22  C   UNL     1      62.180  34.247  16.549  1.00  0.00    -0.000 C 
BRANCH  22  23
ATOM     23  C   UNL     1      63.468  34.774  17.214  1.00  0.00    -0.000 C 
BRANCH  23  24
ATOM     24  C   UNL     1      64.590  33.735  17.384  1.00  0.00    -0.000 C 
BRANCH  24  25
ATOM     25  C   UNL     1      66.019  34.274  17.172  1.00  0.00    -0.000 C 
BRANCH  25  26
ATOM     26  C   UNL     1      66.721  34.716  18.474  1.00  0.00    -0.000 C 
BRANCH  26  27
ATOM     27  C   UNL     1      66.292  33.875  19.686  1.00  0.00    -0.000 C 
BRANCH  27  28
ATOM     28  C   UNL     1      65.640  34.753  20.765  1.00  0.00    -0.000 C 
BRANCH  28  29
ATOM     29  C   UNL     1      64.185  34.347  21.050  1.00  0.00    -0.003 C 
ATOM     30  C   UNL     1      64.064  33.359  22.210  1.00  0.00     0.004 C 
ENDBRANCH  28  29
ENDBRANCH  27  28
ENDBRANCH  26  27
ENDBRANCH  25  26
ENDBRANCH  24  25
ENDBRANCH  23  24
ENDBRANCH  22  23
ENDBRANCH  21  22
ENDBRANCH  20  21
ENDBRANCH  19  20
ENDBRANCH  18  19
ENDBRANCH  17  18
ENDBRANCH   1  17
TORSDOF 26
ENDMDL
MODEL 2
REMARK VINA RESULT:    -4.323      1.461      2.796
REMARK INTER + INTRA:         -15.176
REMARK INTER:                 -11.094
REMARK INTRA:                  -4.081
REMARK UNBOUND:                -4.282
REMARK SMILES CCCCCCCCCCCCCCCCCCCCCCCCCCCC(=O)[O-]
REMARK SMILES IDX 15 1 16 2 17 3 18 4 19 5 20 6 21 7 22 8 23 9 24 10 25 11
REMARK SMILES IDX 26 12 27 13 28 14 29 15 30 16 14 17 13 18 12 19 11 20 10 21
REMARK SMILES IDX 9 22 8 23 7 24 6 25 5 26 4 27 3 28 2 29 1 30
REMARK H PARENT
REMARK Flexibility Score: inf
ROOT
ATOM      1  C   UNL     1      61.865  30.063  13.905  1.00  0.00     0.000 C 
ENDROOT
BRANCH   1   2
ATOM      2  C   UNL     1      61.506  28.817  13.077  1.00  0.00     0.000 C 
BRANCH   2   3
ATOM      3  C   UNL     1      60.001  28.626  12.809  1.00  0.00     0.000 C 
BRANCH   3   4
ATOM      4  C   UNL     1      59.610  28.474  11.324  1.00  0.00     0.000 C 
BRANCH   4   5
ATOM      5  C   UNL     1      60.008  29.655  10.419  1.00  0.00     0.000 C 
BRANCH   5   6
ATOM      6  C   UNL     1      60.348  29.220   8.982  1.00  0.00     0.000 C 
BRANCH   6   7
ATOM      7  C   UNL     1      61.677  28.450   8.899  1.00  0.00     0.000 C 
BRANCH   7   8
ATOM      8  C   UNL     1      62.901  29.374   9.017  1.00  0.00     0.000 C 
BRANCH   8   9
ATOM      9  C   UNL     1      63.721  29.106  10.290  1.00  0.00     0.000 C 
BRANCH   9  10
ATOM     10  C   UNL     1      64.119  30.400  11.023  1.00  0.00     0.000 C 
BRANCH  10  11
ATOM     11  C   UNL     1      65.213  31.185  10.282  1.00  0.00     0.000 C 
BRANCH  11  12
ATOM     12  C   UNL     1      65.400  32.606  10.839  1.00  0.00     0.006 C 
BRANCH  12  13
ATOM     13  C   UNL     1      64.508  32.871  12.059  1.00  0.00     0.053 C 
BRANCH  13  14
ATOM     14  C   UNL     1      65.316  33.196  13.278  1.00  0.00     0.041 C 
ATOM     15  O   UNL     1      65.594  34.394  13.552  1.00  0.00    -0.550 OA
ATOM     16  O   UNL     1      65.740  32.180  14.124  1.00  0.00    -0.550 OA
ENDBRANCH  13  14
ENDBRANCH  12  13
ENDBRANCH  11  12
ENDBRANCH  10  11
ENDBRANCH   9  10
ENDBRANCH   8   9
ENDBRANCH   7   8
ENDBRANCH   6   7
ENDBRANCH   5   6
ENDBRANCH   4   5
ENDBRANCH   3   4
ENDBRANCH   2   3
ENDBRANCH   1   2
BRANCH   1  17
ATOM     17  C   UNL     1      61.260  31.350  13.322  1.00  0.00     0.000 C 
BRANCH  17  18
ATOM     18  C   UNL     1      60.168  31.965  14.217  1.00  0.00     0.000 C 
BRANCH  18  19
ATOM     19  C   UNL     1      60.515  33.330  14.840  1.00  0.00     0.000 C 
BRANCH  19  20
ATOM     20  C   UNL     1      61.932  33.808  14.492  1.00  0.00     0.000 C 
BRANCH  20  21
ATOM     21  C   UNL     1      62.782  33.997  15.758  1.00  0.00     0.000 C 
BRANCH  21  22
ATOM     22  C   UNL     1      62.712  32.779  16.704  1.00  0.00    -0.000 C 
BRANCH  22  23
ATOM     23  C   UNL     1      62.278  33.125  18.143  1.00  0.00    -0.000 C 
BRANCH  23  24
ATOM     24  C   UNL     1      61.878  34.593  18.372  1.00  0.00    -0.000 C 
BRANCH  24  25
ATOM     25  C   UNL     1      62.895  35.431  19.172  1.00  0.00    -0.000 C 
BRANCH  25  26
ATOM     26  C   UNL     1      64.047  34.603  19.781  1.00  0.00    -0.000 C 
BRANCH  26  27
ATOM     27  C   UNL     1      65.397  35.331  19.704  1.00  0.00    -0.000 C 
BRANCH  27  28
ATOM     28  C   UNL     1      66.566  34.337  19.783  1.00  0.00    -0.000 C 
BRANCH  28  29
ATOM     29  C   UNL     1      66.463  33.227  18.725  1.00  0.00    -0.003 C 
ATOM     30  C   UNL     1      66.517  33.766  17.295  1.00  0.00     0.004 C 
ENDBRANCH  28  29
ENDBRANCH  27  28
ENDBRANCH  26  27
ENDBRANCH  25  26
ENDBRANCH  24  25
ENDBRANCH  23  24
ENDBRANCH  22  23
ENDBRANCH  21  22
ENDBRANCH  20  21
ENDBRANCH  19  20
ENDBRANCH  18  19
ENDBRANCH  17  18
ENDBRANCH   1  17
TORSDOF 26
ENDMDL
MODEL 3
REMARK VINA RESULT:    -4.314      1.212      2.297
REMARK INTER + INTRA:         -15.152
REMARK INTER:                 -11.351
REMARK INTRA:                  -3.801
REMARK UNBOUND:                -4.282
REMARK SMILES CCCCCCCCCCCCCCCCCCCCCCCCCCCC(=O)[O-]
REMARK SMILES IDX 15 1 16 2 17 3 18 4 19 5 20 6 21 7 22 8 23 9 24 10 25 11
REMARK SMILES IDX 26 12 27 13 28 14 29 15 30 16 14 17 13 18 12 19 11 20 10 21
REMARK SMILES IDX 9 22 8 23 7 24 6 25 5 26 4 27 3 28 2 29 1 30
REMARK H PARENT
REMARK Flexibility Score: inf
ROOT
ATOM      1  C   UNL     1      60.010  29.111  11.246  1.00  0.00     0.000 C 
ENDROOT
BRANCH   1   2
ATOM      2  C   UNL     1      60.730  28.499  10.031  1.00  0.00     0.000 C 
BRANCH   2   3
ATOM      3  C   UNL     1      61.859  29.366   9.441  1.00  0.00     0.000 C 
BRANCH   3   4
ATOM      4  C   UNL     1      63.283  29.001   9.908  1.00  0.00     0.000 C 
BRANCH   4   5
ATOM      5  C   UNL     1      64.412  29.845   9.289  1.00  0.00     0.000 C 
BRANCH   5   6
ATOM      6  C   UNL     1      64.957  30.916  10.251  1.00  0.00     0.000 C 
BRANCH   6   7
ATOM      7  C   UNL     1      64.096  31.061  11.518  1.00  0.00     0.000 C 
BRANCH   7   8
ATOM      8  C   UNL     1      64.818  30.558  12.780  1.00  0.00     0.000 C 
BRANCH   8   9
ATOM      9  C   UNL     1      64.504  31.412  14.019  1.00  0.00     0.000 C 
BRANCH   9  10
ATOM     10  C   UNL     1      65.774  31.948  14.707  1.00  0.00     0.000 C 
BRANCH  10  11
ATOM     11  C   UNL     1      65.505  33.211  15.540  1.00  0.00     0.000 C 
BRANCH  11  12
ATOM     12  C   UNL     1      65.556  34.495  14.696  1.00  0.00     0.006 C 
BRANCH  12  13
ATOM     13  C   UNL     1      66.810  34.558  13.813  1.00  0.00     0.053 C 
BRANCH  13  14
ATOM     14  C   UNL     1      66.469  34.851  12.385  1.00  0.00     0.041 C 
ATOM     15  O   UNL     1      65.981  33.949  11.653  1.00  0.00    -0.550 OA
ATOM     16  O   UNL     1      66.664  36.125  11.869  1.00  0.00    -0.550 OA
ENDBRANCH  13  14
ENDBRANCH  12  13
ENDBRANCH  11  12
ENDBRANCH  10  11
ENDBRANCH   9  10
ENDBRANCH   8   9
ENDBRANCH   7   8
ENDBRANCH   6   7
ENDBRANCH   5   6
ENDBRANCH   4   5
ENDBRANCH   3   4
ENDBRANCH   2   3
ENDBRANCH   1   2
BRANCH   1  17
ATOM     17  C   UNL     1      60.774  28.880  12.560  1.00  0.00     0.000 C 
BRANCH  17  18
ATOM     18  C   UNL     1      61.096  30.186  13.310  1.00  0.00     0.000 C 
BRANCH  18  19
ATOM     19  C   UNL     1      60.366  31.441  12.794  1.00  0.00     0.000 C 
BRANCH  19  20
ATOM     20  C   UNL     1      61.165  32.734  13.010  1.00  0.00     0.000 C 
BRANCH  20  21
ATOM     21  C   UNL     1      60.746  33.436  14.311  1.00  0.00     0.000 C 
BRANCH  21  22
ATOM     22  C   UNL     1      61.931  33.646  15.278  1.00  0.00    -0.000 C 
BRANCH  22  23
ATOM     23  C   UNL     1      62.027  32.587  16.395  1.00  0.00    -0.000 C 
BRANCH  23  24
ATOM     24  C   UNL     1      61.703  33.096  17.811  1.00  0.00    -0.000 C 
BRANCH  24  25
ATOM     25  C   UNL     1      61.733  34.628  17.978  1.00  0.00    -0.000 C 
BRANCH  25  26
ATOM     26  C   UNL     1      63.049  35.166  18.579  1.00  0.00    -0.000 C 
BRANCH  26  27
ATOM     27  C   UNL     1      63.916  34.052  19.185  1.00  0.00    -0.000 C 
BRANCH  27  28
ATOM     28  C   UNL     1      64.112  34.265  20.694  1.00  0.00    -0.000 C 
BRANCH  28  29
ATOM     29  C   UNL     1      65.524  33.875  21.162  1.00  0.00    -0.003 C 
ATOM     30  C   UNL     1      66.566  34.952  20.857  1.00  0.00     0.004 C 
ENDBRANCH  28  29
ENDBRANCH  27  28
ENDBRANCH  26  27
ENDBRANCH  25  26
ENDBRANCH  24  25
ENDBRANCH  23  24
ENDBRANCH  22  23
ENDBRANCH  21  22
ENDBRANCH  20  21
ENDBRANCH  19  20
ENDBRANCH  18  19
ENDBRANCH  17  18
ENDBRANCH   1  17
TORSDOF 26
ENDMDL
MODEL 4
REMARK VINA RESULT:    -4.271      6.215     12.257
REMARK INTER + INTRA:         -15.044
REMARK INTER:                 -11.589
REMARK INTRA:                  -3.455
REMARK UNBOUND:                -4.282
REMARK SMILES CCCCCCCCCCCCCCCCCCCCCCCCCCCC(=O)[O-]
REMARK SMILES IDX 15 1 16 2 17 3 18 4 19 5 20 6 21 7 22 8 23 9 24 10 25 11
REMARK SMILES IDX 26 12 27 13 28 14 29 15 30 16 14 17 13 18 12 19 11 20 10 21
REMARK SMILES IDX 9 22 8 23 7 24 6 25 5 26 4 27 3 28 2 29 1 30
REMARK H PARENT
REMARK Flexibility Score: inf
ROOT
ATOM      1  C   UNL     1      61.307  28.189  24.564  1.00  0.00     0.000 C 
ENDROOT
BRANCH   1   2
ATOM      2  C   UNL     1      60.773  27.608  25.885  1.00  0.00     0.000 C 
BRANCH   2   3
ATOM      3  C   UNL     1      61.819  26.861  26.736  1.00  0.00     0.000 C 
BRANCH   3   4
ATOM      4  C   UNL     1      62.405  27.666  27.914  1.00  0.00     0.000 C 
BRANCH   4   5
ATOM      5  C   UNL     1      61.605  28.919  28.313  1.00  0.00     0.000 C 
BRANCH   5   6
ATOM      6  C   UNL     1      62.504  30.095  28.738  1.00  0.00     0.000 C 
BRANCH   6   7
ATOM      7  C   UNL     1      63.562  30.440  27.676  1.00  0.00     0.000 C 
BRANCH   7   8
ATOM      8  C   UNL     1      64.999  30.281  28.203  1.00  0.00     0.000 C 
BRANCH   8   9
ATOM      9  C   UNL     1      66.018  30.051  27.076  1.00  0.00     0.000 C 
BRANCH   9  10
ATOM     10  C   UNL     1      65.584  28.941  26.101  1.00  0.00     0.000 C 
BRANCH  10  11
ATOM     11  C   UNL     1      66.434  28.915  24.821  1.00  0.00     0.000 C 
BRANCH  11  12
ATOM     12  C   UNL     1      65.974  27.835  23.828  1.00  0.00     0.006 C 
BRANCH  12  13
ATOM     13  C   UNL     1      65.007  26.832  24.472  1.00  0.00     0.053 C 
BRANCH  13  14
ATOM     14  C   UNL     1      64.053  26.258  23.470  1.00  0.00     0.041 C 
ATOM     15  O   UNL     1      64.035  26.698  22.290  1.00  0.00    -0.550 OA
ATOM     16  O   UNL     1      63.203  25.222  23.832  1.00  0.00    -0.550 OA
ENDBRANCH  13  14
ENDBRANCH  12  13
ENDBRANCH  11  12
ENDBRANCH  10  11
ENDBRANCH   9  10
ENDBRANCH   8   9
ENDBRANCH   7   8
ENDBRANCH   6   7
ENDBRANCH   5   6
ENDBRANCH   4   5
ENDBRANCH   3   4
ENDBRANCH   2   3
ENDBRANCH   1   2
BRANCH   1  17
ATOM     17  C   UNL     1      61.850  29.618  24.728  1.00  0.00     0.000 C 
BRANCH  17  18
ATOM     18  C   UNL     1      63.056  29.915  23.819  1.00  0.00     0.000 C 
BRANCH  18  19
ATOM     19  C   UNL     1      63.752  31.267  24.065  1.00  0.00     0.000 C 
BRANCH  19  20
ATOM     20  C   UNL     1      64.512  31.786  22.836  1.00  0.00     0.000 C 
BRANCH  20  21
ATOM     21  C   UNL     1      63.982  33.159  22.393  1.00  0.00     0.000 C 
BRANCH  21  22
ATOM     22  C   UNL     1      64.933  33.869  21.405  1.00  0.00    -0.000 C 
BRANCH  22  23
ATOM     23  C   UNL     1      64.229  34.861  20.458  1.00  0.00    -0.000 C 
BRANCH  23  24
ATOM     24  C   UNL     1      63.724  34.259  19.135  1.00  0.00    -0.000 C 
BRANCH  24  25
ATOM     25  C   UNL     1      62.248  34.554  18.802  1.00  0.00    -0.000 C 
BRANCH  25  26
ATOM     26  C   UNL     1      61.805  34.042  17.415  1.00  0.00    -0.000 C 
BRANCH  26  27
ATOM     27  C   UNL     1      62.897  34.218  16.349  1.00  0.00    -0.000 C 
BRANCH  27  28
ATOM     28  C   UNL     1      62.498  33.533  15.033  1.00  0.00    -0.000 C 
BRANCH  28  29
ATOM     29  C   UNL     1      61.497  32.387  15.249  1.00  0.00    -0.003 C 
ATOM     30  C   UNL     1      60.176  32.609  14.510  1.00  0.00     0.004 C 
ENDBRANCH  28  29
ENDBRANCH  27  28
ENDBRANCH  26  27
ENDBRANCH  25  26
ENDBRANCH  24  25
ENDBRANCH  23  24
ENDBRANCH  22  23
ENDBRANCH  21  22
ENDBRANCH  20  21
ENDBRANCH  19  20
ENDBRANCH  18  19
ENDBRANCH  17  18
ENDBRANCH   1  17
TORSDOF 26
ENDMDL
MODEL 5
REMARK VINA RESULT:    -4.202      1.916      3.772
REMARK INTER + INTRA:         -14.871
REMARK INTER:                 -10.599
REMARK INTRA:                  -4.272
REMARK UNBOUND:                -4.282
REMARK SMILES CCCCCCCCCCCCCCCCCCCCCCCCCCCC(=O)[O-]
REMARK SMILES IDX 15 1 16 2 17 3 18 4 19 5 20 6 21 7 22 8 23 9 24 10 25 11
REMARK SMILES IDX 26 12 27 13 28 14 29 15 30 16 14 17 13 18 12 19 11 20 10 21
REMARK SMILES IDX 9 22 8 23 7 24 6 25 5 26 4 27 3 28 2 29 1 30
REMARK H PARENT
REMARK Flexibility Score: inf
ROOT
ATOM      1  C   UNL     1      61.562  29.287  10.868  1.00  0.00     0.000 C 
ENDROOT
BRANCH   1   2
ATOM      2  C   UNL     1      62.629  28.843   9.851  1.00  0.00     0.000 C 
BRANCH   2   3
ATOM      3  C   UNL     1      63.660  29.926   9.477  1.00  0.00     0.000 C 
BRANCH   3   4
ATOM      4  C   UNL     1      64.411  30.559  10.666  1.00  0.00     0.000 C 
BRANCH   4   5
ATOM      5  C   UNL     1      64.997  31.958  10.401  1.00  0.00     0.000 C 
BRANCH   5   6
ATOM      6  C   UNL     1      65.003  32.852  11.654  1.00  0.00     0.000 C 
BRANCH   6   7
ATOM      7  C   UNL     1      66.311  33.649  11.802  1.00  0.00     0.000 C 
BRANCH   7   8
ATOM      8  C   UNL     1      66.082  35.053  12.388  1.00  0.00     0.000 C 
BRANCH   8   9
ATOM      9  C   UNL     1      66.472  35.143  13.872  1.00  0.00     0.000 C 
BRANCH   9  10
ATOM     10  C   UNL     1      65.275  34.924  14.815  1.00  0.00     0.000 C 
BRANCH  10  11
ATOM     11  C   UNL     1      65.526  33.804  15.837  1.00  0.00     0.000 C 
BRANCH  11  12
ATOM     12  C   UNL     1      65.078  32.426  15.324  1.00  0.00     0.006 C 
BRANCH  12  13
ATOM     13  C   UNL     1      66.259  31.461  15.152  1.00  0.00     0.053 C 
BRANCH  13  14
ATOM     14  C   UNL     1      65.802  30.086  14.775  1.00  0.00     0.041 C 
ATOM     15  O   UNL     1      64.834  29.935  13.983  1.00  0.00    -0.550 OA
ATOM     16  O   UNL     1      66.461  28.971  15.276  1.00  0.00    -0.550 OA
ENDBRANCH  13  14
ENDBRANCH  12  13
ENDBRANCH  11  12
ENDBRANCH  10  11
ENDBRANCH   9  10
ENDBRANCH   8   9
ENDBRANCH   7   8
ENDBRANCH   6   7
ENDBRANCH   5   6
ENDBRANCH   4   5
ENDBRANCH   3   4
ENDBRANCH   2   3
ENDBRANCH   1   2
BRANCH   1  17
ATOM     17  C   UNL     1      61.739  28.611  12.238  1.00  0.00     0.000 C 
BRANCH  17  18
ATOM     18  C   UNL     1      61.117  29.415  13.394  1.00  0.00     0.000 C 
BRANCH  18  19
ATOM     19  C   UNL     1      60.759  30.877  13.065  1.00  0.00     0.000 C 
BRANCH  19  20
ATOM     20  C   UNL     1      61.884  31.864  13.407  1.00  0.00     0.000 C 
BRANCH  20  21
ATOM     21  C   UNL     1      61.378  33.315  13.379  1.00  0.00     0.000 C 
BRANCH  21  22
ATOM     22  C   UNL     1      60.779  33.758  14.731  1.00  0.00    -0.000 C 
BRANCH  22  23
ATOM     23  C   UNL     1      61.828  33.996  15.837  1.00  0.00    -0.000 C 
BRANCH  23  24
ATOM     24  C   UNL     1      61.794  32.988  17.000  1.00  0.00    -0.000 C 
BRANCH  24  25
ATOM     25  C   UNL     1      62.456  33.473  18.305  1.00  0.00    -0.000 C 
BRANCH  25  26
ATOM     26  C   UNL     1      62.679  35.000  18.364  1.00  0.00    -0.000 C 
BRANCH  26  27
ATOM     27  C   UNL     1      63.868  35.384  19.257  1.00  0.00    -0.000 C 
BRANCH  27  28
ATOM     28  C   UNL     1      64.150  34.292  20.301  1.00  0.00    -0.000 C 
BRANCH  28  29
ATOM     29  C   UNL     1      65.651  34.130  20.587  1.00  0.00    -0.003 C 
ATOM     30  C   UNL     1      66.404  33.461  19.435  1.00  0.00     0.004 C 
ENDBRANCH  28  29
ENDBRANCH  27  28
ENDBRANCH  26  27
ENDBRANCH  25  26
ENDBRANCH  24  25
ENDBRANCH  23  24
ENDBRANCH  22  23
ENDBRANCH  21  22
ENDBRANCH  20  21
ENDBRANCH  19  20
ENDBRANCH  18  19
ENDBRANCH  17  18
ENDBRANCH   1  17
TORSDOF 26
ENDMDL
MODEL 6
REMARK VINA RESULT:    -4.158      1.798      2.644
REMARK INTER + INTRA:         -14.759
REMARK INTER:                 -11.115
REMARK INTRA:                  -3.644
REMARK UNBOUND:                -4.282
REMARK SMILES CCCCCCCCCCCCCCCCCCCCCCCCCCCC(=O)[O-]
REMARK SMILES IDX 15 1 16 2 17 3 18 4 19 5 20 6 21 7 22 8 23 9 24 10 25 11
REMARK SMILES IDX 26 12 27 13 28 14 29 15 30 16 14 17 13 18 12 19 11 20 10 21
REMARK SMILES IDX 9 22 8 23 7 24 6 25 5 26 4 27 3 28 2 29 1 30
REMARK H PARENT
REMARK Flexibility Score: inf
ROOT
ATOM      1  C   UNL     1      60.893  28.605  13.415  1.00  0.00     0.000 C 
ENDROOT
BRANCH   1   2
ATOM      2  C   UNL     1      60.419  27.926  12.118  1.00  0.00     0.000 C 
BRANCH   2   3
ATOM      3  C   UNL     1      59.578  28.820  11.186  1.00  0.00     0.000 C 
BRANCH   3   4
ATOM      4  C   UNL     1      60.146  29.006   9.764  1.00  0.00     0.000 C 
BRANCH   4   5
ATOM      5  C   UNL     1      61.467  29.793   9.684  1.00  0.00     0.000 C 
BRANCH   5   6
ATOM      6  C   UNL     1      62.662  28.918   9.266  1.00  0.00     0.000 C 
BRANCH   6   7
ATOM      7  C   UNL     1      63.982  29.378   9.909  1.00  0.00     0.000 C 
BRANCH   7   8
ATOM      8  C   UNL     1      64.823  30.254   8.964  1.00  0.00     0.000 C 
BRANCH   8   9
ATOM      9  C   UNL     1      65.421  31.479   9.673  1.00  0.00     0.000 C 
BRANCH   9  10
ATOM     10  C   UNL     1      64.858  31.677  11.093  1.00  0.00     0.000 C 
BRANCH  10  11
ATOM     11  C   UNL     1      65.101  33.096  11.631  1.00  0.00     0.000 C 
BRANCH  11  12
ATOM     12  C   UNL     1      64.784  33.220  13.130  1.00  0.00     0.006 C 
BRANCH  12  13
ATOM     13  C   UNL     1      66.055  33.272  13.988  1.00  0.00     0.053 C 
BRANCH  13  14
ATOM     14  C   UNL     1      66.133  32.114  14.935  1.00  0.00     0.041 C 
ATOM     15  O   UNL     1      66.720  32.240  16.042  1.00  0.00    -0.550 OA
ATOM     16  O   UNL     1      65.536  30.904  14.606  1.00  0.00    -0.550 OA
ENDBRANCH  13  14
ENDBRANCH  12  13
ENDBRANCH  11  12
ENDBRANCH  10  11
ENDBRANCH   9  10
ENDBRANCH   8   9
ENDBRANCH   7   8
ENDBRANCH   6   7
ENDBRANCH   5   6
ENDBRANCH   4   5
ENDBRANCH   3   4
ENDBRANCH   2   3
ENDBRANCH   1   2
BRANCH   1  17
ATOM     17  C   UNL     1      62.317  29.173  13.293  1.00  0.00     0.000 C 
BRANCH  17  18
ATOM     18  C   UNL     1      62.352  30.710  13.217  1.00  0.00     0.000 C 
BRANCH  18  19
ATOM     19  C   UNL     1      60.982  31.408  13.323  1.00  0.00     0.000 C 
BRANCH  19  20
ATOM     20  C   UNL     1      61.034  32.897  12.957  1.00  0.00     0.000 C 
BRANCH  20  21
ATOM     21  C   UNL     1      60.951  33.782  14.210  1.00  0.00     0.000 C 
BRANCH  21  22
ATOM     22  C   UNL     1      61.638  33.139  15.434  1.00  0.00    -0.000 C 
BRANCH  22  23
ATOM     23  C   UNL     1      62.116  34.153  16.493  1.00  0.00    -0.000 C 
BRANCH  23  24
ATOM     24  C   UNL     1      63.638  34.203  16.713  1.00  0.00    -0.000 C 
BRANCH  24  25
ATOM     25  C   UNL     1      64.135  35.374  17.584  1.00  0.00    -0.000 C 
BRANCH  25  26
ATOM     26  C   UNL     1      63.510  35.412  18.996  1.00  0.00    -0.000 C 
BRANCH  26  27
ATOM     27  C   UNL     1      63.824  34.148  19.810  1.00  0.00    -0.000 C 
BRANCH  27  28
ATOM     28  C   UNL     1      65.274  34.164  20.318  1.00  0.00    -0.000 C 
BRANCH  28  29
ATOM     29  C   UNL     1      65.771  35.586  20.624  1.00  0.00    -0.003 C 
ATOM     30  C   UNL     1      67.124  35.890  19.980  1.00  0.00     0.004 C 
ENDBRANCH  28  29
ENDBRANCH  27  28
ENDBRANCH  26  27
ENDBRANCH  25  26
ENDBRANCH  24  25
ENDBRANCH  23  24
ENDBRANCH  22  23
ENDBRANCH  21  22
ENDBRANCH  20  21
ENDBRANCH  19  20
ENDBRANCH  18  19
ENDBRANCH  17  18
ENDBRANCH   1  17
TORSDOF 26
ENDMDL
MODEL 7
REMARK VINA RESULT:    -4.140      1.857      2.871
REMARK INTER + INTRA:         -14.716
REMARK INTER:                 -10.832
REMARK INTRA:                  -3.884
REMARK UNBOUND:                -4.282
REMARK SMILES CCCCCCCCCCCCCCCCCCCCCCCCCCCC(=O)[O-]
REMARK SMILES IDX 15 1 16 2 17 3 18 4 19 5 20 6 21 7 22 8 23 9 24 10 25 11
REMARK SMILES IDX 26 12 27 13 28 14 29 15 30 16 14 17 13 18 12 19 11 20 10 21
REMARK SMILES IDX 9 22 8 23 7 24 6 25 5 26 4 27 3 28 2 29 1 30
REMARK H PARENT
REMARK Flexibility Score: inf
ROOT
ATOM      1  C   UNL     1      61.473  29.905  13.315  1.00  0.00     0.000 C 
ENDROOT
BRANCH   1   2
ATOM      2  C   UNL     1      61.080  28.654  12.510  1.00  0.00     0.000 C 
BRANCH   2   3
ATOM      3  C   UNL     1      59.810  28.806  11.650  1.00  0.00     0.000 C 
BRANCH   3   4
ATOM      4  C   UNL     1      60.057  28.982  10.137  1.00  0.00     0.000 C 
BRANCH   4   5
ATOM      5  C   UNL     1      61.353  28.341   9.607  1.00  0.00     0.000 C 
BRANCH   5   6
ATOM      6  C   UNL     1      62.410  29.380   9.193  1.00  0.00     0.000 C 
BRANCH   6   7
ATOM      7  C   UNL     1      63.737  29.205   9.952  1.00  0.00     0.000 C 
BRANCH   7   8
ATOM      8  C   UNL     1      64.595  30.483   9.940  1.00  0.00     0.000 C 
BRANCH   8   9
ATOM      9  C   UNL     1      64.047  31.569  10.880  1.00  0.00     0.000 C 
BRANCH   9  10
ATOM     10  C   UNL     1      65.158  32.448  11.482  1.00  0.00     0.000 C 
BRANCH  10  11
ATOM     11  C   UNL     1      64.712  33.165  12.766  1.00  0.00     0.000 C 
BRANCH  11  12
ATOM     12  C   UNL     1      64.243  32.186  13.855  1.00  0.00     0.006 C 
BRANCH  12  13
ATOM     13  C   UNL     1      65.419  31.564  14.620  1.00  0.00     0.053 C 
BRANCH  13  14
ATOM     14  C   UNL     1      65.511  30.086  14.392  1.00  0.00     0.041 C 
ATOM     15  O   UNL     1      64.804  29.538  13.504  1.00  0.00    -0.550 OA
ATOM     16  O   UNL     1      66.393  29.319  15.140  1.00  0.00    -0.550 OA
ENDBRANCH  13  14
ENDBRANCH  12  13
ENDBRANCH  11  12
ENDBRANCH  10  11
ENDBRANCH   9  10
ENDBRANCH   8   9
ENDBRANCH   7   8
ENDBRANCH   6   7
ENDBRANCH   5   6
ENDBRANCH   4   5
ENDBRANCH   3   4
ENDBRANCH   2   3
ENDBRANCH   1   2
BRANCH   1  17
ATOM     17  C   UNL     1      60.818  31.184  12.768  1.00  0.00     0.000 C 
BRANCH  17  18
ATOM     18  C   UNL     1      60.017  31.956  13.832  1.00  0.00     0.000 C 
BRANCH  18  19
ATOM     19  C   UNL     1      60.860  32.756  14.843  1.00  0.00     0.000 C 
BRANCH  19  20
ATOM     20  C   UNL     1      61.358  31.903  16.019  1.00  0.00     0.000 C 
BRANCH  20  21
ATOM     21  C   UNL     1      61.496  32.745  17.297  1.00  0.00     0.000 C 
BRANCH  21  22
ATOM     22  C   UNL     1      61.783  34.232  16.998  1.00  0.00    -0.000 C 
BRANCH  22  23
ATOM     23  C   UNL     1      62.477  34.983  18.152  1.00  0.00    -0.000 C 
BRANCH  23  24
ATOM     24  C   UNL     1      63.465  34.143  18.981  1.00  0.00    -0.000 C 
BRANCH  24  25
ATOM     25  C   UNL     1      64.134  34.888  20.153  1.00  0.00    -0.000 C 
BRANCH  25  26
ATOM     26  C   UNL     1      65.663  35.042  20.005  1.00  0.00    -0.000 C 
BRANCH  26  27
ATOM     27  C   UNL     1      66.068  35.563  18.618  1.00  0.00    -0.000 C 
BRANCH  27  28
ATOM     28  C   UNL     1      66.923  34.530  17.869  1.00  0.00    -0.000 C 
BRANCH  28  29
ATOM     29  C   UNL     1      66.778  34.646  16.343  1.00  0.00    -0.003 C 
ATOM     30  C   UNL     1      65.385  35.109  15.915  1.00  0.00     0.004 C 
ENDBRANCH  28  29
ENDBRANCH  27  28
ENDBRANCH  26  27
ENDBRANCH  25  26
ENDBRANCH  24  25
ENDBRANCH  23  24
ENDBRANCH  22  23
ENDBRANCH  21  22
ENDBRANCH  20  21
ENDBRANCH  19  20
ENDBRANCH  18  19
ENDBRANCH  17  18
ENDBRANCH   1  17
TORSDOF 26
ENDMDL
MODEL 8
REMARK VINA RESULT:    -4.033      5.280     10.441
REMARK INTER + INTRA:         -14.444
REMARK INTER:                 -11.930
REMARK INTRA:                  -2.515
REMARK UNBOUND:                -4.282
REMARK SMILES CCCCCCCCCCCCCCCCCCCCCCCCCCCC(=O)[O-]
REMARK SMILES IDX 15 1 16 2 17 3 18 4 19 5 20 6 21 7 22 8 23 9 24 10 25 11
REMARK SMILES IDX 26 12 27 13 28 14 29 15 30 16 14 17 13 18 12 19 11 20 10 21
REMARK SMILES IDX 9 22 8 23 7 24 6 25 5 26 4 27 3 28 2 29 1 30
REMARK H PARENT
REMARK Flexibility Score: inf
ROOT
ATOM      1  C   UNL     1      63.761  30.600  23.623  1.00  0.00     0.000 C 
ENDROOT
BRANCH   1   2
ATOM      2  C   UNL     1      64.646  31.769  23.157  1.00  0.00     0.000 C 
BRANCH   2   3
ATOM      3  C   UNL     1      63.876  33.021  22.693  1.00  0.00     0.000 C 
BRANCH   3   4
ATOM      4  C   UNL     1      64.554  33.832  21.569  1.00  0.00     0.000 C 
BRANCH   4   5
ATOM      5  C   UNL     1      63.751  33.935  20.260  1.00  0.00     0.000 C 
BRANCH   5   6
ATOM      6  C   UNL     1      63.822  35.333  19.621  1.00  0.00     0.000 C 
BRANCH   6   7
ATOM      7  C   UNL     1      63.080  35.404  18.275  1.00  0.00     0.000 C 
BRANCH   7   8
ATOM      8  C   UNL     1      62.876  34.017  17.641  1.00  0.00     0.000 C 
BRANCH   8   9
ATOM      9  C   UNL     1      63.159  34.012  16.131  1.00  0.00     0.000 C 
BRANCH   9  10
ATOM     10  C   UNL     1      62.465  32.846  15.401  1.00  0.00     0.000 C 
BRANCH  10  11
ATOM     11  C   UNL     1      61.680  33.309  14.163  1.00  0.00     0.000 C 
BRANCH  11  12
ATOM     12  C   UNL     1      60.380  32.515  13.959  1.00  0.00     0.006 C 
BRANCH  12  13
ATOM     13  C   UNL     1      60.383  31.728  12.642  1.00  0.00     0.053 C 
BRANCH  13  14
ATOM     14  C   UNL     1      60.599  30.264  12.871  1.00  0.00     0.041 C 
ATOM     15  O   UNL     1      61.359  29.873  13.798  1.00  0.00    -0.550 OA
ATOM     16  O   UNL     1      59.943  29.330  12.080  1.00  0.00    -0.550 OA
ENDBRANCH  13  14
ENDBRANCH  12  13
ENDBRANCH  11  12
ENDBRANCH  10  11
ENDBRANCH   9  10
ENDBRANCH   8   9
ENDBRANCH   7   8
ENDBRANCH   6   7
ENDBRANCH   5   6
ENDBRANCH   4   5
ENDBRANCH   3   4
ENDBRANCH   2   3
ENDBRANCH   1   2
BRANCH   1  17
ATOM     17  C   UNL     1      63.453  30.659  25.128  1.00  0.00     0.000 C 
BRANCH  17  18
ATOM     18  C   UNL     1      64.589  30.096  26.001  1.00  0.00     0.000 C 
BRANCH  18  19
ATOM     19  C   UNL     1      64.208  29.784  27.461  1.00  0.00     0.000 C 
BRANCH  19  20
ATOM     20  C   UNL     1      62.817  30.309  27.846  1.00  0.00     0.000 C 
BRANCH  20  21
ATOM     21  C   UNL     1      62.171  29.430  28.928  1.00  0.00     0.000 C 
BRANCH  21  22
ATOM     22  C   UNL     1      60.896  28.718  28.428  1.00  0.00    -0.000 C 
BRANCH  22  23
ATOM     23  C   UNL     1      61.144  27.304  27.864  1.00  0.00    -0.000 C 
BRANCH  23  24
ATOM     24  C   UNL     1      60.929  27.156  26.347  1.00  0.00    -0.000 C 
BRANCH  24  25
ATOM     25  C   UNL     1      62.196  27.329  25.486  1.00  0.00    -0.000 C 
BRANCH  25  26
ATOM     26  C   UNL     1      63.296  26.286  25.777  1.00  0.00    -0.000 C 
BRANCH  26  27
ATOM     27  C   UNL     1      64.583  26.554  24.980  1.00  0.00    -0.000 C 
BRANCH  27  28
ATOM     28  C   UNL     1      64.520  25.897  23.593  1.00  0.00    -0.000 C 
BRANCH  28  29
ATOM     29  C   UNL     1      65.672  26.345  22.680  1.00  0.00    -0.003 C 
ATOM     30  C   UNL     1      66.129  27.777  22.964  1.00  0.00     0.004 C 
ENDBRANCH  28  29
ENDBRANCH  27  28
ENDBRANCH  26  27
ENDBRANCH  25  26
ENDBRANCH  24  25
ENDBRANCH  23  24
ENDBRANCH  22  23
ENDBRANCH  21  22
ENDBRANCH  20  21
ENDBRANCH  19  20
ENDBRANCH  18  19
ENDBRANCH  17  18
ENDBRANCH   1  17
TORSDOF 26
ENDMDL
MODEL 9
REMARK VINA RESULT:    -3.943      5.917     12.213
REMARK INTER + INTRA:         -14.219
REMARK INTER:                 -11.587
REMARK INTRA:                  -2.632
REMARK UNBOUND:                -4.282
REMARK SMILES CCCCCCCCCCCCCCCCCCCCCCCCCCCC(=O)[O-]
REMARK SMILES IDX 15 1 16 2 17 3 18 4 19 5 20 6 21 7 22 8 23 9 24 10 25 11
REMARK SMILES IDX 26 12 27 13 28 14 29 15 30 16 14 17 13 18 12 19 11 20 10 21
REMARK SMILES IDX 9 22 8 23 7 24 6 25 5 26 4 27 3 28 2 29 1 30
REMARK H PARENT
REMARK Flexibility Score: inf
ROOT
ATOM      1  C   UNL     1      65.973  29.771  23.573  1.00  0.00     0.000 C 
ENDROOT
BRANCH   1   2
ATOM      2  C   UNL     1      66.861  29.804  24.829  1.00  0.00     0.000 C 
BRANCH   2   3
ATOM      3  C   UNL     1      66.163  29.363  26.130  1.00  0.00     0.000 C 
BRANCH   3   4
ATOM      4  C   UNL     1      64.972  30.241  26.568  1.00  0.00     0.000 C 
BRANCH   4   5
ATOM      5  C   UNL     1      64.165  29.700  27.762  1.00  0.00     0.000 C 
BRANCH   5   6
ATOM      6  C   UNL     1      62.741  30.280  27.836  1.00  0.00     0.000 C 
BRANCH   6   7
ATOM      7  C   UNL     1      61.675  29.196  28.074  1.00  0.00     0.000 C 
BRANCH   7   8
ATOM      8  C   UNL     1      62.258  27.774  28.013  1.00  0.00     0.000 C 
BRANCH   8   9
ATOM      9  C   UNL     1      61.951  27.068  26.683  1.00  0.00     0.000 C 
BRANCH   9  10
ATOM     10  C   UNL     1      60.706  27.641  25.980  1.00  0.00     0.000 C 
BRANCH  10  11
ATOM     11  C   UNL     1      61.000  28.105  24.545  1.00  0.00     0.000 C 
BRANCH  11  12
ATOM     12  C   UNL     1      62.493  28.387  24.310  1.00  0.00     0.006 C 
BRANCH  12  13
ATOM     13  C   UNL     1      62.970  27.878  22.943  1.00  0.00     0.053 C 
BRANCH  13  14
ATOM     14  C   UNL     1      63.707  26.579  23.061  1.00  0.00     0.041 C 
ATOM     15  O   UNL     1      64.874  26.470  22.599  1.00  0.00    -0.550 OA
ATOM     16  O   UNL     1      63.118  25.499  23.703  1.00  0.00    -0.550 OA
ENDBRANCH  13  14
ENDBRANCH  12  13
ENDBRANCH  11  12
ENDBRANCH  10  11
ENDBRANCH   9  10
ENDBRANCH   8   9
ENDBRANCH   7   8
ENDBRANCH   6   7
ENDBRANCH   5   6
ENDBRANCH   4   5
ENDBRANCH   3   4
ENDBRANCH   2   3
ENDBRANCH   1   2
BRANCH   1  17
ATOM     17  C   UNL     1      65.730  31.172  22.988  1.00  0.00     0.000 C 
BRANCH  17  18
ATOM     18  C   UNL     1      67.001  31.812  22.401  1.00  0.00     0.000 C 
BRANCH  18  19
ATOM     19  C   UNL     1      66.787  33.147  21.661  1.00  0.00     0.000 C 
BRANCH  19  20
ATOM     20  C   UNL     1      65.314  33.574  21.603  1.00  0.00     0.000 C 
BRANCH  20  21
ATOM     21  C   UNL     1      65.051  34.500  20.406  1.00  0.00     0.000 C 
BRANCH  21  22
ATOM     22  C   UNL     1      63.704  34.203  19.713  1.00  0.00    -0.000 C 
BRANCH  22  23
ATOM     23  C   UNL     1      63.358  35.173  18.565  1.00  0.00    -0.000 C 
BRANCH  23  24
ATOM     24  C   UNL     1      63.199  34.520  17.181  1.00  0.00    -0.000 C 
BRANCH  24  25
ATOM     25  C   UNL     1      61.847  33.818  16.940  1.00  0.00    -0.000 C 
BRANCH  25  26
ATOM     26  C   UNL     1      61.114  34.292  15.666  1.00  0.00    -0.000 C 
BRANCH  26  27
ATOM     27  C   UNL     1      60.589  33.121  14.823  1.00  0.00    -0.000 C 
BRANCH  27  28
ATOM     28  C   UNL     1      61.225  33.119  13.424  1.00  0.00    -0.000 C 
BRANCH  28  29
ATOM     29  C   UNL     1      62.760  33.081  13.479  1.00  0.00    -0.003 C 
ATOM     30  C   UNL     1      63.303  31.720  13.916  1.00  0.00     0.004 C 
ENDBRANCH  28  29
ENDBRANCH  27  28
ENDBRANCH  26  27
ENDBRANCH  25  26
ENDBRANCH  24  25
ENDBRANCH  23  24
ENDBRANCH  22  23
ENDBRANCH  21  22
ENDBRANCH  20  21
ENDBRANCH  19  20
ENDBRANCH  18  19
ENDBRANCH  17  18
ENDBRANCH   1  17
TORSDOF 26
ENDMDL
