MODEL 1
REMARK VINA RESULT:    -4.732      0.000      0.000
REMARK INTER + INTRA:          -5.694
REMARK INTER:                  -5.562
REMARK INTRA:                  -0.132
REMARK UNBOUND:                -0.132
REMARK SMILES O=C([O-])C=Cc1ccc(O)c(O)c1
REMARK SMILES IDX 6 1 13 2 7 3 11 4 8 5 9 6 5 7 4 8 2 9 1 10 3 11 12 12 10 14
REMARK H PARENT 12 13 10 15
REMARK Flexibility Score: inf
ROOT
ATOM      1  C   UNL     1      35.590 -30.319  10.373  1.00  0.00    -0.022 A 
ATOM      2  C   UNL     1      34.656 -31.084  11.092  1.00  0.00     0.058 A 
ATOM      3  C   UNL     1      35.766 -28.964  10.718  1.00  0.00     0.012 A 
ATOM      4  C   UNL     1      33.894 -30.507  12.117  1.00  0.00     0.157 A 
ATOM      5  C   UNL     1      35.008 -28.389  11.740  1.00  0.00     0.051 A 
ATOM      6  C   UNL     1      34.068 -29.157  12.440  1.00  0.00     0.157 A 
ENDROOT
BRANCH   1   7
ATOM      7  C   UNL     1      36.378 -30.979   9.303  1.00  0.00     0.010 C 
ATOM      8  C   UNL     1      36.001 -32.108   8.687  1.00  0.00     0.025 C 
BRANCH   8   9
ATOM      9  C   UNL     1      36.822 -32.734   7.640  1.00  0.00     0.064 C 
ATOM     10  O   UNL     1      37.991 -33.116   7.912  1.00  0.00    -0.545 OA
ATOM     11  O   UNL     1      36.329 -32.914   6.352  1.00  0.00    -0.545 OA
ENDBRANCH   8   9
ENDBRANCH   1   7
BRANCH   4  12
ATOM     12  O   UNL     1      32.964 -31.271  12.820  1.00  0.00    -0.504 OA
ATOM     13  H   UNL     1      32.797 -31.125  13.809  1.00  0.00     0.293 HD
ENDBRANCH   4  12
BRANCH   6  14
ATOM     14  O   UNL     1      33.309 -28.586  13.461  1.00  0.00    -0.504 OA
ATOM     15  H   UNL     1      33.686 -28.454  14.391  1.00  0.00     0.293 HD
ENDBRANCH   6  14
TORSDOF 4
ENDMDL
MODEL 2
REMARK VINA RESULT:    -4.035      1.602      2.700
REMARK INTER + INTRA:          -4.875
REMARK INTER:                  -4.746
REMARK INTRA:                  -0.129
REMARK UNBOUND:                -0.132
REMARK SMILES O=C([O-])C=Cc1ccc(O)c(O)c1
REMARK SMILES IDX 6 1 13 2 7 3 11 4 8 5 9 6 5 7 4 8 2 9 1 10 3 11 12 12 10 14
REMARK H PARENT 12 13 10 15
REMARK Flexibility Score: inf
ROOT
ATOM      1  C   UNL     1      35.964 -31.610   9.006  1.00  0.00    -0.022 A 
ATOM      2  C   UNL     1      35.956 -30.282   9.467  1.00  0.00     0.058 A 
ATOM      3  C   UNL     1      35.287 -32.593   9.755  1.00  0.00     0.012 A 
ATOM      4  C   UNL     1      35.308 -29.943  10.663  1.00  0.00     0.157 A 
ATOM      5  C   UNL     1      34.641 -32.254  10.947  1.00  0.00     0.051 A 
ATOM      6  C   UNL     1      34.652 -30.931  11.406  1.00  0.00     0.157 A 
ENDROOT
BRANCH   1   7
ATOM      7  C   UNL     1      36.655 -31.916   7.729  1.00  0.00     0.010 C 
ATOM      8  C   UNL     1      36.022 -32.080   6.560  1.00  0.00     0.025 C 
BRANCH   8   9
ATOM      9  C   UNL     1      36.748 -32.394   5.320  1.00  0.00     0.064 C 
ATOM     10  O   UNL     1      37.934 -31.998   5.177  1.00  0.00    -0.545 OA
ATOM     11  O   UNL     1      36.147 -33.125   4.301  1.00  0.00    -0.545 OA
ENDBRANCH   8   9
ENDBRANCH   1   7
BRANCH   4  12
ATOM     12  O   UNL     1      35.311 -28.626  11.118  1.00  0.00    -0.504 OA
ATOM     13  H   UNL     1      34.466 -28.179  11.455  1.00  0.00     0.293 HD
ENDBRANCH   4  12
BRANCH   6  14
ATOM     14  O   UNL     1      34.008 -30.590  12.595  1.00  0.00    -0.504 OA
ATOM     15  H   UNL     1      33.252 -29.917  12.614  1.00  0.00     0.293 HD
ENDBRANCH   6  14
TORSDOF 4
ENDMDL
MODEL 3
REMARK VINA RESULT:    -3.750      1.156      5.799
REMARK INTER + INTRA:          -4.540
REMARK INTER:                  -4.411
REMARK INTRA:                  -0.129
REMARK UNBOUND:                -0.132
REMARK SMILES O=C([O-])C=Cc1ccc(O)c(O)c1
REMARK SMILES IDX 6 1 13 2 7 3 11 4 8 5 9 6 5 7 4 8 2 9 1 10 3 11 12 12 10 14
REMARK H PARENT 12 13 10 15
REMARK Flexibility Score: inf
ROOT
ATOM      1  C   UNL     1      35.456 -31.252  10.074  1.00  0.00    -0.022 A 
ATOM      2  C   UNL     1      34.633 -31.866   9.116  1.00  0.00     0.058 A 
ATOM      3  C   UNL     1      36.851 -31.253   9.873  1.00  0.00     0.012 A 
ATOM      4  C   UNL     1      35.187 -32.493   7.991  1.00  0.00     0.157 A 
ATOM      5  C   UNL     1      37.403 -31.877   8.751  1.00  0.00     0.051 A 
ATOM      6  C   UNL     1      36.575 -32.501   7.810  1.00  0.00     0.157 A 
ENDROOT
BRANCH   1   7
ATOM      7  C   UNL     1      34.819 -30.593  11.242  1.00  0.00     0.010 C 
ATOM      8  C   UNL     1      34.512 -29.290  11.287  1.00  0.00     0.025 C 
BRANCH   8   9
ATOM      9  C   UNL     1      33.892 -28.677  12.472  1.00  0.00     0.064 C 
ATOM     10  O   UNL     1      33.454 -27.499  12.405  1.00  0.00    -0.545 OA
ATOM     11  O   UNL     1      33.778 -29.379  13.666  1.00  0.00    -0.545 OA
ENDBRANCH   8   9
ENDBRANCH   1   7
BRANCH   4  12
ATOM     12  O   UNL     1      34.365 -33.108   7.049  1.00  0.00    -0.504 OA
ATOM     13  H   UNL     1      34.324 -34.117   6.958  1.00  0.00     0.293 HD
ENDBRANCH   4  12
BRANCH   6  14
ATOM     14  O   UNL     1      37.123 -33.125   6.690  1.00  0.00    -0.504 OA
ATOM     15  H   UNL     1      37.233 -34.131   6.645  1.00  0.00     0.293 HD
ENDBRANCH   6  14
TORSDOF 4
ENDMDL
MODEL 4
REMARK VINA RESULT:    -3.362     19.958     21.312
REMARK INTER + INTRA:          -4.084
REMARK INTER:                  -3.951
REMARK INTRA:                  -0.133
REMARK UNBOUND:                -0.132
REMARK SMILES O=C([O-])C=Cc1ccc(O)c(O)c1
REMARK SMILES IDX 6 1 13 2 7 3 11 4 8 5 9 6 5 7 4 8 2 9 1 10 3 11 12 12 10 14
REMARK H PARENT 12 13 10 15
REMARK Flexibility Score: inf
ROOT
ATOM      1  C   UNL     1      21.509 -15.286   5.617  1.00  0.00    -0.022 A 
ATOM      2  C   UNL     1      22.409 -15.865   6.528  1.00  0.00     0.058 A 
ATOM      3  C   UNL     1      21.341 -13.887   5.624  1.00  0.00     0.012 A 
ATOM      4  C   UNL     1      23.110 -15.071   7.445  1.00  0.00     0.157 A 
ATOM      5  C   UNL     1      22.041 -13.095   6.538  1.00  0.00     0.051 A 
ATOM      6  C   UNL     1      22.925 -13.683   7.452  1.00  0.00     0.157 A 
ENDROOT
BRANCH   1   7
ATOM      7  C   UNL     1      20.798 -16.169   4.660  1.00  0.00     0.010 C 
ATOM      8  C   UNL     1      20.946 -16.099   3.330  1.00  0.00     0.025 C 
BRANCH   8   9
ATOM      9  C   UNL     1      20.210 -16.989   2.418  1.00  0.00     0.064 C 
ATOM     10  O   UNL     1      19.875 -18.138   2.807  1.00  0.00    -0.545 OA
ATOM     11  O   UNL     1      19.877 -16.581   1.131  1.00  0.00    -0.545 OA
ENDBRANCH   8   9
ENDBRANCH   1   7
BRANCH   4  12
ATOM     12  O   UNL     1      23.995 -15.653   8.351  1.00  0.00    -0.504 OA
ATOM     13  H   UNL     1      24.749 -16.256   8.042  1.00  0.00     0.293 HD
ENDBRANCH   4  12
BRANCH   6  14
ATOM     14  O   UNL     1      23.624 -12.896   8.366  1.00  0.00    -0.504 OA
ATOM     15  H   UNL     1      24.169 -12.096   8.067  1.00  0.00     0.293 HD
ENDBRANCH   6  14
TORSDOF 4
ENDMDL
MODEL 5
REMARK VINA RESULT:    -3.326      1.178      2.181
REMARK INTER + INTRA:          -4.041
REMARK INTER:                  -3.907
REMARK INTRA:                  -0.134
REMARK UNBOUND:                -0.132
REMARK SMILES O=C([O-])C=Cc1ccc(O)c(O)c1
REMARK SMILES IDX 6 1 13 2 7 3 11 4 8 5 9 6 5 7 4 8 2 9 1 10 3 11 12 12 10 14
REMARK H PARENT 12 13 10 15
REMARK Flexibility Score: inf
ROOT
ATOM      1  C   UNL     1      34.883 -31.286  10.053  1.00  0.00    -0.022 A 
ATOM      2  C   UNL     1      35.253 -29.938  10.198  1.00  0.00     0.058 A 
ATOM      3  C   UNL     1      34.107 -31.890  11.062  1.00  0.00     0.012 A 
ATOM      4  C   UNL     1      34.880 -29.212  11.338  1.00  0.00     0.157 A 
ATOM      5  C   UNL     1      33.735 -31.166  12.197  1.00  0.00     0.051 A 
ATOM      6  C   UNL     1      34.121 -29.827  12.340  1.00  0.00     0.157 A 
ENDROOT
BRANCH   1   7
ATOM      7  C   UNL     1      35.294 -32.008   8.824  1.00  0.00     0.010 C 
ATOM      8  C   UNL     1      36.372 -31.687   8.096  1.00  0.00     0.025 C 
BRANCH   8   9
ATOM      9  C   UNL     1      36.735 -32.425   6.876  1.00  0.00     0.064 C 
ATOM     10  O   UNL     1      35.866 -33.125   6.292  1.00  0.00    -0.545 OA
ATOM     11  O   UNL     1      38.022 -32.360   6.353  1.00  0.00    -0.545 OA
ENDBRANCH   8   9
ENDBRANCH   1   7
BRANCH   4  12
ATOM     12  O   UNL     1      35.257 -27.878  11.479  1.00  0.00    -0.504 OA
ATOM     13  H   UNL     1      34.810 -27.141  10.946  1.00  0.00     0.293 HD
ENDBRANCH   4  12
BRANCH   6  14
ATOM     14  O   UNL     1      33.752 -29.102  13.472  1.00  0.00    -0.504 OA
ATOM     15  H   UNL     1      33.936 -29.448  14.406  1.00  0.00     0.293 HD
ENDBRANCH   6  14
TORSDOF 4
ENDMDL
MODEL 6
REMARK VINA RESULT:    -3.055      1.752      5.933
REMARK INTER + INTRA:          -3.723
REMARK INTER:                  -3.590
REMARK INTRA:                  -0.133
REMARK UNBOUND:                -0.132
REMARK SMILES O=C([O-])C=Cc1ccc(O)c(O)c1
REMARK SMILES IDX 6 1 13 2 7 3 11 4 8 5 9 6 5 7 4 8 2 9 1 10 3 11 12 12 10 14
REMARK H PARENT 12 13 10 15
REMARK Flexibility Score: inf
ROOT
ATOM      1  C   UNL     1      36.250 -30.834   9.999  1.00  0.00    -0.022 A 
ATOM      2  C   UNL     1      37.494 -30.793  10.650  1.00  0.00     0.058 A 
ATOM      3  C   UNL     1      36.097 -31.673   8.877  1.00  0.00     0.012 A 
ATOM      4  C   UNL     1      38.574 -31.552  10.180  1.00  0.00     0.157 A 
ATOM      5  C   UNL     1      37.174 -32.430   8.409  1.00  0.00     0.051 A 
ATOM      6  C   UNL     1      38.415 -32.371   9.056  1.00  0.00     0.157 A 
ENDROOT
BRANCH   1   7
ATOM      7  C   UNL     1      35.135 -30.018  10.543  1.00  0.00     0.010 C 
ATOM      8  C   UNL     1      35.266 -29.166  11.568  1.00  0.00     0.025 C 
BRANCH   8   9
ATOM      9  C   UNL     1      34.129 -28.386  12.082  1.00  0.00     0.064 C 
ATOM     10  O   UNL     1      33.648 -27.456  11.383  1.00  0.00    -0.545 OA
ATOM     11  O   UNL     1      33.574 -28.662  13.326  1.00  0.00    -0.545 OA
ENDBRANCH   8   9
ENDBRANCH   1   7
BRANCH   4  12
ATOM     12  O   UNL     1      39.808 -31.500  10.826  1.00  0.00    -0.504 OA
ATOM     13  H   UNL     1      40.016 -32.093  11.621  1.00  0.00     0.293 HD
ENDBRANCH   4  12
BRANCH   6  14
ATOM     14  O   UNL     1      39.491 -33.125   8.590  1.00  0.00    -0.504 OA
ATOM     15  H   UNL     1      39.531 -33.456   7.634  1.00  0.00     0.293 HD
ENDBRANCH   6  14
TORSDOF 4
ENDMDL
MODEL 7
REMARK VINA RESULT:    -2.816     21.333     21.882
REMARK INTER + INTRA:          -3.442
REMARK INTER:                  -3.311
REMARK INTRA:                  -0.131
REMARK UNBOUND:                -0.132
REMARK SMILES O=C([O-])C=Cc1ccc(O)c(O)c1
REMARK SMILES IDX 6 1 13 2 7 3 11 4 8 5 9 6 5 7 4 8 2 9 1 10 3 11 12 12 10 14
REMARK H PARENT 12 13 10 15
REMARK Flexibility Score: inf
ROOT
ATOM      1  C   UNL     1      20.263 -16.385   4.081  1.00  0.00    -0.022 A 
ATOM      2  C   UNL     1      20.995 -15.260   3.667  1.00  0.00     0.058 A 
ATOM      3  C   UNL     1      19.875 -16.484   5.432  1.00  0.00     0.012 A 
ATOM      4  C   UNL     1      21.356 -14.263   4.584  1.00  0.00     0.157 A 
ATOM      5  C   UNL     1      20.235 -15.490   6.346  1.00  0.00     0.051 A 
ATOM      6  C   UNL     1      20.978 -14.379   5.926  1.00  0.00     0.157 A 
ENDROOT
BRANCH   1   7
ATOM      7  C   UNL     1      19.896 -17.407   3.070  1.00  0.00     0.010 C 
ATOM      8  C   UNL     1      20.627 -17.672   1.979  1.00  0.00     0.025 C 
BRANCH   8   9
ATOM      9  C   UNL     1      20.218 -18.687   0.996  1.00  0.00     0.064 C 
ATOM     10  O   UNL     1      20.052 -19.879   1.365  1.00  0.00    -0.545 OA
ATOM     11  O   UNL     1      20.007 -18.352  -0.337  1.00  0.00    -0.545 OA
ENDBRANCH   8   9
ENDBRANCH   1   7
BRANCH   4  12
ATOM     12  O   UNL     1      22.090 -13.154   4.167  1.00  0.00    -0.504 OA
ATOM     13  H   UNL     1      22.180 -12.915   3.186  1.00  0.00     0.293 HD
ENDBRANCH   4  12
BRANCH   6  14
ATOM     14  O   UNL     1      21.340 -13.386   6.836  1.00  0.00    -0.504 OA
ATOM     15  H   UNL     1      21.849 -13.605   7.684  1.00  0.00     0.293 HD
ENDBRANCH   6  14
TORSDOF 4
ENDMDL
MODEL 8
REMARK VINA RESULT:    -2.767     20.993     21.786
REMARK INTER + INTRA:          -3.384
REMARK INTER:                  -3.249
REMARK INTRA:                  -0.135
REMARK UNBOUND:                -0.132
REMARK SMILES O=C([O-])C=Cc1ccc(O)c(O)c1
REMARK SMILES IDX 6 1 13 2 7 3 11 4 8 5 9 6 5 7 4 8 2 9 1 10 3 11 12 12 10 14
REMARK H PARENT 12 13 10 15
REMARK Flexibility Score: inf
ROOT
ATOM      1  C   UNL     1      20.293 -16.475   3.381  1.00  0.00    -0.022 A 
ATOM      2  C   UNL     1      20.351 -16.469   4.785  1.00  0.00     0.058 A 
ATOM      3  C   UNL     1      20.600 -15.290   2.683  1.00  0.00     0.012 A 
ATOM      4  C   UNL     1      20.684 -15.300   5.483  1.00  0.00     0.157 A 
ATOM      5  C   UNL     1      20.933 -14.125   3.380  1.00  0.00     0.051 A 
ATOM      6  C   UNL     1      20.973 -14.125   4.780  1.00  0.00     0.157 A 
ENDROOT
BRANCH   1   7
ATOM      7  C   UNL     1      19.945 -17.741   2.689  1.00  0.00     0.010 C 
ATOM      8  C   UNL     1      20.572 -18.187   1.592  1.00  0.00     0.025 C 
BRANCH   8   9
ATOM      9  C   UNL     1      20.185 -19.443   0.932  1.00  0.00     0.064 C 
ATOM     10  O   UNL     1      19.875 -19.434  -0.288  1.00  0.00    -0.545 OA
ATOM     11  O   UNL     1      20.157 -20.644   1.633  1.00  0.00    -0.545 OA
ENDBRANCH   8   9
ENDBRANCH   1   7
BRANCH   4  12
ATOM     12  O   UNL     1      20.732 -15.299   6.876  1.00  0.00    -0.504 OA
ATOM     13  H   UNL     1      21.001 -14.473   7.397  1.00  0.00     0.293 HD
ENDBRANCH   4  12
BRANCH   6  14
ATOM     14  O   UNL     1      21.304 -12.964   5.477  1.00  0.00    -0.504 OA
ATOM     15  H   UNL     1      21.612 -12.127   4.996  1.00  0.00     0.293 HD
ENDBRANCH   6  14
TORSDOF 4
ENDMDL
