MODEL 1
REMARK VINA RESULT:    -3.252      0.000      0.000
REMARK INTER + INTRA:          -8.864
REMARK INTER:                  -6.294
REMARK INTRA:                  -2.570
REMARK UNBOUND:                -2.570
REMARK SMILES CCCCCCCCCCCCCCCCCC(=O)[O-]
REMARK SMILES IDX 10 1 11 2 12 3 13 4 14 5 15 6 16 7 17 8 18 9 19 10 20 11
REMARK SMILES IDX 9 12 8 13 7 14 6 15 5 16 4 17 3 18 2 19 1 20
REMARK H PARENT
REMARK Flexibility Score: inf
ROOT
ATOM      1  C   UNL     1      29.045  -0.633 -38.596  1.00  0.00     0.000 C 
ENDROOT
BRANCH   1   2
ATOM      2  C   UNL     1      29.274  -1.743 -39.637  1.00  0.00     0.000 C 
BRANCH   2   3
ATOM      3  C   UNL     1      28.887  -3.134 -39.105  1.00  0.00     0.000 C 
BRANCH   3   4
ATOM      4  C   UNL     1      27.916  -3.063 -37.917  1.00  0.00     0.000 C 
BRANCH   4   5
ATOM      5  C   UNL     1      27.882  -4.395 -37.157  1.00  0.00     0.000 C 
BRANCH   5   6
ATOM      6  C   UNL     1      26.568  -4.548 -36.377  1.00  0.00     0.000 C 
BRANCH   6   7
ATOM      7  C   UNL     1      26.726  -4.237 -34.880  1.00  0.00     0.006 C 
BRANCH   7   8
ATOM      8  C   UNL     1      25.878  -5.158 -33.993  1.00  0.00     0.053 C 
BRANCH   8   9
ATOM      9  C   UNL     1      24.635  -4.453 -33.550  1.00  0.00     0.041 C 
ATOM     10  O   UNL     1      23.985  -4.877 -32.558  1.00  0.00    -0.550 OA
ATOM     11  O   UNL     1      24.218  -3.301 -34.203  1.00  0.00    -0.550 OA
ENDBRANCH   8   9
ENDBRANCH   7   8
ENDBRANCH   6   7
ENDBRANCH   5   6
ENDBRANCH   4   5
ENDBRANCH   3   4
ENDBRANCH   2   3
ENDBRANCH   1   2
BRANCH   1  12
ATOM     12  C   UNL     1      30.070   0.506 -38.712  1.00  0.00     0.000 C 
BRANCH  12  13
ATOM     13  C   UNL     1      31.173   0.426 -37.642  1.00  0.00    -0.000 C 
BRANCH  13  14
ATOM     14  C   UNL     1      32.564   0.170 -38.245  1.00  0.00    -0.000 C 
BRANCH  14  15
ATOM     15  C   UNL     1      32.798  -1.311 -38.583  1.00  0.00    -0.000 C 
BRANCH  15  16
ATOM     16  C   UNL     1      33.090  -2.123 -37.316  1.00  0.00    -0.000 C 
BRANCH  16  17
ATOM     17  C   UNL     1      32.349  -3.468 -37.342  1.00  0.00    -0.000 C 
BRANCH  17  18
ATOM     18  C   UNL     1      31.248  -3.568 -36.270  1.00  0.00    -0.000 C 
BRANCH  18  19
ATOM     19  C   UNL     1      31.190  -2.382 -35.291  1.00  0.00    -0.003 C 
ATOM     20  C   UNL     1      29.766  -1.895 -35.025  1.00  0.00     0.004 C 
ENDBRANCH  18  19
ENDBRANCH  17  18
ENDBRANCH  16  17
ENDBRANCH  15  16
ENDBRANCH  14  15
ENDBRANCH  13  14
ENDBRANCH  12  13
ENDBRANCH   1  12
TORSDOF 16
ENDMDL
MODEL 2
REMARK VINA RESULT:    -3.249      5.679     10.319
REMARK INTER + INTRA:          -8.858
REMARK INTER:                  -5.918
REMARK INTRA:                  -2.940
REMARK UNBOUND:                -2.570
REMARK SMILES CCCCCCCCCCCCCCCCCC(=O)[O-]
REMARK SMILES IDX 10 1 11 2 12 3 13 4 14 5 15 6 16 7 17 8 18 9 19 10 20 11
REMARK SMILES IDX 9 12 8 13 7 14 6 15 5 16 4 17 3 18 2 19 1 20
REMARK H PARENT
REMARK Flexibility Score: inf
ROOT
ATOM      1  C   UNL     1      27.479  -4.535 -27.870  1.00  0.00     0.000 C 
ENDROOT
BRANCH   1   2
ATOM      2  C   UNL     1      26.303  -3.573 -28.114  1.00  0.00     0.000 C 
BRANCH   2   3
ATOM      3  C   UNL     1      25.630  -3.803 -29.477  1.00  0.00     0.000 C 
BRANCH   3   4
ATOM      4  C   UNL     1      24.098  -3.852 -29.379  1.00  0.00     0.000 C 
BRANCH   4   5
ATOM      5  C   UNL     1      23.532  -5.014 -30.205  1.00  0.00     0.000 C 
BRANCH   5   6
ATOM      6  C   UNL     1      24.536  -5.467 -31.275  1.00  0.00     0.000 C 
BRANCH   6   7
ATOM      7  C   UNL     1      24.186  -4.944 -32.678  1.00  0.00     0.006 C 
BRANCH   7   8
ATOM      8  C   UNL     1      25.067  -3.764 -33.105  1.00  0.00     0.053 C 
BRANCH   8   9
ATOM      9  C   UNL     1      25.965  -4.165 -34.233  1.00  0.00     0.041 C 
ATOM     10  O   UNL     1      25.587  -4.026 -35.425  1.00  0.00    -0.550 OA
ATOM     11  O   UNL     1      27.239  -4.650 -33.968  1.00  0.00    -0.550 OA
ENDBRANCH   8   9
ENDBRANCH   7   8
ENDBRANCH   6   7
ENDBRANCH   5   6
ENDBRANCH   4   5
ENDBRANCH   3   4
ENDBRANCH   2   3
ENDBRANCH   1   2
BRANCH   1  12
ATOM     12  C   UNL     1      27.477  -5.728 -28.838  1.00  0.00     0.000 C 
BRANCH  12  13
ATOM     13  C   UNL     1      28.021  -7.017 -28.196  1.00  0.00    -0.000 C 
BRANCH  13  14
ATOM     14  C   UNL     1      26.958  -8.122 -28.097  1.00  0.00    -0.000 C 
BRANCH  14  15
ATOM     15  C   UNL     1      25.621  -7.715 -28.735  1.00  0.00    -0.000 C 
BRANCH  15  16
ATOM     16  C   UNL     1      24.456  -7.953 -27.767  1.00  0.00    -0.000 C 
BRANCH  16  17
ATOM     17  C   UNL     1      24.109  -6.671 -26.997  1.00  0.00    -0.000 C 
BRANCH  17  18
ATOM     18  C   UNL     1      24.772  -6.607 -25.609  1.00  0.00    -0.000 C 
BRANCH  18  19
ATOM     19  C   UNL     1      24.997  -5.185 -25.065  1.00  0.00    -0.003 C 
ATOM     20  C   UNL     1      23.904  -4.204 -25.486  1.00  0.00     0.004 C 
ENDBRANCH  18  19
ENDBRANCH  17  18
ENDBRANCH  16  17
ENDBRANCH  15  16
ENDBRANCH  14  15
ENDBRANCH  13  14
ENDBRANCH  12  13
ENDBRANCH   1  12
TORSDOF 16
ENDMDL
MODEL 3
REMARK VINA RESULT:    -3.246      1.319      1.924
REMARK INTER + INTRA:          -8.852
REMARK INTER:                  -7.056
REMARK INTRA:                  -1.796
REMARK UNBOUND:                -2.570
REMARK SMILES CCCCCCCCCCCCCCCCCC(=O)[O-]
REMARK SMILES IDX 10 1 11 2 12 3 13 4 14 5 15 6 16 7 17 8 18 9 19 10 20 11
REMARK SMILES IDX 9 12 8 13 7 14 6 15 5 16 4 17 3 18 2 19 1 20
REMARK H PARENT
REMARK Flexibility Score: inf
ROOT
ATOM      1  C   UNL     1      30.465  -1.538 -39.155  1.00  0.00     0.000 C 
ENDROOT
BRANCH   1   2
ATOM      2  C   UNL     1      29.544  -1.934 -37.989  1.00  0.00     0.000 C 
BRANCH   2   3
ATOM      3  C   UNL     1      28.657  -3.144 -38.327  1.00  0.00     0.000 C 
BRANCH   3   4
ATOM      4  C   UNL     1      27.356  -3.171 -37.510  1.00  0.00     0.000 C 
BRANCH   4   5
ATOM      5  C   UNL     1      27.317  -4.389 -36.579  1.00  0.00     0.000 C 
BRANCH   5   6
ATOM      6  C   UNL     1      26.125  -4.306 -35.615  1.00  0.00     0.000 C 
BRANCH   6   7
ATOM      7  C   UNL     1      26.270  -5.248 -34.409  1.00  0.00     0.006 C 
BRANCH   7   8
ATOM      8  C   UNL     1      25.861  -4.583 -33.088  1.00  0.00     0.053 C 
BRANCH   8   9
ATOM      9  C   UNL     1      24.438  -4.910 -32.760  1.00  0.00     0.041 C 
ATOM     10  O   UNL     1      24.172  -5.761 -31.872  1.00  0.00    -0.550 OA
ATOM     11  O   UNL     1      23.405  -4.240 -33.402  1.00  0.00    -0.550 OA
ENDBRANCH   8   9
ENDBRANCH   7   8
ENDBRANCH   6   7
ENDBRANCH   5   6
ENDBRANCH   4   5
ENDBRANCH   3   4
ENDBRANCH   2   3
ENDBRANCH   1   2
BRANCH   1  12
ATOM     12  C   UNL     1      31.882  -2.115 -39.012  1.00  0.00     0.000 C 
BRANCH  12  13
ATOM     13  C   UNL     1      32.925  -1.048 -38.633  1.00  0.00    -0.000 C 
BRANCH  13  14
ATOM     14  C   UNL     1      32.289   0.204 -38.008  1.00  0.00    -0.000 C 
BRANCH  14  15
ATOM     15  C   UNL     1      32.231   0.135 -36.475  1.00  0.00    -0.000 C 
BRANCH  15  16
ATOM     16  C   UNL     1      33.429  -0.641 -35.915  1.00  0.00    -0.000 C 
BRANCH  16  17
ATOM     17  C   UNL     1      32.972  -1.714 -34.917  1.00  0.00    -0.000 C 
BRANCH  17  18
ATOM     18  C   UNL     1      33.010  -3.136 -35.507  1.00  0.00    -0.000 C 
BRANCH  18  19
ATOM     19  C   UNL     1      31.640  -3.831 -35.607  1.00  0.00    -0.003 C 
ATOM     20  C   UNL     1      31.585  -4.889 -36.708  1.00  0.00     0.004 C 
ENDBRANCH  18  19
ENDBRANCH  17  18
ENDBRANCH  16  17
ENDBRANCH  15  16
ENDBRANCH  14  15
ENDBRANCH  13  14
ENDBRANCH  12  13
ENDBRANCH   1  12
TORSDOF 16
ENDMDL
MODEL 4
REMARK VINA RESULT:    -3.233      1.404      3.099
REMARK INTER + INTRA:          -8.827
REMARK INTER:                  -6.040
REMARK INTRA:                  -2.787
REMARK UNBOUND:                -2.570
REMARK SMILES CCCCCCCCCCCCCCCCCC(=O)[O-]
REMARK SMILES IDX 10 1 11 2 12 3 13 4 14 5 15 6 16 7 17 8 18 9 19 10 20 11
REMARK SMILES IDX 9 12 8 13 7 14 6 15 5 16 4 17 3 18 2 19 1 20
REMARK H PARENT
REMARK Flexibility Score: inf
ROOT
ATOM      1  C   UNL     1      31.080  -0.693 -35.209  1.00  0.00     0.000 C 
ENDROOT
BRANCH   1   2
ATOM      2  C   UNL     1      31.090  -2.225 -35.348  1.00  0.00     0.000 C 
BRANCH   2   3
ATOM      3  C   UNL     1      29.802  -2.764 -35.993  1.00  0.00     0.000 C 
BRANCH   3   4
ATOM      4  C   UNL     1      30.078  -3.841 -37.053  1.00  0.00     0.000 C 
BRANCH   4   5
ATOM      5  C   UNL     1      28.771  -4.337 -37.685  1.00  0.00     0.000 C 
BRANCH   5   6
ATOM      6  C   UNL     1      27.580  -3.485 -37.221  1.00  0.00     0.000 C 
BRANCH   6   7
ATOM      7  C   UNL     1      26.560  -4.288 -36.398  1.00  0.00     0.006 C 
BRANCH   7   8
ATOM      8  C   UNL     1      25.717  -3.400 -35.474  1.00  0.00     0.053 C 
BRANCH   8   9
ATOM      9  C   UNL     1      25.076  -4.224 -34.402  1.00  0.00     0.041 C 
ATOM     10  O   UNL     1      25.723  -5.145 -33.838  1.00  0.00    -0.550 OA
ATOM     11  O   UNL     1      23.778  -3.946 -33.994  1.00  0.00    -0.550 OA
ENDBRANCH   8   9
ENDBRANCH   7   8
ENDBRANCH   6   7
ENDBRANCH   5   6
ENDBRANCH   4   5
ENDBRANCH   3   4
ENDBRANCH   2   3
ENDBRANCH   1   2
BRANCH   1  12
ATOM     12  C   UNL     1      32.487  -0.082 -35.294  1.00  0.00     0.000 C 
BRANCH  12  13
ATOM     13  C   UNL     1      33.382  -0.788 -36.327  1.00  0.00    -0.000 C 
BRANCH  13  14
ATOM     14  C   UNL     1      33.168  -0.259 -37.754  1.00  0.00    -0.000 C 
BRANCH  14  15
ATOM     15  C   UNL     1      32.395  -1.246 -38.641  1.00  0.00    -0.000 C 
BRANCH  15  16
ATOM     16  C   UNL     1      30.987  -0.721 -38.948  1.00  0.00    -0.000 C 
BRANCH  16  17
ATOM     17  C   UNL     1      30.883   0.781 -38.650  1.00  0.00    -0.000 C 
BRANCH  17  18
ATOM     18  C   UNL     1      29.457   1.220 -38.268  1.00  0.00    -0.000 C 
BRANCH  18  19
ATOM     19  C   UNL     1      28.481   0.065 -37.981  1.00  0.00    -0.003 C 
ATOM     20  C   UNL     1      27.726   0.233 -36.663  1.00  0.00     0.004 C 
ENDBRANCH  18  19
ENDBRANCH  17  18
ENDBRANCH  16  17
ENDBRANCH  15  16
ENDBRANCH  14  15
ENDBRANCH  13  14
ENDBRANCH  12  13
ENDBRANCH   1  12
TORSDOF 16
ENDMDL
MODEL 5
REMARK VINA RESULT:    -3.219      6.017      8.239
REMARK INTER + INTRA:          -8.800
REMARK INTER:                  -6.594
REMARK INTRA:                  -2.206
REMARK UNBOUND:                -2.570
REMARK SMILES CCCCCCCCCCCCCCCCCC(=O)[O-]
REMARK SMILES IDX 10 1 11 2 12 3 13 4 14 5 15 6 16 7 17 8 18 9 19 10 20 11
REMARK SMILES IDX 9 12 8 13 7 14 6 15 5 16 4 17 3 18 2 19 1 20
REMARK H PARENT
REMARK Flexibility Score: inf
ROOT
ATOM      1  C   UNL     1      30.280   1.250 -37.132  1.00  0.00     0.000 C 
ENDROOT
BRANCH   1   2
ATOM      2  C   UNL     1      30.555   0.591 -35.769  1.00  0.00     0.000 C 
BRANCH   2   3
ATOM      3  C   UNL     1      31.232   1.554 -34.779  1.00  0.00     0.000 C 
BRANCH   3   4
ATOM      4  C   UNL     1      32.465   0.936 -34.101  1.00  0.00     0.000 C 
BRANCH   4   5
ATOM      5  C   UNL     1      33.496   2.015 -33.749  1.00  0.00     0.000 C 
BRANCH   5   6
ATOM      6  C   UNL     1      32.805   3.300 -33.270  1.00  0.00     0.000 C 
BRANCH   6   7
ATOM      7  C   UNL     1      33.616   4.047 -32.200  1.00  0.00     0.006 C 
BRANCH   7   8
ATOM      8  C   UNL     1      34.678   4.975 -32.805  1.00  0.00     0.053 C 
BRANCH   8   9
ATOM      9  C   UNL     1      34.944   6.128 -31.890  1.00  0.00     0.041 C 
ATOM     10  O   UNL     1      36.117   6.374 -31.503  1.00  0.00    -0.550 OA
ATOM     11  O   UNL     1      33.903   6.961 -31.500  1.00  0.00    -0.550 OA
ENDBRANCH   8   9
ENDBRANCH   7   8
ENDBRANCH   6   7
ENDBRANCH   5   6
ENDBRANCH   4   5
ENDBRANCH   3   4
ENDBRANCH   2   3
ENDBRANCH   1   2
BRANCH   1  12
ATOM     12  C   UNL     1      31.071   0.595 -38.275  1.00  0.00     0.000 C 
BRANCH  12  13
ATOM     13  C   UNL     1      32.424   0.024 -37.814  1.00  0.00    -0.000 C 
BRANCH  13  14
ATOM     14  C   UNL     1      32.851  -1.210 -38.624  1.00  0.00    -0.000 C 
BRANCH  14  15
ATOM     15  C   UNL     1      32.900  -2.488 -37.774  1.00  0.00    -0.000 C 
BRANCH  15  16
ATOM     16  C   UNL     1      32.773  -2.160 -36.282  1.00  0.00    -0.000 C 
BRANCH  16  17
ATOM     17  C   UNL     1      31.677  -3.010 -35.623  1.00  0.00    -0.000 C 
BRANCH  17  18
ATOM     18  C   UNL     1      30.647  -3.549 -36.633  1.00  0.00    -0.000 C 
BRANCH  18  19
ATOM     19  C   UNL     1      29.397  -2.669 -36.813  1.00  0.00    -0.003 C 
ATOM     20  C   UNL     1      28.977  -2.518 -38.274  1.00  0.00     0.004 C 
ENDBRANCH  18  19
ENDBRANCH  17  18
ENDBRANCH  16  17
ENDBRANCH  15  16
ENDBRANCH  14  15
ENDBRANCH  13  14
ENDBRANCH  12  13
ENDBRANCH   1  12
TORSDOF 16
ENDMDL
MODEL 6
REMARK VINA RESULT:    -3.214      6.366      8.894
REMARK INTER + INTRA:          -8.789
REMARK INTER:                  -6.943
REMARK INTRA:                  -1.847
REMARK UNBOUND:                -2.570
REMARK SMILES CCCCCCCCCCCCCCCCCC(=O)[O-]
REMARK SMILES IDX 10 1 11 2 12 3 13 4 14 5 15 6 16 7 17 8 18 9 19 10 20 11
REMARK SMILES IDX 9 12 8 13 7 14 6 15 5 16 4 17 3 18 2 19 1 20
REMARK H PARENT
REMARK Flexibility Score: inf
ROOT
ATOM      1  C   UNL     1      32.025  -1.471 -34.950  1.00  0.00     0.000 C 
ENDROOT
BRANCH   1   2
ATOM      2  C   UNL     1      31.721   0.007 -34.651  1.00  0.00     0.000 C 
BRANCH   2   3
ATOM      3  C   UNL     1      32.419   0.503 -33.374  1.00  0.00     0.000 C 
BRANCH   3   4
ATOM      4  C   UNL     1      33.418   1.638 -33.649  1.00  0.00     0.000 C 
BRANCH   4   5
ATOM      5  C   UNL     1      32.761   3.008 -33.443  1.00  0.00     0.000 C 
BRANCH   5   6
ATOM      6  C   UNL     1      33.576   3.866 -32.464  1.00  0.00     0.000 C 
BRANCH   6   7
ATOM      7  C   UNL     1      34.168   5.122 -33.124  1.00  0.00     0.006 C 
BRANCH   7   8
ATOM      8  C   UNL     1      35.450   5.603 -32.434  1.00  0.00     0.053 C 
BRANCH   8   9
ATOM      9  C   UNL     1      35.116   6.426 -31.230  1.00  0.00     0.041 C 
ATOM     10  O   UNL     1      34.551   7.543 -31.361  1.00  0.00    -0.550 OA
ATOM     11  O   UNL     1      35.387   5.938 -29.958  1.00  0.00    -0.550 OA
ENDBRANCH   8   9
ENDBRANCH   7   8
ENDBRANCH   6   7
ENDBRANCH   5   6
ENDBRANCH   4   5
ENDBRANCH   3   4
ENDBRANCH   2   3
ENDBRANCH   1   2
BRANCH   1  12
ATOM     12  C   UNL     1      33.174  -1.648 -35.955  1.00  0.00     0.000 C 
BRANCH  12  13
ATOM     13  C   UNL     1      33.528  -0.342 -36.689  1.00  0.00    -0.000 C 
BRANCH  13  14
ATOM     14  C   UNL     1      33.072  -0.348 -38.157  1.00  0.00    -0.000 C 
BRANCH  14  15
ATOM     15  C   UNL     1      31.791   0.470 -38.381  1.00  0.00    -0.000 C 
BRANCH  15  16
ATOM     16  C   UNL     1      30.557  -0.438 -38.401  1.00  0.00    -0.000 C 
BRANCH  16  17
ATOM     17  C   UNL     1      30.891  -1.808 -39.009  1.00  0.00    -0.000 C 
BRANCH  17  18
ATOM     18  C   UNL     1      30.445  -2.984 -38.120  1.00  0.00    -0.000 C 
BRANCH  18  19
ATOM     19  C   UNL     1      31.351  -4.226 -38.191  1.00  0.00    -0.003 C 
ATOM     20  C   UNL     1      31.546  -4.901 -36.834  1.00  0.00     0.004 C 
ENDBRANCH  18  19
ENDBRANCH  17  18
ENDBRANCH  16  17
ENDBRANCH  15  16
ENDBRANCH  14  15
ENDBRANCH  13  14
ENDBRANCH  12  13
ENDBRANCH   1  12
TORSDOF 16
ENDMDL
MODEL 7
REMARK VINA RESULT:    -3.205      1.566      3.453
REMARK INTER + INTRA:          -8.773
REMARK INTER:                  -5.798
REMARK INTRA:                  -2.975
REMARK UNBOUND:                -2.570
REMARK SMILES CCCCCCCCCCCCCCCCCC(=O)[O-]
REMARK SMILES IDX 10 1 11 2 12 3 13 4 14 5 15 6 16 7 17 8 18 9 19 10 20 11
REMARK SMILES IDX 9 12 8 13 7 14 6 15 5 16 4 17 3 18 2 19 1 20
REMARK H PARENT
REMARK Flexibility Score: inf
ROOT
ATOM      1  C   UNL     1      31.367  -3.447 -35.222  1.00  0.00     0.000 C 
ENDROOT
BRANCH   1   2
ATOM      2  C   UNL     1      29.880  -3.614 -35.581  1.00  0.00     0.000 C 
BRANCH   2   3
ATOM      3  C   UNL     1      29.257  -2.314 -36.118  1.00  0.00     0.000 C 
BRANCH   3   4
ATOM      4  C   UNL     1      28.093  -2.573 -37.088  1.00  0.00     0.000 C 
BRANCH   4   5
ATOM      5  C   UNL     1      27.707  -4.057 -37.097  1.00  0.00     0.000 C 
BRANCH   5   6
ATOM      6  C   UNL     1      26.322  -4.268 -36.466  1.00  0.00     0.000 C 
BRANCH   6   7
ATOM      7  C   UNL     1      26.353  -5.239 -35.275  1.00  0.00     0.006 C 
BRANCH   7   8
ATOM      8  C   UNL     1      25.668  -4.666 -34.028  1.00  0.00     0.053 C 
BRANCH   8   9
ATOM      9  C   UNL     1      26.448  -3.507 -33.491  1.00  0.00     0.041 C 
ATOM     10  O   UNL     1      27.593  -3.687 -32.999  1.00  0.00    -0.550 OA
ATOM     11  O   UNL     1      25.931  -2.221 -33.577  1.00  0.00    -0.550 OA
ENDBRANCH   8   9
ENDBRANCH   7   8
ENDBRANCH   6   7
ENDBRANCH   5   6
ENDBRANCH   4   5
ENDBRANCH   3   4
ENDBRANCH   2   3
ENDBRANCH   1   2
BRANCH   1  12
ATOM     12  C   UNL     1      32.270  -4.442 -35.967  1.00  0.00     0.000 C 
BRANCH  12  13
ATOM     13  C   UNL     1      31.562  -5.117 -37.154  1.00  0.00    -0.000 C 
BRANCH  13  14
ATOM     14  C   UNL     1      32.060  -4.598 -38.512  1.00  0.00    -0.000 C 
BRANCH  14  15
ATOM     15  C   UNL     1      30.935  -3.981 -39.358  1.00  0.00    -0.000 C 
BRANCH  15  16
ATOM     16  C   UNL     1      31.029  -2.451 -39.363  1.00  0.00    -0.000 C 
BRANCH  16  17
ATOM     17  C   UNL     1      32.437  -1.984 -38.967  1.00  0.00    -0.000 C 
BRANCH  17  18
ATOM     18  C   UNL     1      32.427  -0.934 -37.841  1.00  0.00    -0.000 C 
BRANCH  18  19
ATOM     19  C   UNL     1      31.855   0.438 -38.242  1.00  0.00    -0.003 C 
ATOM     20  C   UNL     1      30.720   0.901 -37.331  1.00  0.00     0.004 C 
ENDBRANCH  18  19
ENDBRANCH  17  18
ENDBRANCH  16  17
ENDBRANCH  15  16
ENDBRANCH  14  15
ENDBRANCH  13  14
ENDBRANCH  12  13
ENDBRANCH   1  12
TORSDOF 16
ENDMDL
MODEL 8
REMARK VINA RESULT:    -3.154     12.085     14.048
REMARK INTER + INTRA:          -8.674
REMARK INTER:                  -6.702
REMARK INTRA:                  -1.972
REMARK UNBOUND:                -2.570
REMARK SMILES CCCCCCCCCCCCCCCCCC(=O)[O-]
REMARK SMILES IDX 10 1 11 2 12 3 13 4 14 5 15 6 16 7 17 8 18 9 19 10 20 11
REMARK SMILES IDX 9 12 8 13 7 14 6 15 5 16 4 17 3 18 2 19 1 20
REMARK H PARENT
REMARK Flexibility Score: inf
ROOT
ATOM      1  C   UNL     1      33.483   7.253 -31.131  1.00  0.00     0.000 C 
ENDROOT
BRANCH   1   2
ATOM      2  C   UNL     1      33.118   8.688 -30.712  1.00  0.00     0.000 C 
BRANCH   2   3
ATOM      3  C   UNL     1      32.760   8.790 -29.220  1.00  0.00     0.000 C 
BRANCH   3   4
ATOM      4  C   UNL     1      31.418   9.500 -28.982  1.00  0.00     0.000 C 
BRANCH   4   5
ATOM      5  C   UNL     1      31.408  10.212 -27.624  1.00  0.00     0.000 C 
BRANCH   5   6
ATOM      6  C   UNL     1      32.821  10.276 -27.027  1.00  0.00     0.000 C 
BRANCH   6   7
ATOM      7  C   UNL     1      32.848  10.924 -25.633  1.00  0.00     0.006 C 
BRANCH   7   8
ATOM      8  C   UNL     1      33.524  10.035 -24.582  1.00  0.00     0.053 C 
BRANCH   8   9
ATOM      9  C   UNL     1      32.821   8.718 -24.484  1.00  0.00     0.041 C 
ATOM     10  O   UNL     1      33.482   7.647 -24.458  1.00  0.00    -0.550 OA
ATOM     11  O   UNL     1      31.437   8.675 -24.374  1.00  0.00    -0.550 OA
ENDBRANCH   8   9
ENDBRANCH   7   8
ENDBRANCH   6   7
ENDBRANCH   5   6
ENDBRANCH   4   5
ENDBRANCH   3   4
ENDBRANCH   2   3
ENDBRANCH   1   2
BRANCH   1  12
ATOM     12  C   UNL     1      35.000   7.006 -31.137  1.00  0.00     0.000 C 
BRANCH  12  13
ATOM     13  C   UNL     1      35.399   5.766 -31.957  1.00  0.00    -0.000 C 
BRANCH  13  14
ATOM     14  C   UNL     1      34.334   5.378 -32.996  1.00  0.00    -0.000 C 
BRANCH  14  15
ATOM     15  C   UNL     1      33.941   3.895 -32.913  1.00  0.00    -0.000 C 
BRANCH  15  16
ATOM     16  C   UNL     1      32.698   3.705 -32.035  1.00  0.00    -0.000 C 
BRANCH  16  17
ATOM     17  C   UNL     1      33.082   3.187 -30.642  1.00  0.00    -0.000 C 
BRANCH  17  18
ATOM     18  C   UNL     1      32.602   4.109 -29.505  1.00  0.00    -0.000 C 
BRANCH  18  19
ATOM     19  C   UNL     1      33.711   4.598 -28.557  1.00  0.00    -0.003 C 
ATOM     20  C   UNL     1      35.069   3.961 -28.847  1.00  0.00     0.004 C 
ENDBRANCH  18  19
ENDBRANCH  17  18
ENDBRANCH  16  17
ENDBRANCH  15  16
ENDBRANCH  14  15
ENDBRANCH  13  14
ENDBRANCH  12  13
ENDBRANCH   1  12
TORSDOF 16
ENDMDL
MODEL 9
REMARK VINA RESULT:    -3.151      1.018      2.389
REMARK INTER + INTRA:          -8.669
REMARK INTER:                  -6.083
REMARK INTRA:                  -2.586
REMARK UNBOUND:                -2.570
REMARK SMILES CCCCCCCCCCCCCCCCCC(=O)[O-]
REMARK SMILES IDX 10 1 11 2 12 3 13 4 14 5 15 6 16 7 17 8 18 9 19 10 20 11
REMARK SMILES IDX 9 12 8 13 7 14 6 15 5 16 4 17 3 18 2 19 1 20
REMARK H PARENT
REMARK Flexibility Score: inf
ROOT
ATOM      1  C   UNL     1      32.398  -3.131 -38.221  1.00  0.00     0.000 C 
ENDROOT
BRANCH   1   2
ATOM      2  C   UNL     1      31.406  -4.117 -38.862  1.00  0.00     0.000 C 
BRANCH   2   3
ATOM      3  C   UNL     1      29.964  -3.585 -38.857  1.00  0.00     0.000 C 
BRANCH   3   4
ATOM      4  C   UNL     1      28.997  -4.503 -38.092  1.00  0.00     0.000 C 
BRANCH   4   5
ATOM      5  C   UNL     1      27.849  -3.697 -37.474  1.00  0.00     0.000 C 
BRANCH   5   6
ATOM      6  C   UNL     1      26.937  -4.599 -36.629  1.00  0.00     0.000 C 
BRANCH   6   7
ATOM      7  C   UNL     1      26.913  -4.197 -35.146  1.00  0.00     0.006 C 
BRANCH   7   8
ATOM      8  C   UNL     1      26.145  -5.199 -34.275  1.00  0.00     0.053 C 
BRANCH   8   9
ATOM      9  C   UNL     1      24.908  -4.566 -33.720  1.00  0.00     0.041 C 
ATOM     10  O   UNL     1      24.411  -3.551 -34.275  1.00  0.00    -0.550 OA
ATOM     11  O   UNL     1      24.278  -5.123 -32.615  1.00  0.00    -0.550 OA
ENDBRANCH   8   9
ENDBRANCH   7   8
ENDBRANCH   6   7
ENDBRANCH   5   6
ENDBRANCH   4   5
ENDBRANCH   3   4
ENDBRANCH   2   3
ENDBRANCH   1   2
BRANCH   1  12
ATOM     12  C   UNL     1      32.504  -1.810 -38.999  1.00  0.00     0.000 C 
BRANCH  12  13
ATOM     13  C   UNL     1      32.764  -0.599 -38.086  1.00  0.00    -0.000 C 
BRANCH  13  14
ATOM     14  C   UNL     1      31.716   0.512 -38.265  1.00  0.00    -0.000 C 
BRANCH  14  15
ATOM     15  C   UNL     1      30.276  -0.008 -38.141  1.00  0.00    -0.000 C 
BRANCH  15  16
ATOM     16  C   UNL     1      29.716   0.257 -36.739  1.00  0.00    -0.000 C 
BRANCH  16  17
ATOM     17  C   UNL     1      29.704  -1.028 -35.899  1.00  0.00    -0.000 C 
BRANCH  17  18
ATOM     18  C   UNL     1      30.851  -1.085 -34.873  1.00  0.00    -0.000 C 
BRANCH  18  19
ATOM     19  C   UNL     1      31.597  -2.429 -34.811  1.00  0.00    -0.003 C 
ATOM     20  C   UNL     1      30.665  -3.636 -34.913  1.00  0.00     0.004 C 
ENDBRANCH  18  19
ENDBRANCH  17  18
ENDBRANCH  16  17
ENDBRANCH  15  16
ENDBRANCH  14  15
ENDBRANCH  13  14
ENDBRANCH  12  13
ENDBRANCH   1  12
TORSDOF 16
ENDMDL
