MODEL 1
REMARK VINA RESULT:    -4.565      0.000      0.000
REMARK INTER + INTRA:         -13.892
REMARK INTER:                 -10.437
REMARK INTRA:                  -3.454
REMARK UNBOUND:                -3.454
REMARK SMILES CCCCCCCCCCCCCCCCCCCCCCCC(=O)[O-]
REMARK SMILES IDX 13 1 14 2 15 3 16 4 17 5 18 6 19 7 20 8 21 9 22 10 23 11
REMARK SMILES IDX 24 12 25 13 26 14 12 15 11 16 10 17 9 18 8 19 7 20 6 21 5 22
REMARK SMILES IDX 4 23 3 24 2 25 1 26
REMARK H PARENT
REMARK Flexibility Score: inf
ROOT
ATOM      1  C   UNL     1     -22.678  -0.193  28.965  1.00  0.00     0.000 C 
ENDROOT
BRANCH   1   2
ATOM      2  C   UNL     1     -23.848  -0.454  28.003  1.00  0.00     0.000 C 
BRANCH   2   3
ATOM      3  C   UNL     1     -23.626   0.186  26.622  1.00  0.00     0.000 C 
BRANCH   3   4
ATOM      4  C   UNL     1     -22.377  -0.362  25.913  1.00  0.00     0.000 C 
BRANCH   4   5
ATOM      5  C   UNL     1     -21.259   0.690  25.790  1.00  0.00     0.000 C 
BRANCH   5   6
ATOM      6  C   UNL     1     -19.933   0.214  26.406  1.00  0.00     0.000 C 
BRANCH   6   7
ATOM      7  C   UNL     1     -19.390   1.193  27.462  1.00  0.00     0.000 C 
BRANCH   7   8
ATOM      8  C   UNL     1     -18.409   0.526  28.438  1.00  0.00     0.000 C 
BRANCH   8   9
ATOM      9  C   UNL     1     -18.714  -0.961  28.670  1.00  0.00     0.000 C 
BRANCH   9  10
ATOM     10  C   UNL     1     -18.519  -1.335  30.146  1.00  0.00     0.006 C 
BRANCH  10  11
ATOM     11  C   UNL     1     -17.089  -1.809  30.442  1.00  0.00     0.053 C 
BRANCH  11  12
ATOM     12  C   UNL     1     -16.468  -1.032  31.562  1.00  0.00     0.041 C 
ATOM     13  O   UNL     1     -17.115  -0.817  32.620  1.00  0.00    -0.550 OA
ATOM     14  O   UNL     1     -15.161  -0.574  31.448  1.00  0.00    -0.550 OA
ENDBRANCH  11  12
ENDBRANCH  10  11
ENDBRANCH   9  10
ENDBRANCH   8   9
ENDBRANCH   7   8
ENDBRANCH   6   7
ENDBRANCH   5   6
ENDBRANCH   4   5
ENDBRANCH   3   4
ENDBRANCH   2   3
ENDBRANCH   1   2
BRANCH   1  15
ATOM     15  C   UNL     1     -22.247  -1.457  29.727  1.00  0.00     0.000 C 
BRANCH  15  16
ATOM     16  C   UNL     1     -22.721  -2.748  29.042  1.00  0.00     0.000 C 
BRANCH  16  17
ATOM     17  C   UNL     1     -22.370  -4.008  29.853  1.00  0.00     0.000 C 
BRANCH  17  18
ATOM     18  C   UNL     1     -20.990  -3.918  30.520  1.00  0.00    -0.000 C 
BRANCH  18  19
ATOM     19  C   UNL     1     -19.981  -4.920  29.931  1.00  0.00    -0.000 C 
BRANCH  19  20
ATOM     20  C   UNL     1     -20.677  -6.120  29.253  1.00  0.00    -0.000 C 
BRANCH  20  21
ATOM     21  C   UNL     1     -20.868  -7.334  30.182  1.00  0.00    -0.000 C 
BRANCH  21  22
ATOM     22  C   UNL     1     -22.332  -7.650  30.535  1.00  0.00    -0.000 C 
BRANCH  22  23
ATOM     23  C   UNL     1     -22.594  -7.632  32.052  1.00  0.00    -0.000 C 
BRANCH  23  24
ATOM     24  C   UNL     1     -21.315  -7.383  32.865  1.00  0.00    -0.000 C 
BRANCH  24  25
ATOM     25  C   UNL     1     -21.324  -6.021  33.575  1.00  0.00    -0.003 C 
ATOM     26  C   UNL     1     -22.683  -5.342  33.442  1.00  0.00     0.004 C 
ENDBRANCH  24  25
ENDBRANCH  23  24
ENDBRANCH  22  23
ENDBRANCH  21  22
ENDBRANCH  20  21
ENDBRANCH  19  20
ENDBRANCH  18  19
ENDBRANCH  17  18
ENDBRANCH  16  17
ENDBRANCH  15  16
ENDBRANCH   1  15
TORSDOF 22
ENDMDL
MODEL 2
REMARK VINA RESULT:    -4.533      1.579      2.830
REMARK INTER + INTRA:         -13.817
REMARK INTER:                 -11.484
REMARK INTRA:                  -2.332
REMARK UNBOUND:                -3.454
REMARK SMILES CCCCCCCCCCCCCCCCCCCCCCCC(=O)[O-]
REMARK SMILES IDX 13 1 14 2 15 3 16 4 17 5 18 6 19 7 20 8 21 9 22 10 23 11
REMARK SMILES IDX 24 12 25 13 26 14 12 15 11 16 10 17 9 18 8 19 7 20 6 21 5 22
REMARK SMILES IDX 4 23 3 24 2 25 1 26
REMARK H PARENT
REMARK Flexibility Score: inf
ROOT
ATOM      1  C   UNL     1     -23.011  -0.819  26.593  1.00  0.00     0.000 C 
ENDROOT
BRANCH   1   2
ATOM      2  C   UNL     1     -22.203   0.092  25.656  1.00  0.00     0.000 C 
BRANCH   2   3
ATOM      3  C   UNL     1     -20.698   0.075  25.974  1.00  0.00     0.000 C 
BRANCH   3   4
ATOM      4  C   UNL     1     -20.228   1.366  26.663  1.00  0.00     0.000 C 
BRANCH   4   5
ATOM      5  C   UNL     1     -19.013   1.138  27.582  1.00  0.00     0.000 C 
BRANCH   5   6
ATOM      6  C   UNL     1     -19.331   0.191  28.751  1.00  0.00     0.000 C 
BRANCH   6   7
ATOM      7  C   UNL     1     -18.127  -0.682  29.146  1.00  0.00     0.000 C 
BRANCH   7   8
ATOM      8  C   UNL     1     -18.544  -2.067  29.664  1.00  0.00     0.000 C 
BRANCH   8   9
ATOM      9  C   UNL     1     -17.433  -2.767  30.460  1.00  0.00     0.000 C 
BRANCH   9  10
ATOM     10  C   UNL     1     -16.660  -1.759  31.322  1.00  0.00     0.006 C 
BRANCH  10  11
ATOM     11  C   UNL     1     -17.369  -1.468  32.652  1.00  0.00     0.053 C 
BRANCH  11  12
ATOM     12  C   UNL     1     -17.543  -2.709  33.472  1.00  0.00     0.041 C 
ATOM     13  O   UNL     1     -18.697  -3.121  33.762  1.00  0.00    -0.550 OA
ATOM     14  O   UNL     1     -16.430  -3.429  33.888  1.00  0.00    -0.550 OA
ENDBRANCH  11  12
ENDBRANCH  10  11
ENDBRANCH   9  10
ENDBRANCH   8   9
ENDBRANCH   7   8
ENDBRANCH   6   7
ENDBRANCH   5   6
ENDBRANCH   4   5
ENDBRANCH   3   4
ENDBRANCH   2   3
ENDBRANCH   1   2
BRANCH   1  15
ATOM     15  C   UNL     1     -23.763  -0.030  27.678  1.00  0.00     0.000 C 
BRANCH  15  16
ATOM     16  C   UNL     1     -22.911   0.201  28.936  1.00  0.00     0.000 C 
BRANCH  16  17
ATOM     17  C   UNL     1     -23.530  -0.440  30.191  1.00  0.00     0.000 C 
BRANCH  17  18
ATOM     18  C   UNL     1     -23.502  -1.975  30.148  1.00  0.00    -0.000 C 
BRANCH  18  19
ATOM     19  C   UNL     1     -22.074  -2.538  30.032  1.00  0.00    -0.000 C 
BRANCH  19  20
ATOM     20  C   UNL     1     -22.004  -4.034  30.409  1.00  0.00    -0.000 C 
BRANCH  20  21
ATOM     21  C   UNL     1     -22.456  -4.332  31.851  1.00  0.00    -0.000 C 
BRANCH  21  22
ATOM     22  C   UNL     1     -22.808  -5.805  32.124  1.00  0.00    -0.000 C 
BRANCH  22  23
ATOM     23  C   UNL     1     -21.567  -6.715  32.159  1.00  0.00    -0.000 C 
BRANCH  23  24
ATOM     24  C   UNL     1     -21.781  -7.966  33.025  1.00  0.00    -0.000 C 
BRANCH  24  25
ATOM     25  C   UNL     1     -21.773  -7.650  34.528  1.00  0.00    -0.003 C 
ATOM     26  C   UNL     1     -20.510  -6.890  34.922  1.00  0.00     0.004 C 
ENDBRANCH  24  25
ENDBRANCH  23  24
ENDBRANCH  22  23
ENDBRANCH  21  22
ENDBRANCH  20  21
ENDBRANCH  19  20
ENDBRANCH  18  19
ENDBRANCH  17  18
ENDBRANCH  16  17
ENDBRANCH  15  16
ENDBRANCH   1  15
TORSDOF 22
ENDMDL
MODEL 3
REMARK VINA RESULT:    -4.522      1.799      4.454
REMARK INTER + INTRA:         -13.793
REMARK INTER:                 -10.572
REMARK INTRA:                  -3.220
REMARK UNBOUND:                -3.454
REMARK SMILES CCCCCCCCCCCCCCCCCCCCCCCC(=O)[O-]
REMARK SMILES IDX 13 1 14 2 15 3 16 4 17 5 18 6 19 7 20 8 21 9 22 10 23 11
REMARK SMILES IDX 24 12 25 13 26 14 12 15 11 16 10 17 9 18 8 19 7 20 6 21 5 22
REMARK SMILES IDX 4 23 3 24 2 25 1 26
REMARK H PARENT
REMARK Flexibility Score: inf
ROOT
ATOM      1  C   UNL     1     -19.506   0.021  26.418  1.00  0.00     0.000 C 
ENDROOT
BRANCH   1   2
ATOM      2  C   UNL     1     -18.754   0.868  27.457  1.00  0.00     0.000 C 
BRANCH   2   3
ATOM      3  C   UNL     1     -18.212   0.023  28.623  1.00  0.00     0.000 C 
BRANCH   3   4
ATOM      4  C   UNL     1     -19.229  -0.123  29.765  1.00  0.00     0.000 C 
BRANCH   4   5
ATOM      5  C   UNL     1     -19.609  -1.591  30.034  1.00  0.00     0.000 C 
BRANCH   5   6
ATOM      6  C   UNL     1     -18.545  -2.577  29.523  1.00  0.00     0.000 C 
BRANCH   6   7
ATOM      7  C   UNL     1     -17.459  -2.868  30.573  1.00  0.00     0.000 C 
BRANCH   7   8
ATOM      8  C   UNL     1     -17.747  -2.197  31.925  1.00  0.00     0.000 C 
BRANCH   8   9
ATOM      9  C   UNL     1     -16.800  -1.026  32.225  1.00  0.00     0.000 C 
BRANCH   9  10
ATOM     10  C   UNL     1     -15.676  -0.951  31.182  1.00  0.00     0.006 C 
BRANCH  10  11
ATOM     11  C   UNL     1     -14.451  -0.187  31.702  1.00  0.00     0.053 C 
BRANCH  11  12
ATOM     12  C   UNL     1     -13.651   0.406  30.583  1.00  0.00     0.041 C 
ATOM     13  O   UNL     1     -14.041   1.458  30.011  1.00  0.00    -0.550 OA
ATOM     14  O   UNL     1     -12.457  -0.187  30.191  1.00  0.00    -0.550 OA
ENDBRANCH  11  12
ENDBRANCH  10  11
ENDBRANCH   9  10
ENDBRANCH   8   9
ENDBRANCH   7   8
ENDBRANCH   6   7
ENDBRANCH   5   6
ENDBRANCH   4   5
ENDBRANCH   3   4
ENDBRANCH   2   3
ENDBRANCH   1   2
BRANCH   1  15
ATOM     15  C   UNL     1     -20.939   0.523  26.173  1.00  0.00     0.000 C 
BRANCH  15  16
ATOM     16  C   UNL     1     -21.517   1.270  27.384  1.00  0.00     0.000 C 
BRANCH  16  17
ATOM     17  C   UNL     1     -22.445   0.385  28.235  1.00  0.00     0.000 C 
BRANCH  17  18
ATOM     18  C   UNL     1     -22.962  -0.840  27.467  1.00  0.00    -0.000 C 
BRANCH  18  19
ATOM     19  C   UNL     1     -23.336  -2.008  28.397  1.00  0.00    -0.000 C 
BRANCH  19  20
ATOM     20  C   UNL     1     -23.338  -1.592  29.884  1.00  0.00    -0.000 C 
BRANCH  20  21
ATOM     21  C   UNL     1     -23.240  -2.779  30.862  1.00  0.00    -0.000 C 
BRANCH  21  22
ATOM     22  C   UNL     1     -22.503  -4.010  30.307  1.00  0.00    -0.000 C 
BRANCH  22  23
ATOM     23  C   UNL     1     -21.347  -4.468  31.214  1.00  0.00    -0.000 C 
BRANCH  23  24
ATOM     24  C   UNL     1     -20.854  -5.881  30.867  1.00  0.00    -0.000 C 
BRANCH  24  25
ATOM     25  C   UNL     1     -20.117  -5.933  29.521  1.00  0.00    -0.003 C 
ATOM     26  C   UNL     1     -20.999  -6.541  28.435  1.00  0.00     0.004 C 
ENDBRANCH  24  25
ENDBRANCH  23  24
ENDBRANCH  22  23
ENDBRANCH  21  22
ENDBRANCH  20  21
ENDBRANCH  19  20
ENDBRANCH  18  19
ENDBRANCH  17  18
ENDBRANCH  16  17
ENDBRANCH  15  16
ENDBRANCH   1  15
TORSDOF 22
ENDMDL
MODEL 4
REMARK VINA RESULT:    -4.521      1.324      1.944
REMARK INTER + INTRA:         -13.790
REMARK INTER:                 -11.024
REMARK INTRA:                  -2.766
REMARK UNBOUND:                -3.454
REMARK SMILES CCCCCCCCCCCCCCCCCCCCCCCC(=O)[O-]
REMARK SMILES IDX 13 1 14 2 15 3 16 4 17 5 18 6 19 7 20 8 21 9 22 10 23 11
REMARK SMILES IDX 24 12 25 13 26 14 12 15 11 16 10 17 9 18 8 19 7 20 6 21 5 22
REMARK SMILES IDX 4 23 3 24 2 25 1 26
REMARK H PARENT
REMARK Flexibility Score: inf
ROOT
ATOM      1  C   UNL     1     -23.683   0.259  27.598  1.00  0.00     0.000 C 
ENDROOT
BRANCH   1   2
ATOM      2  C   UNL     1     -23.581  -0.044  26.095  1.00  0.00     0.000 C 
BRANCH   2   3
ATOM      3  C   UNL     1     -22.269   0.472  25.479  1.00  0.00     0.000 C 
BRANCH   3   4
ATOM      4  C   UNL     1     -21.029   0.005  26.258  1.00  0.00     0.000 C 
BRANCH   4   5
ATOM      5  C   UNL     1     -19.972   1.114  26.407  1.00  0.00     0.000 C 
BRANCH   5   6
ATOM      6  C   UNL     1     -19.829   1.598  27.860  1.00  0.00     0.000 C 
BRANCH   6   7
ATOM      7  C   UNL     1     -20.580   0.699  28.857  1.00  0.00     0.000 C 
BRANCH   7   8
ATOM      8  C   UNL     1     -19.641   0.022  29.867  1.00  0.00     0.000 C 
BRANCH   8   9
ATOM      9  C   UNL     1     -19.618  -1.507  29.730  1.00  0.00     0.000 C 
BRANCH   9  10
ATOM     10  C   UNL     1     -18.215  -2.000  29.347  1.00  0.00     0.006 C 
BRANCH  10  11
ATOM     11  C   UNL     1     -17.592  -2.885  30.435  1.00  0.00     0.053 C 
BRANCH  11  12
ATOM     12  C   UNL     1     -16.892  -2.070  31.479  1.00  0.00     0.041 C 
ATOM     13  O   UNL     1     -16.380  -0.959  31.181  1.00  0.00    -0.550 OA
ATOM     14  O   UNL     1     -16.834  -2.525  32.792  1.00  0.00    -0.550 OA
ENDBRANCH  11  12
ENDBRANCH  10  11
ENDBRANCH   9  10
ENDBRANCH   8   9
ENDBRANCH   7   8
ENDBRANCH   6   7
ENDBRANCH   5   6
ENDBRANCH   4   5
ENDBRANCH   3   4
ENDBRANCH   2   3
ENDBRANCH   1   2
BRANCH   1  15
ATOM     15  C   UNL     1     -23.903  -1.008  28.441  1.00  0.00     0.000 C 
BRANCH  15  16
ATOM     16  C   UNL     1     -23.608  -2.297  27.658  1.00  0.00     0.000 C 
BRANCH  16  17
ATOM     17  C   UNL     1     -23.387  -3.509  28.580  1.00  0.00     0.000 C 
BRANCH  17  18
ATOM     18  C   UNL     1     -23.460  -3.142  30.069  1.00  0.00    -0.000 C 
BRANCH  18  19
ATOM     19  C   UNL     1     -22.303  -3.745  30.886  1.00  0.00    -0.000 C 
BRANCH  19  20
ATOM     20  C   UNL     1     -21.492  -4.778  30.073  1.00  0.00    -0.000 C 
BRANCH  20  21
ATOM     21  C   UNL     1     -21.102  -6.033  30.877  1.00  0.00    -0.000 C 
BRANCH  21  22
ATOM     22  C   UNL     1     -22.042  -6.365  32.048  1.00  0.00    -0.000 C 
BRANCH  22  23
ATOM     23  C   UNL     1     -21.756  -7.746  32.665  1.00  0.00    -0.000 C 
BRANCH  23  24
ATOM     24  C   UNL     1     -21.586  -7.683  34.191  1.00  0.00    -0.000 C 
BRANCH  24  25
ATOM     25  C   UNL     1     -20.725  -6.493  34.639  1.00  0.00    -0.003 C 
ATOM     26  C   UNL     1     -19.864  -6.861  35.844  1.00  0.00     0.004 C 
ENDBRANCH  24  25
ENDBRANCH  23  24
ENDBRANCH  22  23
ENDBRANCH  21  22
ENDBRANCH  20  21
ENDBRANCH  19  20
ENDBRANCH  18  19
ENDBRANCH  17  18
ENDBRANCH  16  17
ENDBRANCH  15  16
ENDBRANCH   1  15
TORSDOF 22
ENDMDL
MODEL 5
REMARK VINA RESULT:    -4.456      2.524      6.627
REMARK INTER + INTRA:         -13.641
REMARK INTER:                 -10.194
REMARK INTRA:                  -3.447
REMARK UNBOUND:                -3.454
REMARK SMILES CCCCCCCCCCCCCCCCCCCCCCCC(=O)[O-]
REMARK SMILES IDX 13 1 14 2 15 3 16 4 17 5 18 6 19 7 20 8 21 9 22 10 23 11
REMARK SMILES IDX 24 12 25 13 26 14 12 15 11 16 10 17 9 18 8 19 7 20 6 21 5 22
REMARK SMILES IDX 4 23 3 24 2 25 1 26
REMARK H PARENT
REMARK Flexibility Score: inf
ROOT
ATOM      1  C   UNL     1     -22.964  -0.780  30.048  1.00  0.00     0.000 C 
ENDROOT
BRANCH   1   2
ATOM      2  C   UNL     1     -23.934  -1.972  30.069  1.00  0.00     0.000 C 
BRANCH   2   3
ATOM      3  C   UNL     1     -23.207  -3.324  29.963  1.00  0.00     0.000 C 
BRANCH   3   4
ATOM      4  C   UNL     1     -22.447  -3.685  31.249  1.00  0.00     0.000 C 
BRANCH   4   5
ATOM      5  C   UNL     1     -21.022  -4.197  30.969  1.00  0.00     0.000 C 
BRANCH   5   6
ATOM      6  C   UNL     1     -20.941  -5.040  29.685  1.00  0.00     0.000 C 
BRANCH   6   7
ATOM      7  C   UNL     1     -19.992  -6.243  29.829  1.00  0.00     0.000 C 
BRANCH   7   8
ATOM      8  C   UNL     1     -20.700  -7.493  30.376  1.00  0.00     0.000 C 
BRANCH   8   9
ATOM      9  C   UNL     1     -22.230  -7.372  30.351  1.00  0.00     0.000 C 
BRANCH   9  10
ATOM     10  C   UNL     1     -22.808  -7.457  31.771  1.00  0.00     0.006 C 
BRANCH  10  11
ATOM     11  C   UNL     1     -21.762  -7.913  32.798  1.00  0.00     0.053 C 
BRANCH  11  12
ATOM     12  C   UNL     1     -21.647  -6.950  33.939  1.00  0.00     0.041 C 
ATOM     13  O   UNL     1     -20.729  -7.081  34.791  1.00  0.00    -0.550 OA
ATOM     14  O   UNL     1     -22.536  -5.887  34.043  1.00  0.00    -0.550 OA
ENDBRANCH  11  12
ENDBRANCH  10  11
ENDBRANCH   9  10
ENDBRANCH   8   9
ENDBRANCH   7   8
ENDBRANCH   6   7
ENDBRANCH   5   6
ENDBRANCH   4   5
ENDBRANCH   3   4
ENDBRANCH   2   3
ENDBRANCH   1   2
BRANCH   1  15
ATOM     15  C   UNL     1     -23.077   0.050  28.759  1.00  0.00     0.000 C 
BRANCH  15  16
ATOM     16  C   UNL     1     -22.803  -0.781  27.496  1.00  0.00     0.000 C 
BRANCH  16  17
ATOM     17  C   UNL     1     -22.112   0.037  26.391  1.00  0.00     0.000 C 
BRANCH  17  18
ATOM     18  C   UNL     1     -20.934   0.869  26.918  1.00  0.00    -0.000 C 
BRANCH  18  19
ATOM     19  C   UNL     1     -19.570   0.224  26.611  1.00  0.00    -0.000 C 
BRANCH  19  20
ATOM     20  C   UNL     1     -18.629   0.236  27.836  1.00  0.00    -0.000 C 
BRANCH  20  21
ATOM     21  C   UNL     1     -19.370   0.263  29.187  1.00  0.00    -0.000 C 
BRANCH  21  22
ATOM     22  C   UNL     1     -19.339  -1.064  29.964  1.00  0.00    -0.000 C 
BRANCH  22  23
ATOM     23  C   UNL     1     -18.332  -2.071  29.381  1.00  0.00    -0.000 C 
BRANCH  23  24
ATOM     24  C   UNL     1     -17.457  -2.720  30.464  1.00  0.00    -0.000 C 
BRANCH  24  25
ATOM     25  C   UNL     1     -16.936  -1.702  31.488  1.00  0.00    -0.003 C 
ATOM     26  C   UNL     1     -17.348  -2.088  32.905  1.00  0.00     0.004 C 
ENDBRANCH  24  25
ENDBRANCH  23  24
ENDBRANCH  22  23
ENDBRANCH  21  22
ENDBRANCH  20  21
ENDBRANCH  19  20
ENDBRANCH  18  19
ENDBRANCH  17  18
ENDBRANCH  16  17
ENDBRANCH  15  16
ENDBRANCH   1  15
TORSDOF 22
ENDMDL
MODEL 6
REMARK VINA RESULT:    -4.438      2.602      6.211
REMARK INTER + INTRA:         -13.599
REMARK INTER:                 -10.821
REMARK INTRA:                  -2.778
REMARK UNBOUND:                -3.454
REMARK SMILES CCCCCCCCCCCCCCCCCCCCCCCC(=O)[O-]
REMARK SMILES IDX 13 1 14 2 15 3 16 4 17 5 18 6 19 7 20 8 21 9 22 10 23 11
REMARK SMILES IDX 24 12 25 13 26 14 12 15 11 16 10 17 9 18 8 19 7 20 6 21 5 22
REMARK SMILES IDX 4 23 3 24 2 25 1 26
REMARK H PARENT
REMARK Flexibility Score: inf
ROOT
ATOM      1  C   UNL     1     -20.830   0.185  26.023  1.00  0.00     0.000 C 
ENDROOT
BRANCH   1   2
ATOM      2  C   UNL     1     -22.352   0.103  26.221  1.00  0.00     0.000 C 
BRANCH   2   3
ATOM      3  C   UNL     1     -22.740  -0.166  27.685  1.00  0.00     0.000 C 
BRANCH   3   4
ATOM      4  C   UNL     1     -23.726  -1.337  27.827  1.00  0.00     0.000 C 
BRANCH   4   5
ATOM      5  C   UNL     1     -23.405  -2.237  29.035  1.00  0.00     0.000 C 
BRANCH   5   6
ATOM      6  C   UNL     1     -23.320  -3.724  28.654  1.00  0.00     0.000 C 
BRANCH   6   7
ATOM      7  C   UNL     1     -23.088  -4.632  29.874  1.00  0.00     0.000 C 
BRANCH   7   8
ATOM      8  C   UNL     1     -22.721  -3.841  31.139  1.00  0.00     0.000 C 
BRANCH   8   9
ATOM      9  C   UNL     1     -22.765  -4.697  32.414  1.00  0.00     0.000 C 
BRANCH   9  10
ATOM     10  C   UNL     1     -21.374  -5.255  32.744  1.00  0.00     0.006 C 
BRANCH  10  11
ATOM     11  C   UNL     1     -21.402  -6.768  33.006  1.00  0.00     0.053 C 
BRANCH  11  12
ATOM     12  C   UNL     1     -21.156  -7.086  34.449  1.00  0.00     0.041 C 
ATOM     13  O   UNL     1     -21.929  -7.862  35.069  1.00  0.00    -0.550 OA
ATOM     14  O   UNL     1     -20.052  -6.548  35.101  1.00  0.00    -0.550 OA
ENDBRANCH  11  12
ENDBRANCH  10  11
ENDBRANCH   9  10
ENDBRANCH   8   9
ENDBRANCH   7   8
ENDBRANCH   6   7
ENDBRANCH   5   6
ENDBRANCH   4   5
ENDBRANCH   3   4
ENDBRANCH   2   3
ENDBRANCH   1   2
BRANCH   1  15
ATOM     15  C   UNL     1     -20.183   1.289  26.875  1.00  0.00     0.000 C 
BRANCH  15  16
ATOM     16  C   UNL     1     -18.699   1.017  27.165  1.00  0.00     0.000 C 
BRANCH  16  17
ATOM     17  C   UNL     1     -18.468   0.453  28.578  1.00  0.00     0.000 C 
BRANCH  17  18
ATOM     18  C   UNL     1     -18.811  -1.040  28.683  1.00  0.00    -0.000 C 
BRANCH  18  19
ATOM     19  C   UNL     1     -19.822  -1.338  29.805  1.00  0.00    -0.000 C 
BRANCH  19  20
ATOM     20  C   UNL     1     -19.508  -2.660  30.538  1.00  0.00    -0.000 C 
BRANCH  20  21
ATOM     21  C   UNL     1     -18.142  -3.267  30.166  1.00  0.00    -0.000 C 
BRANCH  21  22
ATOM     22  C   UNL     1     -17.107  -3.270  31.303  1.00  0.00    -0.000 C 
BRANCH  22  23
ATOM     23  C   UNL     1     -17.487  -2.321  32.454  1.00  0.00    -0.000 C 
BRANCH  23  24
ATOM     24  C   UNL     1     -16.888  -0.917  32.279  1.00  0.00    -0.000 C 
BRANCH  24  25
ATOM     25  C   UNL     1     -15.940  -0.828  31.075  1.00  0.00    -0.003 C 
ATOM     26  C   UNL     1     -14.569  -0.307  31.493  1.00  0.00     0.004 C 
ENDBRANCH  24  25
ENDBRANCH  23  24
ENDBRANCH  22  23
ENDBRANCH  21  22
ENDBRANCH  20  21
ENDBRANCH  19  20
ENDBRANCH  18  19
ENDBRANCH  17  18
ENDBRANCH  16  17
ENDBRANCH  15  16
ENDBRANCH   1  15
TORSDOF 22
ENDMDL
MODEL 7
REMARK VINA RESULT:    -4.423      1.488      3.258
REMARK INTER + INTRA:         -13.565
REMARK INTER:                  -9.744
REMARK INTRA:                  -3.821
REMARK UNBOUND:                -3.454
REMARK SMILES CCCCCCCCCCCCCCCCCCCCCCCC(=O)[O-]
REMARK SMILES IDX 13 1 14 2 15 3 16 4 17 5 18 6 19 7 20 8 21 9 22 10 23 11
REMARK SMILES IDX 24 12 25 13 26 14 12 15 11 16 10 17 9 18 8 19 7 20 6 21 5 22
REMARK SMILES IDX 4 23 3 24 2 25 1 26
REMARK H PARENT
REMARK Flexibility Score: inf
ROOT
ATOM      1  C   UNL     1     -23.122  -0.272  26.293  1.00  0.00     0.000 C 
ENDROOT
BRANCH   1   2
ATOM      2  C   UNL     1     -21.682  -0.313  25.756  1.00  0.00     0.000 C 
BRANCH   2   3
ATOM      3  C   UNL     1     -20.805   0.807  26.342  1.00  0.00     0.000 C 
BRANCH   3   4
ATOM      4  C   UNL     1     -19.319   0.420  26.404  1.00  0.00     0.000 C 
BRANCH   4   5
ATOM      5  C   UNL     1     -18.729   0.567  27.818  1.00  0.00     0.000 C 
BRANCH   5   6
ATOM      6  C   UNL     1     -19.795   0.927  28.866  1.00  0.00     0.000 C 
BRANCH   6   7
ATOM      7  C   UNL     1     -20.108  -0.245  29.813  1.00  0.00     0.000 C 
BRANCH   7   8
ATOM      8  C   UNL     1     -19.461  -1.562  29.359  1.00  0.00     0.000 C 
BRANCH   8   9
ATOM      9  C   UNL     1     -20.033  -2.790  30.083  1.00  0.00     0.000 C 
BRANCH   9  10
ATOM     10  C   UNL     1     -19.058  -3.294  31.156  1.00  0.00     0.006 C 
BRANCH  10  11
ATOM     11  C   UNL     1     -17.681  -2.624  31.052  1.00  0.00     0.053 C 
BRANCH  11  12
ATOM     12  C   UNL     1     -17.211  -2.112  32.378  1.00  0.00     0.041 C 
ATOM     13  O   UNL     1     -17.341  -0.894  32.671  1.00  0.00    -0.550 OA
ATOM     14  O   UNL     1     -16.659  -2.988  33.305  1.00  0.00    -0.550 OA
ENDBRANCH  11  12
ENDBRANCH  10  11
ENDBRANCH   9  10
ENDBRANCH   8   9
ENDBRANCH   7   8
ENDBRANCH   6   7
ENDBRANCH   5   6
ENDBRANCH   4   5
ENDBRANCH   3   4
ENDBRANCH   2   3
ENDBRANCH   1   2
BRANCH   1  15
ATOM     15  C   UNL     1     -23.252   0.578  27.568  1.00  0.00     0.000 C 
BRANCH  15  16
ATOM     16  C   UNL     1     -23.535  -0.272  28.817  1.00  0.00     0.000 C 
BRANCH  16  17
ATOM     17  C   UNL     1     -23.464  -1.783  28.529  1.00  0.00     0.000 C 
BRANCH  17  18
ATOM     18  C   UNL     1     -23.686  -2.636  29.787  1.00  0.00    -0.000 C 
BRANCH  18  19
ATOM     19  C   UNL     1     -23.734  -1.792  31.074  1.00  0.00    -0.000 C 
BRANCH  19  20
ATOM     20  C   UNL     1     -24.124  -2.633  32.309  1.00  0.00    -0.000 C 
BRANCH  20  21
ATOM     21  C   UNL     1     -23.672  -4.104  32.226  1.00  0.00    -0.000 C 
BRANCH  21  22
ATOM     22  C   UNL     1     -22.352  -4.413  32.953  1.00  0.00    -0.000 C 
BRANCH  22  23
ATOM     23  C   UNL     1     -21.600  -5.605  32.334  1.00  0.00    -0.000 C 
BRANCH  23  24
ATOM     24  C   UNL     1     -21.916  -5.788  30.842  1.00  0.00    -0.000 C 
BRANCH  24  25
ATOM     25  C   UNL     1     -21.154  -6.968  30.220  1.00  0.00    -0.003 C 
ATOM     26  C   UNL     1     -20.030  -6.478  29.313  1.00  0.00     0.004 C 
ENDBRANCH  24  25
ENDBRANCH  23  24
ENDBRANCH  22  23
ENDBRANCH  21  22
ENDBRANCH  20  21
ENDBRANCH  19  20
ENDBRANCH  18  19
ENDBRANCH  17  18
ENDBRANCH  16  17
ENDBRANCH  15  16
ENDBRANCH   1  15
TORSDOF 22
ENDMDL
MODEL 8
REMARK VINA RESULT:    -4.360      1.324      6.523
REMARK INTER + INTRA:         -13.421
REMARK INTER:                  -9.837
REMARK INTRA:                  -3.584
REMARK UNBOUND:                -3.454
REMARK SMILES CCCCCCCCCCCCCCCCCCCCCCCC(=O)[O-]
REMARK SMILES IDX 13 1 14 2 15 3 16 4 17 5 18 6 19 7 20 8 21 9 22 10 23 11
REMARK SMILES IDX 24 12 25 13 26 14 12 15 11 16 10 17 9 18 8 19 7 20 6 21 5 22
REMARK SMILES IDX 4 23 3 24 2 25 1 26
REMARK H PARENT
REMARK Flexibility Score: inf
ROOT
ATOM      1  C   UNL     1     -21.341  -5.411  33.260  1.00  0.00     0.000 C 
ENDROOT
BRANCH   1   2
ATOM      2  C   UNL     1     -21.226  -6.938  33.129  1.00  0.00     0.000 C 
BRANCH   2   3
ATOM      3  C   UNL     1     -22.271  -7.526  32.165  1.00  0.00     0.000 C 
BRANCH   3   4
ATOM      4  C   UNL     1     -22.018  -7.123  30.704  1.00  0.00     0.000 C 
BRANCH   4   5
ATOM      5  C   UNL     1     -20.573  -7.407  30.255  1.00  0.00     0.000 C 
BRANCH   5   6
ATOM      6  C   UNL     1     -19.998  -6.282  29.377  1.00  0.00     0.000 C 
BRANCH   6   7
ATOM      7  C   UNL     1     -20.592  -4.905  29.721  1.00  0.00     0.000 C 
BRANCH   7   8
ATOM      8  C   UNL     1     -19.595  -3.998  30.459  1.00  0.00     0.000 C 
BRANCH   8   9
ATOM      9  C   UNL     1     -18.749  -3.140  29.507  1.00  0.00     0.000 C 
BRANCH   9  10
ATOM     10  C   UNL     1     -17.828  -2.197  30.293  1.00  0.00     0.006 C 
BRANCH  10  11
ATOM     11  C   UNL     1     -16.914  -2.955  31.267  1.00  0.00     0.053 C 
BRANCH  11  12
ATOM     12  C   UNL     1     -16.952  -2.360  32.640  1.00  0.00     0.041 C 
ATOM     13  O   UNL     1     -17.284  -1.156  32.802  1.00  0.00    -0.550 OA
ATOM     14  O   UNL     1     -16.651  -3.146  33.746  1.00  0.00    -0.550 OA
ENDBRANCH  11  12
ENDBRANCH  10  11
ENDBRANCH   9  10
ENDBRANCH   8   9
ENDBRANCH   7   8
ENDBRANCH   6   7
ENDBRANCH   5   6
ENDBRANCH   4   5
ENDBRANCH   3   4
ENDBRANCH   2   3
ENDBRANCH   1   2
BRANCH   1  15
ATOM     15  C   UNL     1     -22.784  -4.950  33.525  1.00  0.00     0.000 C 
BRANCH  15  16
ATOM     16  C   UNL     1     -23.209  -3.789  32.612  1.00  0.00     0.000 C 
BRANCH  16  17
ATOM     17  C   UNL     1     -24.112  -4.250  31.455  1.00  0.00     0.000 C 
BRANCH  17  18
ATOM     18  C   UNL     1     -24.068  -3.295  30.253  1.00  0.00    -0.000 C 
BRANCH  18  19
ATOM     19  C   UNL     1     -23.368  -1.963  30.580  1.00  0.00    -0.000 C 
BRANCH  19  20
ATOM     20  C   UNL     1     -22.242  -1.634  29.576  1.00  0.00    -0.000 C 
BRANCH  20  21
ATOM     21  C   UNL     1     -21.889  -0.135  29.509  1.00  0.00    -0.000 C 
BRANCH  21  22
ATOM     22  C   UNL     1     -20.423   0.196  29.835  1.00  0.00    -0.000 C 
BRANCH  22  23
ATOM     23  C   UNL     1     -19.696   0.885  28.666  1.00  0.00    -0.000 C 
BRANCH  23  24
ATOM     24  C   UNL     1     -19.847   0.114  27.345  1.00  0.00    -0.000 C 
BRANCH  24  25
ATOM     25  C   UNL     1     -20.677   0.883  26.307  1.00  0.00    -0.003 C 
ATOM     26  C   UNL     1     -21.782   0.005  25.728  1.00  0.00     0.004 C 
ENDBRANCH  24  25
ENDBRANCH  23  24
ENDBRANCH  22  23
ENDBRANCH  21  22
ENDBRANCH  20  21
ENDBRANCH  19  20
ENDBRANCH  18  19
ENDBRANCH  17  18
ENDBRANCH  16  17
ENDBRANCH  15  16
ENDBRANCH   1  15
TORSDOF 22
ENDMDL
MODEL 9
REMARK VINA RESULT:    -4.301      0.985      2.241
REMARK INTER + INTRA:         -13.288
REMARK INTER:                 -10.370
REMARK INTRA:                  -2.918
REMARK UNBOUND:                -3.454
REMARK SMILES CCCCCCCCCCCCCCCCCCCCCCCC(=O)[O-]
REMARK SMILES IDX 13 1 14 2 15 3 16 4 17 5 18 6 19 7 20 8 21 9 22 10 23 11
REMARK SMILES IDX 24 12 25 13 26 14 12 15 11 16 10 17 9 18 8 19 7 20 6 21 5 22
REMARK SMILES IDX 4 23 3 24 2 25 1 26
REMARK H PARENT
REMARK Flexibility Score: inf
ROOT
ATOM      1  C   UNL     1     -22.545  -1.350  28.625  1.00  0.00     0.000 C 
ENDROOT
BRANCH   1   2
ATOM      2  C   UNL     1     -23.106  -0.051  28.025  1.00  0.00     0.000 C 
BRANCH   2   3
ATOM      3  C   UNL     1     -23.321  -0.151  26.505  1.00  0.00     0.000 C 
BRANCH   3   4
ATOM      4  C   UNL     1     -21.997  -0.212  25.726  1.00  0.00     0.000 C 
BRANCH   4   5
ATOM      5  C   UNL     1     -20.945   0.772  26.272  1.00  0.00     0.000 C 
BRANCH   5   6
ATOM      6  C   UNL     1     -19.534   0.162  26.310  1.00  0.00     0.000 C 
BRANCH   6   7
ATOM      7  C   UNL     1     -18.746   0.581  27.564  1.00  0.00     0.000 C 
BRANCH   7   8
ATOM      8  C   UNL     1     -19.660   1.006  28.723  1.00  0.00     0.000 C 
BRANCH   8   9
ATOM      9  C   UNL     1     -19.564   0.068  29.935  1.00  0.00     0.000 C 
BRANCH   9  10
ATOM     10  C   UNL     1     -18.477  -0.994  29.719  1.00  0.00     0.006 C 
BRANCH  10  11
ATOM     11  C   UNL     1     -18.396  -1.989  30.886  1.00  0.00     0.053 C 
BRANCH  11  12
ATOM     12  C   UNL     1     -17.255  -1.676  31.804  1.00  0.00     0.041 C 
ATOM     13  O   UNL     1     -16.294  -0.967  31.404  1.00  0.00    -0.550 OA
ATOM     14  O   UNL     1     -17.268  -2.142  33.113  1.00  0.00    -0.550 OA
ENDBRANCH  11  12
ENDBRANCH  10  11
ENDBRANCH   9  10
ENDBRANCH   8   9
ENDBRANCH   7   8
ENDBRANCH   6   7
ENDBRANCH   5   6
ENDBRANCH   4   5
ENDBRANCH   3   4
ENDBRANCH   2   3
ENDBRANCH   1   2
BRANCH   1  15
ATOM     15  C   UNL     1     -23.600  -2.466  28.707  1.00  0.00     0.000 C 
BRANCH  15  16
ATOM     16  C   UNL     1     -22.987  -3.832  29.051  1.00  0.00     0.000 C 
BRANCH  16  17
ATOM     17  C   UNL     1     -21.965  -3.747  30.199  1.00  0.00     0.000 C 
BRANCH  17  18
ATOM     18  C   UNL     1     -22.592  -4.030  31.572  1.00  0.00    -0.000 C 
BRANCH  18  19
ATOM     19  C   UNL     1     -21.615  -4.728  32.536  1.00  0.00    -0.000 C 
BRANCH  19  20
ATOM     20  C   UNL     1     -22.345  -5.630  33.555  1.00  0.00    -0.000 C 
BRANCH  20  21
ATOM     21  C   UNL     1     -21.552  -6.892  33.947  1.00  0.00    -0.000 C 
BRANCH  21  22
ATOM     22  C   UNL     1     -21.695  -8.072  32.972  1.00  0.00    -0.000 C 
BRANCH  22  23
ATOM     23  C   UNL     1     -22.729  -7.805  31.864  1.00  0.00    -0.000 C 
BRANCH  23  24
ATOM     24  C   UNL     1     -22.123  -7.912  30.457  1.00  0.00    -0.000 C 
BRANCH  24  25
ATOM     25  C   UNL     1     -20.593  -7.780  30.464  1.00  0.00    -0.003 C 
ATOM     26  C   UNL     1     -20.125  -6.756  29.435  1.00  0.00     0.004 C 
ENDBRANCH  24  25
ENDBRANCH  23  24
ENDBRANCH  22  23
ENDBRANCH  21  22
ENDBRANCH  20  21
ENDBRANCH  19  20
ENDBRANCH  18  19
ENDBRANCH  17  18
ENDBRANCH  16  17
ENDBRANCH  15  16
ENDBRANCH   1  15
TORSDOF 22
ENDMDL
