MODEL 1
REMARK VINA RESULT:    -4.678      0.000      0.000
REMARK INTER + INTRA:         -12.294
REMARK INTER:                 -10.148
REMARK INTRA:                  -2.147
REMARK UNBOUND:                -2.147
REMARK SMILES CCCCCCCCCCCCCCCCCCCCCC(=O)[O-]
REMARK SMILES IDX 12 1 11 2 10 3 9 4 8 5 7 6 6 7 5 8 4 9 3 10 2 11 1 12 13 13
REMARK SMILES IDX 14 14 15 15 16 16 17 17 18 18 19 19 20 20 21 21 22 22 23 23
REMARK SMILES IDX 24 24
REMARK H PARENT
REMARK Flexibility Score: inf
ROOT
ATOM      1  C   UNL     1      22.572  -3.323  36.762  1.00  0.00     0.000 C 
ENDROOT
BRANCH   1   2
ATOM      2  C   UNL     1      22.098  -4.600  36.052  1.00  0.00     0.000 C 
BRANCH   2   3
ATOM      3  C   UNL     1      22.984  -4.909  34.839  1.00  0.00     0.000 C 
BRANCH   3   4
ATOM      4  C   UNL     1      23.224  -6.420  34.701  1.00  0.00    -0.000 C 
BRANCH   4   5
ATOM      5  C   UNL     1      24.697  -6.806  34.912  1.00  0.00    -0.000 C 
BRANCH   5   6
ATOM      6  C   UNL     1      25.188  -6.509  36.336  1.00  0.00    -0.000 C 
BRANCH   6   7
ATOM      7  C   UNL     1      26.618  -5.956  36.323  1.00  0.00    -0.000 C 
BRANCH   7   8
ATOM      8  C   UNL     1      26.823  -4.997  35.141  1.00  0.00    -0.000 C 
BRANCH   8   9
ATOM      9  C   UNL     1      27.508  -3.684  35.553  1.00  0.00    -0.000 C 
BRANCH   9  10
ATOM     10  C   UNL     1      29.036  -3.738  35.401  1.00  0.00    -0.000 C 
BRANCH  10  11
ATOM     11  C   UNL     1      29.729  -3.433  36.735  1.00  0.00    -0.003 C 
ATOM     12  C   UNL     1      28.720  -2.997  37.793  1.00  0.00     0.004 C 
ENDBRANCH  10  11
ENDBRANCH   9  10
ENDBRANCH   8   9
ENDBRANCH   7   8
ENDBRANCH   6   7
ENDBRANCH   5   6
ENDBRANCH   4   5
ENDBRANCH   3   4
ENDBRANCH   2   3
ENDBRANCH   1   2
BRANCH   1  13
ATOM     13  C   UNL     1      24.035  -2.973  36.447  1.00  0.00     0.000 C 
BRANCH  13  14
ATOM     14  C   UNL     1      24.289  -1.459  36.412  1.00  0.00     0.000 C 
BRANCH  14  15
ATOM     15  C   UNL     1      25.565  -1.050  37.166  1.00  0.00     0.000 C 
BRANCH  15  16
ATOM     16  C   UNL     1      25.510   0.376  37.757  1.00  0.00     0.000 C 
BRANCH  16  17
ATOM     17  C   UNL     1      26.718   0.679  38.662  1.00  0.00     0.000 C 
BRANCH  17  18
ATOM     18  C   UNL     1      26.704   2.111  39.226  1.00  0.00     0.000 C 
BRANCH  18  19
ATOM     19  C   UNL     1      25.517   2.444  40.149  1.00  0.00     0.000 C 
BRANCH  19  20
ATOM     20  C   UNL     1      25.886   3.108  41.490  1.00  0.00     0.006 C 
BRANCH  20  21
ATOM     21  C   UNL     1      25.184   2.486  42.712  1.00  0.00     0.053 C 
BRANCH  21  22
ATOM     22  C   UNL     1      26.078   1.557  43.476  1.00  0.00     0.041 C 
ATOM     23  O   UNL     1      26.313   0.400  43.037  1.00  0.00    -0.550 OA
ATOM     24  O   UNL     1      26.666   1.973  44.663  1.00  0.00    -0.550 OA
ENDBRANCH  21  22
ENDBRANCH  20  21
ENDBRANCH  19  20
ENDBRANCH  18  19
ENDBRANCH  17  18
ENDBRANCH  16  17
ENDBRANCH  15  16
ENDBRANCH  14  15
ENDBRANCH  13  14
ENDBRANCH   1  13
TORSDOF 20
ENDMDL
MODEL 2
REMARK VINA RESULT:    -4.540      6.195      9.409
REMARK INTER + INTRA:         -11.996
REMARK INTER:                 -10.245
REMARK INTRA:                  -1.751
REMARK UNBOUND:                -2.147
REMARK SMILES CCCCCCCCCCCCCCCCCCCCCC(=O)[O-]
REMARK SMILES IDX 12 1 11 2 10 3 9 4 8 5 7 6 6 7 5 8 4 9 3 10 2 11 1 12 13 13
REMARK SMILES IDX 14 14 15 15 16 16 17 17 18 18 19 19 20 20 21 21 22 22 23 23
REMARK SMILES IDX 24 24
REMARK H PARENT
REMARK Flexibility Score: inf
ROOT
ATOM      1  C   UNL     1      27.723  -3.128  45.379  1.00  0.00     0.000 C 
ENDROOT
BRANCH   1   2
ATOM      2  C   UNL     1      28.480  -4.393  44.945  1.00  0.00     0.000 C 
BRANCH   2   3
ATOM      3  C   UNL     1      27.617  -5.251  44.012  1.00  0.00     0.000 C 
BRANCH   3   4
ATOM      4  C   UNL     1      26.153  -4.788  44.032  1.00  0.00    -0.000 C 
BRANCH   4   5
ATOM      5  C   UNL     1      25.171  -5.946  44.277  1.00  0.00    -0.000 C 
BRANCH   5   6
ATOM      6  C   UNL     1      25.495  -6.737  45.552  1.00  0.00    -0.000 C 
BRANCH   6   7
ATOM      7  C   UNL     1      24.659  -6.241  46.737  1.00  0.00    -0.000 C 
BRANCH   7   8
ATOM      8  C   UNL     1      25.541  -5.518  47.767  1.00  0.00    -0.000 C 
BRANCH   8   9
ATOM      9  C   UNL     1      24.854  -5.364  49.133  1.00  0.00    -0.000 C 
BRANCH   9  10
ATOM     10  C   UNL     1      23.605  -6.246  49.272  1.00  0.00    -0.000 C 
BRANCH  10  11
ATOM     11  C   UNL     1      22.371  -5.397  49.603  1.00  0.00    -0.003 C 
ATOM     12  C   UNL     1      22.548  -4.660  50.927  1.00  0.00     0.004 C 
ENDBRANCH  10  11
ENDBRANCH   9  10
ENDBRANCH   8   9
ENDBRANCH   7   8
ENDBRANCH   6   7
ENDBRANCH   5   6
ENDBRANCH   4   5
ENDBRANCH   3   4
ENDBRANCH   2   3
ENDBRANCH   1   2
BRANCH   1  13
ATOM     13  C   UNL     1      28.292  -1.848  44.746  1.00  0.00     0.000 C 
BRANCH  13  14
ATOM     14  C   UNL     1      27.842  -1.656  43.290  1.00  0.00     0.000 C 
BRANCH  14  15
ATOM     15  C   UNL     1      26.600  -0.759  43.162  1.00  0.00     0.000 C 
BRANCH  15  16
ATOM     16  C   UNL     1      26.694   0.553  43.973  1.00  0.00     0.000 C 
BRANCH  16  17
ATOM     17  C   UNL     1      25.308   1.092  44.371  1.00  0.00     0.000 C 
BRANCH  17  18
ATOM     18  C   UNL     1      24.771   2.155  43.394  1.00  0.00     0.000 C 
BRANCH  18  19
ATOM     19  C   UNL     1      25.787   2.667  42.355  1.00  0.00     0.000 C 
BRANCH  19  20
ATOM     20  C   UNL     1      25.224   2.906  40.941  1.00  0.00     0.006 C 
BRANCH  20  21
ATOM     21  C   UNL     1      26.154   2.432  39.808  1.00  0.00     0.053 C 
BRANCH  21  22
ATOM     22  C   UNL     1      25.398   1.855  38.649  1.00  0.00     0.041 C 
ATOM     23  O   UNL     1      25.698   0.718  38.200  1.00  0.00    -0.550 OA
ATOM     24  O   UNL     1      24.351   2.565  38.075  1.00  0.00    -0.550 OA
ENDBRANCH  21  22
ENDBRANCH  20  21
ENDBRANCH  19  20
ENDBRANCH  18  19
ENDBRANCH  17  18
ENDBRANCH  16  17
ENDBRANCH  15  16
ENDBRANCH  14  15
ENDBRANCH  13  14
ENDBRANCH   1  13
TORSDOF 20
ENDMDL
MODEL 3
REMARK VINA RESULT:    -4.523      1.556      3.366
REMARK INTER + INTRA:         -11.958
REMARK INTER:                 -10.191
REMARK INTRA:                  -1.767
REMARK UNBOUND:                -2.147
REMARK SMILES CCCCCCCCCCCCCCCCCCCCCC(=O)[O-]
REMARK SMILES IDX 12 1 11 2 10 3 9 4 8 5 7 6 6 7 5 8 4 9 3 10 2 11 1 12 13 13
REMARK SMILES IDX 14 14 15 15 16 16 17 17 18 18 19 19 20 20 21 21 22 22 23 23
REMARK SMILES IDX 24 24
REMARK H PARENT
REMARK Flexibility Score: inf
ROOT
ATOM      1  C   UNL     1      25.444  -1.187  36.987  1.00  0.00     0.000 C 
ENDROOT
BRANCH   1   2
ATOM      2  C   UNL     1      24.033  -1.498  36.464  1.00  0.00     0.000 C 
BRANCH   2   3
ATOM      3  C   UNL     1      23.827  -3.010  36.318  1.00  0.00     0.000 C 
BRANCH   3   4
ATOM      4  C   UNL     1      22.412  -3.421  36.754  1.00  0.00    -0.000 C 
BRANCH   4   5
ATOM      5  C   UNL     1      22.055  -4.853  36.325  1.00  0.00    -0.000 C 
BRANCH   5   6
ATOM      6  C   UNL     1      23.287  -5.674  35.919  1.00  0.00    -0.000 C 
BRANCH   6   7
ATOM      7  C   UNL     1      23.035  -6.438  34.613  1.00  0.00    -0.000 C 
BRANCH   7   8
ATOM      8  C   UNL     1      24.293  -6.448  33.732  1.00  0.00    -0.000 C 
BRANCH   8   9
ATOM      9  C   UNL     1      25.221  -5.253  34.008  1.00  0.00    -0.000 C 
BRANCH   9  10
ATOM     10  C   UNL     1      26.708  -5.626  33.926  1.00  0.00    -0.000 C 
BRANCH  10  11
ATOM     11  C   UNL     1      27.540  -4.769  34.888  1.00  0.00    -0.003 C 
ATOM     12  C   UNL     1      26.976  -4.824  36.304  1.00  0.00     0.004 C 
ENDBRANCH  10  11
ENDBRANCH   9  10
ENDBRANCH   8   9
ENDBRANCH   7   8
ENDBRANCH   6   7
ENDBRANCH   5   6
ENDBRANCH   4   5
ENDBRANCH   3   4
ENDBRANCH   2   3
ENDBRANCH   1   2
BRANCH   1  13
ATOM     13  C   UNL     1      25.609   0.279  37.419  1.00  0.00     0.000 C 
BRANCH  13  14
ATOM     14  C   UNL     1      26.168   0.417  38.843  1.00  0.00     0.000 C 
BRANCH  14  15
ATOM     15  C   UNL     1      27.227   1.526  38.963  1.00  0.00     0.000 C 
BRANCH  15  16
ATOM     16  C   UNL     1      26.740   2.772  39.735  1.00  0.00     0.000 C 
BRANCH  16  17
ATOM     17  C   UNL     1      25.579   2.447  40.693  1.00  0.00     0.000 C 
BRANCH  17  18
ATOM     18  C   UNL     1      25.855   2.886  42.143  1.00  0.00     0.000 C 
BRANCH  18  19
ATOM     19  C   UNL     1      25.356   1.916  43.231  1.00  0.00     0.000 C 
BRANCH  19  20
ATOM     20  C   UNL     1      26.401   0.909  43.750  1.00  0.00     0.006 C 
BRANCH  20  21
ATOM     21  C   UNL     1      26.528  -0.362  42.890  1.00  0.00     0.053 C 
BRANCH  21  22
ATOM     22  C   UNL     1      27.186  -1.490  43.626  1.00  0.00     0.041 C 
ATOM     23  O   UNL     1      28.181  -1.269  44.366  1.00  0.00    -0.550 OA
ATOM     24  O   UNL     1      26.692  -2.783  43.509  1.00  0.00    -0.550 OA
ENDBRANCH  21  22
ENDBRANCH  20  21
ENDBRANCH  19  20
ENDBRANCH  18  19
ENDBRANCH  17  18
ENDBRANCH  16  17
ENDBRANCH  15  16
ENDBRANCH  14  15
ENDBRANCH  13  14
ENDBRANCH   1  13
TORSDOF 20
ENDMDL
MODEL 4
REMARK VINA RESULT:    -4.519      5.707      8.911
REMARK INTER + INTRA:         -11.950
REMARK INTER:                  -9.351
REMARK INTRA:                  -2.599
REMARK UNBOUND:                -2.147
REMARK SMILES CCCCCCCCCCCCCCCCCCCCCC(=O)[O-]
REMARK SMILES IDX 12 1 11 2 10 3 9 4 8 5 7 6 6 7 5 8 4 9 3 10 2 11 1 12 13 13
REMARK SMILES IDX 14 14 15 15 16 16 17 17 18 18 19 19 20 20 21 21 22 22 23 23
REMARK SMILES IDX 24 24
REMARK H PARENT
REMARK Flexibility Score: inf
ROOT
ATOM      1  C   UNL     1      28.612  -2.619  45.483  1.00  0.00     0.000 C 
ENDROOT
BRANCH   1   2
ATOM      2  C   UNL     1      29.735  -2.472  46.521  1.00  0.00     0.000 C 
BRANCH   2   3
ATOM      3  C   UNL     1      30.370  -3.831  46.834  1.00  0.00     0.000 C 
BRANCH   3   4
ATOM      4  C   UNL     1      29.756  -4.941  45.967  1.00  0.00    -0.000 C 
BRANCH   4   5
ATOM      5  C   UNL     1      29.559  -6.255  46.742  1.00  0.00    -0.000 C 
BRANCH   5   6
ATOM      6  C   UNL     1      28.148  -6.837  46.571  1.00  0.00    -0.000 C 
BRANCH   6   7
ATOM      7  C   UNL     1      27.168  -6.210  47.570  1.00  0.00    -0.000 C 
BRANCH   7   8
ATOM      8  C   UNL     1      26.199  -5.253  46.859  1.00  0.00    -0.000 C 
BRANCH   8   9
ATOM      9  C   UNL     1      25.025  -5.986  46.189  1.00  0.00    -0.000 C 
BRANCH   9  10
ATOM     10  C   UNL     1      25.143  -6.019  44.658  1.00  0.00    -0.000 C 
BRANCH  10  11
ATOM     11  C   UNL     1      25.998  -4.851  44.151  1.00  0.00    -0.003 C 
ATOM     12  C   UNL     1      27.154  -5.348  43.289  1.00  0.00     0.004 C 
ENDBRANCH  10  11
ENDBRANCH   9  10
ENDBRANCH   8   9
ENDBRANCH   7   8
ENDBRANCH   6   7
ENDBRANCH   5   6
ENDBRANCH   4   5
ENDBRANCH   3   4
ENDBRANCH   2   3
ENDBRANCH   1   2
BRANCH   1  13
ATOM     13  C   UNL     1      28.471  -1.385  44.578  1.00  0.00     0.000 C 
BRANCH  13  14
ATOM     14  C   UNL     1      27.547  -1.634  43.376  1.00  0.00     0.000 C 
BRANCH  14  15
ATOM     15  C   UNL     1      26.765  -0.379  42.955  1.00  0.00     0.000 C 
BRANCH  15  16
ATOM     16  C   UNL     1      25.555  -0.065  43.863  1.00  0.00     0.000 C 
BRANCH  16  17
ATOM     17  C   UNL     1      25.299   1.448  43.991  1.00  0.00     0.000 C 
BRANCH  17  18
ATOM     18  C   UNL     1      25.965   2.268  42.871  1.00  0.00     0.000 C 
BRANCH  18  19
ATOM     19  C   UNL     1      24.995   3.011  41.933  1.00  0.00     0.000 C 
BRANCH  19  20
ATOM     20  C   UNL     1      25.069   2.605  40.448  1.00  0.00     0.006 C 
BRANCH  20  21
ATOM     21  C   UNL     1      26.397   1.936  40.046  1.00  0.00     0.053 C 
BRANCH  21  22
ATOM     22  C   UNL     1      26.232   0.968  38.913  1.00  0.00     0.041 C 
ATOM     23  O   UNL     1      27.053   0.026  38.760  1.00  0.00    -0.550 OA
ATOM     24  O   UNL     1      25.161   1.093  38.038  1.00  0.00    -0.550 OA
ENDBRANCH  21  22
ENDBRANCH  20  21
ENDBRANCH  19  20
ENDBRANCH  18  19
ENDBRANCH  17  18
ENDBRANCH  16  17
ENDBRANCH  15  16
ENDBRANCH  14  15
ENDBRANCH  13  14
ENDBRANCH   1  13
TORSDOF 20
ENDMDL
MODEL 5
REMARK VINA RESULT:    -4.481      5.896      9.509
REMARK INTER + INTRA:         -11.868
REMARK INTER:                  -9.938
REMARK INTRA:                  -1.930
REMARK UNBOUND:                -2.147
REMARK SMILES CCCCCCCCCCCCCCCCCCCCCC(=O)[O-]
REMARK SMILES IDX 12 1 11 2 10 3 9 4 8 5 7 6 6 7 5 8 4 9 3 10 2 11 1 12 13 13
REMARK SMILES IDX 14 14 15 15 16 16 17 17 18 18 19 19 20 20 21 21 22 22 23 23
REMARK SMILES IDX 24 24
REMARK H PARENT
REMARK Flexibility Score: inf
ROOT
ATOM      1  C   UNL     1      27.857  -1.711  44.347  1.00  0.00     0.000 C 
ENDROOT
BRANCH   1   2
ATOM      2  C   UNL     1      27.675  -1.471  42.840  1.00  0.00     0.000 C 
BRANCH   2   3
ATOM      3  C   UNL     1      26.814  -0.229  42.587  1.00  0.00     0.000 C 
BRANCH   3   4
ATOM      4  C   UNL     1      26.087   0.211  43.867  1.00  0.00    -0.000 C 
BRANCH   4   5
ATOM      5  C   UNL     1      25.276   1.502  43.671  1.00  0.00    -0.000 C 
BRANCH   5   6
ATOM      6  C   UNL     1      25.978   2.508  42.747  1.00  0.00    -0.000 C 
BRANCH   6   7
ATOM      7  C   UNL     1      24.980   3.164  41.786  1.00  0.00    -0.000 C 
BRANCH   7   8
ATOM      8  C   UNL     1      25.124   2.589  40.368  1.00  0.00    -0.000 C 
BRANCH   8   9
ATOM      9  C   UNL     1      26.577   2.611  39.864  1.00  0.00    -0.000 C 
BRANCH   9  10
ATOM     10  C   UNL     1      26.867   1.500  38.844  1.00  0.00    -0.000 C 
BRANCH  10  11
ATOM     11  C   UNL     1      25.593   1.110  38.084  1.00  0.00    -0.003 C 
ATOM     12  C   UNL     1      25.695  -0.307  37.528  1.00  0.00     0.004 C 
ENDBRANCH  10  11
ENDBRANCH   9  10
ENDBRANCH   8   9
ENDBRANCH   7   8
ENDBRANCH   6   7
ENDBRANCH   5   6
ENDBRANCH   4   5
ENDBRANCH   3   4
ENDBRANCH   2   3
ENDBRANCH   1   2
BRANCH   1  13
ATOM     13  C   UNL     1      27.767  -3.197  44.729  1.00  0.00     0.000 C 
BRANCH  13  14
ATOM     14  C   UNL     1      27.881  -4.129  43.514  1.00  0.00     0.000 C 
BRANCH  14  15
ATOM     15  C   UNL     1      27.192  -5.486  43.736  1.00  0.00     0.000 C 
BRANCH  15  16
ATOM     16  C   UNL     1      25.662  -5.384  43.925  1.00  0.00     0.000 C 
BRANCH  16  17
ATOM     17  C   UNL     1      25.180  -6.123  45.186  1.00  0.00     0.000 C 
BRANCH  17  18
ATOM     18  C   UNL     1      26.329  -6.771  45.980  1.00  0.00     0.000 C 
BRANCH  18  19
ATOM     19  C   UNL     1      26.267  -6.576  47.507  1.00  0.00     0.000 C 
BRANCH  19  20
ATOM     20  C   UNL     1      25.727  -5.212  47.980  1.00  0.00     0.006 C 
BRANCH  20  21
ATOM     21  C   UNL     1      25.334  -5.175  49.468  1.00  0.00     0.053 C 
BRANCH  21  22
ATOM     22  C   UNL     1      23.862  -5.369  49.678  1.00  0.00     0.041 C 
ATOM     23  O   UNL     1      23.114  -5.648  48.704  1.00  0.00    -0.550 OA
ATOM     24  O   UNL     1      23.318  -5.259  50.952  1.00  0.00    -0.550 OA
ENDBRANCH  21  22
ENDBRANCH  20  21
ENDBRANCH  19  20
ENDBRANCH  18  19
ENDBRANCH  17  18
ENDBRANCH  16  17
ENDBRANCH  15  16
ENDBRANCH  14  15
ENDBRANCH  13  14
ENDBRANCH   1  13
TORSDOF 20
ENDMDL
MODEL 6
REMARK VINA RESULT:    -4.469      4.008      8.977
REMARK INTER + INTRA:         -11.840
REMARK INTER:                 -10.556
REMARK INTRA:                  -1.284
REMARK UNBOUND:                -2.147
REMARK SMILES CCCCCCCCCCCCCCCCCCCCCC(=O)[O-]
REMARK SMILES IDX 12 1 11 2 10 3 9 4 8 5 7 6 6 7 5 8 4 9 3 10 2 11 1 12 13 13
REMARK SMILES IDX 14 14 15 15 16 16 17 17 18 18 19 19 20 20 21 21 22 22 23 23
REMARK SMILES IDX 24 24
REMARK H PARENT
REMARK Flexibility Score: inf
ROOT
ATOM      1  C   UNL     1      26.434   2.292  39.645  1.00  0.00     0.000 C 
ENDROOT
BRANCH   1   2
ATOM      2  C   UNL     1      24.999   2.583  40.111  1.00  0.00     0.000 C 
BRANCH   2   3
ATOM      3  C   UNL     1      24.996   3.192  41.518  1.00  0.00     0.000 C 
BRANCH   3   4
ATOM      4  C   UNL     1      26.067   2.540  42.405  1.00  0.00    -0.000 C 
BRANCH   4   5
ATOM      5  C   UNL     1      25.467   1.581  43.447  1.00  0.00    -0.000 C 
BRANCH   5   6
ATOM      6  C   UNL     1      26.498   0.584  43.996  1.00  0.00    -0.000 C 
BRANCH   6   7
ATOM      7  C   UNL     1      26.627  -0.637  43.077  1.00  0.00    -0.000 C 
BRANCH   7   8
ATOM      8  C   UNL     1      27.824  -1.508  43.489  1.00  0.00    -0.000 C 
BRANCH   8   9
ATOM      9  C   UNL     1      27.595  -3.003  43.210  1.00  0.00    -0.000 C 
BRANCH   9  10
ATOM     10  C   UNL     1      26.218  -3.490  43.684  1.00  0.00    -0.000 C 
BRANCH  10  11
ATOM     11  C   UNL     1      26.177  -5.021  43.763  1.00  0.00    -0.003 C 
ATOM     12  C   UNL     1      25.521  -5.489  45.058  1.00  0.00     0.004 C 
ENDBRANCH  10  11
ENDBRANCH   9  10
ENDBRANCH   8   9
ENDBRANCH   7   8
ENDBRANCH   6   7
ENDBRANCH   5   6
ENDBRANCH   4   5
ENDBRANCH   3   4
ENDBRANCH   2   3
ENDBRANCH   1   2
BRANCH   1  13
ATOM     13  C   UNL     1      26.585   0.897  39.017  1.00  0.00     0.000 C 
BRANCH  13  14
ATOM     14  C   UNL     1      25.580   0.645  37.884  1.00  0.00     0.000 C 
BRANCH  14  15
ATOM     15  C   UNL     1      25.636  -0.794  37.345  1.00  0.00     0.000 C 
BRANCH  15  16
ATOM     16  C   UNL     1      24.361  -1.227  36.588  1.00  0.00     0.000 C 
BRANCH  16  17
ATOM     17  C   UNL     1      24.276  -2.754  36.416  1.00  0.00     0.000 C 
BRANCH  17  18
ATOM     18  C   UNL     1      22.864  -3.311  36.671  1.00  0.00     0.000 C 
BRANCH  18  19
ATOM     19  C   UNL     1      22.241  -4.091  35.497  1.00  0.00     0.000 C 
BRANCH  19  20
ATOM     20  C   UNL     1      22.444  -5.618  35.534  1.00  0.00     0.006 C 
BRANCH  20  21
ATOM     21  C   UNL     1      23.417  -6.147  34.464  1.00  0.00     0.053 C 
BRANCH  21  22
ATOM     22  C   UNL     1      24.813  -6.305  34.985  1.00  0.00     0.041 C 
ATOM     23  O   UNL     1      25.771  -6.486  34.188  1.00  0.00    -0.550 OA
ATOM     24  O   UNL     1      25.061  -6.235  36.350  1.00  0.00    -0.550 OA
ENDBRANCH  21  22
ENDBRANCH  20  21
ENDBRANCH  19  20
ENDBRANCH  18  19
ENDBRANCH  17  18
ENDBRANCH  16  17
ENDBRANCH  15  16
ENDBRANCH  14  15
ENDBRANCH  13  14
ENDBRANCH   1  13
TORSDOF 20
ENDMDL
MODEL 7
REMARK VINA RESULT:    -4.426      5.696      8.309
REMARK INTER + INTRA:         -11.748
REMARK INTER:                  -9.498
REMARK INTRA:                  -2.250
REMARK UNBOUND:                -2.147
REMARK SMILES CCCCCCCCCCCCCCCCCCCCCC(=O)[O-]
REMARK SMILES IDX 12 1 11 2 10 3 9 4 8 5 7 6 6 7 5 8 4 9 3 10 2 11 1 12 13 13
REMARK SMILES IDX 14 14 15 15 16 16 17 17 18 18 19 19 20 20 21 21 22 22 23 23
REMARK SMILES IDX 24 24
REMARK H PARENT
REMARK Flexibility Score: inf
ROOT
ATOM      1  C   UNL     1      28.241  -1.890  44.317  1.00  0.00     0.000 C 
ENDROOT
BRANCH   1   2
ATOM      2  C   UNL     1      27.889  -3.318  44.761  1.00  0.00     0.000 C 
BRANCH   2   3
ATOM      3  C   UNL     1      27.254  -4.105  43.609  1.00  0.00     0.000 C 
BRANCH   3   4
ATOM      4  C   UNL     1      25.746  -4.293  43.832  1.00  0.00    -0.000 C 
BRANCH   4   5
ATOM      5  C   UNL     1      25.321  -5.770  43.786  1.00  0.00    -0.000 C 
BRANCH   5   6
ATOM      6  C   UNL     1      25.679  -6.528  45.072  1.00  0.00    -0.000 C 
BRANCH   6   7
ATOM      7  C   UNL     1      25.253  -5.739  46.315  1.00  0.00    -0.000 C 
BRANCH   7   8
ATOM      8  C   UNL     1      26.424  -5.593  47.300  1.00  0.00    -0.000 C 
BRANCH   8   9
ATOM      9  C   UNL     1      26.938  -6.946  47.816  1.00  0.00    -0.000 C 
BRANCH   9  10
ATOM     10  C   UNL     1      28.465  -7.078  47.716  1.00  0.00    -0.000 C 
BRANCH  10  11
ATOM     11  C   UNL     1      28.991  -6.385  46.452  1.00  0.00    -0.003 C 
ATOM     12  C   UNL     1      30.152  -5.452  46.779  1.00  0.00     0.004 C 
ENDBRANCH  10  11
ENDBRANCH   9  10
ENDBRANCH   8   9
ENDBRANCH   7   8
ENDBRANCH   6   7
ENDBRANCH   5   6
ENDBRANCH   4   5
ENDBRANCH   3   4
ENDBRANCH   2   3
ENDBRANCH   1   2
BRANCH   1  13
ATOM     13  C   UNL     1      27.775  -1.578  42.886  1.00  0.00     0.000 C 
BRANCH  13  14
ATOM     14  C   UNL     1      26.778  -0.411  42.828  1.00  0.00     0.000 C 
BRANCH  14  15
ATOM     15  C   UNL     1      26.616   0.302  44.181  1.00  0.00     0.000 C 
BRANCH  15  16
ATOM     16  C   UNL     1      25.839   1.635  44.093  1.00  0.00     0.000 C 
BRANCH  16  17
ATOM     17  C   UNL     1      26.122   2.389  42.781  1.00  0.00     0.000 C 
BRANCH  17  18
ATOM     18  C   UNL     1      24.840   2.799  42.034  1.00  0.00     0.000 C 
BRANCH  18  19
ATOM     19  C   UNL     1      24.984   2.939  40.507  1.00  0.00     0.000 C 
BRANCH  19  20
ATOM     20  C   UNL     1      26.405   2.723  39.952  1.00  0.00     0.006 C 
BRANCH  20  21
ATOM     21  C   UNL     1      26.441   2.125  38.533  1.00  0.00     0.053 C 
BRANCH  21  22
ATOM     22  C   UNL     1      26.568   0.631  38.543  1.00  0.00     0.041 C 
ATOM     23  O   UNL     1      25.808  -0.074  37.829  1.00  0.00    -0.550 OA
ATOM     24  O   UNL     1      27.539   0.019  39.325  1.00  0.00    -0.550 OA
ENDBRANCH  21  22
ENDBRANCH  20  21
ENDBRANCH  19  20
ENDBRANCH  18  19
ENDBRANCH  17  18
ENDBRANCH  16  17
ENDBRANCH  15  16
ENDBRANCH  14  15
ENDBRANCH  13  14
ENDBRANCH   1  13
TORSDOF 20
ENDMDL
MODEL 8
REMARK VINA RESULT:    -4.396      2.339      4.874
REMARK INTER + INTRA:         -11.683
REMARK INTER:                 -10.058
REMARK INTRA:                  -1.625
REMARK UNBOUND:                -2.147
REMARK SMILES CCCCCCCCCCCCCCCCCCCCCC(=O)[O-]
REMARK SMILES IDX 12 1 11 2 10 3 9 4 8 5 7 6 6 7 5 8 4 9 3 10 2 11 1 12 13 13
REMARK SMILES IDX 14 14 15 15 16 16 17 17 18 18 19 19 20 20 21 21 22 22 23 23
REMARK SMILES IDX 24 24
REMARK H PARENT
REMARK Flexibility Score: inf
ROOT
ATOM      1  C   UNL     1      26.053  -0.022  37.920  1.00  0.00     0.000 C 
ENDROOT
BRANCH   1   2
ATOM      2  C   UNL     1      24.933  -0.717  37.131  1.00  0.00     0.000 C 
BRANCH   2   3
ATOM      3  C   UNL     1      25.434  -2.028  36.514  1.00  0.00     0.000 C 
BRANCH   3   4
ATOM      4  C   UNL     1      24.319  -2.728  35.722  1.00  0.00    -0.000 C 
BRANCH   4   5
ATOM      5  C   UNL     1      23.056  -2.967  36.565  1.00  0.00    -0.000 C 
BRANCH   5   6
ATOM      6  C   UNL     1      22.171  -4.088  36.001  1.00  0.00    -0.000 C 
BRANCH   6   7
ATOM      7  C   UNL     1      22.852  -4.786  34.817  1.00  0.00    -0.000 C 
BRANCH   7   8
ATOM      8  C   UNL     1      22.799  -6.313  34.977  1.00  0.00    -0.000 C 
BRANCH   8   9
ATOM      9  C   UNL     1      24.195  -6.945  35.109  1.00  0.00    -0.000 C 
BRANCH   9  10
ATOM     10  C   UNL     1      25.054  -6.265  36.185  1.00  0.00    -0.000 C 
BRANCH  10  11
ATOM     11  C   UNL     1      26.462  -5.971  35.655  1.00  0.00    -0.003 C 
ATOM     12  C   UNL     1      26.410  -5.405  34.239  1.00  0.00     0.004 C 
ENDBRANCH  10  11
ENDBRANCH   9  10
ENDBRANCH   8   9
ENDBRANCH   7   8
ENDBRANCH   6   7
ENDBRANCH   5   6
ENDBRANCH   4   5
ENDBRANCH   3   4
ENDBRANCH   2   3
ENDBRANCH   1   2
BRANCH   1  13
ATOM     13  C   UNL     1      25.643   1.364  38.441  1.00  0.00     0.000 C 
BRANCH  13  14
ATOM     14  C   UNL     1      26.267   1.692  39.806  1.00  0.00     0.000 C 
BRANCH  14  15
ATOM     15  C   UNL     1      25.370   2.592  40.672  1.00  0.00     0.000 C 
BRANCH  15  16
ATOM     16  C   UNL     1      25.948   2.885  42.074  1.00  0.00     0.000 C 
BRANCH  16  17
ATOM     17  C   UNL     1      25.327   1.987  43.159  1.00  0.00     0.000 C 
BRANCH  17  18
ATOM     18  C   UNL     1      26.358   1.077  43.851  1.00  0.00     0.000 C 
BRANCH  18  19
ATOM     19  C   UNL     1      26.421  -0.368  43.323  1.00  0.00     0.000 C 
BRANCH  19  20
ATOM     20  C   UNL     1      27.576  -1.225  43.875  1.00  0.00     0.006 C 
BRANCH  20  21
ATOM     21  C   UNL     1      27.535  -2.698  43.426  1.00  0.00     0.053 C 
BRANCH  21  22
ATOM     22  C   UNL     1      27.754  -3.651  44.563  1.00  0.00     0.041 C 
ATOM     23  O   UNL     1      27.578  -3.272  45.751  1.00  0.00    -0.550 OA
ATOM     24  O   UNL     1      28.136  -4.962  44.311  1.00  0.00    -0.550 OA
ENDBRANCH  21  22
ENDBRANCH  20  21
ENDBRANCH  19  20
ENDBRANCH  18  19
ENDBRANCH  17  18
ENDBRANCH  16  17
ENDBRANCH  15  16
ENDBRANCH  14  15
ENDBRANCH  13  14
ENDBRANCH   1  13
TORSDOF 20
ENDMDL
MODEL 9
REMARK VINA RESULT:    -4.374      2.918      7.817
REMARK INTER + INTRA:         -11.634
REMARK INTER:                  -9.642
REMARK INTRA:                  -1.992
REMARK UNBOUND:                -2.147
REMARK SMILES CCCCCCCCCCCCCCCCCCCCCC(=O)[O-]
REMARK SMILES IDX 12 1 11 2 10 3 9 4 8 5 7 6 6 7 5 8 4 9 3 10 2 11 1 12 13 13
REMARK SMILES IDX 14 14 15 15 16 16 17 17 18 18 19 19 20 20 21 21 22 22 23 23
REMARK SMILES IDX 24 24
REMARK H PARENT
REMARK Flexibility Score: inf
ROOT
ATOM      1  C   UNL     1      22.568  -3.298  36.511  1.00  0.00     0.000 C 
ENDROOT
BRANCH   1   2
ATOM      2  C   UNL     1      24.065  -2.976  36.634  1.00  0.00     0.000 C 
BRANCH   2   3
ATOM      3  C   UNL     1      24.320  -1.480  36.417  1.00  0.00     0.000 C 
BRANCH   3   4
ATOM      4  C   UNL     1      25.683  -1.062  36.990  1.00  0.00    -0.000 C 
BRANCH   4   5
ATOM      5  C   UNL     1      25.571   0.100  37.991  1.00  0.00    -0.000 C 
BRANCH   5   6
ATOM      6  C   UNL     1      26.334   1.351  37.533  1.00  0.00    -0.000 C 
BRANCH   6   7
ATOM      7  C   UNL     1      26.260   2.460  38.590  1.00  0.00    -0.000 C 
BRANCH   7   8
ATOM      8  C   UNL     1      26.229   1.865  40.006  1.00  0.00    -0.000 C 
BRANCH   8   9
ATOM      9  C   UNL     1      25.376   2.695  40.980  1.00  0.00    -0.000 C 
BRANCH   9  10
ATOM     10  C   UNL     1      25.975   2.752  42.393  1.00  0.00    -0.000 C 
BRANCH  10  11
ATOM     11  C   UNL     1      26.033   1.352  43.019  1.00  0.00    -0.003 C 
ATOM     12  C   UNL     1      25.255   1.302  44.330  1.00  0.00     0.004 C 
ENDBRANCH  10  11
ENDBRANCH   9  10
ENDBRANCH   8   9
ENDBRANCH   7   8
ENDBRANCH   6   7
ENDBRANCH   5   6
ENDBRANCH   4   5
ENDBRANCH   3   4
ENDBRANCH   2   3
ENDBRANCH   1   2
BRANCH   1  13
ATOM     13  C   UNL     1      22.265  -4.298  35.383  1.00  0.00     0.000 C 
BRANCH  13  14
ATOM     14  C   UNL     1      22.581  -5.749  35.777  1.00  0.00     0.000 C 
BRANCH  14  15
ATOM     15  C   UNL     1      23.144  -6.575  34.608  1.00  0.00     0.000 C 
BRANCH  15  16
ATOM     16  C   UNL     1      24.684  -6.691  34.613  1.00  0.00     0.000 C 
BRANCH  16  17
ATOM     17  C   UNL     1      25.353  -5.616  33.738  1.00  0.00     0.000 C 
BRANCH  17  18
ATOM     18  C   UNL     1      26.546  -4.932  34.430  1.00  0.00     0.000 C 
BRANCH  18  19
ATOM     19  C   UNL     1      26.725  -5.271  35.922  1.00  0.00     0.000 C 
BRANCH  19  20
ATOM     20  C   UNL     1      27.612  -4.297  36.721  1.00  0.00     0.006 C 
BRANCH  20  21
ATOM     21  C   UNL     1      28.498  -3.392  35.844  1.00  0.00     0.053 C 
BRANCH  21  22
ATOM     22  C   UNL     1      29.948  -3.476  36.215  1.00  0.00     0.041 C 
ATOM     23  O   UNL     1      30.344  -4.347  37.033  1.00  0.00    -0.550 OA
ATOM     24  O   UNL     1      30.866  -2.603  35.645  1.00  0.00    -0.550 OA
ENDBRANCH  21  22
ENDBRANCH  20  21
ENDBRANCH  19  20
ENDBRANCH  18  19
ENDBRANCH  17  18
ENDBRANCH  16  17
ENDBRANCH  15  16
ENDBRANCH  14  15
ENDBRANCH  13  14
ENDBRANCH   1  13
TORSDOF 20
ENDMDL
