MODEL 1
REMARK VINA RESULT:    -3.475      0.000      0.000
REMARK INTER + INTRA:         -11.059
REMARK INTER:                  -7.538
REMARK INTRA:                  -3.521
REMARK UNBOUND:                -3.521
REMARK SMILES CCCCCCCCCCCCCCCCCCCCCC(=O)[O-]
REMARK SMILES IDX 12 1 11 2 10 3 9 4 8 5 7 6 6 7 5 8 4 9 3 10 2 11 1 12 13 13
REMARK SMILES IDX 14 14 15 15 16 16 17 17 18 18 19 19 20 20 21 21 22 22 23 23
REMARK SMILES IDX 24 24
REMARK H PARENT
REMARK Flexibility Score: inf
ROOT
ATOM      1  C   UNL     1      60.172  31.565  59.316  1.00  0.00     0.000 C 
ENDROOT
BRANCH   1   2
ATOM      2  C   UNL     1      61.214  31.438  58.196  1.00  0.00     0.000 C 
BRANCH   2   3
ATOM      3  C   UNL     1      62.421  32.349  58.462  1.00  0.00     0.000 C 
BRANCH   3   4
ATOM      4  C   UNL     1      63.754  31.582  58.550  1.00  0.00    -0.000 C 
BRANCH   4   5
ATOM      5  C   UNL     1      64.865  32.283  59.354  1.00  0.00    -0.000 C 
BRANCH   5   6
ATOM      6  C   UNL     1      64.342  32.991  60.615  1.00  0.00    -0.000 C 
BRANCH   6   7
ATOM      7  C   UNL     1      64.802  34.457  60.713  1.00  0.00    -0.000 C 
BRANCH   7   8
ATOM      8  C   UNL     1      63.752  35.445  61.263  1.00  0.00    -0.000 C 
BRANCH   8   9
ATOM      9  C   UNL     1      62.341  35.305  60.665  1.00  0.00    -0.000 C 
BRANCH   9  10
ATOM     10  C   UNL     1      61.473  36.555  60.887  1.00  0.00    -0.000 C 
BRANCH  10  11
ATOM     11  C   UNL     1      60.457  36.777  59.753  1.00  0.00    -0.003 C 
ATOM     12  C   UNL     1      59.683  35.509  59.390  1.00  0.00     0.004 C 
ENDBRANCH  10  11
ENDBRANCH   9  10
ENDBRANCH   8   9
ENDBRANCH   7   8
ENDBRANCH   6   7
ENDBRANCH   5   6
ENDBRANCH   4   5
ENDBRANCH   3   4
ENDBRANCH   2   3
ENDBRANCH   1   2
BRANCH   1  13
ATOM     13  C   UNL     1      60.799  31.952  60.665  1.00  0.00     0.000 C 
BRANCH  13  14
ATOM     14  C   UNL     1      60.826  30.786  61.663  1.00  0.00     0.000 C 
BRANCH  14  15
ATOM     15  C   UNL     1      62.249  30.225  61.805  1.00  0.00     0.000 C 
BRANCH  15  16
ATOM     16  C   UNL     1      62.515  29.019  60.886  1.00  0.00     0.000 C 
BRANCH  16  17
ATOM     17  C   UNL     1      61.907  27.688  61.365  1.00  0.00     0.000 C 
BRANCH  17  18
ATOM     18  C   UNL     1      61.244  26.889  60.232  1.00  0.00     0.000 C 
BRANCH  18  19
ATOM     19  C   UNL     1      60.507  27.821  59.259  1.00  0.00     0.000 C 
BRANCH  19  20
ATOM     20  C   UNL     1      58.986  27.601  59.274  1.00  0.00     0.006 C 
BRANCH  20  21
ATOM     21  C   UNL     1      58.255  28.598  60.186  1.00  0.00     0.053 C 
BRANCH  21  22
ATOM     22  C   UNL     1      57.594  27.881  61.320  1.00  0.00     0.041 C 
ATOM     23  O   UNL     1      57.973  26.724  61.644  1.00  0.00    -0.550 OA
ATOM     24  O   UNL     1      56.526  28.471  61.988  1.00  0.00    -0.550 OA
ENDBRANCH  21  22
ENDBRANCH  20  21
ENDBRANCH  19  20
ENDBRANCH  18  19
ENDBRANCH  17  18
ENDBRANCH  16  17
ENDBRANCH  15  16
ENDBRANCH  14  15
ENDBRANCH  13  14
ENDBRANCH   1  13
TORSDOF 20
ENDMDL
MODEL 2
REMARK VINA RESULT:    -3.137      9.980     12.810
REMARK INTER + INTRA:         -10.326
REMARK INTER:                  -7.197
REMARK INTRA:                  -3.128
REMARK UNBOUND:                -3.521
REMARK SMILES CCCCCCCCCCCCCCCCCCCCCC(=O)[O-]
REMARK SMILES IDX 12 1 11 2 10 3 9 4 8 5 7 6 6 7 5 8 4 9 3 10 2 11 1 12 13 13
REMARK SMILES IDX 14 14 15 15 16 16 17 17 18 18 19 19 20 20 21 21 22 22 23 23
REMARK SMILES IDX 24 24
REMARK H PARENT
REMARK Flexibility Score: inf
ROOT
ATOM      1  C   UNL     1      58.401  29.427  51.028  1.00  0.00     0.000 C 
ENDROOT
BRANCH   1   2
ATOM      2  C   UNL     1      58.217  28.681  52.358  1.00  0.00     0.000 C 
BRANCH   2   3
ATOM      3  C   UNL     1      56.785  28.848  52.887  1.00  0.00     0.000 C 
BRANCH   3   4
ATOM      4  C   UNL     1      56.167  30.217  52.545  1.00  0.00    -0.000 C 
BRANCH   4   5
ATOM      5  C   UNL     1      54.725  30.172  52.005  1.00  0.00    -0.000 C 
BRANCH   5   6
ATOM      6  C   UNL     1      54.629  29.580  50.589  1.00  0.00    -0.000 C 
BRANCH   6   7
ATOM      7  C   UNL     1      53.376  28.707  50.389  1.00  0.00    -0.000 C 
BRANCH   7   8
ATOM      8  C   UNL     1      53.648  27.225  50.058  1.00  0.00    -0.000 C 
BRANCH   8   9
ATOM      9  C   UNL     1      55.129  26.807  50.085  1.00  0.00    -0.000 C 
BRANCH   9  10
ATOM     10  C   UNL     1      55.414  25.690  51.104  1.00  0.00    -0.000 C 
BRANCH  10  11
ATOM     11  C   UNL     1      56.914  25.372  51.227  1.00  0.00    -0.003 C 
ATOM     12  C   UNL     1      57.305  24.875  52.620  1.00  0.00     0.004 C 
ENDBRANCH  10  11
ENDBRANCH   9  10
ENDBRANCH   8   9
ENDBRANCH   7   8
ENDBRANCH   6   7
ENDBRANCH   5   6
ENDBRANCH   4   5
ENDBRANCH   3   4
ENDBRANCH   2   3
ENDBRANCH   1   2
BRANCH   1  13
ATOM     13  C   UNL     1      58.237  28.508  49.807  1.00  0.00     0.000 C 
BRANCH  13  14
ATOM     14  C   UNL     1      59.581  28.041  49.232  1.00  0.00     0.000 C 
BRANCH  14  15
ATOM     15  C   UNL     1      60.024  26.723  49.885  1.00  0.00     0.000 C 
BRANCH  15  16
ATOM     16  C   UNL     1      61.483  26.754  50.374  1.00  0.00     0.000 C 
BRANCH  16  17
ATOM     17  C   UNL     1      62.255  28.044  50.043  1.00  0.00     0.000 C 
BRANCH  17  18
ATOM     18  C   UNL     1      62.308  29.031  51.220  1.00  0.00     0.000 C 
BRANCH  18  19
ATOM     19  C   UNL     1      61.912  30.445  50.772  1.00  0.00     0.000 C 
BRANCH  19  20
ATOM     20  C   UNL     1      62.873  31.018  49.717  1.00  0.00     0.006 C 
BRANCH  20  21
ATOM     21  C   UNL     1      63.623  32.261  50.218  1.00  0.00     0.053 C 
BRANCH  21  22
ATOM     22  C   UNL     1      63.525  33.369  49.217  1.00  0.00     0.041 C 
ATOM     23  O   UNL     1      64.540  34.061  48.939  1.00  0.00    -0.550 OA
ATOM     24  O   UNL     1      62.300  33.669  48.629  1.00  0.00    -0.550 OA
ENDBRANCH  21  22
ENDBRANCH  20  21
ENDBRANCH  19  20
ENDBRANCH  18  19
ENDBRANCH  17  18
ENDBRANCH  16  17
ENDBRANCH  15  16
ENDBRANCH  14  15
ENDBRANCH  13  14
ENDBRANCH   1  13
TORSDOF 20
ENDMDL
MODEL 3
REMARK VINA RESULT:    -3.128      9.601     12.242
REMARK INTER + INTRA:         -10.307
REMARK INTER:                  -6.890
REMARK INTRA:                  -3.417
REMARK UNBOUND:                -3.521
REMARK SMILES CCCCCCCCCCCCCCCCCCCCCC(=O)[O-]
REMARK SMILES IDX 12 1 11 2 10 3 9 4 8 5 7 6 6 7 5 8 4 9 3 10 2 11 1 12 13 13
REMARK SMILES IDX 14 14 15 15 16 16 17 17 18 18 19 19 20 20 21 21 22 22 23 23
REMARK SMILES IDX 24 24
REMARK H PARENT
REMARK Flexibility Score: inf
ROOT
ATOM      1  C   UNL     1      55.967  26.948  53.326  1.00  0.00     0.000 C 
ENDROOT
BRANCH   1   2
ATOM      2  C   UNL     1      56.645  26.018  52.309  1.00  0.00     0.000 C 
BRANCH   2   3
ATOM      3  C   UNL     1      55.603  25.189  51.544  1.00  0.00     0.000 C 
BRANCH   3   4
ATOM      4  C   UNL     1      55.527  25.542  50.046  1.00  0.00    -0.000 C 
BRANCH   4   5
ATOM      5  C   UNL     1      54.104  25.639  49.464  1.00  0.00    -0.000 C 
BRANCH   5   6
ATOM      6  C   UNL     1      53.140  26.436  50.359  1.00  0.00    -0.000 C 
BRANCH   6   7
ATOM      7  C   UNL     1      53.043  27.921  49.961  1.00  0.00    -0.000 C 
BRANCH   7   8
ATOM      8  C   UNL     1      54.186  28.820  50.479  1.00  0.00    -0.000 C 
BRANCH   8   9
ATOM      9  C   UNL     1      53.750  29.960  51.416  1.00  0.00    -0.000 C 
BRANCH   9  10
ATOM     10  C   UNL     1      53.370  29.464  52.822  1.00  0.00    -0.000 C 
BRANCH  10  11
ATOM     11  C   UNL     1      53.916  30.372  53.936  1.00  0.00    -0.003 C 
ATOM     12  C   UNL     1      52.881  31.374  54.451  1.00  0.00     0.004 C 
ENDBRANCH  10  11
ENDBRANCH   9  10
ENDBRANCH   8   9
ENDBRANCH   7   8
ENDBRANCH   6   7
ENDBRANCH   5   6
ENDBRANCH   4   5
ENDBRANCH   3   4
ENDBRANCH   2   3
ENDBRANCH   1   2
BRANCH   1  13
ATOM     13  C   UNL     1      56.882  28.095  53.781  1.00  0.00     0.000 C 
BRANCH  13  14
ATOM     14  C   UNL     1      57.993  28.406  52.768  1.00  0.00     0.000 C 
BRANCH  14  15
ATOM     15  C   UNL     1      57.521  29.454  51.748  1.00  0.00     0.000 C 
BRANCH  15  16
ATOM     16  C   UNL     1      57.788  29.038  50.290  1.00  0.00     0.000 C 
BRANCH  16  17
ATOM     17  C   UNL     1      59.239  29.235  49.812  1.00  0.00     0.000 C 
BRANCH  17  18
ATOM     18  C   UNL     1      59.856  27.957  49.224  1.00  0.00     0.000 C 
BRANCH  18  19
ATOM     19  C   UNL     1      59.123  26.707  49.732  1.00  0.00     0.000 C 
BRANCH  19  20
ATOM     20  C   UNL     1      60.014  25.824  50.620  1.00  0.00     0.006 C 
BRANCH  20  21
ATOM     21  C   UNL     1      59.520  24.372  50.692  1.00  0.00     0.053 C 
BRANCH  21  22
ATOM     22  C   UNL     1      60.669  23.422  50.574  1.00  0.00     0.041 C 
ATOM     23  O   UNL     1      61.690  23.571  51.298  1.00  0.00    -0.550 OA
ATOM     24  O   UNL     1      60.634  22.402  49.628  1.00  0.00    -0.550 OA
ENDBRANCH  21  22
ENDBRANCH  20  21
ENDBRANCH  19  20
ENDBRANCH  18  19
ENDBRANCH  17  18
ENDBRANCH  16  17
ENDBRANCH  15  16
ENDBRANCH  14  15
ENDBRANCH  13  14
ENDBRANCH   1  13
TORSDOF 20
ENDMDL
MODEL 4
REMARK VINA RESULT:    -3.128      8.549     10.281
REMARK INTER + INTRA:         -10.306
REMARK INTER:                  -6.820
REMARK INTRA:                  -3.487
REMARK UNBOUND:                -3.521
REMARK SMILES CCCCCCCCCCCCCCCCCCCCCC(=O)[O-]
REMARK SMILES IDX 12 1 11 2 10 3 9 4 8 5 7 6 6 7 5 8 4 9 3 10 2 11 1 12 13 13
REMARK SMILES IDX 14 14 15 15 16 16 17 17 18 18 19 19 20 20 21 21 22 22 23 23
REMARK SMILES IDX 24 24
REMARK H PARENT
REMARK Flexibility Score: inf
ROOT
ATOM      1  C   UNL     1      58.905  29.242  49.547  1.00  0.00     0.000 C 
ENDROOT
BRANCH   1   2
ATOM      2  C   UNL     1      57.653  29.266  50.435  1.00  0.00     0.000 C 
BRANCH   2   3
ATOM      3  C   UNL     1      57.940  29.968  51.770  1.00  0.00     0.000 C 
BRANCH   3   4
ATOM      4  C   UNL     1      58.611  29.048  52.808  1.00  0.00    -0.000 C 
BRANCH   4   5
ATOM      5  C   UNL     1      60.049  29.438  53.200  1.00  0.00    -0.000 C 
BRANCH   5   6
ATOM      6  C   UNL     1      60.528  30.734  52.526  1.00  0.00    -0.000 C 
BRANCH   6   7
ATOM      7  C   UNL     1      61.887  30.575  51.820  1.00  0.00    -0.000 C 
BRANCH   7   8
ATOM      8  C   UNL     1      61.926  31.041  50.349  1.00  0.00    -0.000 C 
BRANCH   8   9
ATOM      9  C   UNL     1      62.926  32.172  50.045  1.00  0.00    -0.000 C 
BRANCH   9  10
ATOM     10  C   UNL     1      63.242  33.035  51.279  1.00  0.00    -0.000 C 
BRANCH  10  11
ATOM     11  C   UNL     1      62.308  34.250  51.404  1.00  0.00    -0.003 C 
ATOM     12  C   UNL     1      62.104  34.985  50.079  1.00  0.00     0.004 C 
ENDBRANCH  10  11
ENDBRANCH   9  10
ENDBRANCH   8   9
ENDBRANCH   7   8
ENDBRANCH   6   7
ENDBRANCH   5   6
ENDBRANCH   4   5
ENDBRANCH   3   4
ENDBRANCH   2   3
ENDBRANCH   1   2
BRANCH   1  13
ATOM     13  C   UNL     1      59.384  27.815  49.237  1.00  0.00     0.000 C 
BRANCH  13  14
ATOM     14  C   UNL     1      60.829  27.563  49.689  1.00  0.00     0.000 C 
BRANCH  14  15
ATOM     15  C   UNL     1      60.860  26.671  50.940  1.00  0.00     0.000 C 
BRANCH  15  16
ATOM     16  C   UNL     1      60.659  25.179  50.621  1.00  0.00     0.000 C 
BRANCH  16  17
ATOM     17  C   UNL     1      59.497  24.502  51.372  1.00  0.00     0.000 C 
BRANCH  17  18
ATOM     18  C   UNL     1      58.478  25.506  51.931  1.00  0.00     0.000 C 
BRANCH  18  19
ATOM     19  C   UNL     1      57.043  25.088  51.579  1.00  0.00     0.000 C 
BRANCH  19  20
ATOM     20  C   UNL     1      56.503  25.823  50.342  1.00  0.00     0.006 C 
BRANCH  20  21
ATOM     21  C   UNL     1      54.970  25.911  50.331  1.00  0.00     0.053 C 
BRANCH  21  22
ATOM     22  C   UNL     1      54.523  27.284  50.720  1.00  0.00     0.041 C 
ATOM     23  O   UNL     1      53.943  28.022  49.879  1.00  0.00    -0.550 OA
ATOM     24  O   UNL     1      54.791  27.767  51.997  1.00  0.00    -0.550 OA
ENDBRANCH  21  22
ENDBRANCH  20  21
ENDBRANCH  19  20
ENDBRANCH  18  19
ENDBRANCH  17  18
ENDBRANCH  16  17
ENDBRANCH  15  16
ENDBRANCH  14  15
ENDBRANCH  13  14
ENDBRANCH   1  13
TORSDOF 20
ENDMDL
MODEL 5
REMARK VINA RESULT:    -3.107      9.740     12.131
REMARK INTER + INTRA:         -10.260
REMARK INTER:                  -6.227
REMARK INTRA:                  -4.033
REMARK UNBOUND:                -3.521
REMARK SMILES CCCCCCCCCCCCCCCCCCCCCC(=O)[O-]
REMARK SMILES IDX 12 1 11 2 10 3 9 4 8 5 7 6 6 7 5 8 4 9 3 10 2 11 1 12 13 13
REMARK SMILES IDX 14 14 15 15 16 16 17 17 18 18 19 19 20 20 21 21 22 22 23 23
REMARK SMILES IDX 24 24
REMARK H PARENT
REMARK Flexibility Score: inf
ROOT
ATOM      1  C   UNL     1      57.828  25.845  52.827  1.00  0.00     0.000 C 
ENDROOT
BRANCH   1   2
ATOM      2  C   UNL     1      56.919  25.047  51.882  1.00  0.00     0.000 C 
BRANCH   2   3
ATOM      3  C   UNL     1      56.749  25.775  50.540  1.00  0.00     0.000 C 
BRANCH   3   4
ATOM      4  C   UNL     1      55.325  25.662  49.964  1.00  0.00    -0.000 C 
BRANCH   4   5
ATOM      5  C   UNL     1      54.202  25.523  51.010  1.00  0.00    -0.000 C 
BRANCH   5   6
ATOM      6  C   UNL     1      53.130  26.620  50.893  1.00  0.00    -0.000 C 
BRANCH   6   7
ATOM      7  C   UNL     1      53.535  27.753  49.932  1.00  0.00    -0.000 C 
BRANCH   7   8
ATOM      8  C   UNL     1      53.917  29.088  50.605  1.00  0.00    -0.000 C 
BRANCH   8   9
ATOM      9  C   UNL     1      55.429  29.347  50.738  1.00  0.00    -0.000 C 
BRANCH   9  10
ATOM     10  C   UNL     1      55.983  28.949  52.117  1.00  0.00    -0.000 C 
BRANCH  10  11
ATOM     11  C   UNL     1      54.914  29.007  53.221  1.00  0.00    -0.003 C 
ATOM     12  C   UNL     1      54.803  27.703  54.013  1.00  0.00     0.004 C 
ENDBRANCH  10  11
ENDBRANCH   9  10
ENDBRANCH   8   9
ENDBRANCH   7   8
ENDBRANCH   6   7
ENDBRANCH   5   6
ENDBRANCH   4   5
ENDBRANCH   3   4
ENDBRANCH   2   3
ENDBRANCH   1   2
BRANCH   1  13
ATOM     13  C   UNL     1      58.795  24.948  53.616  1.00  0.00     0.000 C 
BRANCH  13  14
ATOM     14  C   UNL     1      58.703  23.472  53.206  1.00  0.00     0.000 C 
BRANCH  14  15
ATOM     15  C   UNL     1      60.080  22.937  52.785  1.00  0.00     0.000 C 
BRANCH  15  16
ATOM     16  C   UNL     1      60.271  22.896  51.259  1.00  0.00     0.000 C 
BRANCH  16  17
ATOM     17  C   UNL     1      61.052  24.084  50.668  1.00  0.00     0.000 C 
BRANCH  17  18
ATOM     18  C   UNL     1      60.148  25.110  49.969  1.00  0.00     0.000 C 
BRANCH  18  19
ATOM     19  C   UNL     1      60.476  26.538  50.429  1.00  0.00     0.000 C 
BRANCH  19  20
ATOM     20  C   UNL     1      60.047  27.599  49.404  1.00  0.00     0.006 C 
BRANCH  20  21
ATOM     21  C   UNL     1      59.074  28.630  49.996  1.00  0.00     0.053 C 
BRANCH  21  22
ATOM     22  C   UNL     1      59.815  29.638  50.815  1.00  0.00     0.041 C 
ATOM     23  O   UNL     1      59.361  30.002  51.932  1.00  0.00    -0.550 OA
ATOM     24  O   UNL     1      60.982  30.214  50.321  1.00  0.00    -0.550 OA
ENDBRANCH  21  22
ENDBRANCH  20  21
ENDBRANCH  19  20
ENDBRANCH  18  19
ENDBRANCH  17  18
ENDBRANCH  16  17
ENDBRANCH  15  16
ENDBRANCH  14  15
ENDBRANCH  13  14
ENDBRANCH   1  13
TORSDOF 20
ENDMDL
MODEL 6
REMARK VINA RESULT:    -3.092      1.852      3.822
REMARK INTER + INTRA:         -10.227
REMARK INTER:                  -6.780
REMARK INTRA:                  -3.447
REMARK UNBOUND:                -3.521
REMARK SMILES CCCCCCCCCCCCCCCCCCCCCC(=O)[O-]
REMARK SMILES IDX 12 1 11 2 10 3 9 4 8 5 7 6 6 7 5 8 4 9 3 10 2 11 1 12 13 13
REMARK SMILES IDX 14 14 15 15 16 16 17 17 18 18 19 19 20 20 21 21 22 22 23 23
REMARK SMILES IDX 24 24
REMARK H PARENT
REMARK Flexibility Score: inf
ROOT
ATOM      1  C   UNL     1      62.443  29.678  61.643  1.00  0.00     0.000 C 
ENDROOT
BRANCH   1   2
ATOM      2  C   UNL     1      61.395  30.768  61.908  1.00  0.00     0.000 C 
BRANCH   2   3
ATOM      3  C   UNL     1      60.056  30.414  61.245  1.00  0.00     0.000 C 
BRANCH   3   4
ATOM      4  C   UNL     1      60.195  29.381  60.110  1.00  0.00    -0.000 C 
BRANCH   4   5
ATOM      5  C   UNL     1      59.967  29.931  58.689  1.00  0.00    -0.000 C 
BRANCH   5   6
ATOM      6  C   UNL     1      59.684  31.442  58.665  1.00  0.00    -0.000 C 
BRANCH   6   7
ATOM      7  C   UNL     1      60.875  32.266  58.143  1.00  0.00    -0.000 C 
BRANCH   7   8
ATOM      8  C   UNL     1      60.961  33.713  58.672  1.00  0.00    -0.000 C 
BRANCH   8   9
ATOM      9  C   UNL     1      61.290  33.847  60.169  1.00  0.00    -0.000 C 
BRANCH   9  10
ATOM     10  C   UNL     1      62.743  34.284  60.424  1.00  0.00    -0.000 C 
BRANCH  10  11
ATOM     11  C   UNL     1      62.836  35.681  61.060  1.00  0.00    -0.003 C 
ATOM     12  C   UNL     1      61.554  36.499  60.894  1.00  0.00     0.004 C 
ENDBRANCH  10  11
ENDBRANCH   9  10
ENDBRANCH   8   9
ENDBRANCH   7   8
ENDBRANCH   6   7
ENDBRANCH   5   6
ENDBRANCH   4   5
ENDBRANCH   3   4
ENDBRANCH   2   3
ENDBRANCH   1   2
BRANCH   1  13
ATOM     13  C   UNL     1      63.785  30.252  61.161  1.00  0.00     0.000 C 
BRANCH  13  14
ATOM     14  C   UNL     1      63.703  30.843  59.747  1.00  0.00     0.000 C 
BRANCH  14  15
ATOM     15  C   UNL     1      64.344  29.894  58.722  1.00  0.00     0.000 C 
BRANCH  15  16
ATOM     16  C   UNL     1      63.367  28.830  58.193  1.00  0.00     0.000 C 
BRANCH  16  17
ATOM     17  C   UNL     1      63.742  27.375  58.531  1.00  0.00     0.000 C 
BRANCH  17  18
ATOM     18  C   UNL     1      62.745  26.706  59.490  1.00  0.00     0.000 C 
BRANCH  18  19
ATOM     19  C   UNL     1      63.424  26.329  60.815  1.00  0.00     0.000 C 
BRANCH  19  20
ATOM     20  C   UNL     1      62.657  25.238  61.579  1.00  0.00     0.006 C 
BRANCH  20  21
ATOM     21  C   UNL     1      61.196  25.117  61.122  1.00  0.00     0.053 C 
BRANCH  21  22
ATOM     22  C   UNL     1      60.268  25.510  62.228  1.00  0.00     0.041 C 
ATOM     23  O   UNL     1      60.596  25.314  63.429  1.00  0.00    -0.550 OA
ATOM     24  O   UNL     1      59.020  26.047  61.930  1.00  0.00    -0.550 OA
ENDBRANCH  21  22
ENDBRANCH  20  21
ENDBRANCH  19  20
ENDBRANCH  18  19
ENDBRANCH  17  18
ENDBRANCH  16  17
ENDBRANCH  15  16
ENDBRANCH  14  15
ENDBRANCH  13  14
ENDBRANCH   1  13
TORSDOF 20
ENDMDL
MODEL 7
REMARK VINA RESULT:    -3.056      1.680      3.507
REMARK INTER + INTRA:         -10.151
REMARK INTER:                  -6.555
REMARK INTRA:                  -3.596
REMARK UNBOUND:                -3.521
REMARK SMILES CCCCCCCCCCCCCCCCCCCCCC(=O)[O-]
REMARK SMILES IDX 12 1 11 2 10 3 9 4 8 5 7 6 6 7 5 8 4 9 3 10 2 11 1 12 13 13
REMARK SMILES IDX 14 14 15 15 16 16 17 17 18 18 19 19 20 20 21 21 22 22 23 23
REMARK SMILES IDX 24 24
REMARK H PARENT
REMARK Flexibility Score: inf
ROOT
ATOM      1  C   UNL     1      61.528  29.432  58.017  1.00  0.00     0.000 C 
ENDROOT
BRANCH   1   2
ATOM      2  C   UNL     1      60.314  30.372  58.025  1.00  0.00     0.000 C 
BRANCH   2   3
ATOM      3  C   UNL     1      60.350  31.302  59.247  1.00  0.00     0.000 C 
BRANCH   3   4
ATOM      4  C   UNL     1      60.048  30.576  60.571  1.00  0.00    -0.000 C 
BRANCH   4   5
ATOM      5  C   UNL     1      61.104  30.760  61.678  1.00  0.00    -0.000 C 
BRANCH   5   6
ATOM      6  C   UNL     1      62.350  29.881  61.473  1.00  0.00    -0.000 C 
BRANCH   6   7
ATOM      7  C   UNL     1      63.666  30.670  61.600  1.00  0.00    -0.000 C 
BRANCH   7   8
ATOM      8  C   UNL     1      64.300  31.119  60.266  1.00  0.00    -0.000 C 
BRANCH   8   9
ATOM      9  C   UNL     1      63.821  32.483  59.738  1.00  0.00    -0.000 C 
BRANCH   9  10
ATOM     10  C   UNL     1      64.442  33.668  60.497  1.00  0.00    -0.000 C 
BRANCH  10  11
ATOM     11  C   UNL     1      63.409  34.752  60.846  1.00  0.00    -0.003 C 
ATOM     12  C   UNL     1      61.978  34.350  60.487  1.00  0.00     0.004 C 
ENDBRANCH  10  11
ENDBRANCH   9  10
ENDBRANCH   8   9
ENDBRANCH   7   8
ENDBRANCH   6   7
ENDBRANCH   5   6
ENDBRANCH   4   5
ENDBRANCH   3   4
ENDBRANCH   2   3
ENDBRANCH   1   2
BRANCH   1  13
ATOM     13  C   UNL     1      61.139  27.959  58.223  1.00  0.00     0.000 C 
BRANCH  13  14
ATOM     14  C   UNL     1      62.349  27.016  58.196  1.00  0.00     0.000 C 
BRANCH  14  15
ATOM     15  C   UNL     1      63.613  27.737  58.690  1.00  0.00     0.000 C 
BRANCH  15  16
ATOM     16  C   UNL     1      64.150  27.172  60.016  1.00  0.00     0.000 C 
BRANCH  16  17
ATOM     17  C   UNL     1      63.731  25.722  60.324  1.00  0.00     0.000 C 
BRANCH  17  18
ATOM     18  C   UNL     1      63.096  25.563  61.714  1.00  0.00     0.000 C 
BRANCH  18  19
ATOM     19  C   UNL     1      61.905  26.516  61.888  1.00  0.00     0.000 C 
BRANCH  19  20
ATOM     20  C   UNL     1      60.566  25.769  61.994  1.00  0.00     0.006 C 
BRANCH  20  21
ATOM     21  C   UNL     1      59.555  26.218  60.928  1.00  0.00     0.053 C 
BRANCH  21  22
ATOM     22  C   UNL     1      58.192  26.359  61.527  1.00  0.00     0.041 C 
ATOM     23  O   UNL     1      57.662  27.497  61.632  1.00  0.00    -0.550 OA
ATOM     24  O   UNL     1      57.527  25.238  62.014  1.00  0.00    -0.550 OA
ENDBRANCH  21  22
ENDBRANCH  20  21
ENDBRANCH  19  20
ENDBRANCH  18  19
ENDBRANCH  17  18
ENDBRANCH  16  17
ENDBRANCH  15  16
ENDBRANCH  14  15
ENDBRANCH  13  14
ENDBRANCH   1  13
TORSDOF 20
ENDMDL
MODEL 8
REMARK VINA RESULT:    -3.056      9.309     11.845
REMARK INTER + INTRA:         -10.150
REMARK INTER:                  -6.452
REMARK INTRA:                  -3.698
REMARK UNBOUND:                -3.521
REMARK SMILES CCCCCCCCCCCCCCCCCCCCCC(=O)[O-]
REMARK SMILES IDX 12 1 11 2 10 3 9 4 8 5 7 6 6 7 5 8 4 9 3 10 2 11 1 12 13 13
REMARK SMILES IDX 14 14 15 15 16 16 17 17 18 18 19 19 20 20 21 21 22 22 23 23
REMARK SMILES IDX 24 24
REMARK H PARENT
REMARK Flexibility Score: inf
ROOT
ATOM      1  C   UNL     1      57.756  27.549  53.092  1.00  0.00     0.000 C 
ENDROOT
BRANCH   1   2
ATOM      2  C   UNL     1      57.473  29.050  52.931  1.00  0.00     0.000 C 
BRANCH   2   3
ATOM      3  C   UNL     1      58.256  29.632  51.745  1.00  0.00     0.000 C 
BRANCH   3   4
ATOM      4  C   UNL     1      57.798  29.075  50.384  1.00  0.00    -0.000 C 
BRANCH   4   5
ATOM      5  C   UNL     1      58.911  28.917  49.330  1.00  0.00    -0.000 C 
BRANCH   5   6
ATOM      6  C   UNL     1      59.913  27.802  49.673  1.00  0.00    -0.000 C 
BRANCH   6   7
ATOM      7  C   UNL     1      59.273  26.401  49.668  1.00  0.00    -0.000 C 
BRANCH   7   8
ATOM      8  C   UNL     1      59.955  25.359  50.579  1.00  0.00    -0.000 C 
BRANCH   8   9
ATOM      9  C   UNL     1      60.732  25.940  51.774  1.00  0.00    -0.000 C 
BRANCH   9  10
ATOM     10  C   UNL     1      62.086  25.246  51.999  1.00  0.00    -0.000 C 
BRANCH  10  11
ATOM     11  C   UNL     1      62.952  25.216  50.728  1.00  0.00    -0.003 C 
ATOM     12  C   UNL     1      63.584  23.847  50.469  1.00  0.00     0.004 C 
ENDBRANCH  10  11
ENDBRANCH   9  10
ENDBRANCH   8   9
ENDBRANCH   7   8
ENDBRANCH   6   7
ENDBRANCH   5   6
ENDBRANCH   4   5
ENDBRANCH   3   4
ENDBRANCH   2   3
ENDBRANCH   1   2
BRANCH   1  13
ATOM     13  C   UNL     1      56.478  26.697  53.047  1.00  0.00     0.000 C 
BRANCH  13  14
ATOM     14  C   UNL     1      56.570  25.544  52.039  1.00  0.00     0.000 C 
BRANCH  14  15
ATOM     15  C   UNL     1      55.263  25.414  51.240  1.00  0.00     0.000 C 
BRANCH  15  16
ATOM     16  C   UNL     1      55.186  26.388  50.051  1.00  0.00     0.000 C 
BRANCH  16  17
ATOM     17  C   UNL     1      53.934  27.285  50.024  1.00  0.00     0.000 C 
BRANCH  17  18
ATOM     18  C   UNL     1      54.139  28.624  50.750  1.00  0.00     0.000 C 
BRANCH  18  19
ATOM     19  C   UNL     1      53.491  28.601  52.141  1.00  0.00     0.000 C 
BRANCH  19  20
ATOM     20  C   UNL     1      53.924  29.792  53.011  1.00  0.00     0.006 C 
BRANCH  20  21
ATOM     21  C   UNL     1      54.351  31.007  52.175  1.00  0.00     0.053 C 
BRANCH  21  22
ATOM     22  C   UNL     1      54.789  32.126  53.066  1.00  0.00     0.041 C 
ATOM     23  O   UNL     1      55.893  32.059  53.670  1.00  0.00    -0.550 OA
ATOM     24  O   UNL     1      53.956  33.222  53.267  1.00  0.00    -0.550 OA
ENDBRANCH  21  22
ENDBRANCH  20  21
ENDBRANCH  19  20
ENDBRANCH  18  19
ENDBRANCH  17  18
ENDBRANCH  16  17
ENDBRANCH  15  16
ENDBRANCH  14  15
ENDBRANCH  13  14
ENDBRANCH   1  13
TORSDOF 20
ENDMDL
MODEL 9
REMARK VINA RESULT:    -3.049      8.465     11.413
REMARK INTER + INTRA:         -10.135
REMARK INTER:                  -6.460
REMARK INTRA:                  -3.675
REMARK UNBOUND:                -3.521
REMARK SMILES CCCCCCCCCCCCCCCCCCCCCC(=O)[O-]
REMARK SMILES IDX 12 1 11 2 10 3 9 4 8 5 7 6 6 7 5 8 4 9 3 10 2 11 1 12 13 13
REMARK SMILES IDX 14 14 15 15 16 16 17 17 18 18 19 19 20 20 21 21 22 22 23 23
REMARK SMILES IDX 24 24
REMARK H PARENT
REMARK Flexibility Score: inf
ROOT
ATOM      1  C   UNL     1      61.263  25.588  51.147  1.00  0.00     0.000 C 
ENDROOT
BRANCH   1   2
ATOM      2  C   UNL     1      61.690  26.617  50.090  1.00  0.00     0.000 C 
BRANCH   2   3
ATOM      3  C   UNL     1      60.913  27.931  50.257  1.00  0.00     0.000 C 
BRANCH   3   4
ATOM      4  C   UNL     1      59.693  28.037  49.322  1.00  0.00    -0.000 C 
BRANCH   4   5
ATOM      5  C   UNL     1      58.606  29.033  49.769  1.00  0.00    -0.000 C 
BRANCH   5   6
ATOM      6  C   UNL     1      57.341  28.343  50.307  1.00  0.00    -0.000 C 
BRANCH   6   7
ATOM      7  C   UNL     1      56.238  29.341  50.705  1.00  0.00    -0.000 C 
BRANCH   7   8
ATOM      8  C   UNL     1      54.953  28.711  51.284  1.00  0.00    -0.000 C 
BRANCH   8   9
ATOM      9  C   UNL     1      53.726  28.754  50.356  1.00  0.00    -0.000 C 
BRANCH   9  10
ATOM     10  C   UNL     1      53.257  27.354  49.923  1.00  0.00    -0.000 C 
BRANCH  10  11
ATOM     11  C   UNL     1      54.056  26.228  50.600  1.00  0.00    -0.003 C 
ATOM     12  C   UNL     1      54.909  25.427  49.614  1.00  0.00     0.004 C 
ENDBRANCH  10  11
ENDBRANCH   9  10
ENDBRANCH   8   9
ENDBRANCH   7   8
ENDBRANCH   6   7
ENDBRANCH   5   6
ENDBRANCH   4   5
ENDBRANCH   3   4
ENDBRANCH   2   3
ENDBRANCH   1   2
BRANCH   1  13
ATOM     13  C   UNL     1      60.161  24.644  50.643  1.00  0.00     0.000 C 
BRANCH  13  14
ATOM     14  C   UNL     1      58.790  24.946  51.266  1.00  0.00     0.000 C 
BRANCH  14  15
ATOM     15  C   UNL     1      58.952  25.563  52.663  1.00  0.00     0.000 C 
BRANCH  15  16
ATOM     16  C   UNL     1      57.761  26.448  53.072  1.00  0.00     0.000 C 
BRANCH  16  17
ATOM     17  C   UNL     1      58.129  27.696  53.896  1.00  0.00     0.000 C 
BRANCH  17  18
ATOM     18  C   UNL     1      59.503  28.276  53.527  1.00  0.00     0.000 C 
BRANCH  18  19
ATOM     19  C   UNL     1      59.430  29.800  53.355  1.00  0.00     0.000 C 
BRANCH  19  20
ATOM     20  C   UNL     1      58.125  30.392  53.908  1.00  0.00     0.006 C 
BRANCH  20  21
ATOM     21  C   UNL     1      57.593  31.550  53.050  1.00  0.00     0.053 C 
BRANCH  21  22
ATOM     22  C   UNL     1      57.624  32.830  53.823  1.00  0.00     0.041 C 
ATOM     23  O   UNL     1      56.814  33.755  53.546  1.00  0.00    -0.550 OA
ATOM     24  O   UNL     1      58.580  33.021  54.815  1.00  0.00    -0.550 OA
ENDBRANCH  21  22
ENDBRANCH  20  21
ENDBRANCH  19  20
ENDBRANCH  18  19
ENDBRANCH  17  18
ENDBRANCH  16  17
ENDBRANCH  15  16
ENDBRANCH  14  15
ENDBRANCH  13  14
ENDBRANCH   1  13
TORSDOF 20
ENDMDL
