MODEL 1
REMARK VINA RESULT:    -3.389      0.000      0.000
REMARK INTER + INTRA:         -11.425
REMARK INTER:                  -7.748
REMARK INTRA:                  -3.677
REMARK UNBOUND:                -3.677
REMARK SMILES CCCCCCCCCCCCCCCCCCCCCCCC(=O)[O-]
REMARK SMILES IDX 13 1 14 2 15 3 16 4 17 5 18 6 19 7 20 8 21 9 22 10 23 11
REMARK SMILES IDX 24 12 25 13 26 14 12 15 11 16 10 17 9 18 8 19 7 20 6 21 5 22
REMARK SMILES IDX 4 23 3 24 2 25 1 26
REMARK H PARENT
REMARK Flexibility Score: inf
ROOT
ATOM      1  C   UNL     1      -3.741  -5.277   6.323  1.00  0.00     0.000 C 
ENDROOT
BRANCH   1   2
ATOM      2  C   UNL     1      -4.561  -6.035   7.379  1.00  0.00     0.000 C 
BRANCH   2   3
ATOM      3  C   UNL     1      -4.076  -5.700   8.795  1.00  0.00     0.000 C 
BRANCH   3   4
ATOM      4  C   UNL     1      -5.201  -5.901   9.821  1.00  0.00     0.000 C 
BRANCH   4   5
ATOM      5  C   UNL     1      -6.451  -6.556   9.211  1.00  0.00     0.000 C 
BRANCH   5   6
ATOM      6  C   UNL     1      -6.908  -7.797   9.996  1.00  0.00     0.000 C 
BRANCH   6   7
ATOM      7  C   UNL     1      -6.038  -9.036   9.718  1.00  0.00     0.000 C 
BRANCH   7   8
ATOM      8  C   UNL     1      -6.443  -9.857   8.476  1.00  0.00     0.000 C 
BRANCH   8   9
ATOM      9  C   UNL     1      -5.585  -9.613   7.222  1.00  0.00     0.000 C 
BRANCH   9  10
ATOM     10  C   UNL     1      -6.410  -9.146   6.015  1.00  0.00     0.006 C 
BRANCH  10  11
ATOM     11  C   UNL     1      -7.866  -8.888   6.414  1.00  0.00     0.053 C 
BRANCH  11  12
ATOM     12  C   UNL     1      -8.352  -7.602   5.824  1.00  0.00     0.041 C 
ATOM     13  O   UNL     1      -9.525  -7.514   5.377  1.00  0.00    -0.550 OA
ATOM     14  O   UNL     1      -7.495  -6.513   5.728  1.00  0.00    -0.550 OA
ENDBRANCH  11  12
ENDBRANCH  10  11
ENDBRANCH   9  10
ENDBRANCH   8   9
ENDBRANCH   7   8
ENDBRANCH   6   7
ENDBRANCH   5   6
ENDBRANCH   4   5
ENDBRANCH   3   4
ENDBRANCH   2   3
ENDBRANCH   1   2
BRANCH   1  15
ATOM     15  C   UNL     1      -4.610  -4.375   5.432  1.00  0.00     0.000 C 
BRANCH  15  16
ATOM     16  C   UNL     1      -4.907  -3.013   6.082  1.00  0.00     0.000 C 
BRANCH  16  17
ATOM     17  C   UNL     1      -6.174  -3.028   6.956  1.00  0.00     0.000 C 
BRANCH  17  18
ATOM     18  C   UNL     1      -5.998  -2.471   8.381  1.00  0.00    -0.000 C 
BRANCH  18  19
ATOM     19  C   UNL     1      -7.160  -2.844   9.319  1.00  0.00    -0.000 C 
BRANCH  19  20
ATOM     20  C   UNL     1      -8.361  -3.436   8.563  1.00  0.00    -0.000 C 
BRANCH  20  21
ATOM     21  C   UNL     1      -9.587  -2.510   8.575  1.00  0.00    -0.000 C 
BRANCH  21  22
ATOM     22  C   UNL     1      -9.847  -1.932   7.175  1.00  0.00    -0.000 C 
BRANCH  22  23
ATOM     23  C   UNL     1      -9.401  -0.467   7.048  1.00  0.00    -0.000 C 
BRANCH  23  24
ATOM     24  C   UNL     1      -9.152   0.197   8.413  1.00  0.00    -0.000 C 
BRANCH  24  25
ATOM     25  C   UNL     1      -9.015   1.723   8.310  1.00  0.00    -0.003 C 
ATOM     26  C   UNL     1      -9.758   2.303   7.107  1.00  0.00     0.004 C 
ENDBRANCH  24  25
ENDBRANCH  23  24
ENDBRANCH  22  23
ENDBRANCH  21  22
ENDBRANCH  20  21
ENDBRANCH  19  20
ENDBRANCH  18  19
ENDBRANCH  17  18
ENDBRANCH  16  17
ENDBRANCH  15  16
ENDBRANCH   1  15
TORSDOF 22
ENDMDL
MODEL 2
REMARK VINA RESULT:    -3.387      2.018      4.149
REMARK INTER + INTRA:         -11.419
REMARK INTER:                  -8.275
REMARK INTRA:                  -3.144
REMARK UNBOUND:                -3.677
REMARK SMILES CCCCCCCCCCCCCCCCCCCCCCCC(=O)[O-]
REMARK SMILES IDX 13 1 14 2 15 3 16 4 17 5 18 6 19 7 20 8 21 9 22 10 23 11
REMARK SMILES IDX 24 12 25 13 26 14 12 15 11 16 10 17 9 18 8 19 7 20 6 21 5 22
REMARK SMILES IDX 4 23 3 24 2 25 1 26
REMARK H PARENT
REMARK Flexibility Score: inf
ROOT
ATOM      1  C   UNL     1      -8.628  -8.258   6.191  1.00  0.00     0.000 C 
ENDROOT
BRANCH   1   2
ATOM      2  C   UNL     1      -7.869  -9.579   6.396  1.00  0.00     0.000 C 
BRANCH   2   3
ATOM      3  C   UNL     1      -6.362  -9.385   6.189  1.00  0.00     0.000 C 
BRANCH   3   4
ATOM      4  C   UNL     1      -5.566  -9.999   7.350  1.00  0.00     0.000 C 
BRANCH   4   5
ATOM      5  C   UNL     1      -6.140  -9.626   8.727  1.00  0.00     0.000 C 
BRANCH   5   6
ATOM      6  C   UNL     1      -5.537  -8.326   9.284  1.00  0.00     0.000 C 
BRANCH   6   7
ATOM      7  C   UNL     1      -6.561  -7.179   9.368  1.00  0.00     0.000 C 
BRANCH   7   8
ATOM      8  C   UNL     1      -5.988  -5.767   9.124  1.00  0.00     0.000 C 
BRANCH   8   9
ATOM      9  C   UNL     1      -5.122  -5.622   7.859  1.00  0.00     0.000 C 
BRANCH   9  10
ATOM     10  C   UNL     1      -4.787  -4.161   7.530  1.00  0.00     0.006 C 
BRANCH  10  11
ATOM     11  C   UNL     1      -5.395  -3.750   6.186  1.00  0.00     0.053 C 
BRANCH  11  12
ATOM     12  C   UNL     1      -4.336  -3.219   5.271  1.00  0.00     0.041 C 
ATOM     13  O   UNL     1      -3.433  -3.981   4.839  1.00  0.00    -0.550 OA
ATOM     14  O   UNL     1      -4.322  -1.872   4.931  1.00  0.00    -0.550 OA
ENDBRANCH  11  12
ENDBRANCH  10  11
ENDBRANCH   9  10
ENDBRANCH   8   9
ENDBRANCH   7   8
ENDBRANCH   6   7
ENDBRANCH   5   6
ENDBRANCH   4   5
ENDBRANCH   3   4
ENDBRANCH   2   3
ENDBRANCH   1   2
BRANCH   1  15
ATOM     15  C   UNL     1      -7.703  -7.102   5.777  1.00  0.00     0.000 C 
BRANCH  15  16
ATOM     16  C   UNL     1      -8.340  -5.723   6.013  1.00  0.00     0.000 C 
BRANCH  16  17
ATOM     17  C   UNL     1      -9.278  -5.695   7.234  1.00  0.00     0.000 C 
BRANCH  17  18
ATOM     18  C   UNL     1      -9.822  -4.306   7.615  1.00  0.00    -0.000 C 
BRANCH  18  19
ATOM     19  C   UNL     1      -8.724  -3.229   7.679  1.00  0.00    -0.000 C 
BRANCH  19  20
ATOM     20  C   UNL     1      -9.300  -1.806   7.770  1.00  0.00    -0.000 C 
BRANCH  20  21
ATOM     21  C   UNL     1      -8.625  -0.960   8.860  1.00  0.00    -0.000 C 
BRANCH  21  22
ATOM     22  C   UNL     1      -9.009   0.521   8.718  1.00  0.00    -0.000 C 
BRANCH  22  23
ATOM     23  C   UNL     1      -9.615   0.847   7.344  1.00  0.00    -0.000 C 
BRANCH  23  24
ATOM     24  C   UNL     1      -9.930   2.344   7.178  1.00  0.00    -0.000 C 
BRANCH  24  25
ATOM     25  C   UNL     1      -8.927   3.243   7.916  1.00  0.00    -0.003 C 
ATOM     26  C   UNL     1      -9.519   4.597   8.303  1.00  0.00     0.004 C 
ENDBRANCH  24  25
ENDBRANCH  23  24
ENDBRANCH  22  23
ENDBRANCH  21  22
ENDBRANCH  20  21
ENDBRANCH  19  20
ENDBRANCH  18  19
ENDBRANCH  17  18
ENDBRANCH  16  17
ENDBRANCH  15  16
ENDBRANCH   1  15
TORSDOF 22
ENDMDL
MODEL 3
REMARK VINA RESULT:    -3.322      2.260      3.884
REMARK INTER + INTRA:         -11.272
REMARK INTER:                  -7.940
REMARK INTRA:                  -3.332
REMARK UNBOUND:                -3.677
REMARK SMILES CCCCCCCCCCCCCCCCCCCCCCCC(=O)[O-]
REMARK SMILES IDX 13 1 14 2 15 3 16 4 17 5 18 6 19 7 20 8 21 9 22 10 23 11
REMARK SMILES IDX 24 12 25 13 26 14 12 15 11 16 10 17 9 18 8 19 7 20 6 21 5 22
REMARK SMILES IDX 4 23 3 24 2 25 1 26
REMARK H PARENT
REMARK Flexibility Score: inf
ROOT
ATOM      1  C   UNL     1      -5.326  -4.950  10.052  1.00  0.00     0.000 C 
ENDROOT
BRANCH   1   2
ATOM      2  C   UNL     1      -4.467  -6.060   9.425  1.00  0.00     0.000 C 
BRANCH   2   3
ATOM      3  C   UNL     1      -5.243  -7.381   9.356  1.00  0.00     0.000 C 
BRANCH   3   4
ATOM      4  C   UNL     1      -6.757  -7.132   9.430  1.00  0.00     0.000 C 
BRANCH   4   5
ATOM      5  C   UNL     1      -7.579  -8.303   8.866  1.00  0.00     0.000 C 
BRANCH   5   6
ATOM      6  C   UNL     1      -8.367  -7.914   7.603  1.00  0.00     0.000 C 
BRANCH   6   7
ATOM      7  C   UNL     1      -8.408  -6.393   7.368  1.00  0.00     0.000 C 
BRANCH   7   8
ATOM      8  C   UNL     1      -7.790  -5.918   6.037  1.00  0.00     0.000 C 
BRANCH   8   9
ATOM      9  C   UNL     1      -6.252  -5.862   6.011  1.00  0.00     0.000 C 
BRANCH   9  10
ATOM     10  C   UNL     1      -5.702  -4.448   6.240  1.00  0.00     0.006 C 
BRANCH  10  11
ATOM     11  C   UNL     1      -4.193  -4.400   5.984  1.00  0.00     0.053 C 
BRANCH  11  12
ATOM     12  C   UNL     1      -3.859  -3.305   5.020  1.00  0.00     0.041 C 
ATOM     13  O   UNL     1      -2.910  -3.446   4.205  1.00  0.00    -0.550 OA
ATOM     14  O   UNL     1      -4.568  -2.111   5.051  1.00  0.00    -0.550 OA
ENDBRANCH  11  12
ENDBRANCH  10  11
ENDBRANCH   9  10
ENDBRANCH   8   9
ENDBRANCH   7   8
ENDBRANCH   6   7
ENDBRANCH   5   6
ENDBRANCH   4   5
ENDBRANCH   3   4
ENDBRANCH   2   3
ENDBRANCH   1   2
BRANCH   1  15
ATOM     15  C   UNL     1      -4.896  -3.544   9.605  1.00  0.00     0.000 C 
BRANCH  15  16
ATOM     16  C   UNL     1      -6.087  -2.582   9.450  1.00  0.00     0.000 C 
BRANCH  16  17
ATOM     17  C   UNL     1      -7.416  -3.190   9.936  1.00  0.00     0.000 C 
BRANCH  17  18
ATOM     18  C   UNL     1      -8.565  -3.161   8.913  1.00  0.00    -0.000 C 
BRANCH  18  19
ATOM     19  C   UNL     1      -8.242  -2.312   7.670  1.00  0.00    -0.000 C 
BRANCH  19  20
ATOM     20  C   UNL     1      -9.202  -1.123   7.502  1.00  0.00    -0.000 C 
BRANCH  20  21
ATOM     21  C   UNL     1      -9.562  -0.457   8.839  1.00  0.00    -0.000 C 
BRANCH  21  22
ATOM     22  C   UNL     1      -9.311   1.058   8.779  1.00  0.00    -0.000 C 
BRANCH  22  23
ATOM     23  C   UNL     1     -10.047   1.735   7.612  1.00  0.00    -0.000 C 
BRANCH  23  24
ATOM     24  C   UNL     1      -9.331   3.004   7.118  1.00  0.00    -0.000 C 
BRANCH  24  25
ATOM     25  C   UNL     1      -9.271   4.102   8.191  1.00  0.00    -0.003 C 
ATOM     26  C   UNL     1      -7.923   4.154   8.908  1.00  0.00     0.004 C 
ENDBRANCH  24  25
ENDBRANCH  23  24
ENDBRANCH  22  23
ENDBRANCH  21  22
ENDBRANCH  20  21
ENDBRANCH  19  20
ENDBRANCH  18  19
ENDBRANCH  17  18
ENDBRANCH  16  17
ENDBRANCH  15  16
ENDBRANCH   1  15
TORSDOF 22
ENDMDL
MODEL 4
REMARK VINA RESULT:    -3.198      1.418      2.064
REMARK INTER + INTRA:         -10.987
REMARK INTER:                  -7.794
REMARK INTRA:                  -3.193
REMARK UNBOUND:                -3.677
REMARK SMILES CCCCCCCCCCCCCCCCCCCCCCCC(=O)[O-]
REMARK SMILES IDX 13 1 14 2 15 3 16 4 17 5 18 6 19 7 20 8 21 9 22 10 23 11
REMARK SMILES IDX 24 12 25 13 26 14 12 15 11 16 10 17 9 18 8 19 7 20 6 21 5 22
REMARK SMILES IDX 4 23 3 24 2 25 1 26
REMARK H PARENT
REMARK Flexibility Score: inf
ROOT
ATOM      1  C   UNL     1      -4.132  -5.957   6.475  1.00  0.00     0.000 C 
ENDROOT
BRANCH   1   2
ATOM      2  C   UNL     1      -4.149  -5.705   7.992  1.00  0.00     0.000 C 
BRANCH   2   3
ATOM      3  C   UNL     1      -5.461  -6.196   8.615  1.00  0.00     0.000 C 
BRANCH   3   4
ATOM      4  C   UNL     1      -5.245  -7.504   9.390  1.00  0.00     0.000 C 
BRANCH   4   5
ATOM      5  C   UNL     1      -6.513  -8.370   9.458  1.00  0.00     0.000 C 
BRANCH   5   6
ATOM      6  C   UNL     1      -6.259  -9.822   9.021  1.00  0.00     0.000 C 
BRANCH   6   7
ATOM      7  C   UNL     1      -5.550  -9.921   7.657  1.00  0.00     0.000 C 
BRANCH   7   8
ATOM      8  C   UNL     1      -6.304  -9.276   6.476  1.00  0.00     0.000 C 
BRANCH   8   9
ATOM      9  C   UNL     1      -7.762  -9.738   6.301  1.00  0.00     0.000 C 
BRANCH   9  10
ATOM     10  C   UNL     1      -8.729  -8.576   6.034  1.00  0.00     0.006 C 
BRANCH  10  11
ATOM     11  C   UNL     1      -7.974  -7.247   5.941  1.00  0.00     0.053 C 
BRANCH  11  12
ATOM     12  C   UNL     1      -8.805  -6.131   6.492  1.00  0.00     0.041 C 
ATOM     13  O   UNL     1      -9.382  -5.327   5.715  1.00  0.00    -0.550 OA
ATOM     14  O   UNL     1      -8.905  -5.952   7.867  1.00  0.00    -0.550 OA
ENDBRANCH  11  12
ENDBRANCH  10  11
ENDBRANCH   9  10
ENDBRANCH   8   9
ENDBRANCH   7   8
ENDBRANCH   6   7
ENDBRANCH   5   6
ENDBRANCH   4   5
ENDBRANCH   3   4
ENDBRANCH   2   3
ENDBRANCH   1   2
BRANCH   1  15
ATOM     15  C   UNL     1      -5.089  -5.029   5.710  1.00  0.00     0.000 C 
BRANCH  15  16
ATOM     16  C   UNL     1      -4.568  -3.584   5.624  1.00  0.00     0.000 C 
BRANCH  16  17
ATOM     17  C   UNL     1      -5.289  -2.627   6.591  1.00  0.00     0.000 C 
BRANCH  17  18
ATOM     18  C   UNL     1      -6.694  -3.073   7.032  1.00  0.00    -0.000 C 
BRANCH  18  19
ATOM     19  C   UNL     1      -6.902  -2.985   8.555  1.00  0.00    -0.000 C 
BRANCH  19  20
ATOM     20  C   UNL     1      -6.017  -1.912   9.210  1.00  0.00    -0.000 C 
BRANCH  20  21
ATOM     21  C   UNL     1      -6.818  -0.929  10.077  1.00  0.00    -0.000 C 
BRANCH  21  22
ATOM     22  C   UNL     1      -8.241  -0.750   9.527  1.00  0.00    -0.000 C 
BRANCH  22  23
ATOM     23  C   UNL     1      -8.547   0.704   9.135  1.00  0.00    -0.000 C 
BRANCH  23  24
ATOM     24  C   UNL     1      -7.496   1.694   9.669  1.00  0.00    -0.000 C 
BRANCH  24  25
ATOM     25  C   UNL     1      -7.931   3.158   9.505  1.00  0.00    -0.003 C 
ATOM     26  C   UNL     1      -8.662   3.414   8.189  1.00  0.00     0.004 C 
ENDBRANCH  24  25
ENDBRANCH  23  24
ENDBRANCH  22  23
ENDBRANCH  21  22
ENDBRANCH  20  21
ENDBRANCH  19  20
ENDBRANCH  18  19
ENDBRANCH  17  18
ENDBRANCH  16  17
ENDBRANCH  15  16
ENDBRANCH   1  15
TORSDOF 22
ENDMDL
MODEL 5
REMARK VINA RESULT:    -3.147      2.273      4.633
REMARK INTER + INTRA:         -10.872
REMARK INTER:                  -8.400
REMARK INTRA:                  -2.472
REMARK UNBOUND:                -3.677
REMARK SMILES CCCCCCCCCCCCCCCCCCCCCCCC(=O)[O-]
REMARK SMILES IDX 13 1 14 2 15 3 16 4 17 5 18 6 19 7 20 8 21 9 22 10 23 11
REMARK SMILES IDX 24 12 25 13 26 14 12 15 11 16 10 17 9 18 8 19 7 20 6 21 5 22
REMARK SMILES IDX 4 23 3 24 2 25 1 26
REMARK H PARENT
REMARK Flexibility Score: inf
ROOT
ATOM      1  C   UNL     1      -8.970  -6.150   5.785  1.00  0.00     0.000 C 
ENDROOT
BRANCH   1   2
ATOM      2  C   UNL     1      -9.509  -7.590   5.793  1.00  0.00     0.000 C 
BRANCH   2   3
ATOM      3  C   UNL     1      -9.452  -8.189   7.204  1.00  0.00     0.000 C 
BRANCH   3   4
ATOM      4  C   UNL     1      -8.164  -9.003   7.403  1.00  0.00     0.000 C 
BRANCH   4   5
ATOM      5  C   UNL     1      -7.366  -9.176   6.100  1.00  0.00     0.000 C 
BRANCH   5   6
ATOM      6  C   UNL     1      -5.871  -8.862   6.280  1.00  0.00     0.000 C 
BRANCH   6   7
ATOM      7  C   UNL     1      -5.577  -7.351   6.318  1.00  0.00     0.000 C 
BRANCH   7   8
ATOM      8  C   UNL     1      -5.524  -6.728   7.728  1.00  0.00     0.000 C 
BRANCH   8   9
ATOM      9  C   UNL     1      -6.101  -5.305   7.838  1.00  0.00     0.000 C 
BRANCH   9  10
ATOM     10  C   UNL     1      -5.034  -4.214   7.669  1.00  0.00     0.006 C 
BRANCH  10  11
ATOM     11  C   UNL     1      -5.480  -3.166   6.645  1.00  0.00     0.053 C 
BRANCH  11  12
ATOM     12  C   UNL     1      -4.567  -3.168   5.460  1.00  0.00     0.041 C 
ATOM     13  O   UNL     1      -4.215  -2.082   4.930  1.00  0.00    -0.550 OA
ATOM     14  O   UNL     1      -4.140  -4.371   4.912  1.00  0.00    -0.550 OA
ENDBRANCH  11  12
ENDBRANCH  10  11
ENDBRANCH   9  10
ENDBRANCH   8   9
ENDBRANCH   7   8
ENDBRANCH   6   7
ENDBRANCH   5   6
ENDBRANCH   4   5
ENDBRANCH   3   4
ENDBRANCH   2   3
ENDBRANCH   1   2
BRANCH   1  15
ATOM     15  C   UNL     1     -10.066  -5.106   6.045  1.00  0.00     0.000 C 
BRANCH  15  16
ATOM     16  C   UNL     1      -9.851  -4.337   7.360  1.00  0.00     0.000 C 
BRANCH  16  17
ATOM     17  C   UNL     1     -10.053  -2.818   7.209  1.00  0.00     0.000 C 
BRANCH  17  18
ATOM     18  C   UNL     1      -8.795  -1.961   7.433  1.00  0.00    -0.000 C 
BRANCH  18  19
ATOM     19  C   UNL     1      -8.264  -2.040   8.876  1.00  0.00    -0.000 C 
BRANCH  19  20
ATOM     20  C   UNL     1      -8.172  -0.659   9.546  1.00  0.00    -0.000 C 
BRANCH  20  21
ATOM     21  C   UNL     1      -9.482   0.138   9.447  1.00  0.00    -0.000 C 
BRANCH  21  22
ATOM     22  C   UNL     1      -9.264   1.453   8.683  1.00  0.00    -0.000 C 
BRANCH  22  23
ATOM     23  C   UNL     1      -8.819   2.605   9.599  1.00  0.00    -0.000 C 
BRANCH  23  24
ATOM     24  C   UNL     1      -7.343   2.988   9.393  1.00  0.00    -0.000 C 
BRANCH  24  25
ATOM     25  C   UNL     1      -7.142   4.505   9.263  1.00  0.00    -0.003 C 
ATOM     26  C   UNL     1      -5.670   4.911   9.302  1.00  0.00     0.004 C 
ENDBRANCH  24  25
ENDBRANCH  23  24
ENDBRANCH  22  23
ENDBRANCH  21  22
ENDBRANCH  20  21
ENDBRANCH  19  20
ENDBRANCH  18  19
ENDBRANCH  17  18
ENDBRANCH  16  17
ENDBRANCH  15  16
ENDBRANCH   1  15
TORSDOF 22
ENDMDL
MODEL 6
REMARK VINA RESULT:    -3.108      3.621      8.276
REMARK INTER + INTRA:         -10.782
REMARK INTER:                  -8.336
REMARK INTRA:                  -2.446
REMARK UNBOUND:                -3.677
REMARK SMILES CCCCCCCCCCCCCCCCCCCCCCCC(=O)[O-]
REMARK SMILES IDX 13 1 14 2 15 3 16 4 17 5 18 6 19 7 20 8 21 9 22 10 23 11
REMARK SMILES IDX 24 12 25 13 26 14 12 15 11 16 10 17 9 18 8 19 7 20 6 21 5 22
REMARK SMILES IDX 4 23 3 24 2 25 1 26
REMARK H PARENT
REMARK Flexibility Score: inf
ROOT
ATOM      1  C   UNL     1      -4.275  -4.475   9.411  1.00  0.00     0.000 C 
ENDROOT
BRANCH   1   2
ATOM      2  C   UNL     1      -5.238  -3.293   9.605  1.00  0.00     0.000 C 
BRANCH   2   3
ATOM      3  C   UNL     1      -5.712  -2.745   8.253  1.00  0.00     0.000 C 
BRANCH   3   4
ATOM      4  C   UNL     1      -7.225  -2.947   8.079  1.00  0.00     0.000 C 
BRANCH   4   5
ATOM      5  C   UNL     1      -8.044  -2.290   9.203  1.00  0.00     0.000 C 
BRANCH   5   6
ATOM      6  C   UNL     1      -9.291  -1.563   8.675  1.00  0.00     0.000 C 
BRANCH   6   7
ATOM      7  C   UNL     1      -9.682  -0.345   9.532  1.00  0.00     0.000 C 
BRANCH   7   8
ATOM      8  C   UNL     1      -8.555   0.683   9.764  1.00  0.00     0.000 C 
BRANCH   8   9
ATOM      9  C   UNL     1      -8.672   1.980   8.942  1.00  0.00     0.000 C 
BRANCH   9  10
ATOM     10  C   UNL     1      -8.880   3.224   9.816  1.00  0.00     0.006 C 
BRANCH  10  11
ATOM     11  C   UNL     1      -8.264   4.463   9.161  1.00  0.00     0.053 C 
BRANCH  11  12
ATOM     12  C   UNL     1      -6.792   4.519   9.424  1.00  0.00     0.041 C 
ATOM     13  O   UNL     1      -6.056   3.547   9.115  1.00  0.00    -0.550 OA
ATOM     14  O   UNL     1      -6.240   5.628  10.053  1.00  0.00    -0.550 OA
ENDBRANCH  11  12
ENDBRANCH  10  11
ENDBRANCH   9  10
ENDBRANCH   8   9
ENDBRANCH   7   8
ENDBRANCH   6   7
ENDBRANCH   5   6
ENDBRANCH   4   5
ENDBRANCH   3   4
ENDBRANCH   2   3
ENDBRANCH   1   2
BRANCH   1  15
ATOM     15  C   UNL     1      -4.753  -5.751  10.123  1.00  0.00     0.000 C 
BRANCH  15  16
ATOM     16  C   UNL     1      -5.655  -6.622   9.232  1.00  0.00     0.000 C 
BRANCH  16  17
ATOM     17  C   UNL     1      -7.156  -6.412   9.509  1.00  0.00     0.000 C 
BRANCH  17  18
ATOM     18  C   UNL     1      -8.099  -7.413   8.818  1.00  0.00    -0.000 C 
BRANCH  18  19
ATOM     19  C   UNL     1      -7.359  -8.634   8.242  1.00  0.00    -0.000 C 
BRANCH  19  20
ATOM     20  C   UNL     1      -7.556  -8.780   6.724  1.00  0.00    -0.000 C 
BRANCH  20  21
ATOM     21  C   UNL     1      -7.525  -7.432   5.988  1.00  0.00    -0.000 C 
BRANCH  21  22
ATOM     22  C   UNL     1      -6.093  -7.077   5.559  1.00  0.00    -0.000 C 
BRANCH  22  23
ATOM     23  C   UNL     1      -5.825  -5.564   5.583  1.00  0.00    -0.000 C 
BRANCH  23  24
ATOM     24  C   UNL     1      -4.360  -5.229   5.915  1.00  0.00    -0.000 C 
BRANCH  24  25
ATOM     25  C   UNL     1      -3.779  -4.152   4.987  1.00  0.00    -0.003 C 
ATOM     26  C   UNL     1      -4.363  -2.765   5.251  1.00  0.00     0.004 C 
ENDBRANCH  24  25
ENDBRANCH  23  24
ENDBRANCH  22  23
ENDBRANCH  21  22
ENDBRANCH  20  21
ENDBRANCH  19  20
ENDBRANCH  18  19
ENDBRANCH  17  18
ENDBRANCH  16  17
ENDBRANCH  15  16
ENDBRANCH   1  15
TORSDOF 22
ENDMDL
MODEL 7
REMARK VINA RESULT:    -3.030      1.454      2.874
REMARK INTER + INTRA:         -10.603
REMARK INTER:                  -8.085
REMARK INTRA:                  -2.518
REMARK UNBOUND:                -3.677
REMARK SMILES CCCCCCCCCCCCCCCCCCCCCCCC(=O)[O-]
REMARK SMILES IDX 13 1 14 2 15 3 16 4 17 5 18 6 19 7 20 8 21 9 22 10 23 11
REMARK SMILES IDX 24 12 25 13 26 14 12 15 11 16 10 17 9 18 8 19 7 20 6 21 5 22
REMARK SMILES IDX 4 23 3 24 2 25 1 26
REMARK H PARENT
REMARK Flexibility Score: inf
ROOT
ATOM      1  C   UNL     1      -4.744  -4.348   7.572  1.00  0.00     0.000 C 
ENDROOT
BRANCH   1   2
ATOM      2  C   UNL     1      -3.907  -5.257   6.657  1.00  0.00     0.000 C 
BRANCH   2   3
ATOM      3  C   UNL     1      -4.809  -6.108   5.755  1.00  0.00     0.000 C 
BRANCH   3   4
ATOM      4  C   UNL     1      -5.543  -7.184   6.570  1.00  0.00     0.000 C 
BRANCH   4   5
ATOM      5  C   UNL     1      -5.829  -8.454   5.752  1.00  0.00     0.000 C 
BRANCH   5   6
ATOM      6  C   UNL     1      -5.802  -9.728   6.614  1.00  0.00     0.000 C 
BRANCH   6   7
ATOM      7  C   UNL     1      -7.117  -9.960   7.381  1.00  0.00     0.000 C 
BRANCH   7   8
ATOM      8  C   UNL     1      -7.111  -9.494   8.851  1.00  0.00     0.000 C 
BRANCH   8   9
ATOM      9  C   UNL     1      -8.210  -8.482   9.222  1.00  0.00     0.000 C 
BRANCH   9  10
ATOM     10  C   UNL     1      -9.115  -8.122   8.036  1.00  0.00     0.006 C 
BRANCH  10  11
ATOM     11  C   UNL     1      -8.936  -6.654   7.637  1.00  0.00     0.053 C 
BRANCH  11  12
ATOM     12  C   UNL     1      -9.184  -6.474   6.173  1.00  0.00     0.041 C 
ATOM     13  O   UNL     1      -9.446  -5.333   5.710  1.00  0.00    -0.550 OA
ATOM     14  O   UNL     1      -9.171  -7.574   5.324  1.00  0.00    -0.550 OA
ENDBRANCH  11  12
ENDBRANCH  10  11
ENDBRANCH   9  10
ENDBRANCH   8   9
ENDBRANCH   7   8
ENDBRANCH   6   7
ENDBRANCH   5   6
ENDBRANCH   4   5
ENDBRANCH   3   4
ENDBRANCH   2   3
ENDBRANCH   1   2
BRANCH   1  15
ATOM     15  C   UNL     1      -5.424  -3.202   6.805  1.00  0.00     0.000 C 
BRANCH  15  16
ATOM     16  C   UNL     1      -6.946  -3.168   7.023  1.00  0.00     0.000 C 
BRANCH  16  17
ATOM     17  C   UNL     1      -7.341  -3.192   8.512  1.00  0.00     0.000 C 
BRANCH  17  18
ATOM     18  C   UNL     1      -8.841  -2.995   8.798  1.00  0.00    -0.000 C 
BRANCH  18  19
ATOM     19  C   UNL     1      -9.593  -2.335   7.629  1.00  0.00    -0.000 C 
BRANCH  19  20
ATOM     20  C   UNL     1      -9.850  -0.837   7.863  1.00  0.00    -0.000 C 
BRANCH  20  21
ATOM     21  C   UNL     1      -9.550   0.019   6.624  1.00  0.00    -0.000 C 
BRANCH  21  22
ATOM     22  C   UNL     1      -9.802   1.506   6.913  1.00  0.00    -0.000 C 
BRANCH  22  23
ATOM     23  C   UNL     1      -9.001   2.019   8.120  1.00  0.00    -0.000 C 
BRANCH  23  24
ATOM     24  C   UNL     1      -8.717   3.530   8.043  1.00  0.00    -0.000 C 
BRANCH  24  25
ATOM     25  C   UNL     1      -7.732   3.999   9.124  1.00  0.00    -0.003 C 
ATOM     26  C   UNL     1      -6.837   2.873   9.638  1.00  0.00     0.004 C 
ENDBRANCH  24  25
ENDBRANCH  23  24
ENDBRANCH  22  23
ENDBRANCH  21  22
ENDBRANCH  20  21
ENDBRANCH  19  20
ENDBRANCH  18  19
ENDBRANCH  17  18
ENDBRANCH  16  17
ENDBRANCH  15  16
ENDBRANCH   1  15
TORSDOF 22
ENDMDL
MODEL 8
REMARK VINA RESULT:    -2.914      1.882      3.270
REMARK INTER + INTRA:         -10.340
REMARK INTER:                  -8.088
REMARK INTRA:                  -2.252
REMARK UNBOUND:                -3.677
REMARK SMILES CCCCCCCCCCCCCCCCCCCCCCCC(=O)[O-]
REMARK SMILES IDX 13 1 14 2 15 3 16 4 17 5 18 6 19 7 20 8 21 9 22 10 23 11
REMARK SMILES IDX 24 12 25 13 26 14 12 15 11 16 10 17 9 18 8 19 7 20 6 21 5 22
REMARK SMILES IDX 4 23 3 24 2 25 1 26
REMARK H PARENT
REMARK Flexibility Score: inf
ROOT
ATOM      1  C   UNL     1      -5.630  -3.221   6.584  1.00  0.00     0.000 C 
ENDROOT
BRANCH   1   2
ATOM      2  C   UNL     1      -4.528  -4.179   6.102  1.00  0.00     0.000 C 
BRANCH   2   3
ATOM      3  C   UNL     1      -4.165  -5.191   7.196  1.00  0.00     0.000 C 
BRANCH   3   4
ATOM      4  C   UNL     1      -5.175  -6.348   7.229  1.00  0.00     0.000 C 
BRANCH   4   5
ATOM      5  C   UNL     1      -5.330  -7.039   5.863  1.00  0.00     0.000 C 
BRANCH   5   6
ATOM      6  C   UNL     1      -5.737  -8.517   5.994  1.00  0.00     0.000 C 
BRANCH   6   7
ATOM      7  C   UNL     1      -6.132  -8.904   7.431  1.00  0.00     0.000 C 
BRANCH   7   8
ATOM      8  C   UNL     1      -7.580  -9.408   7.601  1.00  0.00     0.000 C 
BRANCH   8   9
ATOM      9  C   UNL     1      -8.367  -9.592   6.292  1.00  0.00     0.000 C 
BRANCH   9  10
ATOM     10  C   UNL     1      -9.242  -8.379   5.947  1.00  0.00     0.006 C 
BRANCH  10  11
ATOM     11  C   UNL     1      -9.550  -7.552   7.198  1.00  0.00     0.053 C 
BRANCH  11  12
ATOM     12  C   UNL     1      -9.388  -6.092   6.916  1.00  0.00     0.041 C 
ATOM     13  O   UNL     1     -10.119  -5.249   7.497  1.00  0.00    -0.550 OA
ATOM     14  O   UNL     1      -8.457  -5.664   5.977  1.00  0.00    -0.550 OA
ENDBRANCH  11  12
ENDBRANCH  10  11
ENDBRANCH   9  10
ENDBRANCH   8   9
ENDBRANCH   7   8
ENDBRANCH   6   7
ENDBRANCH   5   6
ENDBRANCH   4   5
ENDBRANCH   3   4
ENDBRANCH   2   3
ENDBRANCH   1   2
BRANCH   1  15
ATOM     15  C   UNL     1      -5.610  -3.014   8.107  1.00  0.00     0.000 C 
BRANCH  15  16
ATOM     16  C   UNL     1      -7.021  -2.986   8.718  1.00  0.00     0.000 C 
BRANCH  16  17
ATOM     17  C   UNL     1      -8.096  -2.503   7.726  1.00  0.00     0.000 C 
BRANCH  17  18
ATOM     18  C   UNL     1      -9.002  -1.370   8.238  1.00  0.00    -0.000 C 
BRANCH  18  19
ATOM     19  C   UNL     1      -8.709  -0.980   9.698  1.00  0.00    -0.000 C 
BRANCH  19  20
ATOM     20  C   UNL     1      -8.023   0.390   9.816  1.00  0.00    -0.000 C 
BRANCH  20  21
ATOM     21  C   UNL     1      -8.584   1.424   8.827  1.00  0.00    -0.000 C 
BRANCH  21  22
ATOM     22  C   UNL     1      -9.670   2.283   9.493  1.00  0.00    -0.000 C 
BRANCH  22  23
ATOM     23  C   UNL     1      -9.566   3.768   9.114  1.00  0.00    -0.000 C 
BRANCH  23  24
ATOM     24  C   UNL     1      -8.161   4.156   8.620  1.00  0.00    -0.000 C 
BRANCH  24  25
ATOM     25  C   UNL     1      -7.294   4.763   9.733  1.00  0.00    -0.003 C 
ATOM     26  C   UNL     1      -5.816   4.840   9.355  1.00  0.00     0.004 C 
ENDBRANCH  24  25
ENDBRANCH  23  24
ENDBRANCH  22  23
ENDBRANCH  21  22
ENDBRANCH  20  21
ENDBRANCH  19  20
ENDBRANCH  18  19
ENDBRANCH  17  18
ENDBRANCH  16  17
ENDBRANCH  15  16
ENDBRANCH   1  15
TORSDOF 22
ENDMDL
MODEL 9
REMARK VINA RESULT:    -2.880      3.152      7.031
REMARK INTER + INTRA:         -10.262
REMARK INTER:                  -6.950
REMARK INTRA:                  -3.312
REMARK UNBOUND:                -3.677
REMARK SMILES CCCCCCCCCCCCCCCCCCCCCCCC(=O)[O-]
REMARK SMILES IDX 13 1 14 2 15 3 16 4 17 5 18 6 19 7 20 8 21 9 22 10 23 11
REMARK SMILES IDX 24 12 25 13 26 14 12 15 11 16 10 17 9 18 8 19 7 20 6 21 5 22
REMARK SMILES IDX 4 23 3 24 2 25 1 26
REMARK H PARENT
REMARK Flexibility Score: inf
ROOT
ATOM      1  C   UNL     1      -5.346  -4.767   5.797  1.00  0.00     0.000 C 
ENDROOT
BRANCH   1   2
ATOM      2  C   UNL     1      -4.638  -3.986   6.916  1.00  0.00     0.000 C 
BRANCH   2   3
ATOM      3  C   UNL     1      -5.091  -4.476   8.297  1.00  0.00     0.000 C 
BRANCH   3   4
ATOM      4  C   UNL     1      -5.337  -3.292   9.245  1.00  0.00     0.000 C 
BRANCH   4   5
ATOM      5  C   UNL     1      -6.573  -2.465   8.852  1.00  0.00     0.000 C 
BRANCH   5   6
ATOM      6  C   UNL     1      -7.770  -3.347   8.460  1.00  0.00     0.000 C 
BRANCH   6   7
ATOM      7  C   UNL     1      -8.923  -2.544   7.829  1.00  0.00     0.000 C 
BRANCH   7   8
ATOM      8  C   UNL     1     -10.025  -2.094   8.811  1.00  0.00     0.000 C 
BRANCH   8   9
ATOM      9  C   UNL     1      -9.949  -0.622   9.251  1.00  0.00     0.000 C 
BRANCH   9  10
ATOM     10  C   UNL     1      -9.262   0.277   8.213  1.00  0.00     0.006 C 
BRANCH  10  11
ATOM     11  C   UNL     1      -8.733   1.559   8.863  1.00  0.00     0.053 C 
BRANCH  11  12
ATOM     12  C   UNL     1      -8.866   2.717   7.925  1.00  0.00     0.041 C 
ATOM     13  O   UNL     1      -9.656   2.653   6.948  1.00  0.00    -0.550 OA
ATOM     14  O   UNL     1      -8.082   3.850   8.104  1.00  0.00    -0.550 OA
ENDBRANCH  11  12
ENDBRANCH  10  11
ENDBRANCH   9  10
ENDBRANCH   8   9
ENDBRANCH   7   8
ENDBRANCH   6   7
ENDBRANCH   5   6
ENDBRANCH   4   5
ENDBRANCH   3   4
ENDBRANCH   2   3
ENDBRANCH   1   2
BRANCH   1  15
ATOM     15  C   UNL     1      -4.941  -6.250   5.762  1.00  0.00     0.000 C 
BRANCH  15  16
ATOM     16  C   UNL     1      -6.155  -7.194   5.802  1.00  0.00     0.000 C 
BRANCH  16  17
ATOM     17  C   UNL     1      -5.768  -8.658   6.086  1.00  0.00     0.000 C 
BRANCH  17  18
ATOM     18  C   UNL     1      -6.333  -9.245   7.392  1.00  0.00    -0.000 C 
BRANCH  18  19
ATOM     19  C   UNL     1      -5.940  -8.429   8.637  1.00  0.00    -0.000 C 
BRANCH  19  20
ATOM     20  C   UNL     1      -7.154  -8.056   9.504  1.00  0.00    -0.000 C 
BRANCH  20  21
ATOM     21  C   UNL     1      -7.718  -6.667   9.172  1.00  0.00    -0.000 C 
BRANCH  21  22
ATOM     22  C   UNL     1      -9.222  -6.600   9.477  1.00  0.00    -0.000 C 
BRANCH  22  23
ATOM     23  C   UNL     1     -10.075  -6.397   8.215  1.00  0.00    -0.000 C 
BRANCH  23  24
ATOM     24  C   UNL     1      -9.841  -7.493   7.161  1.00  0.00    -0.000 C 
BRANCH  24  25
ATOM     25  C   UNL     1      -9.646  -6.920   5.749  1.00  0.00    -0.003 C 
ATOM     26  C   UNL     1      -9.705  -5.394   5.718  1.00  0.00     0.004 C 
ENDBRANCH  24  25
ENDBRANCH  23  24
ENDBRANCH  22  23
ENDBRANCH  21  22
ENDBRANCH  20  21
ENDBRANCH  19  20
ENDBRANCH  18  19
ENDBRANCH  17  18
ENDBRANCH  16  17
ENDBRANCH  15  16
ENDBRANCH   1  15
TORSDOF 22
ENDMDL
