MODEL 1
REMARK VINA RESULT:    -4.713      0.000      0.000
REMARK INTER + INTRA:          -8.333
REMARK INTER:                  -7.469
REMARK INTRA:                  -0.864
REMARK UNBOUND:                -0.864
REMARK SMILES CCCCCCCCCCCC(=O)[O-]
REMARK SMILES IDX 7 1 8 2 9 3 10 4 11 5 12 6 13 7 14 8 6 9 5 10 4 11 3 12 2 13
REMARK SMILES IDX 1 14
REMARK H PARENT
REMARK Flexibility Score: inf
ROOT
ATOM      1  C   UNL     1       7.909 -13.789  -1.961  1.00  0.00     0.000 C 
ENDROOT
BRANCH   1   2
ATOM      2  C   UNL     1       7.593 -12.730  -0.895  1.00  0.00     0.000 C 
BRANCH   2   3
ATOM      3  C   UNL     1       8.871 -12.268  -0.184  1.00  0.00     0.000 C 
BRANCH   3   4
ATOM      4  C   UNL     1       8.795 -10.779   0.172  1.00  0.00     0.006 C 
BRANCH   4   5
ATOM      5  C   UNL     1       7.341 -10.319   0.307  1.00  0.00     0.053 C 
BRANCH   5   6
ATOM      6  C   UNL     1       7.119  -9.049  -0.452  1.00  0.00     0.041 C 
ATOM      7  O   UNL     1       6.783  -9.087  -1.664  1.00  0.00    -0.550 OA
ATOM      8  O   UNL     1       7.234  -7.825   0.193  1.00  0.00    -0.550 OA
ENDBRANCH   5   6
ENDBRANCH   4   5
ENDBRANCH   3   4
ENDBRANCH   2   3
ENDBRANCH   1   2
BRANCH   1   9
ATOM      9  C   UNL     1       7.250 -13.481  -3.315  1.00  0.00     0.000 C 
BRANCH   9  10
ATOM     10  C   UNL     1       6.742 -12.032  -3.408  1.00  0.00    -0.000 C 
BRANCH  10  11
ATOM     11  C   UNL     1       5.406 -11.924  -4.161  1.00  0.00    -0.000 C 
BRANCH  11  12
ATOM     12  C   UNL     1       5.178 -13.099  -5.129  1.00  0.00    -0.000 C 
BRANCH  12  13
ATOM     13  C   UNL     1       3.704 -13.527  -5.198  1.00  0.00    -0.003 C 
ATOM     14  C   UNL     1       3.147 -13.947  -3.839  1.00  0.00     0.004 C 
ENDBRANCH  12  13
ENDBRANCH  11  12
ENDBRANCH  10  11
ENDBRANCH   9  10
ENDBRANCH   1   9
TORSDOF 10
ENDMDL
MODEL 2
REMARK VINA RESULT:    -4.708      3.498      6.571
REMARK INTER + INTRA:          -8.324
REMARK INTER:                  -7.984
REMARK INTRA:                  -0.340
REMARK UNBOUND:                -0.864
REMARK SMILES CCCCCCCCCCCC(=O)[O-]
REMARK SMILES IDX 7 1 8 2 9 3 10 4 11 5 12 6 13 7 14 8 6 9 5 10 4 11 3 12 2 13
REMARK SMILES IDX 1 14
REMARK H PARENT
REMARK Flexibility Score: inf
ROOT
ATOM      1  C   UNL     1       5.059 -12.989  -5.188  1.00  0.00     0.000 C 
ENDROOT
BRANCH   1   2
ATOM      2  C   UNL     1       5.012 -11.572  -5.777  1.00  0.00     0.000 C 
BRANCH   2   3
ATOM      3  C   UNL     1       3.596 -11.223  -6.253  1.00  0.00     0.000 C 
BRANCH   3   4
ATOM      4  C   UNL     1       3.454  -9.716  -6.497  1.00  0.00     0.006 C 
BRANCH   4   5
ATOM      5  C   UNL     1       3.851  -9.351  -7.930  1.00  0.00     0.053 C 
BRANCH   5   6
ATOM      6  C   UNL     1       4.712  -8.127  -7.941  1.00  0.00     0.041 C 
ATOM      7  O   UNL     1       5.302  -7.759  -6.892  1.00  0.00    -0.550 OA
ATOM      8  O   UNL     1       4.901  -7.421  -9.122  1.00  0.00    -0.550 OA
ENDBRANCH   5   6
ENDBRANCH   4   5
ENDBRANCH   3   4
ENDBRANCH   2   3
ENDBRANCH   1   2
BRANCH   1   9
ATOM      9  C   UNL     1       5.596 -13.012  -3.747  1.00  0.00     0.000 C 
BRANCH   9  10
ATOM     10  C   UNL     1       7.108 -13.291  -3.684  1.00  0.00    -0.000 C 
BRANCH  10  11
ATOM     11  C   UNL     1       7.583 -13.639  -2.265  1.00  0.00    -0.000 C 
BRANCH  11  12
ATOM     12  C   UNL     1       7.536 -12.430  -1.314  1.00  0.00    -0.000 C 
BRANCH  12  13
ATOM     13  C   UNL     1       8.693 -12.432  -0.302  1.00  0.00    -0.003 C 
ATOM     14  C   UNL     1       9.012 -11.037   0.232  1.00  0.00     0.004 C 
ENDBRANCH  12  13
ENDBRANCH  11  12
ENDBRANCH  10  11
ENDBRANCH   9  10
ENDBRANCH   1   9
TORSDOF 10
ENDMDL
MODEL 3
REMARK VINA RESULT:    -4.704      2.410      5.448
REMARK INTER + INTRA:          -8.318
REMARK INTER:                  -7.327
REMARK INTRA:                  -0.991
REMARK UNBOUND:                -0.864
REMARK SMILES CCCCCCCCCCCC(=O)[O-]
REMARK SMILES IDX 7 1 8 2 9 3 10 4 11 5 12 6 13 7 14 8 6 9 5 10 4 11 3 12 2 13
REMARK SMILES IDX 1 14
REMARK H PARENT
REMARK Flexibility Score: inf
ROOT
ATOM      1  C   UNL     1       7.140 -13.320  -2.961  1.00  0.00     0.000 C 
ENDROOT
BRANCH   1   2
ATOM      2  C   UNL     1       6.837 -13.256  -4.465  1.00  0.00     0.000 C 
BRANCH   2   3
ATOM      3  C   UNL     1       5.335 -13.072  -4.715  1.00  0.00     0.000 C 
BRANCH   3   4
ATOM      4  C   UNL     1       5.067 -11.819  -5.557  1.00  0.00     0.006 C 
BRANCH   4   5
ATOM      5  C   UNL     1       4.666 -10.636  -4.671  1.00  0.00     0.053 C 
BRANCH   5   6
ATOM      6  C   UNL     1       4.342  -9.439  -5.508  1.00  0.00     0.041 C 
ATOM      7  O   UNL     1       3.751  -8.452  -4.998  1.00  0.00    -0.550 OA
ATOM      8  O   UNL     1       4.736  -9.394  -6.839  1.00  0.00    -0.550 OA
ENDBRANCH   5   6
ENDBRANCH   4   5
ENDBRANCH   3   4
ENDBRANCH   2   3
ENDBRANCH   1   2
BRANCH   1   9
ATOM      9  C   UNL     1       5.887 -13.109  -2.095  1.00  0.00     0.000 C 
BRANCH   9  10
ATOM     10  C   UNL     1       5.939 -11.797  -1.293  1.00  0.00    -0.000 C 
BRANCH  10  11
ATOM     11  C   UNL     1       7.196 -10.969  -1.600  1.00  0.00    -0.000 C 
BRANCH  11  12
ATOM     12  C   UNL     1       7.743 -10.243  -0.358  1.00  0.00    -0.000 C 
BRANCH  12  13
ATOM     13  C   UNL     1       9.074 -10.836   0.132  1.00  0.00    -0.003 C 
ATOM     14  C   UNL     1       9.123 -12.358   0.006  1.00  0.00     0.004 C 
ENDBRANCH  12  13
ENDBRANCH  11  12
ENDBRANCH  10  11
ENDBRANCH   9  10
ENDBRANCH   1   9
TORSDOF 10
ENDMDL
MODEL 4
REMARK VINA RESULT:    -4.691      1.684      3.254
REMARK INTER + INTRA:          -8.297
REMARK INTER:                  -7.431
REMARK INTRA:                  -0.867
REMARK UNBOUND:                -0.864
REMARK SMILES CCCCCCCCCCCC(=O)[O-]
REMARK SMILES IDX 7 1 8 2 9 3 10 4 11 5 12 6 13 7 14 8 6 9 5 10 4 11 3 12 2 13
REMARK SMILES IDX 1 14
REMARK H PARENT
REMARK Flexibility Score: inf
ROOT
ATOM      1  C   UNL     1       5.760 -12.598  -3.983  1.00  0.00     0.000 C 
ENDROOT
BRANCH   1   2
ATOM      2  C   UNL     1       7.198 -13.134  -3.948  1.00  0.00     0.000 C 
BRANCH   2   3
ATOM      3  C   UNL     1       7.510 -13.783  -2.593  1.00  0.00     0.000 C 
BRANCH   3   4
ATOM      4  C   UNL     1       7.109 -12.860  -1.436  1.00  0.00     0.006 C 
BRANCH   4   5
ATOM      5  C   UNL     1       8.304 -12.575  -0.522  1.00  0.00     0.053 C 
BRANCH   5   6
ATOM      6  C   UNL     1       8.532 -11.101  -0.401  1.00  0.00     0.041 C 
ATOM      7  O   UNL     1       9.435 -10.660   0.357  1.00  0.00    -0.550 OA
ATOM      8  O   UNL     1       7.782 -10.216  -1.165  1.00  0.00    -0.550 OA
ENDBRANCH   5   6
ENDBRANCH   4   5
ENDBRANCH   3   4
ENDBRANCH   2   3
ENDBRANCH   1   2
BRANCH   1   9
ATOM      9  C   UNL     1       4.956 -13.139  -5.176  1.00  0.00     0.000 C 
BRANCH   9  10
ATOM     10  C   UNL     1       3.496 -13.455  -4.809  1.00  0.00    -0.000 C 
BRANCH  10  11
ATOM     11  C   UNL     1       3.308 -13.700  -3.303  1.00  0.00    -0.000 C 
BRANCH  11  12
ATOM     12  C   UNL     1       2.808 -15.123  -2.995  1.00  0.00    -0.000 C 
BRANCH  12  13
ATOM     13  C   UNL     1       2.880 -15.460  -1.497  1.00  0.00    -0.003 C 
ATOM     14  C   UNL     1       3.378 -14.289  -0.652  1.00  0.00     0.004 C 
ENDBRANCH  12  13
ENDBRANCH  11  12
ENDBRANCH  10  11
ENDBRANCH   9  10
ENDBRANCH   1   9
TORSDOF 10
ENDMDL
MODEL 5
REMARK VINA RESULT:    -4.683      2.773      5.546
REMARK INTER + INTRA:          -8.284
REMARK INTER:                  -7.446
REMARK INTRA:                  -0.839
REMARK UNBOUND:                -0.864
REMARK SMILES CCCCCCCCCCCC(=O)[O-]
REMARK SMILES IDX 7 1 8 2 9 3 10 4 11 5 12 6 13 7 14 8 6 9 5 10 4 11 3 12 2 13
REMARK SMILES IDX 1 14
REMARK H PARENT
REMARK Flexibility Score: inf
ROOT
ATOM      1  C   UNL     1       7.762 -13.759  -2.539  1.00  0.00     0.000 C 
ENDROOT
BRANCH   1   2
ATOM      2  C   UNL     1       7.153 -13.103  -3.786  1.00  0.00     0.000 C 
BRANCH   2   3
ATOM      3  C   UNL     1       5.621 -13.168  -3.748  1.00  0.00     0.000 C 
BRANCH   3   4
ATOM      4  C   UNL     1       5.030 -13.056  -5.158  1.00  0.00     0.006 C 
BRANCH   4   5
ATOM      5  C   UNL     1       3.759 -12.202  -5.155  1.00  0.00     0.053 C 
BRANCH   5   6
ATOM      6  C   UNL     1       3.807 -11.185  -6.251  1.00  0.00     0.041 C 
ATOM      7  O   UNL     1       2.746 -10.652  -6.667  1.00  0.00    -0.550 OA
ATOM      8  O   UNL     1       5.030 -10.788  -6.777  1.00  0.00    -0.550 OA
ENDBRANCH   5   6
ENDBRANCH   4   5
ENDBRANCH   3   4
ENDBRANCH   2   3
ENDBRANCH   1   2
BRANCH   1   9
ATOM      9  C   UNL     1       7.417 -13.006  -1.244  1.00  0.00     0.000 C 
BRANCH   9  10
ATOM     10  C   UNL     1       8.668 -12.598  -0.447  1.00  0.00    -0.000 C 
BRANCH  10  11
ATOM     11  C   UNL     1       8.718 -11.088  -0.165  1.00  0.00    -0.000 C 
BRANCH  11  12
ATOM     12  C   UNL     1       7.330 -10.428  -0.237  1.00  0.00    -0.000 C 
BRANCH  12  13
ATOM     13  C   UNL     1       7.134  -9.610  -1.524  1.00  0.00    -0.003 C 
ATOM     14  C   UNL     1       5.736  -9.772  -2.118  1.00  0.00     0.004 C 
ENDBRANCH  12  13
ENDBRANCH  11  12
ENDBRANCH  10  11
ENDBRANCH   9  10
ENDBRANCH   1   9
TORSDOF 10
ENDMDL
MODEL 6
REMARK VINA RESULT:    -4.680      2.998      6.042
REMARK INTER + INTRA:          -8.279
REMARK INTER:                  -7.760
REMARK INTRA:                  -0.519
REMARK UNBOUND:                -0.864
REMARK SMILES CCCCCCCCCCCC(=O)[O-]
REMARK SMILES IDX 7 1 8 2 9 3 10 4 11 5 12 6 13 7 14 8 6 9 5 10 4 11 3 12 2 13
REMARK SMILES IDX 1 14
REMARK H PARENT
REMARK Flexibility Score: inf
ROOT
ATOM      1  C   UNL     1       5.417 -13.113  -3.958  1.00  0.00     0.000 C 
ENDROOT
BRANCH   1   2
ATOM      2  C   UNL     1       4.879 -13.082  -5.396  1.00  0.00     0.000 C 
BRANCH   2   3
ATOM      3  C   UNL     1       4.148 -11.764  -5.681  1.00  0.00     0.000 C 
BRANCH   3   4
ATOM      4  C   UNL     1       4.997 -10.844  -6.566  1.00  0.00     0.006 C 
BRANCH   4   5
ATOM      5  C   UNL     1       4.128  -9.787  -7.254  1.00  0.00     0.053 C 
BRANCH   5   6
ATOM      6  C   UNL     1       4.707  -8.422  -7.058  1.00  0.00     0.041 C 
ATOM      7  O   UNL     1       4.696  -7.887  -5.919  1.00  0.00    -0.550 OA
ATOM      8  O   UNL     1       5.304  -7.761  -8.123  1.00  0.00    -0.550 OA
ENDBRANCH   5   6
ENDBRANCH   4   5
ENDBRANCH   3   4
ENDBRANCH   2   3
ENDBRANCH   1   2
BRANCH   1   9
ATOM      9  C   UNL     1       6.928 -13.389  -3.898  1.00  0.00     0.000 C 
BRANCH   9  10
ATOM     10  C   UNL     1       7.477 -13.361  -2.461  1.00  0.00    -0.000 C 
BRANCH  10  11
ATOM     11  C   UNL     1       6.812 -12.276  -1.599  1.00  0.00    -0.000 C 
BRANCH  11  12
ATOM     12  C   UNL     1       7.499 -10.906  -1.742  1.00  0.00    -0.000 C 
BRANCH  12  13
ATOM     13  C   UNL     1       7.954 -10.332  -0.390  1.00  0.00    -0.003 C 
ATOM     14  C   UNL     1       9.128 -11.101   0.212  1.00  0.00     0.004 C 
ENDBRANCH  12  13
ENDBRANCH  11  12
ENDBRANCH  10  11
ENDBRANCH   9  10
ENDBRANCH   1   9
TORSDOF 10
ENDMDL
MODEL 7
REMARK VINA RESULT:    -4.617      3.596      6.631
REMARK INTER + INTRA:          -8.180
REMARK INTER:                  -7.699
REMARK INTRA:                  -0.481
REMARK UNBOUND:                -0.864
REMARK SMILES CCCCCCCCCCCC(=O)[O-]
REMARK SMILES IDX 7 1 8 2 9 3 10 4 11 5 12 6 13 7 14 8 6 9 5 10 4 11 3 12 2 13
REMARK SMILES IDX 1 14
REMARK H PARENT
REMARK Flexibility Score: inf
ROOT
ATOM      1  C   UNL     1       4.999 -13.328  -4.207  1.00  0.00     0.000 C 
ENDROOT
BRANCH   1   2
ATOM      2  C   UNL     1       4.184 -12.954  -5.454  1.00  0.00     0.000 C 
BRANCH   2   3
ATOM      3  C   UNL     1       4.714 -11.663  -6.090  1.00  0.00     0.000 C 
BRANCH   3   4
ATOM      4  C   UNL     1       3.710 -10.516  -5.926  1.00  0.00     0.006 C 
BRANCH   4   5
ATOM      5  C   UNL     1       2.655 -10.546  -7.036  1.00  0.00     0.053 C 
BRANCH   5   6
ATOM      6  C   UNL     1       2.854  -9.403  -7.980  1.00  0.00     0.041 C 
ATOM      7  O   UNL     1       3.960  -9.245  -8.559  1.00  0.00    -0.550 OA
ATOM      8  O   UNL     1       1.801  -8.541  -8.259  1.00  0.00    -0.550 OA
ENDBRANCH   5   6
ENDBRANCH   4   5
ENDBRANCH   3   4
ENDBRANCH   2   3
ENDBRANCH   1   2
BRANCH   1   9
ATOM      9  C   UNL     1       6.515 -13.223  -4.437  1.00  0.00     0.000 C 
BRANCH   9  10
ATOM     10  C   UNL     1       7.245 -12.544  -3.265  1.00  0.00    -0.000 C 
BRANCH  10  11
ATOM     11  C   UNL     1       7.034 -13.284  -1.935  1.00  0.00    -0.000 C 
BRANCH  11  12
ATOM     12  C   UNL     1       8.045 -12.858  -0.856  1.00  0.00    -0.000 C 
BRANCH  12  13
ATOM     13  C   UNL     1       8.173 -11.331  -0.739  1.00  0.00    -0.003 C 
ATOM     14  C   UNL     1       9.130 -10.903   0.372  1.00  0.00     0.004 C 
ENDBRANCH  12  13
ENDBRANCH  11  12
ENDBRANCH  10  11
ENDBRANCH   9  10
ENDBRANCH   1   9
TORSDOF 10
ENDMDL
MODEL 8
REMARK VINA RESULT:    -4.617      3.127      5.680
REMARK INTER + INTRA:          -8.180
REMARK INTER:                  -7.016
REMARK INTRA:                  -1.163
REMARK UNBOUND:                -0.864
REMARK SMILES CCCCCCCCCCCC(=O)[O-]
REMARK SMILES IDX 7 1 8 2 9 3 10 4 11 5 12 6 13 7 14 8 6 9 5 10 4 11 3 12 2 13
REMARK SMILES IDX 1 14
REMARK H PARENT
REMARK Flexibility Score: inf
ROOT
ATOM      1  C   UNL     1       5.913 -13.289  -4.465  1.00  0.00     0.000 C 
ENDROOT
BRANCH   1   2
ATOM      2  C   UNL     1       4.913 -12.125  -4.475  1.00  0.00     0.000 C 
BRANCH   2   3
ATOM      3  C   UNL     1       3.858 -12.296  -3.374  1.00  0.00     0.000 C 
BRANCH   3   4
ATOM      4  C   UNL     1       3.951 -13.687  -2.736  1.00  0.00     0.006 C 
BRANCH   4   5
ATOM      5  C   UNL     1       4.129 -13.585  -1.218  1.00  0.00     0.053 C 
BRANCH   5   6
ATOM      6  C   UNL     1       3.097 -14.406  -0.512  1.00  0.00     0.041 C 
ATOM      7  O   UNL     1       3.143 -14.541   0.739  1.00  0.00    -0.550 OA
ATOM      8  O   UNL     1       2.057 -14.982  -1.229  1.00  0.00    -0.550 OA
ENDBRANCH   5   6
ENDBRANCH   4   5
ENDBRANCH   3   4
ENDBRANCH   2   3
ENDBRANCH   1   2
BRANCH   1   9
ATOM      9  C   UNL     1       7.263 -12.904  -3.838  1.00  0.00     0.000 C 
BRANCH   9  10
ATOM     10  C   UNL     1       7.589 -13.731  -2.583  1.00  0.00    -0.000 C 
BRANCH  10  11
ATOM     11  C   UNL     1       7.736 -12.860  -1.326  1.00  0.00    -0.000 C 
BRANCH  11  12
ATOM     12  C   UNL     1       7.288 -11.406  -1.560  1.00  0.00    -0.000 C 
BRANCH  12  13
ATOM     13  C   UNL     1       8.004 -10.412  -0.632  1.00  0.00    -0.003 C 
ATOM     14  C   UNL     1       9.053 -11.083   0.253  1.00  0.00     0.004 C 
ENDBRANCH  12  13
ENDBRANCH  11  12
ENDBRANCH  10  11
ENDBRANCH   9  10
ENDBRANCH   1   9
TORSDOF 10
ENDMDL
MODEL 9
REMARK VINA RESULT:    -4.614      3.943      7.004
REMARK INTER + INTRA:          -8.175
REMARK INTER:                  -7.549
REMARK INTRA:                  -0.626
REMARK UNBOUND:                -0.864
REMARK SMILES CCCCCCCCCCCC(=O)[O-]
REMARK SMILES IDX 7 1 8 2 9 3 10 4 11 5 12 6 13 7 14 8 6 9 5 10 4 11 3 12 2 13
REMARK SMILES IDX 1 14
REMARK H PARENT
REMARK Flexibility Score: inf
ROOT
ATOM      1  C   UNL     1       6.228 -12.404  -3.642  1.00  0.00     0.000 C 
ENDROOT
BRANCH   1   2
ATOM      2  C   UNL     1       4.938 -12.977  -4.246  1.00  0.00     0.000 C 
BRANCH   2   3
ATOM      3  C   UNL     1       4.140 -13.760  -3.197  1.00  0.00     0.000 C 
BRANCH   3   4
ATOM      4  C   UNL     1       2.694 -13.981  -3.657  1.00  0.00     0.006 C 
BRANCH   4   5
ATOM      5  C   UNL     1       2.626 -14.197  -5.172  1.00  0.00     0.053 C 
BRANCH   5   6
ATOM      6  C   UNL     1       2.060 -15.546  -5.485  1.00  0.00     0.041 C 
ATOM      7  O   UNL     1       1.834 -16.368  -4.560  1.00  0.00    -0.550 OA
ATOM      8  O   UNL     1       1.736 -15.876  -6.795  1.00  0.00    -0.550 OA
ENDBRANCH   5   6
ENDBRANCH   4   5
ENDBRANCH   3   4
ENDBRANCH   2   3
ENDBRANCH   1   2
BRANCH   1   9
ATOM      9  C   UNL     1       7.339 -13.458  -3.510  1.00  0.00     0.000 C 
BRANCH   9  10
ATOM     10  C   UNL     1       7.687 -13.769  -2.044  1.00  0.00    -0.000 C 
BRANCH  10  11
ATOM     11  C   UNL     1       7.585 -12.531  -1.140  1.00  0.00    -0.000 C 
BRANCH  11  12
ATOM     12  C   UNL     1       8.773 -12.409  -0.169  1.00  0.00    -0.000 C 
BRANCH  12  13
ATOM     13  C   UNL     1       9.068 -10.952   0.221  1.00  0.00    -0.003 C 
ATOM     14  C   UNL     1       7.953  -9.993  -0.194  1.00  0.00     0.004 C 
ENDBRANCH  12  13
ENDBRANCH  11  12
ENDBRANCH  10  11
ENDBRANCH   9  10
ENDBRANCH   1   9
TORSDOF 10
ENDMDL
