MODEL 1
REMARK VINA RESULT:     4.641      0.000      0.000
REMARK INTER + INTRA:           8.321
REMARK INTER:                   8.439
REMARK INTRA:                  -0.118
REMARK UNBOUND:                -0.118
REMARK SMILES CCCCCCCCCCCCCCCC(=O)[O-]
REMARK SMILES IDX 9 1 10 2 11 3 12 4 13 5 14 6 15 7 16 8 17 9 18 10 8 11 7 12
REMARK SMILES IDX 6 13 5 14 4 15 3 16 2 17 1 18
REMARK H PARENT
REMARK Flexibility Score: inf
ROOT
ATOM      1  C   UNL     1      12.122  -0.503 -17.142  1.00  0.00     0.000 C 
ENDROOT
BRANCH   1   2
ATOM      2  C   UNL     1      11.918  -1.630 -16.117  1.00  0.00     0.000 C 
BRANCH   2   3
ATOM      3  C   UNL     1      10.723  -2.533 -16.467  1.00  0.00     0.000 C 
BRANCH   3   4
ATOM      4  C   UNL     1      11.096  -4.024 -16.478  1.00  0.00     0.000 C 
BRANCH   4   5
ATOM      5  C   UNL     1      11.455  -4.533 -17.885  1.00  0.00     0.000 C 
BRANCH   5   6
ATOM      6  C   UNL     1      12.132  -5.912 -17.860  1.00  0.00     0.006 C 
BRANCH   6   7
ATOM      7  C   UNL     1      13.029  -6.151 -19.081  1.00  0.00     0.053 C 
BRANCH   7   8
ATOM      8  C   UNL     1      14.409  -6.531 -18.647  1.00  0.00     0.041 C 
ATOM      9  O   UNL     1      15.407  -6.192 -19.336  1.00  0.00    -0.550 OA
ATOM     10  O   UNL     1      14.591  -7.304 -17.507  1.00  0.00    -0.550 OA
ENDBRANCH   7   8
ENDBRANCH   6   7
ENDBRANCH   5   6
ENDBRANCH   4   5
ENDBRANCH   3   4
ENDBRANCH   2   3
ENDBRANCH   1   2
BRANCH   1  11
ATOM     11  C   UNL     1      13.604  -0.284 -17.491  1.00  0.00     0.000 C 
BRANCH  11  12
ATOM     12  C   UNL     1      13.834   1.046 -18.242  1.00  0.00    -0.000 C 
BRANCH  12  13
ATOM     13  C   UNL     1      13.390   2.291 -17.450  1.00  0.00    -0.000 C 
BRANCH  13  14
ATOM     14  C   UNL     1      12.762   2.002 -16.075  1.00  0.00    -0.000 C 
BRANCH  14  15
ATOM     15  C   UNL     1      11.318   2.518 -15.959  1.00  0.00    -0.000 C 
BRANCH  15  16
ATOM     16  C   UNL     1      10.771   2.439 -14.522  1.00  0.00    -0.000 C 
BRANCH  16  17
ATOM     17  C   UNL     1      10.716   1.021 -13.926  1.00  0.00    -0.003 C 
ATOM     18  C   UNL     1       9.388   0.713 -13.235  1.00  0.00     0.004 C 
ENDBRANCH  16  17
ENDBRANCH  15  16
ENDBRANCH  14  15
ENDBRANCH  13  14
ENDBRANCH  12  13
ENDBRANCH  11  12
ENDBRANCH   1  11
TORSDOF 14
ENDMDL
MODEL 2
REMARK VINA RESULT:     5.222      3.730      8.044
REMARK INTER + INTRA:           9.378
REMARK INTER:                   9.849
REMARK INTRA:                  -0.471
REMARK UNBOUND:                -0.118
REMARK SMILES CCCCCCCCCCCCCCCC(=O)[O-]
REMARK SMILES IDX 9 1 10 2 11 3 12 4 13 5 14 6 15 7 16 8 17 9 18 10 8 11 7 12
REMARK SMILES IDX 6 13 5 14 4 15 3 16 2 17 1 18
REMARK H PARENT
REMARK Flexibility Score: inf
ROOT
ATOM      1  C   UNL     1      12.282  -0.775 -17.371  1.00  0.00     0.000 C 
ENDROOT
BRANCH   1   2
ATOM      2  C   UNL     1      13.726  -0.262 -17.260  1.00  0.00     0.000 C 
BRANCH   2   3
ATOM      3  C   UNL     1      13.977   0.981 -18.133  1.00  0.00     0.000 C 
BRANCH   3   4
ATOM      4  C   UNL     1      13.005   2.129 -17.815  1.00  0.00     0.000 C 
BRANCH   4   5
ATOM      5  C   UNL     1      12.920   2.430 -16.308  1.00  0.00     0.000 C 
BRANCH   5   6
ATOM      6  C   UNL     1      11.474   2.455 -15.791  1.00  0.00     0.006 C 
BRANCH   6   7
ATOM      7  C   UNL     1      11.103   1.184 -15.016  1.00  0.00     0.053 C 
BRANCH   7   8
ATOM      8  C   UNL     1      10.323   1.532 -13.787  1.00  0.00     0.041 C 
ATOM      9  O   UNL     1       9.561   0.681 -13.258  1.00  0.00    -0.550 OA
ATOM     10  O   UNL     1      10.401   2.813 -13.255  1.00  0.00    -0.550 OA
ENDBRANCH   7   8
ENDBRANCH   6   7
ENDBRANCH   5   6
ENDBRANCH   4   5
ENDBRANCH   3   4
ENDBRANCH   2   3
ENDBRANCH   1   2
BRANCH   1  11
ATOM     11  C   UNL     1      11.905  -1.728 -16.223  1.00  0.00     0.000 C 
BRANCH  11  12
ATOM     12  C   UNL     1      10.758  -2.684 -16.615  1.00  0.00    -0.000 C 
BRANCH  12  13
ATOM     13  C   UNL     1      11.152  -4.173 -16.586  1.00  0.00    -0.000 C 
BRANCH  13  14
ATOM     14  C   UNL     1      11.403  -4.809 -17.964  1.00  0.00    -0.000 C 
BRANCH  14  15
ATOM     15  C   UNL     1      12.399  -5.980 -17.908  1.00  0.00    -0.000 C 
BRANCH  15  16
ATOM     16  C   UNL     1      13.338  -6.022 -19.128  1.00  0.00    -0.000 C 
BRANCH  16  17
ATOM     17  C   UNL     1      14.800  -6.382 -18.810  1.00  0.00    -0.003 C 
ATOM     18  C   UNL     1      14.931  -7.606 -17.904  1.00  0.00     0.004 C 
ENDBRANCH  16  17
ENDBRANCH  15  16
ENDBRANCH  14  15
ENDBRANCH  13  14
ENDBRANCH  12  13
ENDBRANCH  11  12
ENDBRANCH   1  11
TORSDOF 14
ENDMDL
MODEL 3
REMARK VINA RESULT:     5.269      0.767      3.229
REMARK INTER + INTRA:           9.464
REMARK INTER:                  10.181
REMARK INTRA:                  -0.717
REMARK UNBOUND:                -0.118
REMARK SMILES CCCCCCCCCCCCCCCC(=O)[O-]
REMARK SMILES IDX 9 1 10 2 11 3 12 4 13 5 14 6 15 7 16 8 17 9 18 10 8 11 7 12
REMARK SMILES IDX 6 13 5 14 4 15 3 16 2 17 1 18
REMARK H PARENT
REMARK Flexibility Score: inf
ROOT
ATOM      1  C   UNL     1      11.877  -0.724 -15.007  1.00  0.00     0.000 C 
ENDROOT
BRANCH   1   2
ATOM      2  C   UNL     1      11.824  -1.523 -16.319  1.00  0.00     0.000 C 
BRANCH   2   3
ATOM      3  C   UNL     1      10.658  -2.527 -16.347  1.00  0.00     0.000 C 
BRANCH   3   4
ATOM      4  C   UNL     1      11.140  -3.987 -16.381  1.00  0.00     0.000 C 
BRANCH   4   5
ATOM      5  C   UNL     1      11.495  -4.459 -17.802  1.00  0.00     0.000 C 
BRANCH   5   6
ATOM      6  C   UNL     1      12.096  -5.872 -17.821  1.00  0.00     0.006 C 
BRANCH   6   7
ATOM      7  C   UNL     1      12.969  -6.124 -19.057  1.00  0.00     0.053 C 
BRANCH   7   8
ATOM      8  C   UNL     1      14.360  -6.494 -18.647  1.00  0.00     0.041 C 
ATOM      9  O   UNL     1      15.341  -6.166 -19.365  1.00  0.00    -0.550 OA
ATOM     10  O   UNL     1      14.568  -7.243 -17.496  1.00  0.00    -0.550 OA
ENDBRANCH   7   8
ENDBRANCH   6   7
ENDBRANCH   5   6
ENDBRANCH   4   5
ENDBRANCH   3   4
ENDBRANCH   2   3
ENDBRANCH   1   2
BRANCH   1  11
ATOM     11  C   UNL     1      10.568   0.033 -14.723  1.00  0.00     0.000 C 
BRANCH  11  12
ATOM     12  C   UNL     1      10.818   1.372 -13.996  1.00  0.00    -0.000 C 
BRANCH  12  13
ATOM     13  C   UNL     1      11.223   2.524 -14.936  1.00  0.00    -0.000 C 
BRANCH  13  14
ATOM     14  C   UNL     1      11.516   2.109 -16.389  1.00  0.00    -0.000 C 
BRANCH  14  15
ATOM     15  C   UNL     1      13.018   2.116 -16.719  1.00  0.00    -0.000 C 
BRANCH  15  16
ATOM     16  C   UNL     1      13.355   1.298 -17.980  1.00  0.00    -0.000 C 
BRANCH  16  17
ATOM     17  C   UNL     1      14.586   0.384 -17.851  1.00  0.00    -0.003 C 
ATOM     18  C   UNL     1      15.559   0.523 -19.022  1.00  0.00     0.004 C 
ENDBRANCH  16  17
ENDBRANCH  15  16
ENDBRANCH  14  15
ENDBRANCH  13  14
ENDBRANCH  12  13
ENDBRANCH  11  12
ENDBRANCH   1  11
TORSDOF 14
ENDMDL
MODEL 4
REMARK VINA RESULT:     5.461      0.753      1.037
REMARK INTER + INTRA:           9.812
REMARK INTER:                  10.781
REMARK INTRA:                  -0.969
REMARK UNBOUND:                -0.118
REMARK SMILES CCCCCCCCCCCCCCCC(=O)[O-]
REMARK SMILES IDX 9 1 10 2 11 3 12 4 13 5 14 6 15 7 16 8 17 9 18 10 8 11 7 12
REMARK SMILES IDX 6 13 5 14 4 15 3 16 2 17 1 18
REMARK H PARENT
REMARK Flexibility Score: inf
ROOT
ATOM      1  C   UNL     1      11.727  -1.546 -17.346  1.00  0.00     0.000 C 
ENDROOT
BRANCH   1   2
ATOM      2  C   UNL     1      10.855  -2.220 -16.275  1.00  0.00     0.000 C 
BRANCH   2   3
ATOM      3  C   UNL     1      10.922  -3.756 -16.345  1.00  0.00     0.000 C 
BRANCH   3   4
ATOM      4  C   UNL     1      11.450  -4.261 -17.697  1.00  0.00     0.000 C 
BRANCH   4   5
ATOM      5  C   UNL     1      11.994  -5.698 -17.620  1.00  0.00     0.000 C 
BRANCH   5   6
ATOM      6  C   UNL     1      12.647  -6.154 -18.934  1.00  0.00     0.006 C 
BRANCH   6   7
ATOM      7  C   UNL     1      14.178  -6.056 -18.896  1.00  0.00     0.053 C 
BRANCH   7   8
ATOM      8  C   UNL     1      14.753  -7.184 -18.100  1.00  0.00     0.041 C 
ATOM      9  O   UNL     1      15.176  -8.219 -18.680  1.00  0.00    -0.550 OA
ATOM     10  O   UNL     1      14.778  -7.114 -16.712  1.00  0.00    -0.550 OA
ENDBRANCH   7   8
ENDBRANCH   6   7
ENDBRANCH   5   6
ENDBRANCH   4   5
ENDBRANCH   3   4
ENDBRANCH   2   3
ENDBRANCH   1   2
BRANCH   1  11
ATOM     11  C   UNL     1      12.814  -0.642 -16.738  1.00  0.00     0.000 C 
BRANCH  11  12
ATOM     12  C   UNL     1      13.463   0.277 -17.795  1.00  0.00    -0.000 C 
BRANCH  12  13
ATOM     13  C   UNL     1      13.261   1.780 -17.520  1.00  0.00    -0.000 C 
BRANCH  13  14
ATOM     14  C   UNL     1      12.800   2.127 -16.094  1.00  0.00    -0.000 C 
BRANCH  14  15
ATOM     15  C   UNL     1      11.324   2.557 -16.033  1.00  0.00    -0.000 C 
BRANCH  15  16
ATOM     16  C   UNL     1      10.713   2.395 -14.629  1.00  0.00    -0.000 C 
BRANCH  16  17
ATOM     17  C   UNL     1      10.708   0.955 -14.086  1.00  0.00    -0.003 C 
ATOM     18  C   UNL     1       9.544   0.679 -13.135  1.00  0.00     0.004 C 
ENDBRANCH  16  17
ENDBRANCH  15  16
ENDBRANCH  14  15
ENDBRANCH  13  14
ENDBRANCH  12  13
ENDBRANCH  11  12
ENDBRANCH   1  11
TORSDOF 14
ENDMDL
MODEL 5
REMARK VINA RESULT:     5.880      1.395      3.426
REMARK INTER + INTRA:          10.575
REMARK INTER:                  11.631
REMARK INTRA:                  -1.056
REMARK UNBOUND:                -0.118
REMARK SMILES CCCCCCCCCCCCCCCC(=O)[O-]
REMARK SMILES IDX 9 1 10 2 11 3 12 4 13 5 14 6 15 7 16 8 17 9 18 10 8 11 7 12
REMARK SMILES IDX 6 13 5 14 4 15 3 16 2 17 1 18
REMARK H PARENT
REMARK Flexibility Score: inf
ROOT
ATOM      1  C   UNL     1      11.877  -1.494 -17.011  1.00  0.00     0.000 C 
ENDROOT
BRANCH   1   2
ATOM      2  C   UNL     1      10.757  -2.330 -16.372  1.00  0.00     0.000 C 
BRANCH   2   3
ATOM      3  C   UNL     1      11.071  -3.837 -16.381  1.00  0.00     0.000 C 
BRANCH   3   4
ATOM      4  C   UNL     1      11.520  -4.336 -17.764  1.00  0.00     0.000 C 
BRANCH   4   5
ATOM      5  C   UNL     1      12.102  -5.759 -17.718  1.00  0.00     0.000 C 
BRANCH   5   6
ATOM      6  C   UNL     1      12.831  -6.142 -19.014  1.00  0.00     0.006 C 
BRANCH   6   7
ATOM      7  C   UNL     1      14.354  -6.205 -18.837  1.00  0.00     0.053 C 
BRANCH   7   8
ATOM      8  C   UNL     1      14.726  -7.325 -17.919  1.00  0.00     0.041 C 
ATOM      9  O   UNL     1      14.840  -8.498 -18.362  1.00  0.00    -0.550 OA
ATOM     10  O   UNL     1      14.899  -7.082 -16.561  1.00  0.00    -0.550 OA
ENDBRANCH   7   8
ENDBRANCH   6   7
ENDBRANCH   5   6
ENDBRANCH   4   5
ENDBRANCH   3   4
ENDBRANCH   2   3
ENDBRANCH   1   2
BRANCH   1  11
ATOM     11  C   UNL     1      12.508  -0.499 -16.021  1.00  0.00     0.000 C 
BRANCH  11  12
ATOM     12  C   UNL     1      11.562   0.676 -15.695  1.00  0.00    -0.000 C 
BRANCH  12  13
ATOM     13  C   UNL     1      12.127   2.056 -16.084  1.00  0.00    -0.000 C 
BRANCH  13  14
ATOM     14  C   UNL     1      13.502   2.028 -16.773  1.00  0.00    -0.000 C 
BRANCH  14  15
ATOM     15  C   UNL     1      13.409   2.212 -18.297  1.00  0.00    -0.000 C 
BRANCH  15  16
ATOM     16  C   UNL     1      13.917   0.986 -19.078  1.00  0.00    -0.000 C 
BRANCH  16  17
ATOM     17  C   UNL     1      15.180   0.326 -18.499  1.00  0.00    -0.003 C 
ATOM     18  C   UNL     1      16.451   0.690 -19.267  1.00  0.00     0.004 C 
ENDBRANCH  16  17
ENDBRANCH  15  16
ENDBRANCH  14  15
ENDBRANCH  13  14
ENDBRANCH  12  13
ENDBRANCH  11  12
ENDBRANCH   1  11
TORSDOF 14
ENDMDL
MODEL 6
REMARK VINA RESULT:     5.908      2.508      7.126
REMARK INTER + INTRA:          10.626
REMARK INTER:                  10.571
REMARK INTRA:                   0.055
REMARK UNBOUND:                -0.118
REMARK SMILES CCCCCCCCCCCCCCCC(=O)[O-]
REMARK SMILES IDX 9 1 10 2 11 3 12 4 13 5 14 6 15 7 16 8 17 9 18 10 8 11 7 12
REMARK SMILES IDX 6 13 5 14 4 15 3 16 2 17 1 18
REMARK H PARENT
REMARK Flexibility Score: inf
ROOT
ATOM      1  C   UNL     1      12.025  -0.748 -15.515  1.00  0.00     0.000 C 
ENDROOT
BRANCH   1   2
ATOM      2  C   UNL     1      10.840  -0.091 -14.788  1.00  0.00     0.000 C 
BRANCH   2   3
ATOM      3  C   UNL     1      11.087   1.398 -14.490  1.00  0.00     0.000 C 
BRANCH   3   4
ATOM      4  C   UNL     1      11.234   2.238 -15.769  1.00  0.00     0.000 C 
BRANCH   4   5
ATOM      5  C   UNL     1      12.641   2.135 -16.384  1.00  0.00     0.000 C 
BRANCH   5   6
ATOM      6  C   UNL     1      12.642   1.405 -17.736  1.00  0.00     0.006 C 
BRANCH   6   7
ATOM      7  C   UNL     1      13.889   1.715 -18.573  1.00  0.00     0.053 C 
BRANCH   7   8
ATOM      8  C   UNL     1      14.939   0.672 -18.350  1.00  0.00     0.041 C 
ATOM      9  O   UNL     1      15.104   0.173 -17.207  1.00  0.00    -0.550 OA
ATOM     10  O   UNL     1      15.768   0.287 -19.397  1.00  0.00    -0.550 OA
ENDBRANCH   7   8
ENDBRANCH   6   7
ENDBRANCH   5   6
ENDBRANCH   4   5
ENDBRANCH   3   4
ENDBRANCH   2   3
ENDBRANCH   1   2
BRANCH   1  11
ATOM     11  C   UNL     1      11.586  -1.550 -16.753  1.00  0.00     0.000 C 
BRANCH  11  12
ATOM     12  C   UNL     1      10.669  -2.736 -16.381  1.00  0.00    -0.000 C 
BRANCH  12  13
ATOM     13  C   UNL     1      11.357  -4.111 -16.485  1.00  0.00    -0.000 C 
BRANCH  13  14
ATOM     14  C   UNL     1      11.431  -4.697 -17.906  1.00  0.00    -0.000 C 
BRANCH  14  15
ATOM     15  C   UNL     1      12.264  -5.989 -17.975  1.00  0.00    -0.000 C 
BRANCH  15  16
ATOM     16  C   UNL     1      13.214  -6.022 -19.186  1.00  0.00    -0.000 C 
BRANCH  16  17
ATOM     17  C   UNL     1      14.692  -6.281 -18.844  1.00  0.00    -0.003 C 
ATOM     18  C   UNL     1      14.903  -7.561 -18.037  1.00  0.00     0.004 C 
ENDBRANCH  16  17
ENDBRANCH  15  16
ENDBRANCH  14  15
ENDBRANCH  13  14
ENDBRANCH  12  13
ENDBRANCH  11  12
ENDBRANCH   1  11
TORSDOF 14
ENDMDL
MODEL 7
REMARK VINA RESULT:     7.442      6.864      9.583
REMARK INTER + INTRA:          13.415
REMARK INTER:                  13.905
REMARK INTRA:                  -0.490
REMARK UNBOUND:                -0.118
REMARK SMILES CCCCCCCCCCCCCCCC(=O)[O-]
REMARK SMILES IDX 9 1 10 2 11 3 12 4 13 5 14 6 15 7 16 8 17 9 18 10 8 11 7 12
REMARK SMILES IDX 6 13 5 14 4 15 3 16 2 17 1 18
REMARK H PARENT
REMARK Flexibility Score: inf
ROOT
ATOM      1  C   UNL     1       7.320   1.298 -14.015  1.00  0.00     0.000 C 
ENDROOT
BRANCH   1   2
ATOM      2  C   UNL     1       6.040   1.846 -13.364  1.00  0.00     0.000 C 
BRANCH   2   3
ATOM      3  C   UNL     1       4.763   1.309 -14.035  1.00  0.00     0.000 C 
BRANCH   3   4
ATOM      4  C   UNL     1       3.744   0.775 -13.016  1.00  0.00     0.000 C 
BRANCH   4   5
ATOM      5  C   UNL     1       2.296   0.853 -13.532  1.00  0.00     0.000 C 
BRANCH   5   6
ATOM      6  C   UNL     1       2.093   0.075 -14.841  1.00  0.00     0.006 C 
BRANCH   6   7
ATOM      7  C   UNL     1       0.614  -0.190 -15.146  1.00  0.00     0.053 C 
BRANCH   7   8
ATOM      8  C   UNL     1       0.457  -0.748 -16.525  1.00  0.00     0.041 C 
ATOM      9  O   UNL     1       0.890  -1.899 -16.796  1.00  0.00    -0.550 OA
ATOM     10  O   UNL     1      -0.124   0.022 -17.525  1.00  0.00    -0.550 OA
ENDBRANCH   7   8
ENDBRANCH   6   7
ENDBRANCH   5   6
ENDBRANCH   4   5
ENDBRANCH   3   4
ENDBRANCH   2   3
ENDBRANCH   1   2
BRANCH   1  11
ATOM     11  C   UNL     1       8.507   1.253 -13.037  1.00  0.00     0.000 C 
BRANCH  11  12
ATOM     12  C   UNL     1       9.837   0.933 -13.752  1.00  0.00    -0.000 C 
BRANCH  12  13
ATOM     13  C   UNL     1      10.630   2.184 -14.179  1.00  0.00    -0.000 C 
BRANCH  13  14
ATOM     14  C   UNL     1      11.380   2.057 -15.516  1.00  0.00    -0.000 C 
BRANCH  14  15
ATOM     15  C   UNL     1      11.902   0.634 -15.774  1.00  0.00    -0.000 C 
BRANCH  15  16
ATOM     16  C   UNL     1      12.385   0.429 -17.222  1.00  0.00    -0.000 C 
BRANCH  16  17
ATOM     17  C   UNL     1      13.489   1.397 -17.681  1.00  0.00    -0.003 C 
ATOM     18  C   UNL     1      14.826   0.702 -17.938  1.00  0.00     0.004 C 
ENDBRANCH  16  17
ENDBRANCH  15  16
ENDBRANCH  14  15
ENDBRANCH  13  14
ENDBRANCH  12  13
ENDBRANCH  11  12
ENDBRANCH   1  11
TORSDOF 14
ENDMDL
