MODEL 1
REMARK VINA RESULT:     1.868      0.000      0.000
REMARK INTER + INTRA:           3.595
REMARK INTER:                   4.052
REMARK INTRA:                  -0.456
REMARK UNBOUND:                -0.456
REMARK SMILES CCCCCCCCCCCCCCCCCCCCCC(=O)[O-]
REMARK SMILES IDX 12 1 11 2 10 3 9 4 8 5 7 6 6 7 5 8 4 9 3 10 2 11 1 12 13 13
REMARK SMILES IDX 14 14 15 15 16 16 17 17 18 18 19 19 20 20 21 21 22 22 23 23
REMARK SMILES IDX 24 24
REMARK H PARENT
REMARK Flexibility Score: inf
ROOT
ATOM      1  C   UNL     1      -5.208  35.463  21.796  1.00  0.00     0.000 C 
ENDROOT
BRANCH   1   2
ATOM      2  C   UNL     1      -6.087  34.385  21.142  1.00  0.00     0.000 C 
BRANCH   2   3
ATOM      3  C   UNL     1      -6.051  34.441  19.605  1.00  0.00     0.000 C 
BRANCH   3   4
ATOM      4  C   UNL     1      -4.679  34.875  19.061  1.00  0.00    -0.000 C 
BRANCH   4   5
ATOM      5  C   UNL     1      -4.415  34.362  17.635  1.00  0.00    -0.000 C 
BRANCH   5   6
ATOM      6  C   UNL     1      -3.797  35.437  16.724  1.00  0.00    -0.000 C 
BRANCH   6   7
ATOM      7  C   UNL     1      -2.398  35.098  16.173  1.00  0.00    -0.000 C 
BRANCH   7   8
ATOM      8  C   UNL     1      -1.966  35.985  14.986  1.00  0.00    -0.000 C 
BRANCH   8   9
ATOM      9  C   UNL     1      -3.077  36.122  13.928  1.00  0.00    -0.000 C 
BRANCH   9  10
ATOM     10  C   UNL     1      -4.259  36.969  14.427  1.00  0.00    -0.000 C 
BRANCH  10  11
ATOM     11  C   UNL     1      -3.837  38.394  14.814  1.00  0.00    -0.003 C 
ATOM     12  C   UNL     1      -4.843  39.423  14.307  1.00  0.00     0.004 C 
ENDBRANCH  10  11
ENDBRANCH   9  10
ENDBRANCH   8   9
ENDBRANCH   7   8
ENDBRANCH   6   7
ENDBRANCH   5   6
ENDBRANCH   4   5
ENDBRANCH   3   4
ENDBRANCH   2   3
ENDBRANCH   1   2
BRANCH   1  13
ATOM     13  C   UNL     1      -4.883  35.150  23.268  1.00  0.00     0.000 C 
BRANCH  13  14
ATOM     14  C   UNL     1      -6.102  34.620  24.042  1.00  0.00     0.000 C 
BRANCH  14  15
ATOM     15  C   UNL     1      -6.063  35.011  25.530  1.00  0.00     0.000 C 
BRANCH  15  16
ATOM     16  C   UNL     1      -6.124  36.534  25.754  1.00  0.00     0.000 C 
BRANCH  16  17
ATOM     17  C   UNL     1      -4.763  37.253  25.729  1.00  0.00     0.000 C 
BRANCH  17  18
ATOM     18  C   UNL     1      -4.747  38.598  24.977  1.00  0.00     0.000 C 
BRANCH  18  19
ATOM     19  C   UNL     1      -5.787  38.687  23.840  1.00  0.00     0.000 C 
BRANCH  19  20
ATOM     20  C   UNL     1      -5.542  39.888  22.912  1.00  0.00     0.006 C 
BRANCH  20  21
ATOM     21  C   UNL     1      -6.102  39.659  21.501  1.00  0.00     0.053 C 
BRANCH  21  22
ATOM     22  C   UNL     1      -5.271  38.689  20.720  1.00  0.00     0.041 C 
ATOM     23  O   UNL     1      -4.050  38.543  20.986  1.00  0.00    -0.550 OA
ATOM     24  O   UNL     1      -5.854  37.919  19.723  1.00  0.00    -0.550 OA
ENDBRANCH  21  22
ENDBRANCH  20  21
ENDBRANCH  19  20
ENDBRANCH  18  19
ENDBRANCH  17  18
ENDBRANCH  16  17
ENDBRANCH  15  16
ENDBRANCH  14  15
ENDBRANCH  13  14
ENDBRANCH   1  13
TORSDOF 20
ENDMDL
MODEL 2
REMARK VINA RESULT:     3.376      1.976      7.255
REMARK INTER + INTRA:           6.867
REMARK INTER:                   5.716
REMARK INTRA:                   1.151
REMARK UNBOUND:                -0.456
REMARK SMILES CCCCCCCCCCCCCCCCCCCCCC(=O)[O-]
REMARK SMILES IDX 12 1 11 2 10 3 9 4 8 5 7 6 6 7 5 8 4 9 3 10 2 11 1 12 13 13
REMARK SMILES IDX 14 14 15 15 16 16 17 17 18 18 19 19 20 20 21 21 22 22 23 23
REMARK SMILES IDX 24 24
REMARK H PARENT
REMARK Flexibility Score: inf
ROOT
ATOM      1  C   UNL     1      -5.773  34.428  23.814  1.00  0.00     0.000 C 
ENDROOT
BRANCH   1   2
ATOM      2  C   UNL     1      -6.125  35.898  24.098  1.00  0.00     0.000 C 
BRANCH   2   3
ATOM      3  C   UNL     1      -5.983  36.266  25.584  1.00  0.00     0.000 C 
BRANCH   3   4
ATOM      4  C   UNL     1      -4.539  36.125  26.094  1.00  0.00    -0.000 C 
BRANCH   4   5
ATOM      5  C   UNL     1      -3.815  37.477  26.215  1.00  0.00    -0.000 C 
BRANCH   5   6
ATOM      6  C   UNL     1      -4.756  38.674  25.992  1.00  0.00    -0.000 C 
BRANCH   6   7
ATOM      7  C   UNL     1      -5.527  38.656  24.657  1.00  0.00    -0.000 C 
BRANCH   7   8
ATOM      8  C   UNL     1      -5.092  39.763  23.673  1.00  0.00    -0.000 C 
BRANCH   8   9
ATOM      9  C   UNL     1      -6.057  39.892  22.481  1.00  0.00    -0.000 C 
BRANCH   9  10
ATOM     10  C   UNL     1      -5.939  38.713  21.501  1.00  0.00    -0.000 C 
BRANCH  10  11
ATOM     11  C   UNL     1      -5.079  39.055  20.275  1.00  0.00    -0.003 C 
ATOM     12  C   UNL     1      -5.048  37.893  19.285  1.00  0.00     0.004 C 
ENDBRANCH  10  11
ENDBRANCH   9  10
ENDBRANCH   8   9
ENDBRANCH   7   8
ENDBRANCH   6   7
ENDBRANCH   5   6
ENDBRANCH   4   5
ENDBRANCH   3   4
ENDBRANCH   2   3
ENDBRANCH   1   2
BRANCH   1  13
ATOM     13  C   UNL     1      -5.846  34.080  22.317  1.00  0.00     0.000 C 
BRANCH  13  14
ATOM     14  C   UNL     1      -5.021  35.043  21.446  1.00  0.00     0.000 C 
BRANCH  14  15
ATOM     15  C   UNL     1      -5.799  35.519  20.206  1.00  0.00     0.000 C 
BRANCH  15  16
ATOM     16  C   UNL     1      -6.066  34.389  19.193  1.00  0.00     0.000 C 
BRANCH  16  17
ATOM     17  C   UNL     1      -4.864  34.005  18.310  1.00  0.00     0.000 C 
BRANCH  17  18
ATOM     18  C   UNL     1      -4.217  35.173  17.542  1.00  0.00     0.000 C 
BRANCH  18  19
ATOM     19  C   UNL     1      -3.432  34.732  16.288  1.00  0.00     0.000 C 
BRANCH  19  20
ATOM     20  C   UNL     1      -2.555  35.860  15.717  1.00  0.00     0.006 C 
BRANCH  20  21
ATOM     21  C   UNL     1      -2.961  36.247  14.288  1.00  0.00     0.053 C 
BRANCH  21  22
ATOM     22  C   UNL     1      -4.074  37.248  14.274  1.00  0.00     0.041 C 
ATOM     23  O   UNL     1      -3.850  38.449  14.578  1.00  0.00    -0.550 OA
ATOM     24  O   UNL     1      -5.351  36.864  13.890  1.00  0.00    -0.550 OA
ENDBRANCH  21  22
ENDBRANCH  20  21
ENDBRANCH  19  20
ENDBRANCH  18  19
ENDBRANCH  17  18
ENDBRANCH  16  17
ENDBRANCH  15  16
ENDBRANCH  14  15
ENDBRANCH  13  14
ENDBRANCH   1  13
TORSDOF 20
ENDMDL
MODEL 3
REMARK VINA RESULT:     4.505      3.583      5.143
REMARK INTER + INTRA:           9.315
REMARK INTER:                  10.570
REMARK INTRA:                  -1.255
REMARK UNBOUND:                -0.456
REMARK SMILES CCCCCCCCCCCCCCCCCCCCCC(=O)[O-]
REMARK SMILES IDX 12 1 11 2 10 3 9 4 8 5 7 6 6 7 5 8 4 9 3 10 2 11 1 12 13 13
REMARK SMILES IDX 14 14 15 15 16 16 17 17 18 18 19 19 20 20 21 21 22 22 23 23
REMARK SMILES IDX 24 24
REMARK H PARENT
REMARK Flexibility Score: inf
ROOT
ATOM      1  C   UNL     1      -5.266  35.009  22.788  1.00  0.00     0.000 C 
ENDROOT
BRANCH   1   2
ATOM      2  C   UNL     1      -6.118  36.055  22.052  1.00  0.00     0.000 C 
BRANCH   2   3
ATOM      3  C   UNL     1      -5.409  37.414  21.921  1.00  0.00     0.000 C 
BRANCH   3   4
ATOM      4  C   UNL     1      -5.623  38.062  20.542  1.00  0.00    -0.000 C 
BRANCH   4   5
ATOM      5  C   UNL     1      -5.524  37.050  19.387  1.00  0.00    -0.000 C 
BRANCH   5   6
ATOM      6  C   UNL     1      -4.238  36.207  19.447  1.00  0.00    -0.000 C 
BRANCH   6   7
ATOM      7  C   UNL     1      -4.418  34.718  19.094  1.00  0.00    -0.000 C 
BRANCH   7   8
ATOM      8  C   UNL     1      -4.670  34.460  17.594  1.00  0.00    -0.000 C 
BRANCH   8   9
ATOM      9  C   UNL     1      -4.191  35.631  16.715  1.00  0.00    -0.000 C 
BRANCH   9  10
ATOM     10  C   UNL     1      -2.939  35.275  15.896  1.00  0.00    -0.000 C 
BRANCH  10  11
ATOM     11  C   UNL     1      -2.712  36.242  14.725  1.00  0.00    -0.003 C 
ATOM     12  C   UNL     1      -3.963  37.071  14.446  1.00  0.00     0.004 C 
ENDBRANCH  10  11
ENDBRANCH   9  10
ENDBRANCH   8   9
ENDBRANCH   7   8
ENDBRANCH   6   7
ENDBRANCH   5   6
ENDBRANCH   4   5
ENDBRANCH   3   4
ENDBRANCH   2   3
ENDBRANCH   1   2
BRANCH   1  13
ATOM     13  C   UNL     1      -6.063  34.241  23.858  1.00  0.00     0.000 C 
BRANCH  13  14
ATOM     14  C   UNL     1      -6.123  34.990  25.200  1.00  0.00     0.000 C 
BRANCH  14  15
ATOM     15  C   UNL     1      -5.014  36.051  25.326  1.00  0.00     0.000 C 
BRANCH  15  16
ATOM     16  C   UNL     1      -5.504  37.357  25.979  1.00  0.00     0.000 C 
BRANCH  16  17
ATOM     17  C   UNL     1      -4.396  38.253  26.560  1.00  0.00     0.000 C 
BRANCH  17  18
ATOM     18  C   UNL     1      -2.957  37.822  26.216  1.00  0.00     0.000 C 
BRANCH  18  19
ATOM     19  C   UNL     1      -2.046  37.657  27.451  1.00  0.00     0.000 C 
BRANCH  19  20
ATOM     20  C   UNL     1      -1.457  36.240  27.562  1.00  0.00     0.006 C 
BRANCH  20  21
ATOM     21  C   UNL     1      -2.338  35.307  28.404  1.00  0.00     0.053 C 
BRANCH  21  22
ATOM     22  C   UNL     1      -1.524  34.425  29.298  1.00  0.00     0.041 C 
ATOM     23  O   UNL     1      -0.428  33.953  28.897  1.00  0.00    -0.550 OA
ATOM     24  O   UNL     1      -1.957  34.153  30.589  1.00  0.00    -0.550 OA
ENDBRANCH  21  22
ENDBRANCH  20  21
ENDBRANCH  19  20
ENDBRANCH  18  19
ENDBRANCH  17  18
ENDBRANCH  16  17
ENDBRANCH  15  16
ENDBRANCH  14  15
ENDBRANCH  13  14
ENDBRANCH   1  13
TORSDOF 20
ENDMDL
MODEL 4
REMARK VINA RESULT:     4.519      3.594      4.837
REMARK INTER + INTRA:           9.346
REMARK INTER:                   9.973
REMARK INTRA:                  -0.627
REMARK UNBOUND:                -0.456
REMARK SMILES CCCCCCCCCCCCCCCCCCCCCC(=O)[O-]
REMARK SMILES IDX 12 1 11 2 10 3 9 4 8 5 7 6 6 7 5 8 4 9 3 10 2 11 1 12 13 13
REMARK SMILES IDX 14 14 15 15 16 16 17 17 18 18 19 19 20 20 21 21 22 22 23 23
REMARK SMILES IDX 24 24
REMARK H PARENT
REMARK Flexibility Score: inf
ROOT
ATOM      1  C   UNL     1      -4.480  34.689  22.783  1.00  0.00     0.000 C 
ENDROOT
BRANCH   1   2
ATOM      2  C   UNL     1      -4.680  34.820  21.265  1.00  0.00     0.000 C 
BRANCH   2   3
ATOM      3  C   UNL     1      -5.942  35.620  20.898  1.00  0.00     0.000 C 
BRANCH   3   4
ATOM      4  C   UNL     1      -6.074  35.855  19.384  1.00  0.00    -0.000 C 
BRANCH   4   5
ATOM      5  C   UNL     1      -5.572  34.663  18.550  1.00  0.00    -0.000 C 
BRANCH   5   6
ATOM      6  C   UNL     1      -4.039  34.631  18.427  1.00  0.00    -0.000 C 
BRANCH   6   7
ATOM      7  C   UNL     1      -3.453  35.546  17.334  1.00  0.00    -0.000 C 
BRANCH   7   8
ATOM      8  C   UNL     1      -3.687  35.028  15.899  1.00  0.00    -0.000 C 
BRANCH   8   9
ATOM      9  C   UNL     1      -3.104  35.978  14.837  1.00  0.00    -0.000 C 
BRANCH   9  10
ATOM     10  C   UNL     1      -4.170  36.908  14.234  1.00  0.00    -0.000 C 
BRANCH  10  11
ATOM     11  C   UNL     1      -3.963  38.375  14.637  1.00  0.00    -0.003 C 
ATOM     12  C   UNL     1      -4.914  39.294  13.875  1.00  0.00     0.004 C 
ENDBRANCH  10  11
ENDBRANCH   9  10
ENDBRANCH   8   9
ENDBRANCH   7   8
ENDBRANCH   6   7
ENDBRANCH   5   6
ENDBRANCH   4   5
ENDBRANCH   3   4
ENDBRANCH   2   3
ENDBRANCH   1   2
BRANCH   1  13
ATOM     13  C   UNL     1      -5.764  34.260  23.516  1.00  0.00     0.000 C 
BRANCH  13  14
ATOM     14  C   UNL     1      -6.111  35.190  24.692  1.00  0.00     0.000 C 
BRANCH  14  15
ATOM     15  C   UNL     1      -5.760  36.659  24.396  1.00  0.00     0.000 C 
BRANCH  15  16
ATOM     16  C   UNL     1      -5.886  37.568  25.634  1.00  0.00     0.000 C 
BRANCH  16  17
ATOM     17  C   UNL     1      -4.551  38.046  26.233  1.00  0.00     0.000 C 
BRANCH  17  18
ATOM     18  C   UNL     1      -3.533  36.931  26.536  1.00  0.00     0.000 C 
BRANCH  18  19
ATOM     19  C   UNL     1      -2.347  37.394  27.410  1.00  0.00     0.000 C 
BRANCH  19  20
ATOM     20  C   UNL     1      -1.330  36.268  27.664  1.00  0.00     0.006 C 
BRANCH  20  21
ATOM     21  C   UNL     1      -2.004  34.958  28.093  1.00  0.00     0.053 C 
BRANCH  21  22
ATOM     22  C   UNL     1      -1.389  34.393  29.336  1.00  0.00     0.041 C 
ATOM     23  O   UNL     1      -2.070  34.288  30.389  1.00  0.00    -0.550 OA
ATOM     24  O   UNL     1      -0.075  33.948  29.321  1.00  0.00    -0.550 OA
ENDBRANCH  21  22
ENDBRANCH  20  21
ENDBRANCH  19  20
ENDBRANCH  18  19
ENDBRANCH  17  18
ENDBRANCH  16  17
ENDBRANCH  15  16
ENDBRANCH  14  15
ENDBRANCH  13  14
ENDBRANCH   1  13
TORSDOF 20
ENDMDL
MODEL 5
REMARK VINA RESULT:     4.536      2.005      7.683
REMARK INTER + INTRA:           9.383
REMARK INTER:                   9.763
REMARK INTRA:                  -0.381
REMARK UNBOUND:                -0.456
REMARK SMILES CCCCCCCCCCCCCCCCCCCCCC(=O)[O-]
REMARK SMILES IDX 12 1 11 2 10 3 9 4 8 5 7 6 6 7 5 8 4 9 3 10 2 11 1 12 13 13
REMARK SMILES IDX 14 14 15 15 16 16 17 17 18 18 19 19 20 20 21 21 22 22 23 23
REMARK SMILES IDX 24 24
REMARK H PARENT
REMARK Flexibility Score: inf
ROOT
ATOM      1  C   UNL     1      -4.878  35.552  22.690  1.00  0.00     0.000 C 
ENDROOT
BRANCH   1   2
ATOM      2  C   UNL     1      -6.124  36.143  22.011  1.00  0.00     0.000 C 
BRANCH   2   3
ATOM      3  C   UNL     1      -5.898  36.455  20.522  1.00  0.00     0.000 C 
BRANCH   3   4
ATOM      4  C   UNL     1      -5.157  37.785  20.302  1.00  0.00    -0.000 C 
BRANCH   4   5
ATOM      5  C   UNL     1      -6.114  38.971  20.085  1.00  0.00    -0.000 C 
BRANCH   5   6
ATOM      6  C   UNL     1      -5.949  40.066  21.153  1.00  0.00    -0.000 C 
BRANCH   6   7
ATOM      7  C   UNL     1      -5.989  39.567  22.610  1.00  0.00    -0.000 C 
BRANCH   7   8
ATOM      8  C   UNL     1      -5.054  40.346  23.560  1.00  0.00    -0.000 C 
BRANCH   8   9
ATOM      9  C   UNL     1      -4.904  39.651  24.926  1.00  0.00    -0.000 C 
BRANCH   9  10
ATOM     10  C   UNL     1      -4.805  38.121  24.797  1.00  0.00    -0.000 C 
BRANCH  10  11
ATOM     11  C   UNL     1      -5.287  37.396  26.062  1.00  0.00    -0.003 C 
ATOM     12  C   UNL     1      -6.123  36.169  25.707  1.00  0.00     0.004 C 
ENDBRANCH  10  11
ENDBRANCH   9  10
ENDBRANCH   8   9
ENDBRANCH   7   8
ENDBRANCH   6   7
ENDBRANCH   5   6
ENDBRANCH   4   5
ENDBRANCH   3   4
ENDBRANCH   2   3
ENDBRANCH   1   2
BRANCH   1  13
ATOM     13  C   UNL     1      -4.648  34.074  22.324  1.00  0.00     0.000 C 
BRANCH  13  14
ATOM     14  C   UNL     1      -3.509  33.889  21.307  1.00  0.00     0.000 C 
BRANCH  14  15
ATOM     15  C   UNL     1      -3.723  34.727  20.033  1.00  0.00     0.000 C 
BRANCH  15  16
ATOM     16  C   UNL     1      -4.768  34.116  19.081  1.00  0.00     0.000 C 
BRANCH  16  17
ATOM     17  C   UNL     1      -4.594  34.484  17.596  1.00  0.00     0.000 C 
BRANCH  17  18
ATOM     18  C   UNL     1      -3.204  35.027  17.215  1.00  0.00     0.000 C 
BRANCH  18  19
ATOM     19  C   UNL     1      -2.911  34.975  15.700  1.00  0.00     0.000 C 
BRANCH  19  20
ATOM     20  C   UNL     1      -2.435  36.330  15.147  1.00  0.00     0.006 C 
BRANCH  20  21
ATOM     21  C   UNL     1      -3.192  36.738  13.875  1.00  0.00     0.053 C 
BRANCH  21  22
ATOM     22  C   UNL     1      -4.338  37.652  14.175  1.00  0.00     0.041 C 
ATOM     23  O   UNL     1      -5.523  37.237  14.080  1.00  0.00    -0.550 OA
ATOM     24  O   UNL     1      -4.098  38.953  14.597  1.00  0.00    -0.550 OA
ENDBRANCH  21  22
ENDBRANCH  20  21
ENDBRANCH  19  20
ENDBRANCH  18  19
ENDBRANCH  17  18
ENDBRANCH  16  17
ENDBRANCH  15  16
ENDBRANCH  14  15
ENDBRANCH  13  14
ENDBRANCH   1  13
TORSDOF 20
ENDMDL
MODEL 6
REMARK VINA RESULT:     4.630      2.520      3.953
REMARK INTER + INTRA:           9.587
REMARK INTER:                   7.924
REMARK INTRA:                   1.662
REMARK UNBOUND:                -0.456
REMARK SMILES CCCCCCCCCCCCCCCCCCCCCC(=O)[O-]
REMARK SMILES IDX 12 1 11 2 10 3 9 4 8 5 7 6 6 7 5 8 4 9 3 10 2 11 1 12 13 13
REMARK SMILES IDX 14 14 15 15 16 16 17 17 18 18 19 19 20 20 21 21 22 22 23 23
REMARK SMILES IDX 24 24
REMARK H PARENT
REMARK Flexibility Score: inf
ROOT
ATOM      1  C   UNL     1      -5.931  37.404  22.977  1.00  0.00     0.000 C 
ENDROOT
BRANCH   1   2
ATOM      2  C   UNL     1      -5.434  38.545  22.075  1.00  0.00     0.000 C 
BRANCH   2   3
ATOM      3  C   UNL     1      -6.042  38.494  20.663  1.00  0.00     0.000 C 
BRANCH   3   4
ATOM      4  C   UNL     1      -5.078  37.895  19.625  1.00  0.00    -0.000 C 
BRANCH   4   5
ATOM      5  C   UNL     1      -5.555  36.536  19.084  1.00  0.00    -0.000 C 
BRANCH   5   6
ATOM      6  C   UNL     1      -4.459  35.458  19.144  1.00  0.00    -0.000 C 
BRANCH   6   7
ATOM      7  C   UNL     1      -4.517  34.406  18.020  1.00  0.00    -0.000 C 
BRANCH   7   8
ATOM      8  C   UNL     1      -3.553  34.693  16.849  1.00  0.00    -0.000 C 
BRANCH   8   9
ATOM      9  C   UNL     1      -3.810  36.070  16.209  1.00  0.00    -0.000 C 
BRANCH   9  10
ATOM     10  C   UNL     1      -3.199  36.186  14.803  1.00  0.00    -0.000 C 
BRANCH  10  11
ATOM     11  C   UNL     1      -4.024  37.095  13.880  1.00  0.00    -0.003 C 
ATOM     12  C   UNL     1      -4.190  38.487  14.485  1.00  0.00     0.004 C 
ENDBRANCH  10  11
ENDBRANCH   9  10
ENDBRANCH   8   9
ENDBRANCH   7   8
ENDBRANCH   6   7
ENDBRANCH   5   6
ENDBRANCH   4   5
ENDBRANCH   3   4
ENDBRANCH   2   3
ENDBRANCH   1   2
BRANCH   1  13
ATOM     13  C   UNL     1      -6.123  36.083  22.212  1.00  0.00     0.000 C 
BRANCH  13  14
ATOM     14  C   UNL     1      -5.092  35.014  22.612  1.00  0.00     0.000 C 
BRANCH  14  15
ATOM     15  C   UNL     1      -5.651  34.021  23.647  1.00  0.00     0.000 C 
BRANCH  15  16
ATOM     16  C   UNL     1      -6.119  34.707  24.945  1.00  0.00     0.000 C 
BRANCH  16  17
ATOM     17  C   UNL     1      -5.573  36.129  25.167  1.00  0.00     0.000 C 
BRANCH  17  18
ATOM     18  C   UNL     1      -6.125  36.855  26.408  1.00  0.00     0.000 C 
BRANCH  18  19
ATOM     19  C   UNL     1      -5.445  38.212  26.688  1.00  0.00     0.000 C 
BRANCH  19  20
ATOM     20  C   UNL     1      -3.970  38.232  26.251  1.00  0.00     0.006 C 
BRANCH  20  21
ATOM     21  C   UNL     1      -3.312  36.850  26.358  1.00  0.00     0.053 C 
BRANCH  21  22
ATOM     22  C   UNL     1      -2.092  36.877  27.225  1.00  0.00     0.041 C 
ATOM     23  O   UNL     1      -1.306  37.859  27.183  1.00  0.00    -0.550 OA
ATOM     24  O   UNL     1      -1.841  35.834  28.106  1.00  0.00    -0.550 OA
ENDBRANCH  21  22
ENDBRANCH  20  21
ENDBRANCH  19  20
ENDBRANCH  18  19
ENDBRANCH  17  18
ENDBRANCH  16  17
ENDBRANCH  15  16
ENDBRANCH  14  15
ENDBRANCH  13  14
ENDBRANCH   1  13
TORSDOF 20
ENDMDL
