MODEL 1
REMARK VINA RESULT:    -3.182      0.000      0.000
REMARK INTER + INTRA:          -6.228
REMARK INTER:                  -5.042
REMARK INTRA:                  -1.186
REMARK UNBOUND:                -1.186
REMARK SMILES CCCCCCCCCCCC(=O)[O-]
REMARK SMILES IDX 7 1 8 2 9 3 10 4 11 5 12 6 13 7 14 8 6 9 5 10 4 11 3 12 2 13
REMARK SMILES IDX 1 14
REMARK H PARENT
REMARK Flexibility Score: inf
ROOT
ATOM      1  C   UNL     1      16.957  -6.799   4.032  1.00  0.00     0.000 C 
ENDROOT
BRANCH   1   2
ATOM      2  C   UNL     1      16.096  -6.815   5.307  1.00  0.00     0.000 C 
BRANCH   2   3
ATOM      3  C   UNL     1      16.261  -8.112   6.116  1.00  0.00     0.000 C 
BRANCH   3   4
ATOM      4  C   UNL     1      15.185  -9.159   5.780  1.00  0.00     0.006 C 
BRANCH   4   5
ATOM      5  C   UNL     1      13.885  -8.513   5.285  1.00  0.00     0.053 C 
BRANCH   5   6
ATOM      6  C   UNL     1      12.888  -8.350   6.392  1.00  0.00     0.041 C 
ATOM      7  O   UNL     1      13.160  -8.747   7.555  1.00  0.00    -0.550 OA
ATOM      8  O   UNL     1      11.646  -7.785   6.130  1.00  0.00    -0.550 OA
ENDBRANCH   5   6
ENDBRANCH   4   5
ENDBRANCH   3   4
ENDBRANCH   2   3
ENDBRANCH   1   2
BRANCH   1   9
ATOM      9  C   UNL     1      18.166  -7.743   4.124  1.00  0.00     0.000 C 
BRANCH   9  10
ATOM     10  C   UNL     1      19.495  -6.990   4.286  1.00  0.00    -0.000 C 
BRANCH  10  11
ATOM     11  C   UNL     1      19.936  -6.962   5.754  1.00  0.00    -0.000 C 
BRANCH  11  12
ATOM     12  C   UNL     1      19.891  -8.368   6.369  1.00  0.00    -0.000 C 
BRANCH  12  13
ATOM     13  C   UNL     1      19.551  -8.347   7.868  1.00  0.00    -0.003 C 
ATOM     14  C   UNL     1      18.968  -7.009   8.323  1.00  0.00     0.004 C 
ENDBRANCH  12  13
ENDBRANCH  11  12
ENDBRANCH  10  11
ENDBRANCH   9  10
ENDBRANCH   1   9
TORSDOF 10
ENDMDL
MODEL 2
REMARK VINA RESULT:    -3.072      3.348      7.298
REMARK INTER + INTRA:          -6.054
REMARK INTER:                  -5.540
REMARK INTRA:                  -0.514
REMARK UNBOUND:                -1.186
REMARK SMILES CCCCCCCCCCCC(=O)[O-]
REMARK SMILES IDX 7 1 8 2 9 3 10 4 11 5 12 6 13 7 14 8 6 9 5 10 4 11 3 12 2 13
REMARK SMILES IDX 1 14
REMARK H PARENT
REMARK Flexibility Score: inf
ROOT
ATOM      1  C   UNL     1      14.094  -8.416   6.702  1.00  0.00     0.000 C 
ENDROOT
BRANCH   1   2
ATOM      2  C   UNL     1      14.535  -7.875   5.330  1.00  0.00     0.000 C 
BRANCH   2   3
ATOM      3  C   UNL     1      15.827  -7.046   5.408  1.00  0.00     0.000 C 
BRANCH   3   4
ATOM      4  C   UNL     1      16.590  -7.265   6.726  1.00  0.00     0.006 C 
BRANCH   4   5
ATOM      5  C   UNL     1      18.005  -7.808   6.492  1.00  0.00     0.053 C 
BRANCH   5   6
ATOM      6  C   UNL     1      18.834  -7.757   7.739  1.00  0.00     0.041 C 
ATOM      7  O   UNL     1      18.663  -6.834   8.577  1.00  0.00    -0.550 OA
ATOM      8  O   UNL     1      19.816  -8.715   7.960  1.00  0.00    -0.550 OA
ENDBRANCH   5   6
ENDBRANCH   4   5
ENDBRANCH   3   4
ENDBRANCH   2   3
ENDBRANCH   1   2
BRANCH   1   9
ATOM      9  C   UNL     1      12.578  -8.649   6.784  1.00  0.00     0.000 C 
BRANCH   9  10
ATOM     10  C   UNL     1      11.790  -7.772   5.799  1.00  0.00    -0.000 C 
BRANCH  10  11
ATOM     11  C   UNL     1      10.501  -8.472   5.350  1.00  0.00    -0.000 C 
BRANCH  11  12
ATOM     12  C   UNL     1       9.832  -9.200   6.525  1.00  0.00    -0.000 C 
BRANCH  12  13
ATOM     13  C   UNL     1       8.299  -9.110   6.479  1.00  0.00    -0.003 C 
ATOM     14  C   UNL     1       7.701  -8.542   7.766  1.00  0.00     0.004 C 
ENDBRANCH  12  13
ENDBRANCH  11  12
ENDBRANCH  10  11
ENDBRANCH   9  10
ENDBRANCH   1   9
TORSDOF 10
ENDMDL
MODEL 3
REMARK VINA RESULT:    -2.986      1.720      2.635
REMARK INTER + INTRA:          -5.917
REMARK INTER:                  -5.156
REMARK INTRA:                  -0.761
REMARK UNBOUND:                -1.186
REMARK SMILES CCCCCCCCCCCC(=O)[O-]
REMARK SMILES IDX 7 1 8 2 9 3 10 4 11 5 12 6 13 7 14 8 6 9 5 10 4 11 3 12 2 13
REMARK SMILES IDX 1 14
REMARK H PARENT
REMARK Flexibility Score: inf
ROOT
ATOM      1  C   UNL     1      15.752  -7.504   6.883  1.00  0.00     0.000 C 
ENDROOT
BRANCH   1   2
ATOM      2  C   UNL     1      14.503  -8.389   7.045  1.00  0.00     0.000 C 
BRANCH   2   3
ATOM      3  C   UNL     1      13.692  -8.510   5.745  1.00  0.00     0.000 C 
BRANCH   3   4
ATOM      4  C   UNL     1      12.209  -8.150   5.939  1.00  0.00     0.006 C 
BRANCH   4   5
ATOM      5  C   UNL     1      11.641  -7.371   4.745  1.00  0.00     0.053 C 
BRANCH   5   6
ATOM      6  C   UNL     1      10.151  -7.243   4.822  1.00  0.00     0.041 C 
ATOM      7  O   UNL     1       9.461  -8.161   5.337  1.00  0.00    -0.550 OA
ATOM      8  O   UNL     1       9.522  -6.121   4.297  1.00  0.00    -0.550 OA
ENDBRANCH   5   6
ENDBRANCH   4   5
ENDBRANCH   3   4
ENDBRANCH   2   3
ENDBRANCH   1   2
BRANCH   1   9
ATOM      9  C   UNL     1      16.046  -7.162   5.414  1.00  0.00     0.000 C 
BRANCH   9  10
ATOM     10  C   UNL     1      17.316  -7.848   4.888  1.00  0.00    -0.000 C 
BRANCH  10  11
ATOM     11  C   UNL     1      18.552  -7.388   5.670  1.00  0.00    -0.000 C 
BRANCH  11  12
ATOM     12  C   UNL     1      19.282  -8.584   6.298  1.00  0.00    -0.000 C 
BRANCH  12  13
ATOM     13  C   UNL     1      19.491  -8.420   7.812  1.00  0.00    -0.003 C 
ATOM     14  C   UNL     1      19.081  -7.037   8.319  1.00  0.00     0.004 C 
ENDBRANCH  12  13
ENDBRANCH  11  12
ENDBRANCH  10  11
ENDBRANCH   9  10
ENDBRANCH   1   9
TORSDOF 10
ENDMDL
MODEL 4
REMARK VINA RESULT:    -2.974      2.778      4.426
REMARK INTER + INTRA:          -5.899
REMARK INTER:                  -5.457
REMARK INTRA:                  -0.443
REMARK UNBOUND:                -1.186
REMARK SMILES CCCCCCCCCCCC(=O)[O-]
REMARK SMILES IDX 7 1 8 2 9 3 10 4 11 5 12 6 13 7 14 8 6 9 5 10 4 11 3 12 2 13
REMARK SMILES IDX 1 14
REMARK H PARENT
REMARK Flexibility Score: inf
ROOT
ATOM      1  C   UNL     1      12.907  -8.637   6.878  1.00  0.00     0.000 C 
ENDROOT
BRANCH   1   2
ATOM      2  C   UNL     1      12.588  -7.946   5.540  1.00  0.00     0.000 C 
BRANCH   2   3
ATOM      3  C   UNL     1      11.078  -7.854   5.266  1.00  0.00     0.000 C 
BRANCH   3   4
ATOM      4  C   UNL     1      10.247  -8.688   6.257  1.00  0.00     0.006 C 
BRANCH   4   5
ATOM      5  C   UNL     1       8.826  -8.949   5.743  1.00  0.00     0.053 C 
BRANCH   5   6
ATOM      6  C   UNL     1       7.787  -8.463   6.707  1.00  0.00     0.041 C 
ATOM      7  O   UNL     1       6.916  -7.633   6.336  1.00  0.00    -0.550 OA
ATOM      8  O   UNL     1       7.801  -8.905   8.024  1.00  0.00    -0.550 OA
ENDBRANCH   5   6
ENDBRANCH   4   5
ENDBRANCH   3   4
ENDBRANCH   2   3
ENDBRANCH   1   2
BRANCH   1   9
ATOM      9  C   UNL     1      14.415  -8.709   7.160  1.00  0.00     0.000 C 
BRANCH   9  10
ATOM     10  C   UNL     1      15.243  -7.871   6.174  1.00  0.00    -0.000 C 
BRANCH  10  11
ATOM     11  C   UNL     1      16.479  -7.278   6.860  1.00  0.00    -0.000 C 
BRANCH  11  12
ATOM     12  C   UNL     1      17.761  -7.647   6.098  1.00  0.00    -0.000 C 
BRANCH  12  13
ATOM     13  C   UNL     1      19.018  -7.552   6.976  1.00  0.00    -0.003 C 
ATOM     14  C   UNL     1      18.721  -7.026   8.380  1.00  0.00     0.004 C 
ENDBRANCH  12  13
ENDBRANCH  11  12
ENDBRANCH  10  11
ENDBRANCH   9  10
ENDBRANCH   1   9
TORSDOF 10
ENDMDL
MODEL 5
REMARK VINA RESULT:    -2.965      3.457      7.511
REMARK INTER + INTRA:          -5.885
REMARK INTER:                  -5.276
REMARK INTRA:                  -0.609
REMARK UNBOUND:                -1.186
REMARK SMILES CCCCCCCCCCCC(=O)[O-]
REMARK SMILES IDX 7 1 8 2 9 3 10 4 11 5 12 6 13 7 14 8 6 9 5 10 4 11 3 12 2 13
REMARK SMILES IDX 1 14
REMARK H PARENT
REMARK Flexibility Score: inf
ROOT
ATOM      1  C   UNL     1      12.598  -8.489   6.822  1.00  0.00     0.000 C 
ENDROOT
BRANCH   1   2
ATOM      2  C   UNL     1      14.133  -8.587   6.854  1.00  0.00     0.000 C 
BRANCH   2   3
ATOM      3  C   UNL     1      14.781  -8.150   5.530  1.00  0.00     0.000 C 
BRANCH   3   4
ATOM      4  C   UNL     1      15.899  -7.113   5.733  1.00  0.00     0.006 C 
BRANCH   4   5
ATOM      5  C   UNL     1      16.397  -7.075   7.183  1.00  0.00     0.053 C 
BRANCH   5   6
ATOM      6  C   UNL     1      17.868  -7.341   7.273  1.00  0.00     0.041 C 
ATOM      7  O   UNL     1      18.511  -7.009   8.304  1.00  0.00    -0.550 OA
ATOM      8  O   UNL     1      18.535  -7.929   6.206  1.00  0.00    -0.550 OA
ENDBRANCH   5   6
ENDBRANCH   4   5
ENDBRANCH   3   4
ENDBRANCH   2   3
ENDBRANCH   1   2
BRANCH   1   9
ATOM      9  C   UNL     1      12.075  -7.823   5.540  1.00  0.00     0.000 C 
BRANCH   9  10
ATOM     10  C   UNL     1      10.679  -8.322   5.140  1.00  0.00    -0.000 C 
BRANCH  10  11
ATOM     11  C   UNL     1       9.967  -8.975   6.331  1.00  0.00    -0.000 C 
BRANCH  11  12
ATOM     12  C   UNL     1       8.792  -9.845   5.859  1.00  0.00    -0.000 C 
BRANCH  12  13
ATOM     13  C   UNL     1       7.560  -9.716   6.768  1.00  0.00    -0.003 C 
ATOM     14  C   UNL     1       7.707  -8.607   7.810  1.00  0.00     0.004 C 
ENDBRANCH  12  13
ENDBRANCH  11  12
ENDBRANCH  10  11
ENDBRANCH   9  10
ENDBRANCH   1   9
TORSDOF 10
ENDMDL
MODEL 6
REMARK VINA RESULT:    -2.939      4.050      6.747
REMARK INTER + INTRA:          -5.844
REMARK INTER:                  -5.038
REMARK INTRA:                  -0.806
REMARK UNBOUND:                -1.186
REMARK SMILES CCCCCCCCCCCC(=O)[O-]
REMARK SMILES IDX 7 1 8 2 9 3 10 4 11 5 12 6 13 7 14 8 6 9 5 10 4 11 3 12 2 13
REMARK SMILES IDX 1 14
REMARK H PARENT
REMARK Flexibility Score: inf
ROOT
ATOM      1  C   UNL     1      10.671  -8.493   6.057  1.00  0.00     0.000 C 
ENDROOT
BRANCH   1   2
ATOM      2  C   UNL     1       9.510  -9.499   5.974  1.00  0.00     0.000 C 
BRANCH   2   3
ATOM      3  C   UNL     1       8.892  -9.804   7.348  1.00  0.00     0.000 C 
BRANCH   3   4
ATOM      4  C   UNL     1       7.730  -8.859   7.696  1.00  0.00     0.006 C 
BRANCH   4   5
ATOM      5  C   UNL     1       6.752  -8.689   6.526  1.00  0.00     0.053 C 
BRANCH   5   6
ATOM      6  C   UNL     1       6.688  -7.268   6.057  1.00  0.00     0.041 C 
ATOM      7  O   UNL     1       6.260  -6.365   6.823  1.00  0.00    -0.550 OA
ATOM      8  O   UNL     1       7.075  -6.946   4.762  1.00  0.00    -0.550 OA
ENDBRANCH   5   6
ENDBRANCH   4   5
ENDBRANCH   3   4
ENDBRANCH   2   3
ENDBRANCH   1   2
BRANCH   1   9
ATOM      9  C   UNL     1      10.614  -7.433   4.945  1.00  0.00     0.000 C 
BRANCH   9  10
ATOM     10  C   UNL     1      11.963  -7.248   4.233  1.00  0.00    -0.000 C 
BRANCH  10  11
ATOM     11  C   UNL     1      12.960  -8.334   4.654  1.00  0.00    -0.000 C 
BRANCH  11  12
ATOM     12  C   UNL     1      14.314  -7.719   5.037  1.00  0.00    -0.000 C 
BRANCH  12  13
ATOM     13  C   UNL     1      14.954  -8.409   6.252  1.00  0.00    -0.003 C 
ATOM     14  C   UNL     1      13.953  -8.675   7.376  1.00  0.00     0.004 C 
ENDBRANCH  12  13
ENDBRANCH  11  12
ENDBRANCH  10  11
ENDBRANCH   9  10
ENDBRANCH   1   9
TORSDOF 10
ENDMDL
MODEL 7
REMARK VINA RESULT:    -2.907      3.973      6.641
REMARK INTER + INTRA:          -5.793
REMARK INTER:                  -5.051
REMARK INTRA:                  -0.743
REMARK UNBOUND:                -1.186
REMARK SMILES CCCCCCCCCCCC(=O)[O-]
REMARK SMILES IDX 7 1 8 2 9 3 10 4 11 5 12 6 13 7 14 8 6 9 5 10 4 11 3 12 2 13
REMARK SMILES IDX 1 14
REMARK H PARENT
REMARK Flexibility Score: inf
ROOT
ATOM      1  C   UNL     1      16.787  -7.125   7.352  1.00  0.00     0.000 C 
ENDROOT
BRANCH   1   2
ATOM      2  C   UNL     1      18.312  -7.276   7.506  1.00  0.00     0.000 C 
BRANCH   2   3
ATOM      3  C   UNL     1      18.884  -8.408   6.639  1.00  0.00     0.000 C 
BRANCH   3   4
ATOM      4  C   UNL     1      20.068  -7.947   5.771  1.00  0.00     0.006 C 
BRANCH   4   5
ATOM      5  C   UNL     1      20.248  -6.424   5.801  1.00  0.00     0.053 C 
BRANCH   5   6
ATOM      6  C   UNL     1      21.348  -5.975   4.889  1.00  0.00     0.041 C 
ATOM      7  O   UNL     1      22.338  -6.721   4.674  1.00  0.00    -0.550 OA
ATOM      8  O   UNL     1      21.292  -4.719   4.298  1.00  0.00    -0.550 OA
ENDBRANCH   5   6
ENDBRANCH   4   5
ENDBRANCH   3   4
ENDBRANCH   2   3
ENDBRANCH   1   2
BRANCH   1   9
ATOM      9  C   UNL     1      16.339  -7.131   5.883  1.00  0.00     0.000 C 
BRANCH   9  10
ATOM     10  C   UNL     1      15.254  -8.181   5.599  1.00  0.00    -0.000 C 
BRANCH  10  11
ATOM     11  C   UNL     1      14.471  -8.520   6.872  1.00  0.00    -0.000 C 
BRANCH  11  12
ATOM     12  C   UNL     1      12.962  -8.575   6.591  1.00  0.00    -0.000 C 
BRANCH  12  13
ATOM     13  C   UNL     1      12.577  -7.851   5.291  1.00  0.00    -0.003 C 
ATOM     14  C   UNL     1      11.099  -7.463   5.246  1.00  0.00     0.004 C 
ENDBRANCH  12  13
ENDBRANCH  11  12
ENDBRANCH  10  11
ENDBRANCH   9  10
ENDBRANCH   1   9
TORSDOF 10
ENDMDL
MODEL 8
REMARK VINA RESULT:    -2.886      1.176      2.395
REMARK INTER + INTRA:          -5.760
REMARK INTER:                  -4.786
REMARK INTRA:                  -0.974
REMARK UNBOUND:                -1.186
REMARK SMILES CCCCCCCCCCCC(=O)[O-]
REMARK SMILES IDX 7 1 8 2 9 3 10 4 11 5 12 6 13 7 14 8 6 9 5 10 4 11 3 12 2 13
REMARK SMILES IDX 1 14
REMARK H PARENT
REMARK Flexibility Score: inf
ROOT
ATOM      1  C   UNL     1      16.503  -7.382   6.718  1.00  0.00     0.000 C 
ENDROOT
BRANCH   1   2
ATOM      2  C   UNL     1      16.187  -6.771   5.341  1.00  0.00     0.000 C 
BRANCH   2   3
ATOM      3  C   UNL     1      15.610  -7.801   4.356  1.00  0.00     0.000 C 
BRANCH   3   4
ATOM      4  C   UNL     1      14.897  -8.963   5.067  1.00  0.00     0.006 C 
BRANCH   4   5
ATOM      5  C   UNL     1      13.371  -8.870   4.941  1.00  0.00     0.053 C 
BRANCH   5   6
ATOM      6  C   UNL     1      12.737  -8.391   6.210  1.00  0.00     0.041 C 
ATOM      7  O   UNL     1      13.275  -8.637   7.321  1.00  0.00    -0.550 OA
ATOM      8  O   UNL     1      11.534  -7.698   6.167  1.00  0.00    -0.550 OA
ENDBRANCH   5   6
ENDBRANCH   4   5
ENDBRANCH   3   4
ENDBRANCH   2   3
ENDBRANCH   1   2
BRANCH   1   9
ATOM      9  C   UNL     1      18.012  -7.448   7.002  1.00  0.00     0.000 C 
BRANCH   9  10
ATOM     10  C   UNL     1      18.684  -8.668   6.353  1.00  0.00    -0.000 C 
BRANCH  10  11
ATOM     11  C   UNL     1      19.772  -8.234   5.364  1.00  0.00    -0.000 C 
BRANCH  11  12
ATOM     12  C   UNL     1      20.039  -6.725   5.468  1.00  0.00    -0.000 C 
BRANCH  12  13
ATOM     13  C   UNL     1      20.420  -6.099   4.117  1.00  0.00    -0.003 C 
ATOM     14  C   UNL     1      21.163  -4.772   4.269  1.00  0.00     0.004 C 
ENDBRANCH  12  13
ENDBRANCH  11  12
ENDBRANCH  10  11
ENDBRANCH   9  10
ENDBRANCH   1   9
TORSDOF 10
ENDMDL
MODEL 9
REMARK VINA RESULT:    -2.870      2.822      6.130
REMARK INTER + INTRA:          -5.734
REMARK INTER:                  -4.992
REMARK INTRA:                  -0.742
REMARK UNBOUND:                -1.186
REMARK SMILES CCCCCCCCCCCC(=O)[O-]
REMARK SMILES IDX 7 1 8 2 9 3 10 4 11 5 12 6 13 7 14 8 6 9 5 10 4 11 3 12 2 13
REMARK SMILES IDX 1 14
REMARK H PARENT
REMARK Flexibility Score: inf
ROOT
ATOM      1  C   UNL     1      16.034  -7.188   5.477  1.00  0.00     0.000 C 
ENDROOT
BRANCH   1   2
ATOM      2  C   UNL     1      17.261  -7.973   4.978  1.00  0.00     0.000 C 
BRANCH   2   3
ATOM      3  C   UNL     1      18.524  -7.102   4.889  1.00  0.00     0.000 C 
BRANCH   3   4
ATOM      4  C   UNL     1      19.681  -7.651   5.740  1.00  0.00     0.006 C 
BRANCH   4   5
ATOM      5  C   UNL     1      19.198  -8.655   6.794  1.00  0.00     0.053 C 
BRANCH   5   6
ATOM      6  C   UNL     1      19.329  -8.110   8.184  1.00  0.00     0.041 C 
ATOM      7  O   UNL     1      19.729  -8.850   9.120  1.00  0.00    -0.550 OA
ATOM      8  O   UNL     1      18.982  -6.791   8.448  1.00  0.00    -0.550 OA
ENDBRANCH   5   6
ENDBRANCH   4   5
ENDBRANCH   3   4
ENDBRANCH   2   3
ENDBRANCH   1   2
BRANCH   1   9
ATOM      9  C   UNL     1      15.283  -7.918   6.601  1.00  0.00     0.000 C 
BRANCH   9  10
ATOM     10  C   UNL     1      14.045  -8.672   6.093  1.00  0.00    -0.000 C 
BRANCH  10  11
ATOM     11  C   UNL     1      13.567  -8.103   4.752  1.00  0.00    -0.000 C 
BRANCH  11  12
ATOM     12  C   UNL     1      12.139  -7.547   4.868  1.00  0.00    -0.000 C 
BRANCH  12  13
ATOM     13  C   UNL     1      11.464  -7.927   6.195  1.00  0.00    -0.003 C 
ATOM     14  C   UNL     1      10.270  -8.861   6.005  1.00  0.00     0.004 C 
ENDBRANCH  12  13
ENDBRANCH  11  12
ENDBRANCH  10  11
ENDBRANCH   9  10
ENDBRANCH   1   9
TORSDOF 10
ENDMDL
