MODEL 1
REMARK VINA RESULT:    -3.388      0.000      0.000
REMARK INTER + INTRA:         -10.343
REMARK INTER:                  -7.348
REMARK INTRA:                  -2.995
REMARK UNBOUND:                -2.995
REMARK SMILES CCCCCCCCCCCCCCCCCCCCCC(=O)[O-]
REMARK SMILES IDX 12 1 11 2 10 3 9 4 8 5 7 6 6 7 5 8 4 9 3 10 2 11 1 12 13 13
REMARK SMILES IDX 14 14 15 15 16 16 17 17 18 18 19 19 20 20 21 21 22 22 23 23
REMARK SMILES IDX 24 24
REMARK H PARENT
REMARK Flexibility Score: inf
ROOT
ATOM      1  C   UNL     1     -15.600 -14.540  30.627  1.00  0.00     0.000 C 
ENDROOT
BRANCH   1   2
ATOM      2  C   UNL     1     -16.607 -15.618  30.181  1.00  0.00     0.000 C 
BRANCH   2   3
ATOM      3  C   UNL     1     -16.024 -17.045  30.132  1.00  0.00     0.000 C 
BRANCH   3   4
ATOM      4  C   UNL     1     -15.877 -17.620  28.710  1.00  0.00    -0.000 C 
BRANCH   4   5
ATOM      5  C   UNL     1     -16.582 -16.754  27.649  1.00  0.00    -0.000 C 
BRANCH   5   6
ATOM      6  C   UNL     1     -15.600 -16.132  26.641  1.00  0.00    -0.000 C 
BRANCH   6   7
ATOM      7  C   UNL     1     -15.807 -14.627  26.390  1.00  0.00    -0.000 C 
BRANCH   7   8
ATOM      8  C   UNL     1     -17.289 -14.196  26.412  1.00  0.00    -0.000 C 
BRANCH   8   9
ATOM      9  C   UNL     1     -17.493 -12.773  25.861  1.00  0.00    -0.000 C 
BRANCH   9  10
ATOM     10  C   UNL     1     -18.143 -12.776  24.461  1.00  0.00    -0.000 C 
BRANCH  10  11
ATOM     11  C   UNL     1     -17.414 -13.673  23.447  1.00  0.00    -0.003 C 
ATOM     12  C   UNL     1     -18.305 -14.775  22.876  1.00  0.00     0.004 C 
ENDBRANCH  10  11
ENDBRANCH   9  10
ENDBRANCH   8   9
ENDBRANCH   7   8
ENDBRANCH   6   7
ENDBRANCH   5   6
ENDBRANCH   4   5
ENDBRANCH   3   4
ENDBRANCH   2   3
ENDBRANCH   1   2
BRANCH   1  13
ATOM     13  C   UNL     1     -15.511 -13.370  29.632  1.00  0.00     0.000 C 
BRANCH  13  14
ATOM     14  C   UNL     1     -14.104 -12.753  29.567  1.00  0.00     0.000 C 
BRANCH  14  15
ATOM     15  C   UNL     1     -12.975 -13.670  30.077  1.00  0.00     0.000 C 
BRANCH  15  16
ATOM     16  C   UNL     1     -12.195 -14.419  28.978  1.00  0.00     0.000 C 
BRANCH  16  17
ATOM     17  C   UNL     1     -12.611 -15.887  28.772  1.00  0.00     0.000 C 
BRANCH  17  18
ATOM     18  C   UNL     1     -12.428 -16.741  30.038  1.00  0.00     0.000 C 
BRANCH  18  19
ATOM     19  C   UNL     1     -11.028 -17.365  30.136  1.00  0.00     0.000 C 
BRANCH  19  20
ATOM     20  C   UNL     1     -10.105 -16.599  31.098  1.00  0.00     0.006 C 
BRANCH  20  21
ATOM     21  C   UNL     1      -8.778 -16.247  30.421  1.00  0.00     0.053 C 
BRANCH  21  22
ATOM     22  C   UNL     1      -7.690 -17.166  30.881  1.00  0.00     0.041 C 
ATOM     23  O   UNL     1      -6.810 -17.563  30.071  1.00  0.00    -0.550 OA
ATOM     24  O   UNL     1      -7.624 -17.556  32.214  1.00  0.00    -0.550 OA
ENDBRANCH  21  22
ENDBRANCH  20  21
ENDBRANCH  19  20
ENDBRANCH  18  19
ENDBRANCH  17  18
ENDBRANCH  16  17
ENDBRANCH  15  16
ENDBRANCH  14  15
ENDBRANCH  13  14
ENDBRANCH   1  13
TORSDOF 20
ENDMDL
MODEL 2
REMARK VINA RESULT:    -3.323      1.904      4.395
REMARK INTER + INTRA:         -10.203
REMARK INTER:                  -7.100
REMARK INTRA:                  -3.103
REMARK UNBOUND:                -2.995
REMARK SMILES CCCCCCCCCCCCCCCCCCCCCC(=O)[O-]
REMARK SMILES IDX 12 1 11 2 10 3 9 4 8 5 7 6 6 7 5 8 4 9 3 10 2 11 1 12 13 13
REMARK SMILES IDX 14 14 15 15 16 16 17 17 18 18 19 19 20 20 21 21 22 22 23 23
REMARK SMILES IDX 24 24
REMARK H PARENT
REMARK Flexibility Score: inf
ROOT
ATOM      1  C   UNL     1     -15.986 -15.153  26.279  1.00  0.00     0.000 C 
ENDROOT
BRANCH   1   2
ATOM      2  C   UNL     1     -16.286 -14.005  27.262  1.00  0.00     0.000 C 
BRANCH   2   3
ATOM      3  C   UNL     1     -17.075 -12.834  26.642  1.00  0.00     0.000 C 
BRANCH   3   4
ATOM      4  C   UNL     1     -18.245 -13.269  25.737  1.00  0.00    -0.000 C 
BRANCH   4   5
ATOM      5  C   UNL     1     -18.367 -12.396  24.474  1.00  0.00    -0.000 C 
BRANCH   5   6
ATOM      6  C   UNL     1     -17.901 -13.124  23.201  1.00  0.00    -0.000 C 
BRANCH   6   7
ATOM      7  C   UNL     1     -17.870 -14.659  23.316  1.00  0.00    -0.000 C 
BRANCH   7   8
ATOM      8  C   UNL     1     -19.021 -15.358  22.560  1.00  0.00    -0.000 C 
BRANCH   8   9
ATOM      9  C   UNL     1     -19.543 -16.599  23.307  1.00  0.00    -0.000 C 
BRANCH   9  10
ATOM     10  C   UNL     1     -19.009 -16.678  24.753  1.00  0.00    -0.000 C 
BRANCH  10  11
ATOM     11  C   UNL     1     -18.278 -17.995  25.067  1.00  0.00    -0.003 C 
ATOM     12  C   UNL     1     -17.947 -18.808  23.816  1.00  0.00     0.004 C 
ENDBRANCH  10  11
ENDBRANCH   9  10
ENDBRANCH   8   9
ENDBRANCH   7   8
ENDBRANCH   6   7
ENDBRANCH   5   6
ENDBRANCH   4   5
ENDBRANCH   3   4
ENDBRANCH   2   3
ENDBRANCH   1   2
BRANCH   1  13
ATOM     13  C   UNL     1     -15.240 -16.321  26.948  1.00  0.00     0.000 C 
BRANCH  13  14
ATOM     14  C   UNL     1     -16.120 -17.090  27.948  1.00  0.00     0.000 C 
BRANCH  14  15
ATOM     15  C   UNL     1     -15.367 -17.645  29.172  1.00  0.00     0.000 C 
BRANCH  15  16
ATOM     16  C   UNL     1     -15.842 -17.101  30.535  1.00  0.00     0.000 C 
BRANCH  16  17
ATOM     17  C   UNL     1     -14.843 -16.169  31.245  1.00  0.00     0.000 C 
BRANCH  17  18
ATOM     18  C   UNL     1     -14.636 -14.839  30.501  1.00  0.00     0.000 C 
BRANCH  18  19
ATOM     19  C   UNL     1     -13.187 -14.335  30.576  1.00  0.00     0.000 C 
BRANCH  19  20
ATOM     20  C   UNL     1     -12.472 -14.384  29.217  1.00  0.00     0.006 C 
BRANCH  20  21
ATOM     21  C   UNL     1     -12.203 -15.830  28.790  1.00  0.00     0.053 C 
BRANCH  21  22
ATOM     22  C   UNL     1     -11.261 -16.496  29.744  1.00  0.00     0.041 C 
ATOM     23  O   UNL     1     -10.106 -16.026  29.926  1.00  0.00    -0.550 OA
ATOM     24  O   UNL     1     -11.669 -17.615  30.460  1.00  0.00    -0.550 OA
ENDBRANCH  21  22
ENDBRANCH  20  21
ENDBRANCH  19  20
ENDBRANCH  18  19
ENDBRANCH  17  18
ENDBRANCH  16  17
ENDBRANCH  15  16
ENDBRANCH  14  15
ENDBRANCH  13  14
ENDBRANCH   1  13
TORSDOF 20
ENDMDL
MODEL 3
REMARK VINA RESULT:    -3.319      9.694     12.093
REMARK INTER + INTRA:         -10.195
REMARK INTER:                  -6.807
REMARK INTRA:                  -3.388
REMARK UNBOUND:                -2.995
REMARK SMILES CCCCCCCCCCCCCCCCCCCCCC(=O)[O-]
REMARK SMILES IDX 12 1 11 2 10 3 9 4 8 5 7 6 6 7 5 8 4 9 3 10 2 11 1 12 13 13
REMARK SMILES IDX 14 14 15 15 16 16 17 17 18 18 19 19 20 20 21 21 22 22 23 23
REMARK SMILES IDX 24 24
REMARK H PARENT
REMARK Flexibility Score: inf
ROOT
ATOM      1  C   UNL     1     -13.507 -19.442  18.571  1.00  0.00     0.000 C 
ENDROOT
BRANCH   1   2
ATOM      2  C   UNL     1     -12.975 -18.007  18.394  1.00  0.00     0.000 C 
BRANCH   2   3
ATOM      3  C   UNL     1     -11.869 -17.872  17.327  1.00  0.00     0.000 C 
BRANCH   3   4
ATOM      4  C   UNL     1     -11.351 -19.216  16.779  1.00  0.00    -0.000 C 
BRANCH   4   5
ATOM      5  C   UNL     1      -9.823 -19.355  16.909  1.00  0.00    -0.000 C 
BRANCH   5   6
ATOM      6  C   UNL     1      -9.218 -18.353  17.907  1.00  0.00    -0.000 C 
BRANCH   6   7
ATOM      7  C   UNL     1      -7.697 -18.488  18.108  1.00  0.00    -0.000 C 
BRANCH   7   8
ATOM      8  C   UNL     1      -7.308 -19.484  19.222  1.00  0.00    -0.000 C 
BRANCH   8   9
ATOM      9  C   UNL     1      -7.568 -18.917  20.629  1.00  0.00    -0.000 C 
BRANCH   9  10
ATOM     10  C   UNL     1      -6.271 -18.785  21.456  1.00  0.00    -0.000 C 
BRANCH  10  11
ATOM     11  C   UNL     1      -5.903 -17.330  21.791  1.00  0.00    -0.003 C 
ATOM     12  C   UNL     1      -5.426 -16.538  20.575  1.00  0.00     0.004 C 
ENDBRANCH  10  11
ENDBRANCH   9  10
ENDBRANCH   8   9
ENDBRANCH   7   8
ENDBRANCH   6   7
ENDBRANCH   5   6
ENDBRANCH   4   5
ENDBRANCH   3   4
ENDBRANCH   2   3
ENDBRANCH   1   2
BRANCH   1  13
ATOM     13  C   UNL     1     -13.203 -20.015  19.967  1.00  0.00     0.000 C 
BRANCH  13  14
ATOM     14  C   UNL     1     -11.982 -19.351  20.626  1.00  0.00     0.000 C 
BRANCH  14  15
ATOM     15  C   UNL     1     -10.743 -20.259  20.746  1.00  0.00     0.000 C 
BRANCH  15  16
ATOM     16  C   UNL     1     -10.681 -21.419  19.731  1.00  0.00     0.000 C 
BRANCH  16  17
ATOM     17  C   UNL     1     -10.591 -22.824  20.356  1.00  0.00     0.000 C 
BRANCH  17  18
ATOM     18  C   UNL     1     -11.894 -23.627  20.205  1.00  0.00     0.000 C 
BRANCH  18  19
ATOM     19  C   UNL     1     -12.848 -23.439  21.393  1.00  0.00     0.000 C 
BRANCH  19  20
ATOM     20  C   UNL     1     -12.105 -23.188  22.716  1.00  0.00     0.006 C 
BRANCH  20  21
ATOM     21  C   UNL     1     -12.654 -21.948  23.426  1.00  0.00     0.053 C 
BRANCH  21  22
ATOM     22  C   UNL     1     -14.149 -21.996  23.494  1.00  0.00     0.041 C 
ATOM     23  O   UNL     1     -14.725 -22.893  24.165  1.00  0.00    -0.550 OA
ATOM     24  O   UNL     1     -14.907 -21.029  22.844  1.00  0.00    -0.550 OA
ENDBRANCH  21  22
ENDBRANCH  20  21
ENDBRANCH  19  20
ENDBRANCH  18  19
ENDBRANCH  17  18
ENDBRANCH  16  17
ENDBRANCH  15  16
ENDBRANCH  14  15
ENDBRANCH  13  14
ENDBRANCH   1  13
TORSDOF 20
ENDMDL
MODEL 4
REMARK VINA RESULT:    -3.264      2.779      7.298
REMARK INTER + INTRA:         -10.075
REMARK INTER:                  -7.152
REMARK INTRA:                  -2.923
REMARK UNBOUND:                -2.995
REMARK SMILES CCCCCCCCCCCCCCCCCCCCCC(=O)[O-]
REMARK SMILES IDX 12 1 11 2 10 3 9 4 8 5 7 6 6 7 5 8 4 9 3 10 2 11 1 12 13 13
REMARK SMILES IDX 14 14 15 15 16 16 17 17 18 18 19 19 20 20 21 21 22 22 23 23
REMARK SMILES IDX 24 24
REMARK H PARENT
REMARK Flexibility Score: inf
ROOT
ATOM      1  C   UNL     1     -16.005 -11.700  28.669  1.00  0.00     0.000 C 
ENDROOT
BRANCH   1   2
ATOM      2  C   UNL     1     -15.322 -13.080  28.645  1.00  0.00     0.000 C 
BRANCH   2   3
ATOM      3  C   UNL     1     -15.222 -13.759  30.026  1.00  0.00     0.000 C 
BRANCH   3   4
ATOM      4  C   UNL     1     -13.820 -14.307  30.361  1.00  0.00    -0.000 C 
BRANCH   4   5
ATOM      5  C   UNL     1     -12.807 -14.064  29.227  1.00  0.00    -0.000 C 
BRANCH   5   6
ATOM      6  C   UNL     1     -11.876 -15.266  28.994  1.00  0.00    -0.000 C 
BRANCH   6   7
ATOM      7  C   UNL     1     -12.196 -16.501  29.856  1.00  0.00    -0.000 C 
BRANCH   7   8
ATOM      8  C   UNL     1     -10.967 -17.391  30.141  1.00  0.00    -0.000 C 
BRANCH   8   9
ATOM      9  C   UNL     1     -10.080 -16.820  31.262  1.00  0.00    -0.000 C 
BRANCH   9  10
ATOM     10  C   UNL     1      -8.591 -16.763  30.857  1.00  0.00    -0.000 C 
BRANCH  10  11
ATOM     11  C   UNL     1      -8.213 -15.487  30.086  1.00  0.00    -0.003 C 
ATOM     12  C   UNL     1      -8.782 -14.217  30.715  1.00  0.00     0.004 C 
ENDBRANCH  10  11
ENDBRANCH   9  10
ENDBRANCH   8   9
ENDBRANCH   7   8
ENDBRANCH   6   7
ENDBRANCH   5   6
ENDBRANCH   4   5
ENDBRANCH   3   4
ENDBRANCH   2   3
ENDBRANCH   1   2
BRANCH   1  13
ATOM     13  C   UNL     1     -17.518 -11.787  28.405  1.00  0.00     0.000 C 
BRANCH  13  14
ATOM     14  C   UNL     1     -17.879 -12.882  27.387  1.00  0.00     0.000 C 
BRANCH  14  15
ATOM     15  C   UNL     1     -17.571 -12.523  25.920  1.00  0.00     0.000 C 
BRANCH  15  16
ATOM     16  C   UNL     1     -16.712 -13.556  25.160  1.00  0.00     0.000 C 
BRANCH  16  17
ATOM     17  C   UNL     1     -17.486 -14.774  24.623  1.00  0.00     0.000 C 
BRANCH  17  18
ATOM     18  C   UNL     1     -17.005 -16.101  25.233  1.00  0.00     0.000 C 
BRANCH  18  19
ATOM     19  C   UNL     1     -15.954 -15.902  26.335  1.00  0.00     0.000 C 
BRANCH  19  20
ATOM     20  C   UNL     1     -16.389 -16.500  27.683  1.00  0.00     0.006 C 
BRANCH  20  21
ATOM     21  C   UNL     1     -15.211 -17.174  28.390  1.00  0.00     0.053 C 
BRANCH  21  22
ATOM     22  C   UNL     1     -15.683 -17.953  29.578  1.00  0.00     0.041 C 
ATOM     23  O   UNL     1     -15.379 -17.579  30.742  1.00  0.00    -0.550 OA
ATOM     24  O   UNL     1     -16.488 -19.072  29.402  1.00  0.00    -0.550 OA
ENDBRANCH  21  22
ENDBRANCH  20  21
ENDBRANCH  19  20
ENDBRANCH  18  19
ENDBRANCH  17  18
ENDBRANCH  16  17
ENDBRANCH  15  16
ENDBRANCH  14  15
ENDBRANCH  13  14
ENDBRANCH   1  13
TORSDOF 20
ENDMDL
MODEL 5
REMARK VINA RESULT:    -3.197      4.168      9.078
REMARK INTER + INTRA:          -9.929
REMARK INTER:                  -7.361
REMARK INTRA:                  -2.569
REMARK UNBOUND:                -2.995
REMARK SMILES CCCCCCCCCCCCCCCCCCCCCC(=O)[O-]
REMARK SMILES IDX 12 1 11 2 10 3 9 4 8 5 7 6 6 7 5 8 4 9 3 10 2 11 1 12 13 13
REMARK SMILES IDX 14 14 15 15 16 16 17 17 18 18 19 19 20 20 21 21 22 22 23 23
REMARK SMILES IDX 24 24
REMARK H PARENT
REMARK Flexibility Score: inf
ROOT
ATOM      1  C   UNL     1     -13.598 -14.278  30.267  1.00  0.00     0.000 C 
ENDROOT
BRANCH   1   2
ATOM      2  C   UNL     1     -12.439 -14.484  29.275  1.00  0.00     0.000 C 
BRANCH   2   3
ATOM      3  C   UNL     1     -12.272 -15.939  28.791  1.00  0.00     0.000 C 
BRANCH   3   4
ATOM      4  C   UNL     1     -12.182 -16.977  29.928  1.00  0.00    -0.000 C 
BRANCH   4   5
ATOM      5  C   UNL     1     -10.733 -17.215  30.391  1.00  0.00    -0.000 C 
BRANCH   5   6
ATOM      6  C   UNL     1     -10.436 -16.586  31.763  1.00  0.00    -0.000 C 
BRANCH   6   7
ATOM      7  C   UNL     1      -9.621 -15.280  31.706  1.00  0.00    -0.000 C 
BRANCH   7   8
ATOM      8  C   UNL     1      -8.976 -15.015  30.329  1.00  0.00    -0.000 C 
BRANCH   8   9
ATOM      9  C   UNL     1      -7.460 -14.769  30.431  1.00  0.00    -0.000 C 
BRANCH   9  10
ATOM     10  C   UNL     1      -6.765 -15.785  31.364  1.00  0.00    -0.000 C 
BRANCH  10  11
ATOM     11  C   UNL     1      -6.656 -17.196  30.763  1.00  0.00    -0.003 C 
ATOM     12  C   UNL     1      -6.321 -18.264  31.803  1.00  0.00     0.004 C 
ENDBRANCH  10  11
ENDBRANCH   9  10
ENDBRANCH   8   9
ENDBRANCH   7   8
ENDBRANCH   6   7
ENDBRANCH   5   6
ENDBRANCH   4   5
ENDBRANCH   3   4
ENDBRANCH   2   3
ENDBRANCH   1   2
BRANCH   1  13
ATOM     13  C   UNL     1     -14.736 -13.428  29.675  1.00  0.00     0.000 C 
BRANCH  13  14
ATOM     14  C   UNL     1     -15.732 -14.262  28.852  1.00  0.00     0.000 C 
BRANCH  14  15
ATOM     15  C   UNL     1     -15.398 -14.367  27.352  1.00  0.00     0.000 C 
BRANCH  15  16
ATOM     16  C   UNL     1     -15.375 -15.802  26.785  1.00  0.00     0.000 C 
BRANCH  16  17
ATOM     17  C   UNL     1     -16.544 -16.697  27.238  1.00  0.00     0.000 C 
BRANCH  17  18
ATOM     18  C   UNL     1     -17.674 -16.772  26.198  1.00  0.00     0.000 C 
BRANCH  18  19
ATOM     19  C   UNL     1     -17.211 -16.379  24.788  1.00  0.00     0.000 C 
BRANCH  19  20
ATOM     20  C   UNL     1     -18.082 -15.276  24.164  1.00  0.00     0.006 C 
BRANCH  20  21
ATOM     21  C   UNL     1     -17.470 -13.893  24.403  1.00  0.00     0.053 C 
BRANCH  21  22
ATOM     22  C   UNL     1     -18.418 -13.020  25.164  1.00  0.00     0.041 C 
ATOM     23  O   UNL     1     -18.489 -11.788  24.909  1.00  0.00    -0.550 OA
ATOM     24  O   UNL     1     -19.252 -13.572  26.130  1.00  0.00    -0.550 OA
ENDBRANCH  21  22
ENDBRANCH  20  21
ENDBRANCH  19  20
ENDBRANCH  18  19
ENDBRANCH  17  18
ENDBRANCH  16  17
ENDBRANCH  15  16
ENDBRANCH  14  15
ENDBRANCH  13  14
ENDBRANCH   1  13
TORSDOF 20
ENDMDL
MODEL 6
REMARK VINA RESULT:    -3.159      9.625     11.936
REMARK INTER + INTRA:          -9.848
REMARK INTER:                  -5.494
REMARK INTRA:                  -4.354
REMARK UNBOUND:                -2.995
REMARK SMILES CCCCCCCCCCCCCCCCCCCCCC(=O)[O-]
REMARK SMILES IDX 12 1 11 2 10 3 9 4 8 5 7 6 6 7 5 8 4 9 3 10 2 11 1 12 13 13
REMARK SMILES IDX 14 14 15 15 16 16 17 17 18 18 19 19 20 20 21 21 22 22 23 23
REMARK SMILES IDX 24 24
REMARK H PARENT
REMARK Flexibility Score: inf
ROOT
ATOM      1  C   UNL     1     -13.162 -24.325  20.378  1.00  0.00     0.000 C 
ENDROOT
BRANCH   1   2
ATOM      2  C   UNL     1     -11.654 -24.010  20.367  1.00  0.00     0.000 C 
BRANCH   2   3
ATOM      3  C   UNL     1     -11.319 -22.523  20.606  1.00  0.00     0.000 C 
BRANCH   3   4
ATOM      4  C   UNL     1     -10.301 -21.936  19.607  1.00  0.00    -0.000 C 
BRANCH   4   5
ATOM      5  C   UNL     1     -10.291 -20.396  19.615  1.00  0.00    -0.000 C 
BRANCH   5   6
ATOM      6  C   UNL     1     -11.009 -19.803  20.838  1.00  0.00    -0.000 C 
BRANCH   6   7
ATOM      7  C   UNL     1     -12.321 -19.064  20.515  1.00  0.00    -0.000 C 
BRANCH   7   8
ATOM      8  C   UNL     1     -12.322 -18.386  19.127  1.00  0.00    -0.000 C 
BRANCH   8   9
ATOM      9  C   UNL     1     -13.520 -18.821  18.265  1.00  0.00    -0.000 C 
BRANCH   9  10
ATOM     10  C   UNL     1     -13.906 -20.297  18.501  1.00  0.00    -0.000 C 
BRANCH  10  11
ATOM     11  C   UNL     1     -13.269 -21.267  17.491  1.00  0.00    -0.003 C 
ATOM     12  C   UNL     1     -14.058 -22.566  17.332  1.00  0.00     0.004 C 
ENDBRANCH  10  11
ENDBRANCH   9  10
ENDBRANCH   8   9
ENDBRANCH   7   8
ENDBRANCH   6   7
ENDBRANCH   5   6
ENDBRANCH   4   5
ENDBRANCH   3   4
ENDBRANCH   2   3
ENDBRANCH   1   2
BRANCH   1  13
ATOM     13  C   UNL     1     -13.505 -25.526  21.277  1.00  0.00     0.000 C 
BRANCH  13  14
ATOM     14  C   UNL     1     -14.237 -25.112  22.565  1.00  0.00     0.000 C 
BRANCH  14  15
ATOM     15  C   UNL     1     -13.313 -24.808  23.760  1.00  0.00     0.000 C 
BRANCH  15  16
ATOM     16  C   UNL     1     -13.580 -23.464  24.468  1.00  0.00     0.000 C 
BRANCH  16  17
ATOM     17  C   UNL     1     -12.578 -22.344  24.134  1.00  0.00     0.000 C 
BRANCH  17  18
ATOM     18  C   UNL     1     -13.214 -21.194  23.336  1.00  0.00     0.000 C 
BRANCH  18  19
ATOM     19  C   UNL     1     -14.724 -21.381  23.125  1.00  0.00     0.000 C 
BRANCH  19  20
ATOM     20  C   UNL     1     -15.098 -21.547  21.643  1.00  0.00     0.006 C 
BRANCH  20  21
ATOM     21  C   UNL     1     -16.394 -22.348  21.491  1.00  0.00     0.053 C 
BRANCH  21  22
ATOM     22  C   UNL     1     -16.679 -22.624  20.048  1.00  0.00     0.041 C 
ATOM     23  O   UNL     1     -17.006 -21.684  19.275  1.00  0.00    -0.550 OA
ATOM     24  O   UNL     1     -16.547 -23.914  19.545  1.00  0.00    -0.550 OA
ENDBRANCH  21  22
ENDBRANCH  20  21
ENDBRANCH  19  20
ENDBRANCH  18  19
ENDBRANCH  17  18
ENDBRANCH  16  17
ENDBRANCH  15  16
ENDBRANCH  14  15
ENDBRANCH  13  14
ENDBRANCH   1  13
TORSDOF 20
ENDMDL
MODEL 7
REMARK VINA RESULT:    -3.140      4.328      8.240
REMARK INTER + INTRA:          -9.807
REMARK INTER:                  -6.181
REMARK INTRA:                  -3.626
REMARK UNBOUND:                -2.995
REMARK SMILES CCCCCCCCCCCCCCCCCCCCCC(=O)[O-]
REMARK SMILES IDX 12 1 11 2 10 3 9 4 8 5 7 6 6 7 5 8 4 9 3 10 2 11 1 12 13 13
REMARK SMILES IDX 14 14 15 15 16 16 17 17 18 18 19 19 20 20 21 21 22 22 23 23
REMARK SMILES IDX 24 24
REMARK H PARENT
REMARK Flexibility Score: inf
ROOT
ATOM      1  C   UNL     1     -17.102 -12.635  25.625  1.00  0.00     0.000 C 
ENDROOT
BRANCH   1   2
ATOM      2  C   UNL     1     -17.518 -13.173  27.007  1.00  0.00     0.000 C 
BRANCH   2   3
ATOM      3  C   UNL     1     -17.064 -14.622  27.283  1.00  0.00     0.000 C 
BRANCH   3   4
ATOM      4  C   UNL     1     -15.984 -15.141  26.313  1.00  0.00    -0.000 C 
BRANCH   4   5
ATOM      5  C   UNL     1     -15.233 -16.364  26.869  1.00  0.00    -0.000 C 
BRANCH   5   6
ATOM      6  C   UNL     1     -16.038 -17.120  27.940  1.00  0.00    -0.000 C 
BRANCH   6   7
ATOM      7  C   UNL     1     -15.270 -17.392  29.247  1.00  0.00    -0.000 C 
BRANCH   7   8
ATOM      8  C   UNL     1     -13.780 -16.990  29.182  1.00  0.00    -0.000 C 
BRANCH   8   9
ATOM      9  C   UNL     1     -13.385 -16.029  30.318  1.00  0.00    -0.000 C 
BRANCH   9  10
ATOM     10  C   UNL     1     -14.306 -14.792  30.385  1.00  0.00    -0.000 C 
BRANCH  10  11
ATOM     11  C   UNL     1     -14.076 -13.791  29.240  1.00  0.00    -0.003 C 
ATOM     12  C   UNL     1     -14.265 -12.338  29.669  1.00  0.00     0.004 C 
ENDBRANCH  10  11
ENDBRANCH   9  10
ENDBRANCH   8   9
ENDBRANCH   7   8
ENDBRANCH   6   7
ENDBRANCH   5   6
ENDBRANCH   4   5
ENDBRANCH   3   4
ENDBRANCH   2   3
ENDBRANCH   1   2
BRANCH   1  13
ATOM     13  C   UNL     1     -18.256 -11.922  24.898  1.00  0.00     0.000 C 
BRANCH  13  14
ATOM     14  C   UNL     1     -18.417 -12.388  23.441  1.00  0.00     0.000 C 
BRANCH  14  15
ATOM     15  C   UNL     1     -17.663 -13.687  23.094  1.00  0.00     0.000 C 
BRANCH  15  16
ATOM     16  C   UNL     1     -18.557 -14.864  22.655  1.00  0.00     0.000 C 
BRANCH  16  17
ATOM     17  C   UNL     1     -19.879 -15.001  23.431  1.00  0.00     0.000 C 
BRANCH  17  18
ATOM     18  C   UNL     1     -19.668 -15.400  24.902  1.00  0.00     0.000 C 
BRANCH  18  19
ATOM     19  C   UNL     1     -20.035 -16.866  25.177  1.00  0.00     0.000 C 
BRANCH  19  20
ATOM     20  C   UNL     1     -18.832 -17.698  25.650  1.00  0.00     0.006 C 
BRANCH  20  21
ATOM     21  C   UNL     1     -17.812 -17.877  24.523  1.00  0.00     0.053 C 
BRANCH  21  22
ATOM     22  C   UNL     1     -18.190 -19.030  23.647  1.00  0.00     0.041 C 
ATOM     23  O   UNL     1     -17.850 -20.202  23.960  1.00  0.00    -0.550 OA
ATOM     24  O   UNL     1     -18.949 -18.816  22.502  1.00  0.00    -0.550 OA
ENDBRANCH  21  22
ENDBRANCH  20  21
ENDBRANCH  19  20
ENDBRANCH  18  19
ENDBRANCH  17  18
ENDBRANCH  16  17
ENDBRANCH  15  16
ENDBRANCH  14  15
ENDBRANCH  13  14
ENDBRANCH   1  13
TORSDOF 20
ENDMDL
MODEL 8
REMARK VINA RESULT:    -3.133      9.777     11.952
REMARK INTER + INTRA:          -9.792
REMARK INTER:                  -5.463
REMARK INTRA:                  -4.329
REMARK UNBOUND:                -2.995
REMARK SMILES CCCCCCCCCCCCCCCCCCCCCC(=O)[O-]
REMARK SMILES IDX 12 1 11 2 10 3 9 4 8 5 7 6 6 7 5 8 4 9 3 10 2 11 1 12 13 13
REMARK SMILES IDX 14 14 15 15 16 16 17 17 18 18 19 19 20 20 21 21 22 22 23 23
REMARK SMILES IDX 24 24
REMARK H PARENT
REMARK Flexibility Score: inf
ROOT
ATOM      1  C   UNL     1     -13.270 -21.660  18.580  1.00  0.00     0.000 C 
ENDROOT
BRANCH   1   2
ATOM      2  C   UNL     1     -13.081 -22.905  19.468  1.00  0.00     0.000 C 
BRANCH   2   3
ATOM      3  C   UNL     1     -11.635 -23.441  19.505  1.00  0.00     0.000 C 
BRANCH   3   4
ATOM      4  C   UNL     1     -11.004 -23.460  20.911  1.00  0.00    -0.000 C 
BRANCH   4   5
ATOM      5  C   UNL     1     -12.047 -23.685  22.021  1.00  0.00    -0.000 C 
BRANCH   5   6
ATOM      6  C   UNL     1     -11.998 -22.601  23.111  1.00  0.00    -0.000 C 
BRANCH   6   7
ATOM      7  C   UNL     1     -13.189 -22.619  24.087  1.00  0.00    -0.000 C 
BRANCH   7   8
ATOM      8  C   UNL     1     -14.539 -22.278  23.419  1.00  0.00    -0.000 C 
BRANCH   8   9
ATOM      9  C   UNL     1     -15.385 -23.532  23.135  1.00  0.00    -0.000 C 
BRANCH   9  10
ATOM     10  C   UNL     1     -16.058 -23.482  21.747  1.00  0.00    -0.000 C 
BRANCH  10  11
ATOM     11  C   UNL     1     -16.569 -22.084  21.362  1.00  0.00    -0.003 C 
ATOM     12  C   UNL     1     -17.221 -22.044  19.981  1.00  0.00     0.004 C 
ENDBRANCH  10  11
ENDBRANCH   9  10
ENDBRANCH   8   9
ENDBRANCH   7   8
ENDBRANCH   6   7
ENDBRANCH   5   6
ENDBRANCH   4   5
ENDBRANCH   3   4
ENDBRANCH   2   3
ENDBRANCH   1   2
BRANCH   1  13
ATOM     13  C   UNL     1     -13.962 -20.505  19.325  1.00  0.00     0.000 C 
BRANCH  13  14
ATOM     14  C   UNL     1     -13.265 -20.153  20.650  1.00  0.00     0.000 C 
BRANCH  14  15
ATOM     15  C   UNL     1     -12.037 -19.233  20.505  1.00  0.00     0.000 C 
BRANCH  15  16
ATOM     16  C   UNL     1     -10.705 -19.837  20.996  1.00  0.00     0.000 C 
BRANCH  16  17
ATOM     17  C   UNL     1      -9.669 -20.108  19.890  1.00  0.00     0.000 C 
BRANCH  17  18
ATOM     18  C   UNL     1      -9.826 -19.168  18.683  1.00  0.00     0.000 C 
BRANCH  18  19
ATOM     19  C   UNL     1     -10.196 -19.914  17.393  1.00  0.00     0.000 C 
BRANCH  19  20
ATOM     20  C   UNL     1     -11.349 -19.241  16.630  1.00  0.00     0.006 C 
BRANCH  20  21
ATOM     21  C   UNL     1     -11.607 -17.828  17.161  1.00  0.00     0.053 C 
BRANCH  21  22
ATOM     22  C   UNL     1     -13.054 -17.471  17.031  1.00  0.00     0.041 C 
ATOM     23  O   UNL     1     -13.606 -17.462  15.898  1.00  0.00    -0.550 OA
ATOM     24  O   UNL     1     -13.806 -17.183  18.164  1.00  0.00    -0.550 OA
ENDBRANCH  21  22
ENDBRANCH  20  21
ENDBRANCH  19  20
ENDBRANCH  18  19
ENDBRANCH  17  18
ENDBRANCH  16  17
ENDBRANCH  15  16
ENDBRANCH  14  15
ENDBRANCH  13  14
ENDBRANCH   1  13
TORSDOF 20
ENDMDL
MODEL 9
REMARK VINA RESULT:    -3.118      4.520      8.375
REMARK INTER + INTRA:          -9.758
REMARK INTER:                  -6.122
REMARK INTRA:                  -3.635
REMARK UNBOUND:                -2.995
REMARK SMILES CCCCCCCCCCCCCCCCCCCCCC(=O)[O-]
REMARK SMILES IDX 12 1 11 2 10 3 9 4 8 5 7 6 6 7 5 8 4 9 3 10 2 11 1 12 13 13
REMARK SMILES IDX 14 14 15 15 16 16 17 17 18 18 19 19 20 20 21 21 22 22 23 23
REMARK SMILES IDX 24 24
REMARK H PARENT
REMARK Flexibility Score: inf
ROOT
ATOM      1  C   UNL     1     -15.264 -16.390  27.131  1.00  0.00     0.000 C 
ENDROOT
BRANCH   1   2
ATOM      2  C   UNL     1     -15.237 -14.851  27.189  1.00  0.00     0.000 C 
BRANCH   2   3
ATOM      3  C   UNL     1     -16.620 -14.188  27.024  1.00  0.00     0.000 C 
BRANCH   3   4
ATOM      4  C   UNL     1     -16.914 -13.075  28.049  1.00  0.00    -0.000 C 
BRANCH   4   5
ATOM      5  C   UNL     1     -16.657 -13.528  29.498  1.00  0.00    -0.000 C 
BRANCH   5   6
ATOM      6  C   UNL     1     -15.728 -12.570  30.264  1.00  0.00    -0.000 C 
BRANCH   6   7
ATOM      7  C   UNL     1     -14.948 -13.222  31.421  1.00  0.00    -0.000 C 
BRANCH   7   8
ATOM      8  C   UNL     1     -14.812 -14.754  31.286  1.00  0.00    -0.000 C 
BRANCH   8   9
ATOM      9  C   UNL     1     -13.346 -15.200  31.133  1.00  0.00    -0.000 C 
BRANCH   9  10
ATOM     10  C   UNL     1     -12.763 -14.829  29.753  1.00  0.00    -0.000 C 
BRANCH  10  11
ATOM     11  C   UNL     1     -11.864 -15.923  29.152  1.00  0.00    -0.003 C 
ATOM     12  C   UNL     1     -12.013 -17.272  29.853  1.00  0.00     0.004 C 
ENDBRANCH  10  11
ENDBRANCH   9  10
ENDBRANCH   8   9
ENDBRANCH   7   8
ENDBRANCH   6   7
ENDBRANCH   5   6
ENDBRANCH   4   5
ENDBRANCH   3   4
ENDBRANCH   2   3
ENDBRANCH   1   2
BRANCH   1  13
ATOM     13  C   UNL     1     -15.606 -17.024  28.491  1.00  0.00     0.000 C 
BRANCH  13  14
ATOM     14  C   UNL     1     -16.851 -17.924  28.428  1.00  0.00     0.000 C 
BRANCH  14  15
ATOM     15  C   UNL     1     -18.193 -17.165  28.402  1.00  0.00     0.000 C 
BRANCH  15  16
ATOM     16  C   UNL     1     -18.907 -17.147  27.035  1.00  0.00     0.000 C 
BRANCH  16  17
ATOM     17  C   UNL     1     -18.302 -18.084  25.974  1.00  0.00     0.000 C 
BRANCH  17  18
ATOM     18  C   UNL     1     -18.463 -17.545  24.542  1.00  0.00     0.000 C 
BRANCH  18  19
ATOM     19  C   UNL     1     -17.744 -16.205  24.328  1.00  0.00     0.000 C 
BRANCH  19  20
ATOM     20  C   UNL     1     -18.688 -15.103  23.819  1.00  0.00     0.006 C 
BRANCH  20  21
ATOM     21  C   UNL     1     -17.919 -13.807  23.544  1.00  0.00     0.053 C 
BRANCH  21  22
ATOM     22  C   UNL     1     -18.754 -12.614  23.890  1.00  0.00     0.041 C 
ATOM     23  O   UNL     1     -19.721 -12.282  23.154  1.00  0.00    -0.550 OA
ATOM     24  O   UNL     1     -18.487 -11.889  25.046  1.00  0.00    -0.550 OA
ENDBRANCH  21  22
ENDBRANCH  20  21
ENDBRANCH  19  20
ENDBRANCH  18  19
ENDBRANCH  17  18
ENDBRANCH  16  17
ENDBRANCH  15  16
ENDBRANCH  14  15
ENDBRANCH  13  14
ENDBRANCH   1  13
TORSDOF 20
ENDMDL
