MODEL 1
REMARK VINA RESULT:    -5.052      0.000      0.000
REMARK INTER + INTRA:         -10.221
REMARK INTER:                  -9.482
REMARK INTRA:                  -0.739
REMARK UNBOUND:                -0.739
REMARK SMILES CCCCCCCCC=CCCCCCCCC(=O)[O-]
REMARK SMILES IDX 10 1 9 2 11 3 12 4 13 5 14 6 15 7 16 8 17 9 18 10 19 11
REMARK SMILES IDX 20 12 8 13 7 14 6 15 5 16 4 17 3 18 2 19 1 20
REMARK H PARENT
REMARK Flexibility Score: inf
ROOT
ATOM      1  C   UNL     1       2.394  20.292  32.929  1.00  0.00    -0.031 C 
ATOM      2  C   UNL     1       1.064  20.233  33.085  1.00  0.00    -0.031 C 
ENDROOT
BRANCH   1   3
ATOM      3  C   UNL     1       3.248  19.053  32.947  1.00  0.00     0.027 C 
BRANCH   3   4
ATOM      4  C   UNL     1       3.933  18.862  34.306  1.00  0.00     0.004 C 
BRANCH   4   5
ATOM      5  C   UNL     1       4.289  17.389  34.572  1.00  0.00     0.000 C 
BRANCH   5   6
ATOM      6  C   UNL     1       5.780  17.185  34.881  1.00  0.00     0.000 C 
BRANCH   6   7
ATOM      7  C   UNL     1       6.689  18.049  33.990  1.00  0.00     0.000 C 
BRANCH   7   8
ATOM      8  C   UNL     1       6.660  17.615  32.512  1.00  0.00     0.006 C 
BRANCH   8   9
ATOM      9  C   UNL     1       6.428  16.111  32.296  1.00  0.00     0.053 C 
BRANCH   9  10
ATOM     10  C   UNL     1       7.525  15.484  31.491  1.00  0.00     0.041 C 
ATOM     11  O   UNL     1       8.600  16.108  31.290  1.00  0.00    -0.550 OA
ATOM     12  O   UNL     1       7.345  14.224  30.936  1.00  0.00    -0.550 OA
ENDBRANCH   9  10
ENDBRANCH   8   9
ENDBRANCH   7   8
ENDBRANCH   6   7
ENDBRANCH   5   6
ENDBRANCH   4   5
ENDBRANCH   3   4
ENDBRANCH   1   3
BRANCH   2  13
ATOM     13  C   UNL     1       0.209  21.472  33.081  1.00  0.00     0.027 C 
BRANCH  13  14
ATOM     14  C   UNL     1      -0.593  21.601  31.778  1.00  0.00     0.004 C 
BRANCH  14  15
ATOM     15  C   UNL     1      -0.495  20.374  30.848  1.00  0.00     0.000 C 
BRANCH  15  16
ATOM     16  C   UNL     1      -1.585  20.288  29.761  1.00  0.00     0.000 C 
BRANCH  16  17
ATOM     17  C   UNL     1      -1.561  19.003  28.914  1.00  0.00    -0.000 C 
BRANCH  17  18
ATOM     18  C   UNL     1      -2.462  19.091  27.673  1.00  0.00    -0.000 C 
BRANCH  18  19
ATOM     19  C   UNL     1      -2.535  20.530  27.150  1.00  0.00    -0.003 C 
ATOM     20  C   UNL     1      -1.418  20.811  26.149  1.00  0.00     0.004 C 
ENDBRANCH  18  19
ENDBRANCH  17  18
ENDBRANCH  16  17
ENDBRANCH  15  16
ENDBRANCH  14  15
ENDBRANCH  13  14
ENDBRANCH   2  13
TORSDOF 15
ENDMDL
MODEL 2
REMARK VINA RESULT:    -4.934      1.240      2.108
REMARK INTER + INTRA:         -10.001
REMARK INTER:                  -9.274
REMARK INTRA:                  -0.727
REMARK UNBOUND:                -0.739
REMARK SMILES CCCCCCCCC=CCCCCCCCC(=O)[O-]
REMARK SMILES IDX 10 1 9 2 11 3 12 4 13 5 14 6 15 7 16 8 17 9 18 10 19 11
REMARK SMILES IDX 20 12 8 13 7 14 6 15 5 16 4 17 3 18 2 19 1 20
REMARK H PARENT
REMARK Flexibility Score: inf
ROOT
ATOM      1  C   UNL     1       1.089  21.362  33.656  1.00  0.00    -0.031 C 
ATOM      2  C   UNL     1      -0.051  22.048  33.487  1.00  0.00    -0.031 C 
ENDROOT
BRANCH   1   3
ATOM      3  C   UNL     1       1.849  21.399  34.955  1.00  0.00     0.027 C 
BRANCH   3   4
ATOM      4  C   UNL     1       2.871  20.259  35.041  1.00  0.00     0.004 C 
BRANCH   4   5
ATOM      5  C   UNL     1       2.647  19.198  33.948  1.00  0.00     0.000 C 
BRANCH   5   6
ATOM      6  C   UNL     1       2.621  17.767  34.507  1.00  0.00     0.000 C 
BRANCH   6   7
ATOM      7  C   UNL     1       3.972  17.346  35.111  1.00  0.00     0.000 C 
BRANCH   7   8
ATOM      8  C   UNL     1       5.167  17.729  34.218  1.00  0.00     0.006 C 
BRANCH   8   9
ATOM      9  C   UNL     1       6.215  16.617  34.049  1.00  0.00     0.053 C 
BRANCH   9  10
ATOM     10  C   UNL     1       6.922  16.708  32.731  1.00  0.00     0.041 C 
ATOM     11  O   UNL     1       6.908  15.733  31.935  1.00  0.00    -0.550 OA
ATOM     12  O   UNL     1       7.622  17.860  32.397  1.00  0.00    -0.550 OA
ENDBRANCH   9  10
ENDBRANCH   8   9
ENDBRANCH   7   8
ENDBRANCH   6   7
ENDBRANCH   5   6
ENDBRANCH   4   5
ENDBRANCH   3   4
ENDBRANCH   1   3
BRANCH   2  13
ATOM     13  C   UNL     1      -0.806  22.024  32.185  1.00  0.00     0.027 C 
BRANCH  13  14
ATOM     14  C   UNL     1      -0.509  20.748  31.384  1.00  0.00     0.004 C 
BRANCH  14  15
ATOM     15  C   UNL     1      -1.286  20.638  30.056  1.00  0.00     0.000 C 
BRANCH  15  16
ATOM     16  C   UNL     1      -1.182  19.273  29.348  1.00  0.00     0.000 C 
BRANCH  16  17
ATOM     17  C   UNL     1      -2.287  18.988  28.314  1.00  0.00    -0.000 C 
BRANCH  17  18
ATOM     18  C   UNL     1      -3.132  20.228  27.987  1.00  0.00    -0.000 C 
BRANCH  18  19
ATOM     19  C   UNL     1      -2.797  20.767  26.591  1.00  0.00    -0.003 C 
ATOM     20  C   UNL     1      -1.305  20.648  26.297  1.00  0.00     0.004 C 
ENDBRANCH  18  19
ENDBRANCH  17  18
ENDBRANCH  16  17
ENDBRANCH  15  16
ENDBRANCH  14  15
ENDBRANCH  13  14
ENDBRANCH   2  13
TORSDOF 15
ENDMDL
MODEL 3
REMARK VINA RESULT:    -4.622     14.873     18.629
REMARK INTER + INTRA:          -9.415
REMARK INTER:                  -8.644
REMARK INTRA:                  -0.771
REMARK UNBOUND:                -0.739
REMARK SMILES CCCCCCCCC=CCCCCCCCC(=O)[O-]
REMARK SMILES IDX 10 1 9 2 11 3 12 4 13 5 14 6 15 7 16 8 17 9 18 10 19 11
REMARK SMILES IDX 20 12 8 13 7 14 6 15 5 16 4 17 3 18 2 19 1 20
REMARK H PARENT
REMARK Flexibility Score: inf
ROOT
ATOM      1  C   UNL     1       4.899  10.160  15.825  1.00  0.00    -0.031 C 
ATOM      2  C   UNL     1       5.632  10.914  14.993  1.00  0.00    -0.031 C 
ENDROOT
BRANCH   1   3
ATOM      3  C   UNL     1       3.925   9.134  15.311  1.00  0.00     0.027 C 
BRANCH   3   4
ATOM      4  C   UNL     1       2.520   9.356  15.884  1.00  0.00     0.004 C 
BRANCH   4   5
ATOM      5  C   UNL     1       1.523   8.288  15.401  1.00  0.00     0.000 C 
BRANCH   5   6
ATOM      6  C   UNL     1       0.210   8.298  16.199  1.00  0.00     0.000 C 
BRANCH   6   7
ATOM      7  C   UNL     1       0.059   9.559  17.068  1.00  0.00     0.000 C 
BRANCH   7   8
ATOM      8  C   UNL     1      -1.124   9.467  18.050  1.00  0.00     0.006 C 
BRANCH   8   9
ATOM      9  C   UNL     1      -1.293  10.695  18.959  1.00  0.00     0.053 C 
BRANCH   9  10
ATOM     10  C   UNL     1      -1.982  10.351  20.244  1.00  0.00     0.041 C 
ATOM     11  O   UNL     1      -3.035  10.954  20.580  1.00  0.00    -0.550 OA
ATOM     12  O   UNL     1      -1.442   9.387  21.085  1.00  0.00    -0.550 OA
ENDBRANCH   9  10
ENDBRANCH   8   9
ENDBRANCH   7   8
ENDBRANCH   6   7
ENDBRANCH   5   6
ENDBRANCH   4   5
ENDBRANCH   3   4
ENDBRANCH   1   3
BRANCH   2  13
ATOM     13  C   UNL     1       6.597  11.950  15.504  1.00  0.00     0.027 C 
BRANCH  13  14
ATOM     14  C   UNL     1       7.988  11.786  14.876  1.00  0.00     0.004 C 
BRANCH  14  15
ATOM     15  C   UNL     1       8.963  10.929  15.709  1.00  0.00     0.000 C 
BRANCH  15  16
ATOM     16  C   UNL     1       8.485  10.594  17.136  1.00  0.00     0.000 C 
BRANCH  16  17
ATOM     17  C   UNL     1       9.125  11.438  18.253  1.00  0.00    -0.000 C 
BRANCH  17  18
ATOM     18  C   UNL     1       8.742  12.923  18.173  1.00  0.00    -0.000 C 
BRANCH  18  19
ATOM     19  C   UNL     1       9.404  13.722  19.302  1.00  0.00    -0.003 C 
ATOM     20  C   UNL     1       8.495  14.848  19.787  1.00  0.00     0.004 C 
ENDBRANCH  18  19
ENDBRANCH  17  18
ENDBRANCH  16  17
ENDBRANCH  15  16
ENDBRANCH  14  15
ENDBRANCH  13  14
ENDBRANCH   2  13
TORSDOF 15
ENDMDL
MODEL 4
REMARK VINA RESULT:    -4.594      1.465      3.087
REMARK INTER + INTRA:          -9.362
REMARK INTER:                  -8.562
REMARK INTRA:                  -0.800
REMARK UNBOUND:                -0.739
REMARK SMILES CCCCCCCCC=CCCCCCCCC(=O)[O-]
REMARK SMILES IDX 10 1 9 2 11 3 12 4 13 5 14 6 15 7 16 8 17 9 18 10 19 11
REMARK SMILES IDX 20 12 8 13 7 14 6 15 5 16 4 17 3 18 2 19 1 20
REMARK H PARENT
REMARK Flexibility Score: inf
ROOT
ATOM      1  C   UNL     1       0.322  20.667  31.690  1.00  0.00    -0.031 C 
ATOM      2  C   UNL     1      -0.928  20.479  31.245  1.00  0.00    -0.031 C 
ENDROOT
BRANCH   1   3
ATOM      3  C   UNL     1       0.642  20.699  33.160  1.00  0.00     0.027 C 
BRANCH   3   4
ATOM      4  C   UNL     1       2.154  20.649  33.408  1.00  0.00     0.004 C 
BRANCH   4   5
ATOM      5  C   UNL     1       2.510  19.808  34.647  1.00  0.00     0.000 C 
BRANCH   5   6
ATOM      6  C   UNL     1       1.886  18.404  34.610  1.00  0.00     0.000 C 
BRANCH   6   7
ATOM      7  C   UNL     1       2.901  17.299  34.951  1.00  0.00     0.000 C 
BRANCH   7   8
ATOM      8  C   UNL     1       4.333  17.841  35.125  1.00  0.00     0.006 C 
BRANCH   8   9
ATOM      9  C   UNL     1       5.438  16.869  34.681  1.00  0.00     0.053 C 
BRANCH   9  10
ATOM     10  C   UNL     1       5.891  17.137  33.278  1.00  0.00     0.041 C 
ATOM     11  O   UNL     1       6.902  16.548  32.815  1.00  0.00    -0.550 OA
ATOM     12  O   UNL     1       5.213  18.062  32.495  1.00  0.00    -0.550 OA
ENDBRANCH   9  10
ENDBRANCH   8   9
ENDBRANCH   7   8
ENDBRANCH   6   7
ENDBRANCH   5   6
ENDBRANCH   4   5
ENDBRANCH   3   4
ENDBRANCH   1   3
BRANCH   2  13
ATOM     13  C   UNL     1      -1.253  20.460  29.775  1.00  0.00     0.027 C 
BRANCH  13  14
ATOM     14  C   UNL     1      -0.843  19.132  29.122  1.00  0.00     0.004 C 
BRANCH  14  15
ATOM     15  C   UNL     1      -2.026  18.216  28.750  1.00  0.00     0.000 C 
BRANCH  15  16
ATOM     16  C   UNL     1      -2.785  18.615  27.469  1.00  0.00     0.000 C 
BRANCH  16  17
ATOM     17  C   UNL     1      -3.608  19.912  27.575  1.00  0.00    -0.000 C 
BRANCH  17  18
ATOM     18  C   UNL     1      -3.077  21.031  26.666  1.00  0.00    -0.000 C 
BRANCH  18  19
ATOM     19  C   UNL     1      -1.662  20.710  26.172  1.00  0.00    -0.003 C 
ATOM     20  C   UNL     1      -1.065  21.887  25.407  1.00  0.00     0.004 C 
ENDBRANCH  18  19
ENDBRANCH  17  18
ENDBRANCH  16  17
ENDBRANCH  15  16
ENDBRANCH  14  15
ENDBRANCH  13  14
ENDBRANCH   2  13
TORSDOF 15
ENDMDL
MODEL 5
REMARK VINA RESULT:    -4.562     14.460     18.366
REMARK INTER + INTRA:          -9.301
REMARK INTER:                  -8.990
REMARK INTRA:                  -0.310
REMARK UNBOUND:                -0.739
REMARK SMILES CCCCCCCCC=CCCCCCCCC(=O)[O-]
REMARK SMILES IDX 10 1 9 2 11 3 12 4 13 5 14 6 15 7 16 8 17 9 18 10 19 11
REMARK SMILES IDX 20 12 8 13 7 14 6 15 5 16 4 17 3 18 2 19 1 20
REMARK H PARENT
REMARK Flexibility Score: inf
ROOT
ATOM      1  C   UNL     1       2.530   9.308  15.417  1.00  0.00    -0.031 C 
ATOM      2  C   UNL     1       3.771   9.393  14.916  1.00  0.00    -0.031 C 
ENDROOT
BRANCH   1   3
ATOM      3  C   UNL     1       1.582   8.218  14.997  1.00  0.00     0.027 C 
BRANCH   3   4
ATOM      4  C   UNL     1       0.433   8.055  15.999  1.00  0.00     0.004 C 
BRANCH   4   5
ATOM      5  C   UNL     1       0.404   9.193  17.035  1.00  0.00     0.000 C 
BRANCH   5   6
ATOM      6  C   UNL     1      -1.022   9.544  17.491  1.00  0.00     0.000 C 
BRANCH   6   7
ATOM      7  C   UNL     1      -1.037  10.540  18.664  1.00  0.00     0.000 C 
BRANCH   7   8
ATOM      8  C   UNL     1      -2.425  10.667  19.319  1.00  0.00     0.006 C 
BRANCH   8   9
ATOM      9  C   UNL     1      -2.807   9.489  20.230  1.00  0.00     0.053 C 
BRANCH   9  10
ATOM     10  C   UNL     1      -1.743   9.195  21.243  1.00  0.00     0.041 C 
ATOM     11  O   UNL     1      -1.686   8.064  21.792  1.00  0.00    -0.550 OA
ATOM     12  O   UNL     1      -0.833  10.181  21.601  1.00  0.00    -0.550 OA
ENDBRANCH   9  10
ENDBRANCH   8   9
ENDBRANCH   7   8
ENDBRANCH   6   7
ENDBRANCH   5   6
ENDBRANCH   4   5
ENDBRANCH   3   4
ENDBRANCH   1   3
BRANCH   2  13
ATOM     13  C   UNL     1       4.718  10.490  15.325  1.00  0.00     0.027 C 
BRANCH  13  14
ATOM     14  C   UNL     1       6.071   9.928  15.784  1.00  0.00     0.004 C 
BRANCH  14  15
ATOM     15  C   UNL     1       6.844  10.846  16.753  1.00  0.00     0.000 C 
BRANCH  15  16
ATOM     16  C   UNL     1       8.248  10.346  17.148  1.00  0.00     0.000 C 
BRANCH  16  17
ATOM     17  C   UNL     1       9.007  11.248  18.138  1.00  0.00    -0.000 C 
BRANCH  17  18
ATOM     18  C   UNL     1       8.526  12.707  18.105  1.00  0.00    -0.000 C 
BRANCH  18  19
ATOM     19  C   UNL     1       9.415  13.596  18.981  1.00  0.00    -0.003 C 
ATOM     20  C   UNL     1       8.586  14.630  19.738  1.00  0.00     0.004 C 
ENDBRANCH  18  19
ENDBRANCH  17  18
ENDBRANCH  16  17
ENDBRANCH  15  16
ENDBRANCH  14  15
ENDBRANCH  13  14
ENDBRANCH   2  13
TORSDOF 15
ENDMDL
MODEL 6
REMARK VINA RESULT:    -4.454     12.950     15.429
REMARK INTER + INTRA:          -9.100
REMARK INTER:                  -8.277
REMARK INTRA:                  -0.823
REMARK UNBOUND:                -0.739
REMARK SMILES CCCCCCCCC=CCCCCCCCC(=O)[O-]
REMARK SMILES IDX 10 1 9 2 11 3 12 4 13 5 14 6 15 7 16 8 17 9 18 10 19 11
REMARK SMILES IDX 20 12 8 13 7 14 6 15 5 16 4 17 3 18 2 19 1 20
REMARK H PARENT
REMARK Flexibility Score: inf
ROOT
ATOM      1  C   UNL     1       8.847  12.284  18.407  1.00  0.00    -0.031 C 
ATOM      2  C   UNL     1       8.270  12.326  17.197  1.00  0.00    -0.031 C 
ENDROOT
BRANCH   1   3
ATOM      3  C   UNL     1       9.682  13.425  18.924  1.00  0.00     0.027 C 
BRANCH   3   4
ATOM      4  C   UNL     1       8.807  14.569  19.449  1.00  0.00     0.004 C 
BRANCH   4   5
ATOM      5  C   UNL     1       8.709  14.564  20.985  1.00  0.00     0.000 C 
BRANCH   5   6
ATOM      6  C   UNL     1       9.933  13.919  21.656  1.00  0.00     0.000 C 
BRANCH   6   7
ATOM      7  C   UNL     1      10.234  14.525  23.038  1.00  0.00     0.000 C 
BRANCH   7   8
ATOM      8  C   UNL     1       9.030  15.278  23.632  1.00  0.00     0.006 C 
BRANCH   8   9
ATOM      9  C   UNL     1       8.275  14.506  24.727  1.00  0.00     0.053 C 
BRANCH   9  10
ATOM     10  C   UNL     1       6.790  14.623  24.573  1.00  0.00     0.041 C 
ATOM     11  O   UNL     1       6.169  13.846  23.801  1.00  0.00    -0.550 OA
ATOM     12  O   UNL     1       6.096  15.611  25.260  1.00  0.00    -0.550 OA
ENDBRANCH   9  10
ENDBRANCH   8   9
ENDBRANCH   7   8
ENDBRANCH   6   7
ENDBRANCH   5   6
ENDBRANCH   4   5
ENDBRANCH   3   4
ENDBRANCH   1   3
BRANCH   2  13
ATOM     13  C   UNL     1       7.445  11.182  16.672  1.00  0.00     0.027 C 
BRANCH  13  14
ATOM     14  C   UNL     1       6.502  11.634  15.548  1.00  0.00     0.004 C 
BRANCH  14  15
ATOM     15  C   UNL     1       5.519  10.546  15.069  1.00  0.00     0.000 C 
BRANCH  15  16
ATOM     16  C   UNL     1       4.830   9.746  16.192  1.00  0.00     0.000 C 
BRANCH  16  17
ATOM     17  C   UNL     1       3.292   9.711  16.119  1.00  0.00    -0.000 C 
BRANCH  17  18
ATOM     18  C   UNL     1       2.770   8.914  14.915  1.00  0.00    -0.000 C 
BRANCH  18  19
ATOM     19  C   UNL     1       1.499   8.139  15.280  1.00  0.00    -0.003 C 
ATOM     20  C   UNL     1       0.667   8.898  16.310  1.00  0.00     0.004 C 
ENDBRANCH  18  19
ENDBRANCH  17  18
ENDBRANCH  16  17
ENDBRANCH  15  16
ENDBRANCH  14  15
ENDBRANCH  13  14
ENDBRANCH   2  13
TORSDOF 15
ENDMDL
MODEL 7
REMARK VINA RESULT:    -4.435      1.963      3.785
REMARK INTER + INTRA:          -9.063
REMARK INTER:                  -7.885
REMARK INTRA:                  -1.178
REMARK UNBOUND:                -0.739
REMARK SMILES CCCCCCCCC=CCCCCCCCC(=O)[O-]
REMARK SMILES IDX 10 1 9 2 11 3 12 4 13 5 14 6 15 7 16 8 17 9 18 10 19 11
REMARK SMILES IDX 20 12 8 13 7 14 6 15 5 16 4 17 3 18 2 19 1 20
REMARK H PARENT
REMARK Flexibility Score: inf
ROOT
ATOM      1  C   UNL     1       0.080  21.039  32.276  1.00  0.00    -0.031 C 
ATOM      2  C   UNL     1      -0.790  21.079  31.257  1.00  0.00    -0.031 C 
ENDROOT
BRANCH   1   3
ATOM      3  C   UNL     1      -0.014  21.998  33.432  1.00  0.00     0.027 C 
BRANCH   3   4
ATOM      4  C   UNL     1       1.127  21.783  34.435  1.00  0.00     0.004 C 
BRANCH   4   5
ATOM      5  C   UNL     1       2.156  20.757  33.928  1.00  0.00     0.000 C 
BRANCH   5   6
ATOM      6  C   UNL     1       2.537  19.721  34.998  1.00  0.00     0.000 C 
BRANCH   6   7
ATOM      7  C   UNL     1       1.911  18.341  34.730  1.00  0.00     0.000 C 
BRANCH   7   8
ATOM      8  C   UNL     1       2.900  17.184  34.964  1.00  0.00     0.006 C 
BRANCH   8   9
ATOM      9  C   UNL     1       4.369  17.618  35.087  1.00  0.00     0.053 C 
BRANCH   9  10
ATOM     10  C   UNL     1       5.138  17.361  33.827  1.00  0.00     0.041 C 
ATOM     11  O   UNL     1       5.987  16.434  33.780  1.00  0.00    -0.550 OA
ATOM     12  O   UNL     1       4.936  18.167  32.714  1.00  0.00    -0.550 OA
ENDBRANCH   9  10
ENDBRANCH   8   9
ENDBRANCH   7   8
ENDBRANCH   6   7
ENDBRANCH   5   6
ENDBRANCH   4   5
ENDBRANCH   3   4
ENDBRANCH   1   3
BRANCH   2  13
ATOM     13  C   UNL     1      -0.691  20.129  30.092  1.00  0.00     0.027 C 
BRANCH  13  14
ATOM     14  C   UNL     1      -1.972  20.137  29.246  1.00  0.00     0.004 C 
BRANCH  14  15
ATOM     15  C   UNL     1      -1.739  20.411  27.746  1.00  0.00     0.000 C 
BRANCH  15  16
ATOM     16  C   UNL     1      -3.005  20.361  26.867  1.00  0.00     0.000 C 
BRANCH  16  17
ATOM     17  C   UNL     1      -3.872  19.101  27.042  1.00  0.00    -0.000 C 
BRANCH  17  18
ATOM     18  C   UNL     1      -3.125  17.809  26.682  1.00  0.00    -0.000 C 
BRANCH  18  19
ATOM     19  C   UNL     1      -3.187  16.801  27.835  1.00  0.00    -0.003 C 
ATOM     20  C   UNL     1      -1.861  16.740  28.587  1.00  0.00     0.004 C 
ENDBRANCH  18  19
ENDBRANCH  17  18
ENDBRANCH  16  17
ENDBRANCH  15  16
ENDBRANCH  14  15
ENDBRANCH  13  14
ENDBRANCH   2  13
TORSDOF 15
ENDMDL
MODEL 8
REMARK VINA RESULT:    -4.251     13.555     17.487
REMARK INTER + INTRA:          -8.718
REMARK INTER:                  -7.944
REMARK INTRA:                  -0.774
REMARK UNBOUND:                -0.739
REMARK SMILES CCCCCCCCC=CCCCCCCCC(=O)[O-]
REMARK SMILES IDX 10 1 9 2 11 3 12 4 13 5 14 6 15 7 16 8 17 9 18 10 19 11
REMARK SMILES IDX 20 12 8 13 7 14 6 15 5 16 4 17 3 18 2 19 1 20
REMARK H PARENT
REMARK Flexibility Score: inf
ROOT
ATOM      1  C   UNL     1       8.445  12.519  18.155  1.00  0.00    -0.031 C 
ATOM      2  C   UNL     1       9.269  13.258  18.913  1.00  0.00    -0.031 C 
ENDROOT
BRANCH   1   3
ATOM      3  C   UNL     1       8.812  11.126  17.717  1.00  0.00     0.027 C 
BRANCH   3   4
ATOM      4  C   UNL     1       7.831  10.591  16.667  1.00  0.00     0.004 C 
BRANCH   4   5
ATOM      5  C   UNL     1       7.039  11.722  15.986  1.00  0.00     0.000 C 
BRANCH   5   6
ATOM      6  C   UNL     1       5.977  11.196  15.007  1.00  0.00     0.000 C 
BRANCH   6   7
ATOM      7  C   UNL     1       5.266   9.936  15.531  1.00  0.00     0.000 C 
BRANCH   7   8
ATOM      8  C   UNL     1       3.756   9.935  15.228  1.00  0.00     0.006 C 
BRANCH   8   9
ATOM      9  C   UNL     1       2.872   9.500  16.407  1.00  0.00     0.053 C 
BRANCH   9  10
ATOM     10  C   UNL     1       1.652   8.759  15.950  1.00  0.00     0.041 C 
ATOM     11  O   UNL     1       1.749   7.851  15.084  1.00  0.00    -0.550 OA
ATOM     12  O   UNL     1       0.405   9.094  16.460  1.00  0.00    -0.550 OA
ENDBRANCH   9  10
ENDBRANCH   8   9
ENDBRANCH   7   8
ENDBRANCH   6   7
ENDBRANCH   5   6
ENDBRANCH   4   5
ENDBRANCH   3   4
ENDBRANCH   1   3
BRANCH   2  13
ATOM     13  C   UNL     1       8.911  14.656  19.341  1.00  0.00     0.027 C 
BRANCH  13  14
ATOM     14  C   UNL     1       8.425  14.694  20.797  1.00  0.00     0.004 C 
BRANCH  14  15
ATOM     15  C   UNL     1       9.553  14.598  21.845  1.00  0.00     0.000 C 
BRANCH  15  16
ATOM     16  C   UNL     1       9.094  14.709  23.313  1.00  0.00     0.000 C 
BRANCH  16  17
ATOM     17  C   UNL     1      10.229  14.711  24.353  1.00  0.00    -0.000 C 
BRANCH  17  18
ATOM     18  C   UNL     1      11.599  14.385  23.741  1.00  0.00    -0.000 C 
BRANCH  18  19
ATOM     19  C   UNL     1      12.595  13.956  24.825  1.00  0.00    -0.003 C 
ATOM     20  C   UNL     1      11.907  13.809  26.179  1.00  0.00     0.004 C 
ENDBRANCH  18  19
ENDBRANCH  17  18
ENDBRANCH  16  17
ENDBRANCH  15  16
ENDBRANCH  14  15
ENDBRANCH  13  14
ENDBRANCH   2  13
TORSDOF 15
ENDMDL
MODEL 9
REMARK VINA RESULT:    -4.165     15.958     20.121
REMARK INTER + INTRA:          -8.556
REMARK INTER:                  -7.957
REMARK INTRA:                  -0.600
REMARK UNBOUND:                -0.739
REMARK SMILES CCCCCCCCC=CCCCCCCCC(=O)[O-]
REMARK SMILES IDX 10 1 9 2 11 3 12 4 13 5 14 6 15 7 16 8 17 9 18 10 19 11
REMARK SMILES IDX 20 12 8 13 7 14 6 15 5 16 4 17 3 18 2 19 1 20
REMARK H PARENT
REMARK Flexibility Score: inf
ROOT
ATOM      1  C   UNL     1       5.366   9.988  16.010  1.00  0.00    -0.031 C 
ATOM      2  C   UNL     1       6.402  10.616  15.434  1.00  0.00    -0.031 C 
ENDROOT
BRANCH   1   3
ATOM      3  C   UNL     1       3.986  10.029  15.411  1.00  0.00     0.027 C 
BRANCH   3   4
ATOM      4  C   UNL     1       2.941   9.441  16.368  1.00  0.00     0.004 C 
BRANCH   4   5
ATOM      5  C   UNL     1       1.943   8.523  15.640  1.00  0.00     0.000 C 
BRANCH   5   6
ATOM      6  C   UNL     1       0.479   8.853  15.976  1.00  0.00     0.000 C 
BRANCH   6   7
ATOM      7  C   UNL     1       0.255   9.060  17.484  1.00  0.00     0.000 C 
BRANCH   7   8
ATOM      8  C   UNL     1      -1.094   9.736  17.797  1.00  0.00     0.006 C 
BRANCH   8   9
ATOM      9  C   UNL     1      -1.101  10.571  19.087  1.00  0.00     0.053 C 
BRANCH   9  10
ATOM     10  C   UNL     1      -1.884   9.910  20.180  1.00  0.00     0.041 C 
ATOM     11  O   UNL     1      -3.083   9.576  19.988  1.00  0.00    -0.550 OA
ATOM     12  O   UNL     1      -1.299   9.692  21.420  1.00  0.00    -0.550 OA
ENDBRANCH   9  10
ENDBRANCH   8   9
ENDBRANCH   7   8
ENDBRANCH   6   7
ENDBRANCH   5   6
ENDBRANCH   4   5
ENDBRANCH   3   4
ENDBRANCH   1   3
BRANCH   2  13
ATOM     13  C   UNL     1       7.781  10.588  16.037  1.00  0.00     0.027 C 
BRANCH  13  14
ATOM     14  C   UNL     1       8.859  10.336  14.973  1.00  0.00     0.004 C 
BRANCH  14  15
ATOM     15  C   UNL     1       9.492   8.931  15.031  1.00  0.00     0.000 C 
BRANCH  15  16
ATOM     16  C   UNL     1      11.031   8.903  14.958  1.00  0.00     0.000 C 
BRANCH  16  17
ATOM     17  C   UNL     1      11.671   7.520  15.177  1.00  0.00    -0.000 C 
BRANCH  17  18
ATOM     18  C   UNL     1      12.730   7.523  16.289  1.00  0.00    -0.000 C 
BRANCH  18  19
ATOM     19  C   UNL     1      12.275   8.377  17.477  1.00  0.00    -0.003 C 
ATOM     20  C   UNL     1      12.780   7.800  18.797  1.00  0.00     0.004 C 
ENDBRANCH  18  19
ENDBRANCH  17  18
ENDBRANCH  16  17
ENDBRANCH  15  16
ENDBRANCH  14  15
ENDBRANCH  13  14
ENDBRANCH   2  13
TORSDOF 15
ENDMDL
