MODEL 1
REMARK VINA RESULT:    -6.005      0.000      0.000
REMARK INTER + INTRA:         -18.898
REMARK INTER:                 -15.132
REMARK INTRA:                  -3.766
REMARK UNBOUND:                -3.766
REMARK SMILES CCCCCCCCCCCCCCCCCCCCCCCCCCCC(=O)[O-]
REMARK SMILES IDX 15 1 16 2 17 3 18 4 19 5 20 6 21 7 22 8 23 9 24 10 25 11
REMARK SMILES IDX 26 12 27 13 28 14 29 15 30 16 14 17 13 18 12 19 11 20 10 21
REMARK SMILES IDX 9 22 8 23 7 24 6 25 5 26 4 27 3 28 2 29 1 30
REMARK H PARENT
REMARK Flexibility Score: inf
ROOT
ATOM      1  C   UNL     1      54.684  17.261   2.594  1.00  0.00     0.000 C 
ENDROOT
BRANCH   1   2
ATOM      2  C   UNL     1      55.327  18.067   1.453  1.00  0.00     0.000 C 
BRANCH   2   3
ATOM      3  C   UNL     1      56.178  17.184   0.525  1.00  0.00     0.000 C 
BRANCH   3   4
ATOM      4  C   UNL     1      55.620  17.117  -0.905  1.00  0.00     0.000 C 
BRANCH   4   5
ATOM      5  C   UNL     1      54.295  17.881  -1.072  1.00  0.00     0.000 C 
BRANCH   5   6
ATOM      6  C   UNL     1      53.139  16.932  -1.427  1.00  0.00     0.000 C 
BRANCH   6   7
ATOM      7  C   UNL     1      53.626  15.495  -1.699  1.00  0.00     0.000 C 
BRANCH   7   8
ATOM      8  C   UNL     1      53.276  14.529  -0.552  1.00  0.00     0.000 C 
BRANCH   8   9
ATOM      9  C   UNL     1      54.240  13.328  -0.437  1.00  0.00     0.000 C 
BRANCH   9  10
ATOM     10  C   UNL     1      55.559  13.607   0.314  1.00  0.00     0.000 C 
BRANCH  10  11
ATOM     11  C   UNL     1      56.757  12.772  -0.183  1.00  0.00     0.000 C 
BRANCH  11  12
ATOM     12  C   UNL     1      58.086  13.215   0.452  1.00  0.00     0.006 C 
BRANCH  12  13
ATOM     13  C   UNL     1      58.430  14.654   0.061  1.00  0.00     0.053 C 
BRANCH  13  14
ATOM     14  C   UNL     1      59.912  14.820  -0.078  1.00  0.00     0.041 C 
ATOM     15  O   UNL     1      60.401  15.247  -1.157  1.00  0.00    -0.550 OA
ATOM     16  O   UNL     1      60.748  14.554   1.001  1.00  0.00    -0.550 OA
ENDBRANCH  13  14
ENDBRANCH  12  13
ENDBRANCH  11  12
ENDBRANCH  10  11
ENDBRANCH   9  10
ENDBRANCH   8   9
ENDBRANCH   7   8
ENDBRANCH   6   7
ENDBRANCH   5   6
ENDBRANCH   4   5
ENDBRANCH   3   4
ENDBRANCH   2   3
ENDBRANCH   1   2
BRANCH   1  17
ATOM     17  C   UNL     1      53.266  16.787   2.241  1.00  0.00     0.000 C 
BRANCH  17  18
ATOM     18  C   UNL     1      52.226  17.871   2.562  1.00  0.00     0.000 C 
BRANCH  18  19
ATOM     19  C   UNL     1      50.961  17.776   1.686  1.00  0.00     0.000 C 
BRANCH  19  20
ATOM     20  C   UNL     1      49.662  18.277   2.345  1.00  0.00     0.000 C 
BRANCH  20  21
ATOM     21  C   UNL     1      49.783  19.700   2.915  1.00  0.00     0.000 C 
BRANCH  21  22
ATOM     22  C   UNL     1      48.554  20.571   2.607  1.00  0.00    -0.000 C 
BRANCH  22  23
ATOM     23  C   UNL     1      47.276  19.795   2.231  1.00  0.00    -0.000 C 
BRANCH  23  24
ATOM     24  C   UNL     1      46.496  20.366   1.034  1.00  0.00    -0.000 C 
BRANCH  24  25
ATOM     25  C   UNL     1      47.178  21.588   0.397  1.00  0.00    -0.000 C 
BRANCH  25  26
ATOM     26  C   UNL     1      47.238  21.447  -1.132  1.00  0.00    -0.000 C 
BRANCH  26  27
ATOM     27  C   UNL     1      48.062  20.230  -1.586  1.00  0.00    -0.000 C 
BRANCH  27  28
ATOM     28  C   UNL     1      49.445  20.109  -0.919  1.00  0.00    -0.000 C 
BRANCH  28  29
ATOM     29  C   UNL     1      50.582  19.778  -1.911  1.00  0.00    -0.003 C 
ATOM     30  C   UNL     1      50.260  18.561  -2.779  1.00  0.00     0.004 C 
ENDBRANCH  28  29
ENDBRANCH  27  28
ENDBRANCH  26  27
ENDBRANCH  25  26
ENDBRANCH  24  25
ENDBRANCH  23  24
ENDBRANCH  22  23
ENDBRANCH  21  22
ENDBRANCH  20  21
ENDBRANCH  19  20
ENDBRANCH  18  19
ENDBRANCH  17  18
ENDBRANCH   1  17
TORSDOF 26
ENDMDL
MODEL 2
REMARK VINA RESULT:    -5.974      1.686      2.816
REMARK INTER + INTRA:         -18.821
REMARK INTER:                 -14.628
REMARK INTRA:                  -4.193
REMARK UNBOUND:                -3.766
REMARK SMILES CCCCCCCCCCCCCCCCCCCCCCCCCCCC(=O)[O-]
REMARK SMILES IDX 15 1 16 2 17 3 18 4 19 5 20 6 21 7 22 8 23 9 24 10 25 11
REMARK SMILES IDX 26 12 27 13 28 14 29 15 30 16 14 17 13 18 12 19 11 20 10 21
REMARK SMILES IDX 9 22 8 23 7 24 6 25 5 26 4 27 3 28 2 29 1 30
REMARK H PARENT
REMARK Flexibility Score: inf
ROOT
ATOM      1  C   UNL     1      53.980  14.495   1.454  1.00  0.00     0.000 C 
ENDROOT
BRANCH   1   2
ATOM      2  C   UNL     1      54.133  13.923   0.035  1.00  0.00     0.000 C 
BRANCH   2   3
ATOM      3  C   UNL     1      53.090  14.498  -0.939  1.00  0.00     0.000 C 
BRANCH   3   4
ATOM      4  C   UNL     1      53.678  15.566  -1.874  1.00  0.00     0.000 C 
BRANCH   4   5
ATOM      5  C   UNL     1      53.152  16.982  -1.577  1.00  0.00     0.000 C 
BRANCH   5   6
ATOM      6  C   UNL     1      54.280  17.912  -1.098  1.00  0.00     0.000 C 
BRANCH   6   7
ATOM      7  C   UNL     1      55.605  17.157  -0.879  1.00  0.00     0.000 C 
BRANCH   7   8
ATOM      8  C   UNL     1      56.148  17.327   0.552  1.00  0.00     0.000 C 
BRANCH   8   9
ATOM      9  C   UNL     1      57.405  16.478   0.844  1.00  0.00     0.000 C 
BRANCH   9  10
ATOM     10  C   UNL     1      57.748  15.416  -0.222  1.00  0.00     0.000 C 
BRANCH  10  11
ATOM     11  C   UNL     1      58.412  14.145   0.346  1.00  0.00     0.000 C 
BRANCH  11  12
ATOM     12  C   UNL     1      57.676  12.860  -0.071  1.00  0.00     0.006 C 
BRANCH  12  13
ATOM     13  C   UNL     1      58.569  11.631   0.108  1.00  0.00     0.053 C 
BRANCH  13  14
ATOM     14  C   UNL     1      58.135  10.836   1.302  1.00  0.00     0.041 C 
ATOM     15  O   UNL     1      57.034  11.087   1.860  1.00  0.00    -0.550 OA
ATOM     16  O   UNL     1      58.920   9.786   1.763  1.00  0.00    -0.550 OA
ENDBRANCH  13  14
ENDBRANCH  12  13
ENDBRANCH  11  12
ENDBRANCH  10  11
ENDBRANCH   9  10
ENDBRANCH   8   9
ENDBRANCH   7   8
ENDBRANCH   6   7
ENDBRANCH   5   6
ENDBRANCH   4   5
ENDBRANCH   3   4
ENDBRANCH   2   3
ENDBRANCH   1   2
BRANCH   1  17
ATOM     17  C   UNL     1      52.872  15.556   1.535  1.00  0.00     0.000 C 
BRANCH  17  18
ATOM     18  C   UNL     1      53.297  16.731   2.430  1.00  0.00     0.000 C 
BRANCH  18  19
ATOM     19  C   UNL     1      52.264  17.875   2.459  1.00  0.00     0.000 C 
BRANCH  19  20
ATOM     20  C   UNL     1      51.054  17.696   1.523  1.00  0.00     0.000 C 
BRANCH  20  21
ATOM     21  C   UNL     1      50.005  18.810   1.672  1.00  0.00     0.000 C 
BRANCH  21  22
ATOM     22  C   UNL     1      48.736  18.340   2.404  1.00  0.00    -0.000 C 
BRANCH  22  23
ATOM     23  C   UNL     1      47.528  19.292   2.300  1.00  0.00    -0.000 C 
BRANCH  23  24
ATOM     24  C   UNL     1      47.789  20.592   1.520  1.00  0.00    -0.000 C 
BRANCH  24  25
ATOM     25  C   UNL     1      46.652  20.952   0.550  1.00  0.00    -0.000 C 
BRANCH  25  26
ATOM     26  C   UNL     1      47.212  21.440  -0.794  1.00  0.00    -0.000 C 
BRANCH  26  27
ATOM     27  C   UNL     1      48.078  20.383  -1.498  1.00  0.00    -0.000 C 
BRANCH  27  28
ATOM     28  C   UNL     1      49.550  20.792  -1.700  1.00  0.00    -0.000 C 
BRANCH  28  29
ATOM     29  C   UNL     1      50.483  19.602  -2.013  1.00  0.00    -0.003 C 
ATOM     30  C   UNL     1      49.739  18.266  -2.026  1.00  0.00     0.004 C 
ENDBRANCH  28  29
ENDBRANCH  27  28
ENDBRANCH  26  27
ENDBRANCH  25  26
ENDBRANCH  24  25
ENDBRANCH  23  24
ENDBRANCH  22  23
ENDBRANCH  21  22
ENDBRANCH  20  21
ENDBRANCH  19  20
ENDBRANCH  18  19
ENDBRANCH  17  18
ENDBRANCH   1  17
TORSDOF 26
ENDMDL
MODEL 3
REMARK VINA RESULT:    -5.953      4.560      7.713
REMARK INTER + INTRA:         -18.768
REMARK INTER:                 -15.255
REMARK INTRA:                  -3.513
REMARK UNBOUND:                -3.766
REMARK SMILES CCCCCCCCCCCCCCCCCCCCCCCCCCCC(=O)[O-]
REMARK SMILES IDX 15 1 16 2 17 3 18 4 19 5 20 6 21 7 22 8 23 9 24 10 25 11
REMARK SMILES IDX 26 12 27 13 28 14 29 15 30 16 14 17 13 18 12 19 11 20 10 21
REMARK SMILES IDX 9 22 8 23 7 24 6 25 5 26 4 27 3 28 2 29 1 30
REMARK H PARENT
REMARK Flexibility Score: inf
ROOT
ATOM      1  C   UNL     1      56.369  16.153  -0.069  1.00  0.00     0.000 C 
ENDROOT
BRANCH   1   2
ATOM      2  C   UNL     1      56.356  14.677   0.361  1.00  0.00     0.000 C 
BRANCH   2   3
ATOM      3  C   UNL     1      54.950  14.200   0.763  1.00  0.00     0.000 C 
BRANCH   3   4
ATOM      4  C   UNL     1      54.097  13.781  -0.444  1.00  0.00     0.000 C 
BRANCH   4   5
ATOM      5  C   UNL     1      52.958  14.771  -0.750  1.00  0.00     0.000 C 
BRANCH   5   6
ATOM      6  C   UNL     1      53.292  15.655  -1.963  1.00  0.00     0.000 C 
BRANCH   6   7
ATOM      7  C   UNL     1      53.131  17.156  -1.652  1.00  0.00     0.000 C 
BRANCH   7   8
ATOM      8  C   UNL     1      51.744  17.490  -1.070  1.00  0.00     0.000 C 
BRANCH   8   9
ATOM      9  C   UNL     1      50.858  18.326  -2.019  1.00  0.00     0.000 C 
BRANCH   9  10
ATOM     10  C   UNL     1      49.421  18.591  -1.521  1.00  0.00     0.000 C 
BRANCH  10  11
ATOM     11  C   UNL     1      49.050  20.085  -1.432  1.00  0.00     0.000 C 
BRANCH  11  12
ATOM     12  C   UNL     1      47.593  20.354  -1.847  1.00  0.00     0.006 C 
BRANCH  12  13
ATOM     13  C   UNL     1      47.376  21.836  -2.164  1.00  0.00     0.053 C 
BRANCH  13  14
ATOM     14  C   UNL     1      46.043  22.043  -2.815  1.00  0.00     0.041 C 
ATOM     15  O   UNL     1      45.071  21.300  -2.514  1.00  0.00    -0.550 OA
ATOM     16  O   UNL     1      45.861  23.088  -3.713  1.00  0.00    -0.550 OA
ENDBRANCH  13  14
ENDBRANCH  12  13
ENDBRANCH  11  12
ENDBRANCH  10  11
ENDBRANCH   9  10
ENDBRANCH   8   9
ENDBRANCH   7   8
ENDBRANCH   6   7
ENDBRANCH   5   6
ENDBRANCH   4   5
ENDBRANCH   3   4
ENDBRANCH   2   3
ENDBRANCH   1   2
BRANCH   1  17
ATOM     17  C   UNL     1      56.489  17.104   1.131  1.00  0.00     0.000 C 
BRANCH  17  18
ATOM     18  C   UNL     1      55.180  17.878   1.355  1.00  0.00     0.000 C 
BRANCH  18  19
ATOM     19  C   UNL     1      54.358  17.346   2.546  1.00  0.00     0.000 C 
BRANCH  19  20
ATOM     20  C   UNL     1      52.866  17.096   2.258  1.00  0.00     0.000 C 
BRANCH  20  21
ATOM     21  C   UNL     1      51.935  18.059   3.012  1.00  0.00     0.000 C 
BRANCH  21  22
ATOM     22  C   UNL     1      50.867  18.690   2.102  1.00  0.00    -0.000 C 
BRANCH  22  23
ATOM     23  C   UNL     1      49.410  18.486   2.563  1.00  0.00    -0.000 C 
BRANCH  23  24
ATOM     24  C   UNL     1      48.486  19.699   2.356  1.00  0.00    -0.000 C 
BRANCH  24  25
ATOM     25  C   UNL     1      47.060  19.307   1.937  1.00  0.00    -0.000 C 
BRANCH  25  26
ATOM     26  C   UNL     1      46.237  20.549   1.563  1.00  0.00    -0.000 C 
BRANCH  26  27
ATOM     27  C   UNL     1      46.807  21.844   2.166  1.00  0.00    -0.000 C 
BRANCH  27  28
ATOM     28  C   UNL     1      45.744  22.821   2.705  1.00  0.00    -0.000 C 
BRANCH  28  29
ATOM     29  C   UNL     1      44.433  22.128   3.138  1.00  0.00    -0.003 C 
ATOM     30  C   UNL     1      44.644  21.160   4.302  1.00  0.00     0.004 C 
ENDBRANCH  28  29
ENDBRANCH  27  28
ENDBRANCH  26  27
ENDBRANCH  25  26
ENDBRANCH  24  25
ENDBRANCH  23  24
ENDBRANCH  22  23
ENDBRANCH  21  22
ENDBRANCH  20  21
ENDBRANCH  19  20
ENDBRANCH  18  19
ENDBRANCH  17  18
ENDBRANCH   1  17
TORSDOF 26
ENDMDL
MODEL 4
REMARK VINA RESULT:    -5.935      1.526      3.122
REMARK INTER + INTRA:         -18.722
REMARK INTER:                 -14.950
REMARK INTRA:                  -3.772
REMARK UNBOUND:                -3.766
REMARK SMILES CCCCCCCCCCCCCCCCCCCCCCCCCCCC(=O)[O-]
REMARK SMILES IDX 15 1 16 2 17 3 18 4 19 5 20 6 21 7 22 8 23 9 24 10 25 11
REMARK SMILES IDX 26 12 27 13 28 14 29 15 30 16 14 17 13 18 12 19 11 20 10 21
REMARK SMILES IDX 9 22 8 23 7 24 6 25 5 26 4 27 3 28 2 29 1 30
REMARK H PARENT
REMARK Flexibility Score: inf
ROOT
ATOM      1  C   UNL     1      54.625  16.982   2.508  1.00  0.00     0.000 C 
ENDROOT
BRANCH   1   2
ATOM      2  C   UNL     1      55.226  17.921   1.449  1.00  0.00     0.000 C 
BRANCH   2   3
ATOM      3  C   UNL     1      56.129  17.172   0.454  1.00  0.00     0.000 C 
BRANCH   3   4
ATOM      4  C   UNL     1      55.541  17.129  -0.965  1.00  0.00     0.000 C 
BRANCH   4   5
ATOM      5  C   UNL     1      54.258  17.966  -1.111  1.00  0.00     0.000 C 
BRANCH   5   6
ATOM      6  C   UNL     1      53.045  17.083  -1.449  1.00  0.00     0.000 C 
BRANCH   6   7
ATOM      7  C   UNL     1      53.459  15.658  -1.863  1.00  0.00     0.000 C 
BRANCH   7   8
ATOM      8  C   UNL     1      53.045  14.600  -0.822  1.00  0.00     0.000 C 
BRANCH   8   9
ATOM      9  C   UNL     1      54.117  13.515  -0.580  1.00  0.00     0.000 C 
BRANCH   9  10
ATOM     10  C   UNL     1      55.078  13.785   0.597  1.00  0.00     0.000 C 
BRANCH  10  11
ATOM     11  C   UNL     1      56.514  13.271   0.368  1.00  0.00     0.000 C 
BRANCH  11  12
ATOM     12  C   UNL     1      56.571  11.743   0.194  1.00  0.00     0.006 C 
BRANCH  12  13
ATOM     13  C   UNL     1      57.675  11.131   1.060  1.00  0.00     0.053 C 
BRANCH  13  14
ATOM     14  C   UNL     1      58.980  11.134   0.324  1.00  0.00     0.041 C 
ATOM     15  O   UNL     1      59.685  12.177   0.294  1.00  0.00    -0.550 OA
ATOM     16  O   UNL     1      59.441   9.971  -0.282  1.00  0.00    -0.550 OA
ENDBRANCH  13  14
ENDBRANCH  12  13
ENDBRANCH  11  12
ENDBRANCH  10  11
ENDBRANCH   9  10
ENDBRANCH   8   9
ENDBRANCH   7   8
ENDBRANCH   6   7
ENDBRANCH   5   6
ENDBRANCH   4   5
ENDBRANCH   3   4
ENDBRANCH   2   3
ENDBRANCH   1   2
BRANCH   1  17
ATOM     17  C   UNL     1      53.164  16.623   2.201  1.00  0.00     0.000 C 
BRANCH  17  18
ATOM     18  C   UNL     1      52.283  17.881   2.154  1.00  0.00     0.000 C 
BRANCH  18  19
ATOM     19  C   UNL     1      50.786  17.567   1.966  1.00  0.00     0.000 C 
BRANCH  19  20
ATOM     20  C   UNL     1      49.922  18.742   1.469  1.00  0.00     0.000 C 
BRANCH  20  21
ATOM     21  C   UNL     1      50.346  19.260   0.085  1.00  0.00     0.000 C 
BRANCH  21  22
ATOM     22  C   UNL     1      49.631  18.536  -1.068  1.00  0.00    -0.000 C 
BRANCH  22  23
ATOM     23  C   UNL     1      48.751  19.433  -1.960  1.00  0.00    -0.000 C 
BRANCH  23  24
ATOM     24  C   UNL     1      48.811  20.936  -1.634  1.00  0.00    -0.000 C 
BRANCH  24  25
ATOM     25  C   UNL     1      47.428  21.550  -1.362  1.00  0.00    -0.000 C 
BRANCH  25  26
ATOM     26  C   UNL     1      46.798  20.943  -0.098  1.00  0.00    -0.000 C 
BRANCH  26  27
ATOM     27  C   UNL     1      47.232  21.666   1.188  1.00  0.00    -0.000 C 
BRANCH  27  28
ATOM     28  C   UNL     1      47.177  20.797   2.459  1.00  0.00    -0.000 C 
BRANCH  28  29
ATOM     29  C   UNL     1      45.749  20.605   3.014  1.00  0.00    -0.003 C 
ATOM     30  C   UNL     1      45.319  21.755   3.924  1.00  0.00     0.004 C 
ENDBRANCH  28  29
ENDBRANCH  27  28
ENDBRANCH  26  27
ENDBRANCH  25  26
ENDBRANCH  24  25
ENDBRANCH  23  24
ENDBRANCH  22  23
ENDBRANCH  21  22
ENDBRANCH  20  21
ENDBRANCH  19  20
ENDBRANCH  18  19
ENDBRANCH  17  18
ENDBRANCH   1  17
TORSDOF 26
ENDMDL
MODEL 5
REMARK VINA RESULT:    -5.915      4.006      9.460
REMARK INTER + INTRA:         -18.672
REMARK INTER:                 -14.672
REMARK INTRA:                  -4.000
REMARK UNBOUND:                -3.766
REMARK SMILES CCCCCCCCCCCCCCCCCCCCCCCCCCCC(=O)[O-]
REMARK SMILES IDX 15 1 16 2 17 3 18 4 19 5 20 6 21 7 22 8 23 9 24 10 25 11
REMARK SMILES IDX 26 12 27 13 28 14 29 15 30 16 14 17 13 18 12 19 11 20 10 21
REMARK SMILES IDX 9 22 8 23 7 24 6 25 5 26 4 27 3 28 2 29 1 30
REMARK H PARENT
REMARK Flexibility Score: inf
ROOT
ATOM      1  C   UNL     1      52.884  17.501   2.923  1.00  0.00     0.000 C 
ENDROOT
BRANCH   1   2
ATOM      2  C   UNL     1      52.003  17.710   1.680  1.00  0.00     0.000 C 
BRANCH   2   3
ATOM      3  C   UNL     1      50.792  18.614   1.971  1.00  0.00     0.000 C 
BRANCH   3   4
ATOM      4  C   UNL     1      50.239  19.289   0.706  1.00  0.00     0.000 C 
BRANCH   4   5
ATOM      5  C   UNL     1      49.877  18.286  -0.403  1.00  0.00     0.000 C 
BRANCH   5   6
ATOM      6  C   UNL     1      50.155  18.866  -1.800  1.00  0.00     0.000 C 
BRANCH   6   7
ATOM      7  C   UNL     1      50.744  20.288  -1.733  1.00  0.00     0.000 C 
BRANCH   7   8
ATOM      8  C   UNL     1      49.739  21.363  -2.188  1.00  0.00     0.000 C 
BRANCH   8   9
ATOM      9  C   UNL     1      48.265  20.914  -2.090  1.00  0.00     0.000 C 
BRANCH   9  10
ATOM     10  C   UNL     1      47.229  22.056  -2.004  1.00  0.00     0.000 C 
BRANCH  10  11
ATOM     11  C   UNL     1      46.182  21.874  -0.886  1.00  0.00     0.000 C 
BRANCH  11  12
ATOM     12  C   UNL     1      46.826  21.569   0.478  1.00  0.00     0.006 C 
BRANCH  12  13
ATOM     13  C   UNL     1      46.519  20.137   0.922  1.00  0.00     0.053 C 
BRANCH  13  14
ATOM     14  C   UNL     1      46.654  20.009   2.409  1.00  0.00     0.041 C 
ATOM     15  O   UNL     1      46.831  21.036   3.117  1.00  0.00    -0.550 OA
ATOM     16  O   UNL     1      46.532  18.764   3.016  1.00  0.00    -0.550 OA
ENDBRANCH  13  14
ENDBRANCH  12  13
ENDBRANCH  11  12
ENDBRANCH  10  11
ENDBRANCH   9  10
ENDBRANCH   8   9
ENDBRANCH   7   8
ENDBRANCH   6   7
ENDBRANCH   5   6
ENDBRANCH   4   5
ENDBRANCH   3   4
ENDBRANCH   2   3
ENDBRANCH   1   2
BRANCH   1  17
ATOM     17  C   UNL     1      54.265  16.932   2.565  1.00  0.00     0.000 C 
BRANCH  17  18
ATOM     18  C   UNL     1      55.018  17.870   1.609  1.00  0.00     0.000 C 
BRANCH  18  19
ATOM     19  C   UNL     1      56.036  17.134   0.715  1.00  0.00     0.000 C 
BRANCH  19  20
ATOM     20  C   UNL     1      55.666  17.052  -0.778  1.00  0.00     0.000 C 
BRANCH  20  21
ATOM     21  C   UNL     1      54.401  17.852  -1.131  1.00  0.00     0.000 C 
BRANCH  21  22
ATOM     22  C   UNL     1      53.210  16.951  -1.500  1.00  0.00    -0.000 C 
BRANCH  22  23
ATOM     23  C   UNL     1      53.564  15.477  -1.781  1.00  0.00    -0.000 C 
BRANCH  23  24
ATOM     24  C   UNL     1      52.994  14.467  -0.770  1.00  0.00    -0.000 C 
BRANCH  24  25
ATOM     25  C   UNL     1      54.001  14.077   0.325  1.00  0.00    -0.000 C 
BRANCH  25  26
ATOM     26  C   UNL     1      55.133  13.214  -0.253  1.00  0.00    -0.000 C 
BRANCH  26  27
ATOM     27  C   UNL     1      56.352  13.128   0.680  1.00  0.00    -0.000 C 
BRANCH  27  28
ATOM     28  C   UNL     1      57.708  13.343  -0.018  1.00  0.00    -0.000 C 
BRANCH  28  29
ATOM     29  C   UNL     1      58.533  14.505   0.579  1.00  0.00    -0.003 C 
ATOM     30  C   UNL     1      59.309  15.276  -0.489  1.00  0.00     0.004 C 
ENDBRANCH  28  29
ENDBRANCH  27  28
ENDBRANCH  26  27
ENDBRANCH  25  26
ENDBRANCH  24  25
ENDBRANCH  23  24
ENDBRANCH  22  23
ENDBRANCH  21  22
ENDBRANCH  20  21
ENDBRANCH  19  20
ENDBRANCH  18  19
ENDBRANCH  17  18
ENDBRANCH   1  17
TORSDOF 26
ENDMDL
MODEL 6
REMARK VINA RESULT:    -5.885      1.497      3.839
REMARK INTER + INTRA:         -18.595
REMARK INTER:                 -14.291
REMARK INTRA:                  -4.303
REMARK UNBOUND:                -3.766
REMARK SMILES CCCCCCCCCCCCCCCCCCCCCCCCCCCC(=O)[O-]
REMARK SMILES IDX 15 1 16 2 17 3 18 4 19 5 20 6 21 7 22 8 23 9 24 10 25 11
REMARK SMILES IDX 26 12 27 13 28 14 29 15 30 16 14 17 13 18 12 19 11 20 10 21
REMARK SMILES IDX 9 22 8 23 7 24 6 25 5 26 4 27 3 28 2 29 1 30
REMARK H PARENT
REMARK Flexibility Score: inf
ROOT
ATOM      1  C   UNL     1      51.697  18.235   3.113  1.00  0.00     0.000 C 
ENDROOT
BRANCH   1   2
ATOM      2  C   UNL     1      52.278  17.516   1.884  1.00  0.00     0.000 C 
BRANCH   2   3
ATOM      3  C   UNL     1      53.258  16.396   2.275  1.00  0.00     0.000 C 
BRANCH   3   4
ATOM      4  C   UNL     1      54.686  16.912   2.509  1.00  0.00     0.000 C 
BRANCH   4   5
ATOM      5  C   UNL     1      55.152  17.905   1.429  1.00  0.00     0.000 C 
BRANCH   5   6
ATOM      6  C   UNL     1      56.130  17.245   0.442  1.00  0.00     0.000 C 
BRANCH   6   7
ATOM      7  C   UNL     1      55.572  17.207  -0.994  1.00  0.00     0.000 C 
BRANCH   7   8
ATOM      8  C   UNL     1      54.180  17.860  -1.101  1.00  0.00     0.000 C 
BRANCH   8   9
ATOM      9  C   UNL     1      53.082  16.897  -1.603  1.00  0.00     0.000 C 
BRANCH   9  10
ATOM     10  C   UNL     1      53.540  15.447  -1.863  1.00  0.00     0.000 C 
BRANCH  10  11
ATOM     11  C   UNL     1      53.176  14.460  -0.735  1.00  0.00     0.000 C 
BRANCH  11  12
ATOM     12  C   UNL     1      54.235  13.358  -0.554  1.00  0.00     0.006 C 
BRANCH  12  13
ATOM     13  C   UNL     1      55.273  13.760   0.497  1.00  0.00     0.053 C 
BRANCH  13  14
ATOM     14  C   UNL     1      56.540  12.985   0.305  1.00  0.00     0.041 C 
ATOM     15  O   UNL     1      56.523  11.726   0.350  1.00  0.00    -0.550 OA
ATOM     16  O   UNL     1      57.729  13.650   0.025  1.00  0.00    -0.550 OA
ENDBRANCH  13  14
ENDBRANCH  12  13
ENDBRANCH  11  12
ENDBRANCH  10  11
ENDBRANCH   9  10
ENDBRANCH   8   9
ENDBRANCH   7   8
ENDBRANCH   6   7
ENDBRANCH   5   6
ENDBRANCH   4   5
ENDBRANCH   3   4
ENDBRANCH   2   3
ENDBRANCH   1   2
BRANCH   1  17
ATOM     17  C   UNL     1      50.337  18.883   2.815  1.00  0.00     0.000 C 
BRANCH  17  18
ATOM     18  C   UNL     1      50.343  19.576   1.444  1.00  0.00     0.000 C 
BRANCH  18  19
ATOM     19  C   UNL     1      49.328  18.971   0.454  1.00  0.00     0.000 C 
BRANCH  19  20
ATOM     20  C   UNL     1      49.839  18.790  -0.988  1.00  0.00     0.000 C 
BRANCH  20  21
ATOM     21  C   UNL     1      49.873  20.104  -1.785  1.00  0.00     0.000 C 
BRANCH  21  22
ATOM     22  C   UNL     1      48.573  20.915  -1.654  1.00  0.00    -0.000 C 
BRANCH  22  23
ATOM     23  C   UNL     1      47.287  20.163  -2.050  1.00  0.00    -0.000 C 
BRANCH  23  24
ATOM     24  C   UNL     1      46.115  20.312  -1.065  1.00  0.00    -0.000 C 
BRANCH  24  25
ATOM     25  C   UNL     1      45.802  21.777  -0.718  1.00  0.00    -0.000 C 
BRANCH  25  26
ATOM     26  C   UNL     1      45.777  21.987   0.804  1.00  0.00    -0.000 C 
BRANCH  26  27
ATOM     27  C   UNL     1      47.163  21.826   1.450  1.00  0.00    -0.000 C 
BRANCH  27  28
ATOM     28  C   UNL     1      47.158  21.082   2.799  1.00  0.00    -0.000 C 
BRANCH  28  29
ATOM     29  C   UNL     1      46.108  19.952   2.876  1.00  0.00    -0.003 C 
ATOM     30  C   UNL     1      46.749  18.572   3.029  1.00  0.00     0.004 C 
ENDBRANCH  28  29
ENDBRANCH  27  28
ENDBRANCH  26  27
ENDBRANCH  25  26
ENDBRANCH  24  25
ENDBRANCH  23  24
ENDBRANCH  22  23
ENDBRANCH  21  22
ENDBRANCH  20  21
ENDBRANCH  19  20
ENDBRANCH  18  19
ENDBRANCH  17  18
ENDBRANCH   1  17
TORSDOF 26
ENDMDL
MODEL 7
REMARK VINA RESULT:    -5.861      4.350      9.779
REMARK INTER + INTRA:         -18.535
REMARK INTER:                 -14.647
REMARK INTRA:                  -3.888
REMARK UNBOUND:                -3.766
REMARK SMILES CCCCCCCCCCCCCCCCCCCCCCCCCCCC(=O)[O-]
REMARK SMILES IDX 15 1 16 2 17 3 18 4 19 5 20 6 21 7 22 8 23 9 24 10 25 11
REMARK SMILES IDX 26 12 27 13 28 14 29 15 30 16 14 17 13 18 12 19 11 20 10 21
REMARK SMILES IDX 9 22 8 23 7 24 6 25 5 26 4 27 3 28 2 29 1 30
REMARK H PARENT
REMARK Flexibility Score: inf
ROOT
ATOM      1  C   UNL     1      53.753  15.831  -1.799  1.00  0.00     0.000 C 
ENDROOT
BRANCH   1   2
ATOM      2  C   UNL     1      53.232  17.251  -1.525  1.00  0.00     0.000 C 
BRANCH   2   3
ATOM      3  C   UNL     1      51.744  17.404  -1.883  1.00  0.00     0.000 C 
BRANCH   3   4
ATOM      4  C   UNL     1      51.170  18.768  -1.468  1.00  0.00     0.000 C 
BRANCH   4   5
ATOM      5  C   UNL     1      49.900  18.651  -0.608  1.00  0.00     0.000 C 
BRANCH   5   6
ATOM      6  C   UNL     1      50.237  18.269   0.843  1.00  0.00     0.000 C 
BRANCH   6   7
ATOM      7  C   UNL     1      49.517  19.170   1.866  1.00  0.00     0.000 C 
BRANCH   7   8
ATOM      8  C   UNL     1      48.348  18.450   2.564  1.00  0.00     0.000 C 
BRANCH   8   9
ATOM      9  C   UNL     1      47.026  19.247   2.541  1.00  0.00     0.000 C 
BRANCH   9  10
ATOM     10  C   UNL     1      47.126  20.678   1.971  1.00  0.00     0.000 C 
BRANCH  10  11
ATOM     11  C   UNL     1      46.372  20.881   0.641  1.00  0.00     0.000 C 
BRANCH  11  12
ATOM     12  C   UNL     1      47.325  21.118  -0.544  1.00  0.00     0.006 C 
BRANCH  12  13
ATOM     13  C   UNL     1      46.756  20.524  -1.835  1.00  0.00     0.053 C 
BRANCH  13  14
ATOM     14  C   UNL     1      46.002  21.566  -2.603  1.00  0.00     0.041 C 
ATOM     15  O   UNL     1      44.744  21.522  -2.660  1.00  0.00    -0.550 OA
ATOM     16  O   UNL     1      46.684  22.614  -3.211  1.00  0.00    -0.550 OA
ENDBRANCH  13  14
ENDBRANCH  12  13
ENDBRANCH  11  12
ENDBRANCH  10  11
ENDBRANCH   9  10
ENDBRANCH   8   9
ENDBRANCH   7   8
ENDBRANCH   6   7
ENDBRANCH   5   6
ENDBRANCH   4   5
ENDBRANCH   3   4
ENDBRANCH   2   3
ENDBRANCH   1   2
BRANCH   1  17
ATOM     17  C   UNL     1      52.999  14.770  -0.984  1.00  0.00     0.000 C 
BRANCH  17  18
ATOM     18  C   UNL     1      53.956  14.002  -0.058  1.00  0.00     0.000 C 
BRANCH  18  19
ATOM     19  C   UNL     1      53.982  14.555   1.381  1.00  0.00     0.000 C 
BRANCH  19  20
ATOM     20  C   UNL     1      52.798  15.466   1.759  1.00  0.00     0.000 C 
BRANCH  20  21
ATOM     21  C   UNL     1      53.222  16.913   2.060  1.00  0.00     0.000 C 
BRANCH  21  22
ATOM     22  C   UNL     1      54.720  17.040   2.386  1.00  0.00    -0.000 C 
BRANCH  22  23
ATOM     23  C   UNL     1      55.576  17.705   1.289  1.00  0.00    -0.000 C 
BRANCH  23  24
ATOM     24  C   UNL     1      56.950  17.054   1.053  1.00  0.00    -0.000 C 
BRANCH  24  25
ATOM     25  C   UNL     1      56.944  16.033  -0.097  1.00  0.00    -0.000 C 
BRANCH  25  26
ATOM     26  C   UNL     1      58.337  15.411  -0.284  1.00  0.00    -0.000 C 
BRANCH  26  27
ATOM     27  C   UNL     1      58.631  14.293   0.730  1.00  0.00    -0.000 C 
BRANCH  27  28
ATOM     28  C   UNL     1      57.541  13.208   0.821  1.00  0.00    -0.000 C 
BRANCH  28  29
ATOM     29  C   UNL     1      57.309  12.454  -0.507  1.00  0.00    -0.003 C 
ATOM     30  C   UNL     1      56.420  11.224  -0.329  1.00  0.00     0.004 C 
ENDBRANCH  28  29
ENDBRANCH  27  28
ENDBRANCH  26  27
ENDBRANCH  25  26
ENDBRANCH  24  25
ENDBRANCH  23  24
ENDBRANCH  22  23
ENDBRANCH  21  22
ENDBRANCH  20  21
ENDBRANCH  19  20
ENDBRANCH  18  19
ENDBRANCH  17  18
ENDBRANCH   1  17
TORSDOF 26
ENDMDL
MODEL 8
REMARK VINA RESULT:    -5.837      1.944      5.807
REMARK INTER + INTRA:         -18.474
REMARK INTER:                 -14.438
REMARK INTRA:                  -4.036
REMARK UNBOUND:                -3.766
REMARK SMILES CCCCCCCCCCCCCCCCCCCCCCCCCCCC(=O)[O-]
REMARK SMILES IDX 15 1 16 2 17 3 18 4 19 5 20 6 21 7 22 8 23 9 24 10 25 11
REMARK SMILES IDX 26 12 27 13 28 14 29 15 30 16 14 17 13 18 12 19 11 20 10 21
REMARK SMILES IDX 9 22 8 23 7 24 6 25 5 26 4 27 3 28 2 29 1 30
REMARK H PARENT
REMARK Flexibility Score: inf
ROOT
ATOM      1  C   UNL     1      54.348  13.412  -0.411  1.00  0.00     0.000 C 
ENDROOT
BRANCH   1   2
ATOM      2  C   UNL     1      55.328  13.725   0.732  1.00  0.00     0.000 C 
BRANCH   2   3
ATOM      3  C   UNL     1      56.755  13.241   0.423  1.00  0.00     0.000 C 
BRANCH   3   4
ATOM      4  C   UNL     1      56.782  12.061  -0.561  1.00  0.00     0.000 C 
BRANCH   4   5
ATOM      5  C   UNL     1      57.717  10.923  -0.113  1.00  0.00     0.000 C 
BRANCH   5   6
ATOM      6  C   UNL     1      57.768  10.809   1.420  1.00  0.00     0.000 C 
BRANCH   6   7
ATOM      7  C   UNL     1      58.756   9.724   1.890  1.00  0.00     0.000 C 
BRANCH   7   8
ATOM      8  C   UNL     1      59.743   9.308   0.783  1.00  0.00     0.000 C 
BRANCH   8   9
ATOM      9  C   UNL     1      61.088  10.066   0.834  1.00  0.00     0.000 C 
BRANCH   9  10
ATOM     10  C   UNL     1      61.530  10.720  -0.492  1.00  0.00     0.000 C 
BRANCH  10  11
ATOM     11  C   UNL     1      61.765  12.241  -0.397  1.00  0.00     0.000 C 
BRANCH  11  12
ATOM     12  C   UNL     1      60.717  12.943   0.484  1.00  0.00     0.006 C 
BRANCH  12  13
ATOM     13  C   UNL     1      61.053  14.426   0.664  1.00  0.00     0.053 C 
BRANCH  13  14
ATOM     14  C   UNL     1      59.935  15.283   0.154  1.00  0.00     0.041 C 
ATOM     15  O   UNL     1      59.090  15.760   0.956  1.00  0.00    -0.550 OA
ATOM     16  O   UNL     1      59.859  15.597  -1.198  1.00  0.00    -0.550 OA
ENDBRANCH  13  14
ENDBRANCH  12  13
ENDBRANCH  11  12
ENDBRANCH  10  11
ENDBRANCH   9  10
ENDBRANCH   8   9
ENDBRANCH   7   8
ENDBRANCH   6   7
ENDBRANCH   5   6
ENDBRANCH   4   5
ENDBRANCH   3   4
ENDBRANCH   2   3
ENDBRANCH   1   2
BRANCH   1  17
ATOM     17  C   UNL     1      53.271  14.496  -0.562  1.00  0.00     0.000 C 
BRANCH  17  18
ATOM     18  C   UNL     1      53.543  15.378  -1.791  1.00  0.00     0.000 C 
BRANCH  18  19
ATOM     19  C   UNL     1      53.001  16.813  -1.639  1.00  0.00     0.000 C 
BRANCH  19  20
ATOM     20  C   UNL     1      54.023  17.855  -1.146  1.00  0.00     0.000 C 
BRANCH  20  21
ATOM     21  C   UNL     1      55.463  17.318  -1.108  1.00  0.00     0.000 C 
BRANCH  21  22
ATOM     22  C   UNL     1      55.988  17.122   0.325  1.00  0.00    -0.000 C 
BRANCH  22  23
ATOM     23  C   UNL     1      55.204  17.873   1.419  1.00  0.00    -0.000 C 
BRANCH  23  24
ATOM     24  C   UNL     1      54.392  16.975   2.370  1.00  0.00    -0.000 C 
BRANCH  24  25
ATOM     25  C   UNL     1      53.004  17.548   2.701  1.00  0.00    -0.000 C 
BRANCH  25  26
ATOM     26  C   UNL     1      51.938  16.989   1.746  1.00  0.00    -0.000 C 
BRANCH  26  27
ATOM     27  C   UNL     1      50.644  17.819   1.746  1.00  0.00    -0.000 C 
BRANCH  27  28
ATOM     28  C   UNL     1      50.637  18.995   0.751  1.00  0.00    -0.000 C 
BRANCH  28  29
ATOM     29  C   UNL     1      49.556  18.870  -0.345  1.00  0.00    -0.003 C 
ATOM     30  C   UNL     1      50.147  18.934  -1.754  1.00  0.00     0.004 C 
ENDBRANCH  28  29
ENDBRANCH  27  28
ENDBRANCH  26  27
ENDBRANCH  25  26
ENDBRANCH  24  25
ENDBRANCH  23  24
ENDBRANCH  22  23
ENDBRANCH  21  22
ENDBRANCH  20  21
ENDBRANCH  19  20
ENDBRANCH  18  19
ENDBRANCH  17  18
ENDBRANCH   1  17
TORSDOF 26
ENDMDL
MODEL 9
REMARK VINA RESULT:    -5.763      4.190     11.050
REMARK INTER + INTRA:         -18.289
REMARK INTER:                 -15.057
REMARK INTRA:                  -3.232
REMARK UNBOUND:                -3.766
REMARK SMILES CCCCCCCCCCCCCCCCCCCCCCCCCCCC(=O)[O-]
REMARK SMILES IDX 15 1 16 2 17 3 18 4 19 5 20 6 21 7 22 8 23 9 24 10 25 11
REMARK SMILES IDX 26 12 27 13 28 14 29 15 30 16 14 17 13 18 12 19 11 20 10 21
REMARK SMILES IDX 9 22 8 23 7 24 6 25 5 26 4 27 3 28 2 29 1 30
REMARK H PARENT
REMARK Flexibility Score: inf
ROOT
ATOM      1  C   UNL     1      54.148  13.690  -0.744  1.00  0.00     0.000 C 
ENDROOT
BRANCH   1   2
ATOM      2  C   UNL     1      53.195  14.897  -0.733  1.00  0.00     0.000 C 
BRANCH   2   3
ATOM      3  C   UNL     1      53.593  15.961  -1.770  1.00  0.00     0.000 C 
BRANCH   3   4
ATOM      4  C   UNL     1      53.980  17.301  -1.126  1.00  0.00     0.000 C 
BRANCH   4   5
ATOM      5  C   UNL     1      55.308  17.236  -0.351  1.00  0.00     0.000 C 
BRANCH   5   6
ATOM      6  C   UNL     1      55.208  17.971   0.997  1.00  0.00     0.000 C 
BRANCH   6   7
ATOM      7  C   UNL     1      54.780  17.032   2.142  1.00  0.00     0.000 C 
BRANCH   7   8
ATOM      8  C   UNL     1      53.257  16.805   2.177  1.00  0.00     0.000 C 
BRANCH   8   9
ATOM      9  C   UNL     1      52.491  17.860   3.004  1.00  0.00     0.000 C 
BRANCH   9  10
ATOM     10  C   UNL     1      51.210  18.415   2.345  1.00  0.00     0.000 C 
BRANCH  10  11
ATOM     11  C   UNL     1      50.896  17.805   0.964  1.00  0.00     0.000 C 
BRANCH  11  12
ATOM     12  C   UNL     1      50.756  18.874  -0.133  1.00  0.00     0.006 C 
BRANCH  12  13
ATOM     13  C   UNL     1      50.339  18.245  -1.465  1.00  0.00     0.053 C 
BRANCH  13  14
ATOM     14  C   UNL     1      49.046  18.834  -1.941  1.00  0.00     0.041 C 
ATOM     15  O   UNL     1      48.608  19.896  -1.424  1.00  0.00    -0.550 OA
ATOM     16  O   UNL     1      48.354  18.240  -2.990  1.00  0.00    -0.550 OA
ENDBRANCH  13  14
ENDBRANCH  12  13
ENDBRANCH  11  12
ENDBRANCH  10  11
ENDBRANCH   9  10
ENDBRANCH   8   9
ENDBRANCH   7   8
ENDBRANCH   6   7
ENDBRANCH   5   6
ENDBRANCH   4   5
ENDBRANCH   3   4
ENDBRANCH   2   3
ENDBRANCH   1   2
BRANCH   1  17
ATOM     17  C   UNL     1      55.158  13.740   0.413  1.00  0.00     0.000 C 
BRANCH  17  18
ATOM     18  C   UNL     1      56.278  12.707   0.212  1.00  0.00     0.000 C 
BRANCH  18  19
ATOM     19  C   UNL     1      57.666  13.349   0.014  1.00  0.00     0.000 C 
BRANCH  19  20
ATOM     20  C   UNL     1      57.758  14.845   0.371  1.00  0.00     0.000 C 
BRANCH  20  21
ATOM     21  C   UNL     1      59.176  15.284   0.770  1.00  0.00     0.000 C 
BRANCH  21  22
ATOM     22  C   UNL     1      60.264  14.688  -0.140  1.00  0.00    -0.000 C 
BRANCH  22  23
ATOM     23  C   UNL     1      61.319  13.824   0.578  1.00  0.00    -0.000 C 
BRANCH  23  24
ATOM     24  C   UNL     1      62.049  12.808  -0.319  1.00  0.00    -0.000 C 
BRANCH  24  25
ATOM     25  C   UNL     1      62.086  11.393   0.280  1.00  0.00    -0.000 C 
BRANCH  25  26
ATOM     26  C   UNL     1      60.701  10.732   0.212  1.00  0.00    -0.000 C 
BRANCH  26  27
ATOM     27  C   UNL     1      60.665   9.518  -0.732  1.00  0.00    -0.000 C 
BRANCH  27  28
ATOM     28  C   UNL     1      61.988   8.734  -0.816  1.00  0.00    -0.000 C 
BRANCH  28  29
ATOM     29  C   UNL     1      62.132   7.649   0.274  1.00  0.00    -0.003 C 
ATOM     30  C   UNL     1      60.794   7.001   0.630  1.00  0.00     0.004 C 
ENDBRANCH  28  29
ENDBRANCH  27  28
ENDBRANCH  26  27
ENDBRANCH  25  26
ENDBRANCH  24  25
ENDBRANCH  23  24
ENDBRANCH  22  23
ENDBRANCH  21  22
ENDBRANCH  20  21
ENDBRANCH  19  20
ENDBRANCH  18  19
ENDBRANCH  17  18
ENDBRANCH   1  17
TORSDOF 26
ENDMDL
