MODEL 1
REMARK VINA RESULT:    -8.091      0.000      0.000
REMARK INTER + INTRA:         -10.072
REMARK INTER:                  -9.746
REMARK INTRA:                  -0.326
REMARK UNBOUND:                -0.326
REMARK SMILES O=c1c(O)c(-c2ccc(O)c(O)c2)oc2cc(O)cc(O)c12
REMARK SMILES IDX 5 1 3 2 2 3 1 4 22 5 20 6 19 7 17 8 16 9 15 10 14 11 6 12
REMARK SMILES IDX 7 13 8 14 9 15 13 16 11 17 10 18 12 20 4 22 21 24 18 26
REMARK H PARENT 10 19 12 21 4 23 21 25 18 27
REMARK Flexibility Score: inf
ROOT
ATOM      1  C   UNL     1      27.744  -0.383  -5.715  1.00  0.00     0.180 A 
ATOM      2  C   UNL     1      28.690  -1.418  -5.622  1.00  0.00     0.208 A 
ATOM      3  C   UNL     1      30.053  -1.089  -5.549  1.00  0.00     0.238 A 
ATOM      4  O   UNL     1      30.898  -2.022  -5.542  1.00  0.00    -0.285 OA
ATOM      5  C   UNL     1      30.450   0.270  -5.513  1.00  0.00     0.111 A 
ATOM      6  C   UNL     1      31.801   0.719  -5.396  1.00  0.00     0.134 A 
ATOM      7  C   UNL     1      32.083   2.088  -5.477  1.00  0.00     0.093 A 
ATOM      8  C   UNL     1      31.061   3.027  -5.609  1.00  0.00     0.123 A 
ATOM      9  C   UNL     1      29.734   2.604  -5.670  1.00  0.00     0.094 A 
ATOM     10  C   UNL     1      29.422   1.243  -5.629  1.00  0.00     0.146 A 
ATOM     11  O   UNL     1      28.148   0.882  -5.712  1.00  0.00    -0.452 OA
ENDROOT
BRANCH   1  12
ATOM     12  C   UNL     1      26.290  -0.650  -5.809  1.00  0.00     0.025 A 
ATOM     13  C   UNL     1      25.674  -0.919  -7.044  1.00  0.00     0.016 A 
ATOM     14  C   UNL     1      24.296  -1.144  -7.112  1.00  0.00     0.051 A 
ATOM     15  C   UNL     1      23.512  -1.089  -5.956  1.00  0.00     0.157 A 
ATOM     16  C   UNL     1      25.497  -0.575  -4.653  1.00  0.00     0.062 A 
ATOM     17  C   UNL     1      24.114  -0.800  -4.719  1.00  0.00     0.158 A 
BRANCH  15  18
ATOM     18  O   UNL     1      22.141  -1.320  -6.054  1.00  0.00    -0.504 OA
ATOM     19  H   UNL     1      21.711  -2.166  -5.702  1.00  0.00     0.293 HD
ENDBRANCH  15  18
BRANCH  17  20
ATOM     20  O   UNL     1      23.338  -0.736  -3.563  1.00  0.00    -0.504 OA
ATOM     21  H   UNL     1      22.748   0.064  -3.364  1.00  0.00     0.293 HD
ENDBRANCH  17  20
ENDBRANCH   1  12
BRANCH   2  22
ATOM     22  O   UNL     1      28.273  -2.751  -5.583  1.00  0.00    -0.502 OA
ATOM     23  H   UNL     1      27.300  -3.014  -5.479  1.00  0.00     0.293 HD
ENDBRANCH   2  22
BRANCH   6  24
ATOM     24  O   UNL     1      32.891  -0.128  -5.173  1.00  0.00    -0.507 OA
ATOM     25  H   UNL     1      33.103  -0.578  -4.297  1.00  0.00     0.293 HD
ENDBRANCH   6  24
BRANCH   8  26
ATOM     26  O   UNL     1      31.378   4.383  -5.670  1.00  0.00    -0.508 OA
ATOM     27  H   UNL     1      32.189   4.760  -5.193  1.00  0.00     0.293 HD
ENDBRANCH   8  26
TORSDOF 6
ENDMDL
MODEL 2
REMARK VINA RESULT:    -7.873      2.867      8.441
REMARK INTER + INTRA:          -9.810
REMARK INTER:                  -9.480
REMARK INTRA:                  -0.331
REMARK UNBOUND:                -0.326
REMARK SMILES O=c1c(O)c(-c2ccc(O)c(O)c2)oc2cc(O)cc(O)c12
REMARK SMILES IDX 5 1 3 2 2 3 1 4 22 5 20 6 19 7 17 8 16 9 15 10 14 11 6 12
REMARK SMILES IDX 7 13 8 14 9 15 13 16 11 17 10 18 12 20 4 22 21 24 18 26
REMARK H PARENT 10 19 12 21 4 23 21 25 18 27
REMARK Flexibility Score: inf
ROOT
ATOM      1  C   UNL     1      32.819   0.316  -5.519  1.00  0.00     0.180 A 
ATOM      2  C   UNL     1      31.843   1.324  -5.434  1.00  0.00     0.208 A 
ATOM      3  C   UNL     1      30.486   0.961  -5.449  1.00  0.00     0.238 A 
ATOM      4  O   UNL     1      29.619   1.873  -5.448  1.00  0.00    -0.285 OA
ATOM      5  C   UNL     1      30.123  -0.407  -5.494  1.00  0.00     0.111 A 
ATOM      6  C   UNL     1      28.779  -0.892  -5.470  1.00  0.00     0.134 A 
ATOM      7  C   UNL     1      28.537  -2.261  -5.625  1.00  0.00     0.093 A 
ATOM      8  C   UNL     1      29.587  -3.171  -5.741  1.00  0.00     0.123 A 
ATOM      9  C   UNL     1      30.905  -2.715  -5.712  1.00  0.00     0.094 A 
ATOM     10  C   UNL     1      31.179  -1.350  -5.596  1.00  0.00     0.146 A 
ATOM     11  O   UNL     1      32.447  -0.957  -5.593  1.00  0.00    -0.452 OA
ENDROOT
BRANCH   1  12
ATOM     12  C   UNL     1      34.268   0.620  -5.522  1.00  0.00     0.025 A 
ATOM     13  C   UNL     1      34.959   0.879  -6.719  1.00  0.00     0.016 A 
ATOM     14  C   UNL     1      36.332   1.139  -6.701  1.00  0.00     0.051 A 
ATOM     15  C   UNL     1      37.037   1.131  -5.493  1.00  0.00     0.157 A 
ATOM     16  C   UNL     1      34.983   0.591  -4.314  1.00  0.00     0.062 A 
ATOM     17  C   UNL     1      36.361   0.852  -4.293  1.00  0.00     0.158 A 
BRANCH  15  18
ATOM     18  O   UNL     1      38.406   1.396  -5.505  1.00  0.00    -0.504 OA
ATOM     19  H   UNL     1      38.937   1.451  -6.366  1.00  0.00     0.293 HD
ENDBRANCH  15  18
BRANCH  17  20
ATOM     20  O   UNL     1      37.059   0.834  -3.087  1.00  0.00    -0.504 OA
ATOM     21  H   UNL     1      38.056   0.651  -3.053  1.00  0.00     0.293 HD
ENDBRANCH  17  20
ENDBRANCH   1  12
BRANCH   2  22
ATOM     22  O   UNL     1      32.224   2.663  -5.314  1.00  0.00    -0.502 OA
ATOM     23  H   UNL     1      31.601   3.375  -4.950  1.00  0.00     0.293 HD
ENDBRANCH   2  22
BRANCH   6  24
ATOM     24  O   UNL     1      27.658  -0.080  -5.271  1.00  0.00    -0.507 OA
ATOM     25  H   UNL     1      26.903  -0.284  -4.635  1.00  0.00     0.293 HD
ENDBRANCH   6  24
BRANCH   8  26
ATOM     26  O   UNL     1      29.308  -4.529  -5.878  1.00  0.00    -0.508 OA
ATOM     27  H   UNL     1      28.745  -5.025  -5.198  1.00  0.00     0.293 HD
ENDBRANCH   8  26
TORSDOF 6
ENDMDL
MODEL 3
REMARK VINA RESULT:    -7.748      1.230      2.867
REMARK INTER + INTRA:          -9.660
REMARK INTER:                  -9.337
REMARK INTRA:                  -0.322
REMARK UNBOUND:                -0.326
REMARK SMILES O=c1c(O)c(-c2ccc(O)c(O)c2)oc2cc(O)cc(O)c12
REMARK SMILES IDX 5 1 3 2 2 3 1 4 22 5 20 6 19 7 17 8 16 9 15 10 14 11 6 12
REMARK SMILES IDX 7 13 8 14 9 15 13 16 11 17 10 18 12 20 4 22 21 24 18 26
REMARK H PARENT 10 19 12 21 4 23 21 25 18 27
REMARK Flexibility Score: inf
ROOT
ATOM      1  C   UNL     1      27.866   0.079  -5.808  1.00  0.00     0.180 A 
ATOM      2  C   UNL     1      28.189   1.446  -5.777  1.00  0.00     0.208 A 
ATOM      3  C   UNL     1      29.538   1.825  -5.678  1.00  0.00     0.238 A 
ATOM      4  O   UNL     1      29.813   3.049  -5.575  1.00  0.00    -0.285 OA
ATOM      5  C   UNL     1      30.550   0.835  -5.668  1.00  0.00     0.111 A 
ATOM      6  C   UNL     1      31.951   1.106  -5.615  1.00  0.00     0.134 A 
ATOM      7  C   UNL     1      32.856   0.044  -5.503  1.00  0.00     0.093 A 
ATOM      8  C   UNL     1      32.417  -1.279  -5.506  1.00  0.00     0.123 A 
ATOM      9  C   UNL     1      31.055  -1.558  -5.612  1.00  0.00     0.094 A 
ATOM     10  C   UNL     1      30.124  -0.519  -5.687  1.00  0.00     0.146 A 
ATOM     11  O   UNL     1      28.836  -0.828  -5.765  1.00  0.00    -0.452 OA
ENDROOT
BRANCH   1  12
ATOM     12  C   UNL     1      26.468  -0.400  -5.898  1.00  0.00     0.025 A 
ATOM     13  C   UNL     1      25.849  -0.622  -7.141  1.00  0.00     0.016 A 
ATOM     14  C   UNL     1      24.521  -1.051  -7.203  1.00  0.00     0.051 A 
ATOM     15  C   UNL     1      23.786  -1.250  -6.029  1.00  0.00     0.157 A 
ATOM     16  C   UNL     1      25.722  -0.580  -4.723  1.00  0.00     0.062 A 
ATOM     17  C   UNL     1      24.388  -1.010  -4.782  1.00  0.00     0.158 A 
BRANCH  15  18
ATOM     18  O   UNL     1      22.463  -1.680  -6.121  1.00  0.00    -0.504 OA
ATOM     19  H   UNL     1      21.699  -1.037  -6.291  1.00  0.00     0.293 HD
ENDBRANCH  15  18
BRANCH  17  20
ATOM     20  O   UNL     1      23.660  -1.198  -3.608  1.00  0.00    -0.504 OA
ATOM     21  H   UNL     1      23.310  -2.112  -3.341  1.00  0.00     0.293 HD
ENDBRANCH  17  20
ENDBRANCH   1  12
BRANCH   2  22
ATOM     22  O   UNL     1      27.180   2.409  -5.865  1.00  0.00    -0.502 OA
ATOM     23  H   UNL     1      27.200   3.157  -6.547  1.00  0.00     0.293 HD
ENDBRANCH   2  22
BRANCH   6  24
ATOM     24  O   UNL     1      32.504   2.388  -5.695  1.00  0.00    -0.507 OA
ATOM     25  H   UNL     1      32.868   2.910  -4.913  1.00  0.00     0.293 HD
ENDBRANCH   6  24
BRANCH   8  26
ATOM     26  O   UNL     1      33.349  -2.312  -5.410  1.00  0.00    -0.508 OA
ATOM     27  H   UNL     1      34.199  -2.311  -5.960  1.00  0.00     0.293 HD
ENDBRANCH   8  26
TORSDOF 6
ENDMDL
MODEL 4
REMARK VINA RESULT:    -7.634      2.307      7.327
REMARK INTER + INTRA:          -9.522
REMARK INTER:                  -9.242
REMARK INTRA:                  -0.280
REMARK UNBOUND:                -0.326
REMARK SMILES O=c1c(O)c(-c2ccc(O)c(O)c2)oc2cc(O)cc(O)c12
REMARK SMILES IDX 5 1 3 2 2 3 1 4 22 5 20 6 19 7 17 8 16 9 15 10 14 11 6 12
REMARK SMILES IDX 7 13 8 14 9 15 13 16 11 17 10 18 12 20 4 22 21 24 18 26
REMARK H PARENT 10 19 12 21 4 23 21 25 18 27
REMARK Flexibility Score: inf
ROOT
ATOM      1  C   UNL     1      30.761  -0.132  -6.094  1.00  0.00     0.180 A 
ATOM      2  C   UNL     1      30.471   0.034  -7.459  1.00  0.00     0.208 A 
ATOM      3  C   UNL     1      29.132  -0.023  -7.882  1.00  0.00     0.238 A 
ATOM      4  O   UNL     1      28.886   0.052  -9.114  1.00  0.00    -0.285 OA
ATOM      5  C   UNL     1      28.098  -0.189  -6.929  1.00  0.00     0.111 A 
ATOM      6  C   UNL     1      26.704  -0.217  -7.239  1.00  0.00     0.134 A 
ATOM      7  C   UNL     1      25.777  -0.493  -6.228  1.00  0.00     0.093 A 
ATOM      8  C   UNL     1      26.185  -0.681  -4.908  1.00  0.00     0.123 A 
ATOM      9  C   UNL     1      27.539  -0.602  -4.583  1.00  0.00     0.094 A 
ATOM     10  C   UNL     1      28.493  -0.365  -5.576  1.00  0.00     0.146 A 
ATOM     11  O   UNL     1      29.772  -0.319  -5.228  1.00  0.00    -0.452 OA
ENDROOT
BRANCH   1  12
ATOM     12  C   UNL     1      32.147  -0.099  -5.573  1.00  0.00     0.025 A 
ATOM     13  C   UNL     1      32.672   1.055  -4.965  1.00  0.00     0.016 A 
ATOM     14  C   UNL     1      33.990   1.073  -4.502  1.00  0.00     0.051 A 
ATOM     15  C   UNL     1      34.807  -0.052  -4.651  1.00  0.00     0.157 A 
ATOM     16  C   UNL     1      32.976  -1.219  -5.741  1.00  0.00     0.062 A 
ATOM     17  C   UNL     1      34.300  -1.204  -5.276  1.00  0.00     0.158 A 
BRANCH  15  18
ATOM     18  O   UNL     1      36.118  -0.007  -4.178  1.00  0.00    -0.504 OA
ATOM     19  H   UNL     1      36.911  -0.229  -4.767  1.00  0.00     0.293 HD
ENDBRANCH  15  18
BRANCH  17  20
ATOM     20  O   UNL     1      35.111  -2.326  -5.436  1.00  0.00    -0.504 OA
ATOM     21  H   UNL     1      35.349  -2.682  -6.355  1.00  0.00     0.293 HD
ENDBRANCH  17  20
ENDBRANCH   1  12
BRANCH   2  22
ATOM     22  O   UNL     1      31.500   0.273  -8.373  1.00  0.00    -0.502 OA
ATOM     23  H   UNL     1      32.090  -0.467  -8.734  1.00  0.00     0.293 HD
ENDBRANCH   2  22
BRANCH   6  24
ATOM     24  O   UNL     1      26.180   0.044  -8.509  1.00  0.00    -0.507 OA
ATOM     25  H   UNL     1      26.134   0.955  -8.939  1.00  0.00     0.293 HD
ENDBRANCH   6  24
BRANCH   8  26
ATOM     26  O   UNL     1      25.232  -0.937  -3.924  1.00  0.00    -0.508 OA
ATOM     27  H   UNL     1      25.500  -1.184  -2.978  1.00  0.00     0.293 HD
ENDBRANCH   8  26
TORSDOF 6
ENDMDL
MODEL 5
REMARK VINA RESULT:    -7.605      2.325      3.411
REMARK INTER + INTRA:          -9.488
REMARK INTER:                  -9.214
REMARK INTRA:                  -0.273
REMARK UNBOUND:                -0.326
REMARK SMILES O=c1c(O)c(-c2ccc(O)c(O)c2)oc2cc(O)cc(O)c12
REMARK SMILES IDX 5 1 3 2 2 3 1 4 22 5 20 6 19 7 17 8 16 9 15 10 14 11 6 12
REMARK SMILES IDX 7 13 8 14 9 15 13 16 11 17 10 18 12 20 4 22 21 24 18 26
REMARK H PARENT 10 19 12 21 4 23 21 25 18 27
REMARK Flexibility Score: inf
ROOT
ATOM      1  C   UNL     1      29.856   0.329  -6.173  1.00  0.00     0.180 A 
ATOM      2  C   UNL     1      30.222   0.104  -7.510  1.00  0.00     0.208 A 
ATOM      3  C   UNL     1      31.584   0.115  -7.854  1.00  0.00     0.238 A 
ATOM      4  O   UNL     1      31.900  -0.013  -9.066  1.00  0.00    -0.285 OA
ATOM      5  C   UNL     1      32.564   0.294  -6.848  1.00  0.00     0.111 A 
ATOM      6  C   UNL     1      33.974   0.278  -7.076  1.00  0.00     0.134 A 
ATOM      7  C   UNL     1      34.847   0.572  -6.021  1.00  0.00     0.093 A 
ATOM      8  C   UNL     1      34.367   0.818  -4.736  1.00  0.00     0.123 A 
ATOM      9  C   UNL     1      32.994   0.783  -4.490  1.00  0.00     0.094 A 
ATOM     10  C   UNL     1      32.095   0.530  -5.529  1.00  0.00     0.146 A 
ATOM     11  O   UNL     1      30.797   0.526  -5.256  1.00  0.00    -0.452 OA
ENDROOT
BRANCH   1  12
ATOM     12  C   UNL     1      28.442   0.346  -5.734  1.00  0.00     0.025 A 
ATOM     13  C   UNL     1      27.859  -0.764  -5.098  1.00  0.00     0.016 A 
ATOM     14  C   UNL     1      26.515  -0.734  -4.715  1.00  0.00     0.051 A 
ATOM     15  C   UNL     1      25.731   0.394  -4.972  1.00  0.00     0.157 A 
ATOM     16  C   UNL     1      27.646   1.470  -6.010  1.00  0.00     0.062 A 
ATOM     17  C   UNL     1      26.297   1.502  -5.626  1.00  0.00     0.158 A 
BRANCH  15  18
ATOM     18  O   UNL     1      24.394   0.396  -4.576  1.00  0.00    -0.504 OA
ATOM     19  H   UNL     1      23.659   0.773  -5.163  1.00  0.00     0.293 HD
ENDBRANCH  15  18
BRANCH  17  20
ATOM     20  O   UNL     1      25.519   2.627  -5.894  1.00  0.00    -0.504 OA
ATOM     21  H   UNL     1      25.079   3.157  -5.150  1.00  0.00     0.293 HD
ENDBRANCH  17  20
ENDBRANCH   1  12
BRANCH   2  22
ATOM     22  O   UNL     1      29.243  -0.146  -8.475  1.00  0.00    -0.502 OA
ATOM     23  H   UNL     1      29.463  -0.527  -9.388  1.00  0.00     0.293 HD
ENDBRANCH   2  22
BRANCH   6  24
ATOM     24  O   UNL     1      34.566  -0.043  -8.302  1.00  0.00    -0.507 OA
ATOM     25  H   UNL     1      35.139  -0.855  -8.471  1.00  0.00     0.293 HD
ENDBRANCH   6  24
BRANCH   8  26
ATOM     26  O   UNL     1      35.266   1.091  -3.707  1.00  0.00    -0.508 OA
ATOM     27  H   UNL     1      35.906   1.874  -3.756  1.00  0.00     0.293 HD
ENDBRANCH   8  26
TORSDOF 6
ENDMDL
MODEL 6
REMARK VINA RESULT:    -7.491      2.785      7.318
REMARK INTER + INTRA:          -9.350
REMARK INTER:                  -9.030
REMARK INTRA:                  -0.321
REMARK UNBOUND:                -0.326
REMARK SMILES O=c1c(O)c(-c2ccc(O)c(O)c2)oc2cc(O)cc(O)c12
REMARK SMILES IDX 5 1 3 2 2 3 1 4 22 5 20 6 19 7 17 8 16 9 15 10 14 11 6 12
REMARK SMILES IDX 7 13 8 14 9 15 13 16 11 17 10 18 12 20 4 22 21 24 18 26
REMARK H PARENT 10 19 12 21 4 23 21 25 18 27
REMARK Flexibility Score: inf
ROOT
ATOM      1  C   UNL     1      31.617  -0.044  -5.463  1.00  0.00     0.180 A 
ATOM      2  C   UNL     1      30.631  -0.473  -4.559  1.00  0.00     0.208 A 
ATOM      3  C   UNL     1      29.279  -0.253  -4.870  1.00  0.00     0.238 A 
ATOM      4  O   UNL     1      28.406  -0.572  -4.022  1.00  0.00    -0.285 OA
ATOM      5  C   UNL     1      28.928   0.341  -6.107  1.00  0.00     0.111 A 
ATOM      6  C   UNL     1      27.589   0.572  -6.546  1.00  0.00     0.134 A 
ATOM      7  C   UNL     1      27.364   1.263  -7.742  1.00  0.00     0.093 A 
ATOM      8  C   UNL     1      28.425   1.677  -8.546  1.00  0.00     0.123 A 
ATOM      9  C   UNL     1      29.737   1.410  -8.153  1.00  0.00     0.094 A 
ATOM     10  C   UNL     1      29.995   0.755  -6.947  1.00  0.00     0.146 A 
ATOM     11  O   UNL     1      31.258   0.540  -6.601  1.00  0.00    -0.452 OA
ENDROOT
BRANCH   1  12
ATOM     12  C   UNL     1      33.062  -0.228  -5.200  1.00  0.00     0.025 A 
ATOM     13  C   UNL     1      33.747  -1.374  -5.641  1.00  0.00     0.016 A 
ATOM     14  C   UNL     1      35.106  -1.538  -5.361  1.00  0.00     0.051 A 
ATOM     15  C   UNL     1      35.797  -0.571  -4.625  1.00  0.00     0.157 A 
ATOM     16  C   UNL     1      33.755   0.731  -4.443  1.00  0.00     0.062 A 
ATOM     17  C   UNL     1      35.119   0.569  -4.160  1.00  0.00     0.158 A 
BRANCH  15  18
ATOM     18  O   UNL     1      37.154  -0.760  -4.361  1.00  0.00    -0.504 OA
ATOM     19  H   UNL     1      37.525  -0.751  -3.419  1.00  0.00     0.293 HD
ENDBRANCH  15  18
BRANCH  17  20
ATOM     20  O   UNL     1      35.800   1.533  -3.419  1.00  0.00    -0.504 OA
ATOM     21  H   UNL     1      35.482   2.495  -3.379  1.00  0.00     0.293 HD
ENDBRANCH  17  20
ENDBRANCH   1  12
BRANCH   2  22
ATOM     22  O   UNL     1      30.995  -1.126  -3.378  1.00  0.00    -0.502 OA
ATOM     23  H   UNL     1      31.892  -1.582  -3.263  1.00  0.00     0.293 HD
ENDBRANCH   2  22
BRANCH   6  24
ATOM     24  O   UNL     1      26.453   0.123  -5.865  1.00  0.00    -0.507 OA
ATOM     25  H   UNL     1      25.946   0.654  -5.174  1.00  0.00     0.293 HD
ENDBRANCH   6  24
BRANCH   8  26
ATOM     26  O   UNL     1      28.163   2.348  -9.739  1.00  0.00    -0.508 OA
ATOM     27  H   UNL     1      27.257   2.759  -9.928  1.00  0.00     0.293 HD
ENDBRANCH   8  26
TORSDOF 6
ENDMDL
MODEL 7
REMARK VINA RESULT:    -7.462      3.336      7.561
REMARK INTER + INTRA:          -9.315
REMARK INTER:                  -8.992
REMARK INTRA:                  -0.323
REMARK UNBOUND:                -0.326
REMARK SMILES O=c1c(O)c(-c2ccc(O)c(O)c2)oc2cc(O)cc(O)c12
REMARK SMILES IDX 5 1 3 2 2 3 1 4 22 5 20 6 19 7 17 8 16 9 15 10 14 11 6 12
REMARK SMILES IDX 7 13 8 14 9 15 13 16 11 17 10 18 12 20 4 22 21 24 18 26
REMARK H PARENT 10 19 12 21 4 23 21 25 18 27
REMARK Flexibility Score: inf
ROOT
ATOM      1  C   UNL     1      32.019  -0.424  -7.265  1.00  0.00     0.180 A 
ATOM      2  C   UNL     1      31.820  -1.339  -8.312  1.00  0.00     0.208 A 
ATOM      3  C   UNL     1      30.544  -1.444  -8.891  1.00  0.00     0.238 A 
ATOM      4  O   UNL     1      30.355  -2.319  -9.776  1.00  0.00    -0.285 OA
ATOM      5  C   UNL     1      29.499  -0.595  -8.454  1.00  0.00     0.111 A 
ATOM      6  C   UNL     1      28.179  -0.584  -8.998  1.00  0.00     0.134 A 
ATOM      7  C   UNL     1      27.198   0.227  -8.415  1.00  0.00     0.093 A 
ATOM      8  C   UNL     1      27.502   1.072  -7.349  1.00  0.00     0.123 A 
ATOM      9  C   UNL     1      28.801   1.110  -6.843  1.00  0.00     0.094 A 
ATOM     10  C   UNL     1      29.794   0.285  -7.379  1.00  0.00     0.146 A 
ATOM     11  O   UNL     1      31.011   0.337  -6.854  1.00  0.00    -0.452 OA
ENDROOT
BRANCH   1  12
ATOM     12  C   UNL     1      33.331  -0.264  -6.596  1.00  0.00     0.025 A 
ATOM     13  C   UNL     1      34.294   0.638  -7.080  1.00  0.00     0.016 A 
ATOM     14  C   UNL     1      35.534   0.755  -6.447  1.00  0.00     0.051 A 
ATOM     15  C   UNL     1      35.837  -0.035  -5.334  1.00  0.00     0.157 A 
ATOM     16  C   UNL     1      33.646  -1.071  -5.492  1.00  0.00     0.062 A 
ATOM     17  C   UNL     1      34.890  -0.956  -4.854  1.00  0.00     0.158 A 
BRANCH  15  18
ATOM     18  O   UNL     1      37.082   0.104  -4.721  1.00  0.00    -0.504 OA
ATOM     19  H   UNL     1      37.740   0.823  -4.996  1.00  0.00     0.293 HD
ENDBRANCH  15  18
BRANCH  17  20
ATOM     20  O   UNL     1      35.189  -1.753  -3.750  1.00  0.00    -0.504 OA
ATOM     21  H   UNL     1      35.949  -2.423  -3.769  1.00  0.00     0.293 HD
ENDBRANCH  17  20
ENDBRANCH   1  12
BRANCH   2  22
ATOM     22  O   UNL     1      32.883  -2.115  -8.781  1.00  0.00    -0.502 OA
ATOM     23  H   UNL     1      33.162  -2.125  -9.755  1.00  0.00     0.293 HD
ENDBRANCH   2  22
BRANCH   6  24
ATOM     24  O   UNL     1      27.788  -1.324 -10.119  1.00  0.00    -0.507 OA
ATOM     25  H   UNL     1      27.659  -2.323 -10.136  1.00  0.00     0.293 HD
ENDBRANCH   6  24
BRANCH   8  26
ATOM     26  O   UNL     1      26.503   1.877  -6.804  1.00  0.00    -0.508 OA
ATOM     27  H   UNL     1      25.614   2.006  -7.270  1.00  0.00     0.293 HD
ENDBRANCH   8  26
TORSDOF 6
ENDMDL
MODEL 8
REMARK VINA RESULT:    -7.442      2.602      3.560
REMARK INTER + INTRA:          -9.291
REMARK INTER:                  -9.010
REMARK INTRA:                  -0.281
REMARK UNBOUND:                -0.326
REMARK SMILES O=c1c(O)c(-c2ccc(O)c(O)c2)oc2cc(O)cc(O)c12
REMARK SMILES IDX 5 1 3 2 2 3 1 4 22 5 20 6 19 7 17 8 16 9 15 10 14 11 6 12
REMARK SMILES IDX 7 13 8 14 9 15 13 16 11 17 10 18 12 20 4 22 21 24 18 26
REMARK H PARENT 10 19 12 21 4 23 21 25 18 27
REMARK Flexibility Score: inf
ROOT
ATOM      1  C   UNL     1      28.849  -0.009  -7.098  1.00  0.00     0.180 A 
ATOM      2  C   UNL     1      29.268   0.604  -8.291  1.00  0.00     0.208 A 
ATOM      3  C   UNL     1      30.624   0.537  -8.652  1.00  0.00     0.238 A 
ATOM      4  O   UNL     1      31.005   1.151  -9.682  1.00  0.00    -0.285 OA
ATOM      5  C   UNL     1      31.533  -0.189  -7.844  1.00  0.00     0.111 A 
ATOM      6  C   UNL     1      32.921  -0.361  -8.136  1.00  0.00     0.134 A 
ATOM      7  C   UNL     1      33.745  -1.011  -7.210  1.00  0.00     0.093 A 
ATOM      8  C   UNL     1      33.224  -1.549  -6.034  1.00  0.00     0.123 A 
ATOM      9  C   UNL     1      31.861  -1.435  -5.764  1.00  0.00     0.094 A 
ATOM     10  C   UNL     1      31.018  -0.759  -6.650  1.00  0.00     0.146 A 
ATOM     11  O   UNL     1      29.731  -0.655  -6.345  1.00  0.00    -0.452 OA
ENDROOT
BRANCH   1  12
ATOM     12  C   UNL     1      27.440   0.030  -6.644  1.00  0.00     0.025 A 
ATOM     13  C   UNL     1      26.463  -0.803  -7.218  1.00  0.00     0.016 A 
ATOM     14  C   UNL     1      25.135  -0.732  -6.790  1.00  0.00     0.051 A 
ATOM     15  C   UNL     1      24.758   0.178  -5.798  1.00  0.00     0.157 A 
ATOM     16  C   UNL     1      27.055   0.958  -5.663  1.00  0.00     0.062 A 
ATOM     17  C   UNL     1      25.722   1.031  -5.232  1.00  0.00     0.158 A 
BRANCH  15  18
ATOM     18  O   UNL     1      23.426   0.225  -5.390  1.00  0.00    -0.504 OA
ATOM     19  H   UNL     1      23.056   0.996  -4.845  1.00  0.00     0.293 HD
ENDBRANCH  15  18
BRANCH  17  20
ATOM     20  O   UNL     1      25.353   1.946  -4.248  1.00  0.00    -0.504 OA
ATOM     21  H   UNL     1      24.716   2.709  -4.446  1.00  0.00     0.293 HD
ENDBRANCH  17  20
ENDBRANCH   1  12
BRANCH   2  22
ATOM     22  O   UNL     1      28.341   1.251  -9.113  1.00  0.00    -0.502 OA
ATOM     23  H   UNL     1      27.412   1.498  -8.796  1.00  0.00     0.293 HD
ENDBRANCH   2  22
BRANCH   6  24
ATOM     24  O   UNL     1      33.529   0.060  -9.323  1.00  0.00    -0.507 OA
ATOM     25  H   UNL     1      34.148   0.851  -9.406  1.00  0.00     0.293 HD
ENDBRANCH   6  24
BRANCH   8  26
ATOM     26  O   UNL     1      34.073  -2.204  -5.143  1.00  0.00    -0.508 OA
ATOM     27  H   UNL     1      35.080  -2.143  -5.229  1.00  0.00     0.293 HD
ENDBRANCH   8  26
TORSDOF 6
ENDMDL
MODEL 9
REMARK VINA RESULT:    -7.405      2.081      3.315
REMARK INTER + INTRA:          -9.246
REMARK INTER:                  -8.925
REMARK INTRA:                  -0.321
REMARK UNBOUND:                -0.326
REMARK SMILES O=c1c(O)c(-c2ccc(O)c(O)c2)oc2cc(O)cc(O)c12
REMARK SMILES IDX 5 1 3 2 2 3 1 4 22 5 20 6 19 7 17 8 16 9 15 10 14 11 6 12
REMARK SMILES IDX 7 13 8 14 9 15 13 16 11 17 10 18 12 20 4 22 21 24 18 26
REMARK H PARENT 10 19 12 21 4 23 21 25 18 27
REMARK Flexibility Score: inf
ROOT
ATOM      1  C   UNL     1      28.978   0.187  -5.512  1.00  0.00     0.180 A 
ATOM      2  C   UNL     1      29.863   0.716  -4.557  1.00  0.00     0.208 A 
ATOM      3  C   UNL     1      31.240   0.482  -4.703  1.00  0.00     0.238 A 
ATOM      4  O   UNL     1      32.020   0.894  -3.805  1.00  0.00    -0.285 OA
ATOM      5  C   UNL     1      31.720  -0.228  -5.831  1.00  0.00     0.111 A 
ATOM      6  C   UNL     1      33.098  -0.484  -6.104  1.00  0.00     0.134 A 
ATOM      7  C   UNL     1      33.448  -1.288  -7.195  1.00  0.00     0.093 A 
ATOM      8  C   UNL     1      32.477  -1.793  -8.058  1.00  0.00     0.123 A 
ATOM      9  C   UNL     1      31.131  -1.504  -7.833  1.00  0.00     0.094 A 
ATOM     10  C   UNL     1      30.747  -0.736  -6.731  1.00  0.00     0.146 A 
ATOM     11  O   UNL     1      29.455  -0.502  -6.542  1.00  0.00    -0.452 OA
ENDROOT
BRANCH   1  12
ATOM     12  C   UNL     1      27.512   0.379  -5.420  1.00  0.00     0.025 A 
ATOM     13  C   UNL     1      26.877   1.470  -6.038  1.00  0.00     0.016 A 
ATOM     14  C   UNL     1      25.496   1.645  -5.917  1.00  0.00     0.051 A 
ATOM     15  C   UNL     1      24.731   0.744  -5.169  1.00  0.00     0.157 A 
ATOM     16  C   UNL     1      26.745  -0.512  -4.652  1.00  0.00     0.062 A 
ATOM     17  C   UNL     1      25.359  -0.339  -4.530  1.00  0.00     0.158 A 
BRANCH  15  18
ATOM     18  O   UNL     1      23.355   0.941  -5.069  1.00  0.00    -0.504 OA
ATOM     19  H   UNL     1      22.923   1.301  -4.226  1.00  0.00     0.293 HD
ENDBRANCH  15  18
BRANCH  17  20
ATOM     20  O   UNL     1      24.605  -1.237  -3.776  1.00  0.00    -0.504 OA
ATOM     21  H   UNL     1      24.005  -1.926  -4.216  1.00  0.00     0.293 HD
ENDBRANCH  17  20
ENDBRANCH   1  12
BRANCH   2  22
ATOM     22  O   UNL     1      29.376   1.478  -3.492  1.00  0.00    -0.502 OA
ATOM     23  H   UNL     1      29.126   2.455  -3.593  1.00  0.00     0.293 HD
ENDBRANCH   2  22
BRANCH   6  24
ATOM     24  O   UNL     1      34.156   0.044  -5.356  1.00  0.00    -0.507 OA
ATOM     25  H   UNL     1      34.401  -0.241  -4.421  1.00  0.00     0.293 HD
ENDBRANCH   6  24
BRANCH   8  26
ATOM     26  O   UNL     1      32.863  -2.576  -9.145  1.00  0.00    -0.508 OA
ATOM     27  H   UNL     1      32.482  -3.504  -9.291  1.00  0.00     0.293 HD
ENDBRANCH   8  26
TORSDOF 6
ENDMDL
