MODEL 1
REMARK VINA RESULT:     0.000      0.000      0.000
REMARK INTER + INTRA:          -5.070
REMARK INTER:                   0.000
REMARK INTRA:                  -5.070
REMARK UNBOUND:                -5.070
REMARK SMILES CCCCCCCCCCCCCCCCCCCCCC(=O)[O-]
REMARK SMILES IDX 12 1 11 2 10 3 9 4 8 5 7 6 6 7 5 8 4 9 3 10 2 11 1 12 13 13
REMARK SMILES IDX 14 14 15 15 16 16 17 17 18 18 19 19 20 20 21 21 22 22 23 23
REMARK SMILES IDX 24 24
REMARK H PARENT
REMARK Flexibility Score: inf
ROOT
ATOM      1  C   UNL     1     171.216 188.472 196.128  1.00  0.00     0.000 C 
ENDROOT
BRANCH   1   2
ATOM      2  C   UNL     1     171.984 187.176 196.472  1.00  0.00     0.000 C 
BRANCH   2   3
ATOM      3  C   UNL     1     173.423 187.143 195.923  1.00  0.00     0.000 C 
BRANCH   3   4
ATOM      4  C   UNL     1     174.097 188.520 195.773  1.00  0.00    -0.000 C 
BRANCH   4   5
ATOM      5  C   UNL     1     175.080 188.892 196.898  1.00  0.00    -0.000 C 
BRANCH   5   6
ATOM      6  C   UNL     1     174.912 190.337 197.390  1.00  0.00    -0.000 C 
BRANCH   6   7
ATOM      7  C   UNL     1     173.832 191.069 196.578  1.00  0.00    -0.000 C 
BRANCH   7   8
ATOM      8  C   UNL     1     172.729 191.673 197.463  1.00  0.00    -0.000 C 
BRANCH   8   9
ATOM      9  C   UNL     1     172.653 191.003 198.847  1.00  0.00    -0.000 C 
BRANCH   9  10
ATOM     10  C   UNL     1     171.251 190.451 199.159  1.00  0.00    -0.000 C 
BRANCH  10  11
ATOM     11  C   UNL     1     171.291 189.024 199.728  1.00  0.00    -0.003 C 
ATOM     12  C   UNL     1     172.726 188.522 199.851  1.00  0.00     0.004 C 
ENDBRANCH  10  11
ENDBRANCH   9  10
ENDBRANCH   8   9
ENDBRANCH   7   8
ENDBRANCH   6   7
ENDBRANCH   5   6
ENDBRANCH   4   5
ENDBRANCH   3   4
ENDBRANCH   2   3
ENDBRANCH   1   2
BRANCH   1  13
ATOM     13  C   UNL     1     169.690 188.265 196.113  1.00  0.00     0.000 C 
BRANCH  13  14
ATOM     14  C   UNL     1     168.941 189.443 195.471  1.00  0.00     0.000 C 
BRANCH  14  15
ATOM     15  C   UNL     1     169.769 190.736 195.468  1.00  0.00     0.000 C 
BRANCH  15  16
ATOM     16  C   UNL     1     169.975 191.253 194.039  1.00  0.00     0.000 C 
BRANCH  16  17
ATOM     17  C   UNL     1     171.436 191.668 193.810  1.00  0.00     0.000 C 
BRANCH  17  18
ATOM     18  C   UNL     1     172.287 190.537 193.212  1.00  0.00     0.000 C 
BRANCH  18  19
ATOM     19  C   UNL     1     171.468 189.587 192.321  1.00  0.00     0.000 C 
BRANCH  19  20
ATOM     20  C   UNL     1     171.810 188.109 192.564  1.00  0.00     0.006 C 
BRANCH  20  21
ATOM     21  C   UNL     1     170.563 187.217 192.614  1.00  0.00     0.053 C 
BRANCH  21  22
ATOM     22  C   UNL     1     170.880 185.913 193.276  1.00  0.00     0.041 C 
ATOM     23  O   UNL     1     171.979 185.341 193.052  1.00  0.00    -0.550 OA
ATOM     24  O   UNL     1     169.941 185.301 194.097  1.00  0.00    -0.550 OA
ENDBRANCH  21  22
ENDBRANCH  20  21
ENDBRANCH  19  20
ENDBRANCH  18  19
ENDBRANCH  17  18
ENDBRANCH  16  17
ENDBRANCH  15  16
ENDBRANCH  14  15
ENDBRANCH  13  14
ENDBRANCH   1  13
TORSDOF 20
ENDMDL
MODEL 2
REMARK VINA RESULT:     0.034      4.099      6.638
REMARK INTER + INTRA:          -4.996
REMARK INTER:                   0.000
REMARK INTRA:                  -4.996
REMARK UNBOUND:                -5.070
REMARK SMILES CCCCCCCCCCCCCCCCCCCCCC(=O)[O-]
REMARK SMILES IDX 12 1 11 2 10 3 9 4 8 5 7 6 6 7 5 8 4 9 3 10 2 11 1 12 13 13
REMARK SMILES IDX 14 14 15 15 16 16 17 17 18 18 19 19 20 20 21 21 22 22 23 23
REMARK SMILES IDX 24 24
REMARK H PARENT
REMARK Flexibility Score: inf
ROOT
ATOM      1  C   UNL     1     174.120 190.365 200.434  1.00  0.00     0.000 C 
ENDROOT
BRANCH   1   2
ATOM      2  C   UNL     1     174.000 191.870 200.760  1.00  0.00     0.000 C 
BRANCH   2   3
ATOM      3  C   UNL     1     175.313 192.653 200.579  1.00  0.00     0.000 C 
BRANCH   3   4
ATOM      4  C   UNL     1     176.400 191.924 199.765  1.00  0.00    -0.000 C 
BRANCH   4   5
ATOM      5  C   UNL     1     177.645 191.503 200.568  1.00  0.00    -0.000 C 
BRANCH   5   6
ATOM      6  C   UNL     1     177.746 189.984 200.766  1.00  0.00    -0.000 C 
BRANCH   6   7
ATOM      7  C   UNL     1     177.261 189.581 202.167  1.00  0.00    -0.000 C 
BRANCH   7   8
ATOM      8  C   UNL     1     177.342 190.736 203.179  1.00  0.00    -0.000 C 
BRANCH   8   9
ATOM      9  C   UNL     1     175.996 191.001 203.878  1.00  0.00    -0.000 C 
BRANCH   9  10
ATOM     10  C   UNL     1     175.090 189.759 203.904  1.00  0.00    -0.000 C 
BRANCH  10  11
ATOM     11  C   UNL     1     173.608 190.112 204.100  1.00  0.00    -0.003 C 
ATOM     12  C   UNL     1     172.741 188.856 204.109  1.00  0.00     0.004 C 
ENDBRANCH  10  11
ENDBRANCH   9  10
ENDBRANCH   8   9
ENDBRANCH   7   8
ENDBRANCH   6   7
ENDBRANCH   5   6
ENDBRANCH   4   5
ENDBRANCH   3   4
ENDBRANCH   2   3
ENDBRANCH   1   2
BRANCH   1  13
ATOM     13  C   UNL     1     172.749 189.668 200.351  1.00  0.00     0.000 C 
BRANCH  13  14
ATOM     14  C   UNL     1     172.863 188.136 200.382  1.00  0.00     0.000 C 
BRANCH  14  15
ATOM     15  C   UNL     1     174.224 187.657 200.907  1.00  0.00     0.000 C 
BRANCH  15  16
ATOM     16  C   UNL     1     174.796 186.547 200.017  1.00  0.00     0.000 C 
BRANCH  16  17
ATOM     17  C   UNL     1     176.129 186.977 199.387  1.00  0.00     0.000 C 
BRANCH  17  18
ATOM     18  C   UNL     1     175.995 187.327 197.897  1.00  0.00     0.000 C 
BRANCH  18  19
ATOM     19  C   UNL     1     176.010 188.844 197.642  1.00  0.00     0.000 C 
BRANCH  19  20
ATOM     20  C   UNL     1     174.695 189.353 197.029  1.00  0.00     0.006 C 
BRANCH  20  21
ATOM     21  C   UNL     1     174.757 190.839 196.654  1.00  0.00     0.053 C 
BRANCH  21  22
ATOM     22  C   UNL     1     173.471 191.519 197.008  1.00  0.00     0.041 C 
ATOM     23  O   UNL     1     173.472 192.726 197.364  1.00  0.00    -0.550 OA
ATOM     24  O   UNL     1     172.279 190.805 196.996  1.00  0.00    -0.550 OA
ENDBRANCH  21  22
ENDBRANCH  20  21
ENDBRANCH  19  20
ENDBRANCH  18  19
ENDBRANCH  17  18
ENDBRANCH  16  17
ENDBRANCH  15  16
ENDBRANCH  14  15
ENDBRANCH  13  14
ENDBRANCH   1  13
TORSDOF 20
ENDMDL
MODEL 3
REMARK VINA RESULT:     0.049      3.686      6.451
REMARK INTER + INTRA:          -4.963
REMARK INTER:                   0.000
REMARK INTRA:                  -4.963
REMARK UNBOUND:                -5.070
REMARK SMILES CCCCCCCCCCCCCCCCCCCCCC(=O)[O-]
REMARK SMILES IDX 12 1 11 2 10 3 9 4 8 5 7 6 6 7 5 8 4 9 3 10 2 11 1 12 13 13
REMARK SMILES IDX 14 14 15 15 16 16 17 17 18 18 19 19 20 20 21 21 22 22 23 23
REMARK SMILES IDX 24 24
REMARK H PARENT
REMARK Flexibility Score: inf
ROOT
ATOM      1  C   UNL     1     174.845 189.639 197.691  1.00  0.00     0.000 C 
ENDROOT
BRANCH   1   2
ATOM      2  C   UNL     1     173.417 189.122 197.972  1.00  0.00     0.000 C 
BRANCH   2   3
ATOM      3  C   UNL     1     173.065 189.049 199.470  1.00  0.00     0.000 C 
BRANCH   3   4
ATOM      4  C   UNL     1     174.264 189.173 200.429  1.00  0.00    -0.000 C 
BRANCH   4   5
ATOM      5  C   UNL     1     174.139 190.282 201.490  1.00  0.00    -0.000 C 
BRANCH   5   6
ATOM      6  C   UNL     1     173.554 191.586 200.930  1.00  0.00    -0.000 C 
BRANCH   6   7
ATOM      7  C   UNL     1     174.639 192.414 200.224  1.00  0.00    -0.000 C 
BRANCH   7   8
ATOM      8  C   UNL     1     174.154 193.026 198.899  1.00  0.00    -0.000 C 
BRANCH   8   9
ATOM      9  C   UNL     1     172.653 192.787 198.656  1.00  0.00    -0.000 C 
BRANCH   9  10
ATOM     10  C   UNL     1     172.323 192.573 197.169  1.00  0.00    -0.000 C 
BRANCH  10  11
ATOM     11  C   UNL     1     173.531 192.821 196.253  1.00  0.00    -0.003 C 
ATOM     12  C   UNL     1     173.393 192.052 194.942  1.00  0.00     0.004 C 
ENDBRANCH  10  11
ENDBRANCH   9  10
ENDBRANCH   8   9
ENDBRANCH   7   8
ENDBRANCH   6   7
ENDBRANCH   5   6
ENDBRANCH   4   5
ENDBRANCH   3   4
ENDBRANCH   2   3
ENDBRANCH   1   2
BRANCH   1  13
ATOM     13  C   UNL     1     175.362 189.217 196.304  1.00  0.00     0.000 C 
BRANCH  13  14
ATOM     14  C   UNL     1     176.622 189.989 195.884  1.00  0.00     0.000 C 
BRANCH  14  15
ATOM     15  C   UNL     1     176.835 191.265 196.712  1.00  0.00     0.000 C 
BRANCH  15  16
ATOM     16  C   UNL     1     178.189 191.231 197.432  1.00  0.00     0.000 C 
BRANCH  16  17
ATOM     17  C   UNL     1     178.041 191.654 198.902  1.00  0.00     0.000 C 
BRANCH  17  18
ATOM     18  C   UNL     1     177.734 190.469 199.831  1.00  0.00     0.000 C 
BRANCH  18  19
ATOM     19  C   UNL     1     178.455 189.179 199.403  1.00  0.00     0.000 C 
BRANCH  19  20
ATOM     20  C   UNL     1     177.576 187.929 199.569  1.00  0.00     0.006 C 
BRANCH  20  21
ATOM     21  C   UNL     1     177.531 187.069 198.299  1.00  0.00     0.053 C 
BRANCH  21  22
ATOM     22  C   UNL     1     176.579 185.928 198.476  1.00  0.00     0.041 C 
ATOM     23  O   UNL     1     177.014 184.771 198.713  1.00  0.00    -0.550 OA
ATOM     24  O   UNL     1     175.213 186.132 198.325  1.00  0.00    -0.550 OA
ENDBRANCH  21  22
ENDBRANCH  20  21
ENDBRANCH  19  20
ENDBRANCH  18  19
ENDBRANCH  17  18
ENDBRANCH  16  17
ENDBRANCH  15  16
ENDBRANCH  14  15
ENDBRANCH  13  14
ENDBRANCH   1  13
TORSDOF 20
ENDMDL
MODEL 4
REMARK VINA RESULT:     0.051      4.194      6.370
REMARK INTER + INTRA:          -4.959
REMARK INTER:                   0.000
REMARK INTRA:                  -4.959
REMARK UNBOUND:                -5.070
REMARK SMILES CCCCCCCCCCCCCCCCCCCCCC(=O)[O-]
REMARK SMILES IDX 12 1 11 2 10 3 9 4 8 5 7 6 6 7 5 8 4 9 3 10 2 11 1 12 13 13
REMARK SMILES IDX 14 14 15 15 16 16 17 17 18 18 19 19 20 20 21 21 22 22 23 23
REMARK SMILES IDX 24 24
REMARK H PARENT
REMARK Flexibility Score: inf
ROOT
ATOM      1  C   UNL     1     174.645 192.183 197.629  1.00  0.00     0.000 C 
ENDROOT
BRANCH   1   2
ATOM      2  C   UNL     1     173.155 192.557 197.470  1.00  0.00     0.000 C 
BRANCH   2   3
ATOM      3  C   UNL     1     172.771 193.887 198.144  1.00  0.00     0.000 C 
BRANCH   3   4
ATOM      4  C   UNL     1     171.379 194.431 197.771  1.00  0.00    -0.000 C 
BRANCH   4   5
ATOM      5  C   UNL     1     170.740 193.789 196.526  1.00  0.00    -0.000 C 
BRANCH   5   6
ATOM      6  C   UNL     1     169.622 192.794 196.869  1.00  0.00    -0.000 C 
BRANCH   6   7
ATOM      7  C   UNL     1     169.874 191.434 196.198  1.00  0.00    -0.000 C 
BRANCH   7   8
ATOM      8  C   UNL     1     170.051 190.293 197.214  1.00  0.00    -0.000 C 
BRANCH   8   9
ATOM      9  C   UNL     1     169.999 190.788 198.670  1.00  0.00    -0.000 C 
BRANCH   9  10
ATOM     10  C   UNL     1     171.171 190.261 199.515  1.00  0.00    -0.000 C 
BRANCH  10  11
ATOM     11  C   UNL     1     171.601 191.247 200.611  1.00  0.00    -0.003 C 
ATOM     12  C   UNL     1     170.581 192.372 200.768  1.00  0.00     0.004 C 
ENDBRANCH  10  11
ENDBRANCH   9  10
ENDBRANCH   8   9
ENDBRANCH   7   8
ENDBRANCH   6   7
ENDBRANCH   5   6
ENDBRANCH   4   5
ENDBRANCH   3   4
ENDBRANCH   2   3
ENDBRANCH   1   2
BRANCH   1  13
ATOM     13  C   UNL     1     174.977 190.811 197.014  1.00  0.00     0.000 C 
BRANCH  13  14
ATOM     14  C   UNL     1     173.743 189.902 196.899  1.00  0.00     0.000 C 
BRANCH  14  15
ATOM     15  C   UNL     1     173.578 189.307 195.493  1.00  0.00     0.000 C 
BRANCH  15  16
ATOM     16  C   UNL     1     173.840 190.367 194.416  1.00  0.00     0.000 C 
BRANCH  16  17
ATOM     17  C   UNL     1     172.523 190.865 193.802  1.00  0.00     0.000 C 
BRANCH  17  18
ATOM     18  C   UNL     1     172.506 192.387 193.592  1.00  0.00     0.000 C 
BRANCH  18  19
ATOM     19  C   UNL     1     173.842 193.051 193.968  1.00  0.00     0.000 C 
BRANCH  19  20
ATOM     20  C   UNL     1     173.681 194.535 194.335  1.00  0.00     0.006 C 
BRANCH  20  21
ATOM     21  C   UNL     1     174.830 195.052 195.211  1.00  0.00     0.053 C 
BRANCH  21  22
ATOM     22  C   UNL     1     174.411 196.288 195.944  1.00  0.00     0.041 C 
ATOM     23  O   UNL     1     175.184 196.818 196.784  1.00  0.00    -0.550 OA
ATOM     24  O   UNL     1     173.145 196.823 195.739  1.00  0.00    -0.550 OA
ENDBRANCH  21  22
ENDBRANCH  20  21
ENDBRANCH  19  20
ENDBRANCH  18  19
ENDBRANCH  17  18
ENDBRANCH  16  17
ENDBRANCH  15  16
ENDBRANCH  14  15
ENDBRANCH  13  14
ENDBRANCH   1  13
TORSDOF 20
ENDMDL
MODEL 5
REMARK VINA RESULT:     0.051      3.912      6.817
REMARK INTER + INTRA:          -4.959
REMARK INTER:                   0.000
REMARK INTRA:                  -4.959
REMARK UNBOUND:                -5.070
REMARK SMILES CCCCCCCCCCCCCCCCCCCCCC(=O)[O-]
REMARK SMILES IDX 12 1 11 2 10 3 9 4 8 5 7 6 6 7 5 8 4 9 3 10 2 11 1 12 13 13
REMARK SMILES IDX 14 14 15 15 16 16 17 17 18 18 19 19 20 20 21 21 22 22 23 23
REMARK SMILES IDX 24 24
REMARK H PARENT
REMARK Flexibility Score: inf
ROOT
ATOM      1  C   UNL     1     176.167 188.529 197.587  1.00  0.00     0.000 C 
ENDROOT
BRANCH   1   2
ATOM      2  C   UNL     1     177.350 189.445 197.200  1.00  0.00     0.000 C 
BRANCH   2   3
ATOM      3  C   UNL     1     178.556 188.689 196.612  1.00  0.00     0.000 C 
BRANCH   3   4
ATOM      4  C   UNL     1     178.240 187.287 196.057  1.00  0.00    -0.000 C 
BRANCH   4   5
ATOM      5  C   UNL     1     177.978 187.229 194.541  1.00  0.00    -0.000 C 
BRANCH   5   6
ATOM      6  C   UNL     1     176.532 186.844 194.195  1.00  0.00    -0.000 C 
BRANCH   6   7
ATOM      7  C   UNL     1     175.899 187.882 193.254  1.00  0.00    -0.000 C 
BRANCH   7   8
ATOM      8  C   UNL     1     176.890 188.976 192.823  1.00  0.00    -0.000 C 
BRANCH   8   9
ATOM      9  C   UNL     1     176.197 190.322 192.546  1.00  0.00    -0.000 C 
BRANCH   9  10
ATOM     10  C   UNL     1     176.984 191.518 193.108  1.00  0.00    -0.000 C 
BRANCH  10  11
ATOM     11  C   UNL     1     178.247 191.090 193.870  1.00  0.00    -0.003 C 
ATOM     12  C   UNL     1     178.648 192.140 194.901  1.00  0.00     0.004 C 
ENDBRANCH  10  11
ENDBRANCH   9  10
ENDBRANCH   8   9
ENDBRANCH   7   8
ENDBRANCH   6   7
ENDBRANCH   5   6
ENDBRANCH   4   5
ENDBRANCH   3   4
ENDBRANCH   2   3
ENDBRANCH   1   2
BRANCH   1  13
ATOM     13  C   UNL     1     174.879 188.874 196.819  1.00  0.00     0.000 C 
BRANCH  13  14
ATOM     14  C   UNL     1     175.015 190.157 195.984  1.00  0.00     0.000 C 
BRANCH  14  15
ATOM     15  C   UNL     1     173.663 190.832 195.716  1.00  0.00     0.000 C 
BRANCH  15  16
ATOM     16  C   UNL     1     173.767 192.353 195.878  1.00  0.00     0.000 C 
BRANCH  16  17
ATOM     17  C   UNL     1     175.232 192.792 196.024  1.00  0.00     0.000 C 
BRANCH  17  18
ATOM     18  C   UNL     1     175.486 193.590 197.312  1.00  0.00     0.000 C 
BRANCH  18  19
ATOM     19  C   UNL     1     176.216 192.763 198.385  1.00  0.00     0.000 C 
BRANCH  19  20
ATOM     20  C   UNL     1     175.381 192.587 199.664  1.00  0.00     0.006 C 
BRANCH  20  21
ATOM     21  C   UNL     1     174.762 191.188 199.775  1.00  0.00     0.053 C 
BRANCH  21  22
ATOM     22  C   UNL     1     173.313 191.228 199.406  1.00  0.00     0.041 C 
ATOM     23  O   UNL     1     172.722 192.332 199.281  1.00  0.00    -0.550 OA
ATOM     24  O   UNL     1     172.601 190.045 199.253  1.00  0.00    -0.550 OA
ENDBRANCH  21  22
ENDBRANCH  20  21
ENDBRANCH  19  20
ENDBRANCH  18  19
ENDBRANCH  17  18
ENDBRANCH  16  17
ENDBRANCH  15  16
ENDBRANCH  14  15
ENDBRANCH  13  14
ENDBRANCH   1  13
TORSDOF 20
ENDMDL
MODEL 6
REMARK VINA RESULT:     0.077      5.345      8.523
REMARK INTER + INTRA:          -4.902
REMARK INTER:                   0.000
REMARK INTRA:                  -4.902
REMARK UNBOUND:                -5.070
REMARK SMILES CCCCCCCCCCCCCCCCCCCCCC(=O)[O-]
REMARK SMILES IDX 12 1 11 2 10 3 9 4 8 5 7 6 6 7 5 8 4 9 3 10 2 11 1 12 13 13
REMARK SMILES IDX 14 14 15 15 16 16 17 17 18 18 19 19 20 20 21 21 22 22 23 23
REMARK SMILES IDX 24 24
REMARK H PARENT
REMARK Flexibility Score: inf
ROOT
ATOM      1  C   UNL     1     173.633 187.740 200.277  1.00  0.00     0.000 C 
ENDROOT
BRANCH   1   2
ATOM      2  C   UNL     1     174.972 187.904 199.526  1.00  0.00     0.000 C 
BRANCH   2   3
ATOM      3  C   UNL     1     176.135 187.105 200.144  1.00  0.00     0.000 C 
BRANCH   3   4
ATOM      4  C   UNL     1     176.787 186.070 199.206  1.00  0.00    -0.000 C 
BRANCH   4   5
ATOM      5  C   UNL     1     175.932 185.658 197.994  1.00  0.00    -0.000 C 
BRANCH   5   6
ATOM      6  C   UNL     1     175.573 184.165 197.992  1.00  0.00    -0.000 C 
BRANCH   6   7
ATOM      7  C   UNL     1     174.093 183.959 197.630  1.00  0.00    -0.000 C 
BRANCH   7   8
ATOM      8  C   UNL     1     173.346 185.284 197.403  1.00  0.00    -0.000 C 
BRANCH   8   9
ATOM      9  C   UNL     1     171.842 185.171 197.707  1.00  0.00    -0.000 C 
BRANCH   9  10
ATOM     10  C   UNL     1     171.164 186.544 197.853  1.00  0.00    -0.000 C 
BRANCH  10  11
ATOM     11  C   UNL     1     170.040 186.542 198.899  1.00  0.00    -0.003 C 
ATOM     12  C   UNL     1     169.908 187.908 199.566  1.00  0.00     0.004 C 
ENDBRANCH  10  11
ENDBRANCH   9  10
ENDBRANCH   8   9
ENDBRANCH   7   8
ENDBRANCH   6   7
ENDBRANCH   5   6
ENDBRANCH   4   5
ENDBRANCH   3   4
ENDBRANCH   2   3
ENDBRANCH   1   2
BRANCH   1  13
ATOM     13  C   UNL     1     173.545 186.406 201.041  1.00  0.00     0.000 C 
BRANCH  13  14
ATOM     14  C   UNL     1     172.254 186.281 201.863  1.00  0.00     0.000 C 
BRANCH  14  15
ATOM     15  C   UNL     1     171.768 184.829 201.982  1.00  0.00     0.000 C 
BRANCH  15  16
ATOM     16  C   UNL     1     172.512 183.920 200.996  1.00  0.00     0.000 C 
BRANCH  16  17
ATOM     17  C   UNL     1     173.179 182.745 201.726  1.00  0.00     0.000 C 
BRANCH  17  18
ATOM     18  C   UNL     1     174.577 182.422 201.176  1.00  0.00     0.000 C 
BRANCH  18  19
ATOM     19  C   UNL     1     175.635 183.453 201.608  1.00  0.00     0.000 C 
BRANCH  19  20
ATOM     20  C   UNL     1     175.774 183.552 203.135  1.00  0.00     0.006 C 
BRANCH  20  21
ATOM     21  C   UNL     1     175.705 184.999 203.640  1.00  0.00     0.053 C 
BRANCH  21  22
ATOM     22  C   UNL     1     174.508 185.187 204.519  1.00  0.00     0.041 C 
ATOM     23  O   UNL     1     173.811 184.197 204.859  1.00  0.00    -0.550 OA
ATOM     24  O   UNL     1     174.132 186.464 204.918  1.00  0.00    -0.550 OA
ENDBRANCH  21  22
ENDBRANCH  20  21
ENDBRANCH  19  20
ENDBRANCH  18  19
ENDBRANCH  17  18
ENDBRANCH  16  17
ENDBRANCH  15  16
ENDBRANCH  14  15
ENDBRANCH  13  14
ENDBRANCH   1  13
TORSDOF 20
ENDMDL
MODEL 7
REMARK VINA RESULT:     0.078      8.002     11.136
REMARK INTER + INTRA:          -4.899
REMARK INTER:                   0.000
REMARK INTRA:                  -4.899
REMARK UNBOUND:                -5.070
REMARK SMILES CCCCCCCCCCCCCCCCCCCCCC(=O)[O-]
REMARK SMILES IDX 12 1 11 2 10 3 9 4 8 5 7 6 6 7 5 8 4 9 3 10 2 11 1 12 13 13
REMARK SMILES IDX 14 14 15 15 16 16 17 17 18 18 19 19 20 20 21 21 22 22 23 23
REMARK SMILES IDX 24 24
REMARK H PARENT
REMARK Flexibility Score: inf
ROOT
ATOM      1  C   UNL     1     179.724 182.978 186.289  1.00  0.00     0.000 C 
ENDROOT
BRANCH   1   2
ATOM      2  C   UNL     1     178.733 181.961 185.679  1.00  0.00     0.000 C 
BRANCH   2   3
ATOM      3  C   UNL     1     177.971 181.129 186.727  1.00  0.00     0.000 C 
BRANCH   3   4
ATOM      4  C   UNL     1     178.327 181.442 188.193  1.00  0.00    -0.000 C 
BRANCH   4   5
ATOM      5  C   UNL     1     177.200 182.098 189.012  1.00  0.00    -0.000 C 
BRANCH   5   6
ATOM      6  C   UNL     1     176.036 182.595 188.143  1.00  0.00    -0.000 C 
BRANCH   6   7
ATOM      7  C   UNL     1     176.196 184.088 187.815  1.00  0.00    -0.000 C 
BRANCH   7   8
ATOM      8  C   UNL     1     174.918 184.898 188.094  1.00  0.00    -0.000 C 
BRANCH   8   9
ATOM      9  C   UNL     1     175.038 186.363 187.637  1.00  0.00    -0.000 C 
BRANCH   9  10
ATOM     10  C   UNL     1     176.117 186.558 186.559  1.00  0.00    -0.000 C 
BRANCH  10  11
ATOM     11  C   UNL     1     176.854 187.899 186.694  1.00  0.00    -0.003 C 
ATOM     12  C   UNL     1     176.276 188.729 187.837  1.00  0.00     0.004 C 
ENDBRANCH  10  11
ENDBRANCH   9  10
ENDBRANCH   8   9
ENDBRANCH   7   8
ENDBRANCH   6   7
ENDBRANCH   5   6
ENDBRANCH   4   5
ENDBRANCH   3   4
ENDBRANCH   2   3
ENDBRANCH   1   2
BRANCH   1  13
ATOM     13  C   UNL     1     179.324 184.436 186.000  1.00  0.00     0.000 C 
BRANCH  13  14
ATOM     14  C   UNL     1     179.611 185.372 187.184  1.00  0.00     0.000 C 
BRANCH  14  15
ATOM     15  C   UNL     1     180.197 184.630 188.394  1.00  0.00     0.000 C 
BRANCH  15  16
ATOM     16  C   UNL     1     179.427 184.974 189.674  1.00  0.00     0.000 C 
BRANCH  16  17
ATOM     17  C   UNL     1     178.657 186.294 189.517  1.00  0.00     0.000 C 
BRANCH  17  18
ATOM     18  C   UNL     1     177.475 186.410 190.491  1.00  0.00     0.000 C 
BRANCH  18  19
ATOM     19  C   UNL     1     177.222 185.110 191.273  1.00  0.00     0.000 C 
BRANCH  19  20
ATOM     20  C   UNL     1     175.751 184.946 191.687  1.00  0.00     0.006 C 
BRANCH  20  21
ATOM     21  C   UNL     1     175.366 183.480 191.922  1.00  0.00     0.053 C 
BRANCH  21  22
ATOM     22  C   UNL     1     174.046 183.179 191.284  1.00  0.00     0.041 C 
ATOM     23  O   UNL     1     173.802 182.024 190.850  1.00  0.00    -0.550 OA
ATOM     24  O   UNL     1     173.106 184.189 191.118  1.00  0.00    -0.550 OA
ENDBRANCH  21  22
ENDBRANCH  20  21
ENDBRANCH  19  20
ENDBRANCH  18  19
ENDBRANCH  17  18
ENDBRANCH  16  17
ENDBRANCH  15  16
ENDBRANCH  14  15
ENDBRANCH  13  14
ENDBRANCH   1  13
TORSDOF 20
ENDMDL
MODEL 8
REMARK VINA RESULT:     0.089      8.229     11.204
REMARK INTER + INTRA:          -4.876
REMARK INTER:                   0.000
REMARK INTRA:                  -4.876
REMARK UNBOUND:                -5.070
REMARK SMILES CCCCCCCCCCCCCCCCCCCCCC(=O)[O-]
REMARK SMILES IDX 12 1 11 2 10 3 9 4 8 5 7 6 6 7 5 8 4 9 3 10 2 11 1 12 13 13
REMARK SMILES IDX 14 14 15 15 16 16 17 17 18 18 19 19 20 20 21 21 22 22 23 23
REMARK SMILES IDX 24 24
REMARK H PARENT
REMARK Flexibility Score: inf
ROOT
ATOM      1  C   UNL     1     179.658 183.414 202.223  1.00  0.00     0.000 C 
ENDROOT
BRANCH   1   2
ATOM      2  C   UNL     1     180.041 184.843 201.779  1.00  0.00     0.000 C 
BRANCH   2   3
ATOM      3  C   UNL     1     179.002 185.509 200.857  1.00  0.00     0.000 C 
BRANCH   3   4
ATOM      4  C   UNL     1     178.380 184.579 199.798  1.00  0.00    -0.000 C 
BRANCH   4   5
ATOM      5  C   UNL     1     177.236 185.201 198.976  1.00  0.00    -0.000 C 
BRANCH   5   6
ATOM      6  C   UNL     1     176.887 184.388 197.721  1.00  0.00    -0.000 C 
BRANCH   6   7
ATOM      7  C   UNL     1     177.876 184.686 196.583  1.00  0.00    -0.000 C 
BRANCH   7   8
ATOM      8  C   UNL     1     178.770 183.482 196.242  1.00  0.00    -0.000 C 
BRANCH   8   9
ATOM      9  C   UNL     1     180.237 183.702 196.655  1.00  0.00    -0.000 C 
BRANCH   9  10
ATOM     10  C   UNL     1     180.573 185.187 196.869  1.00  0.00    -0.000 C 
BRANCH  10  11
ATOM     11  C   UNL     1     181.540 185.412 198.041  1.00  0.00    -0.003 C 
ATOM     12  C   UNL     1     181.976 184.085 198.656  1.00  0.00     0.004 C 
ENDBRANCH  10  11
ENDBRANCH   9  10
ENDBRANCH   8   9
ENDBRANCH   7   8
ENDBRANCH   6   7
ENDBRANCH   5   6
ENDBRANCH   4   5
ENDBRANCH   3   4
ENDBRANCH   2   3
ENDBRANCH   1   2
BRANCH   1  13
ATOM     13  C   UNL     1     180.609 182.346 201.655  1.00  0.00     0.000 C 
BRANCH  13  14
ATOM     14  C   UNL     1     179.859 181.148 201.052  1.00  0.00     0.000 C 
BRANCH  14  15
ATOM     15  C   UNL     1     179.832 181.182 199.517  1.00  0.00     0.000 C 
BRANCH  15  16
ATOM     16  C   UNL     1     178.396 181.062 198.991  1.00  0.00     0.000 C 
BRANCH  16  17
ATOM     17  C   UNL     1     177.384 181.075 200.146  1.00  0.00     0.000 C 
BRANCH  17  18
ATOM     18  C   UNL     1     175.950 181.367 199.675  1.00  0.00     0.000 C 
BRANCH  18  19
ATOM     19  C   UNL     1     175.218 182.362 200.591  1.00  0.00     0.000 C 
BRANCH  19  20
ATOM     20  C   UNL     1     176.014 182.689 201.865  1.00  0.00     0.006 C 
BRANCH  20  21
ATOM     21  C   UNL     1     175.762 184.116 202.367  1.00  0.00     0.053 C 
BRANCH  21  22
ATOM     22  C   UNL     1     176.459 184.340 203.672  1.00  0.00     0.041 C 
ATOM     23  O   UNL     1     176.395 183.471 204.581  1.00  0.00    -0.550 OA
ATOM     24  O   UNL     1     177.134 185.532 203.905  1.00  0.00    -0.550 OA
ENDBRANCH  21  22
ENDBRANCH  20  21
ENDBRANCH  19  20
ENDBRANCH  18  19
ENDBRANCH  17  18
ENDBRANCH  16  17
ENDBRANCH  15  16
ENDBRANCH  14  15
ENDBRANCH  13  14
ENDBRANCH   1  13
TORSDOF 20
ENDMDL
MODEL 9
REMARK VINA RESULT:     0.090      3.401      5.932
REMARK INTER + INTRA:          -4.875
REMARK INTER:                   0.000
REMARK INTRA:                  -4.875
REMARK UNBOUND:                -5.070
REMARK SMILES CCCCCCCCCCCCCCCCCCCCCC(=O)[O-]
REMARK SMILES IDX 12 1 11 2 10 3 9 4 8 5 7 6 6 7 5 8 4 9 3 10 2 11 1 12 13 13
REMARK SMILES IDX 14 14 15 15 16 16 17 17 18 18 19 19 20 20 21 21 22 22 23 23
REMARK SMILES IDX 24 24
REMARK H PARENT
REMARK Flexibility Score: inf
ROOT
ATOM      1  C   UNL     1     171.537 189.114 197.905  1.00  0.00     0.000 C 
ENDROOT
BRANCH   1   2
ATOM      2  C   UNL     1     171.539 190.481 198.624  1.00  0.00     0.000 C 
BRANCH   2   3
ATOM      3  C   UNL     1     172.652 191.433 198.148  1.00  0.00     0.000 C 
BRANCH   3   4
ATOM      4  C   UNL     1     173.464 192.102 199.274  1.00  0.00    -0.000 C 
BRANCH   4   5
ATOM      5  C   UNL     1     174.857 191.495 199.523  1.00  0.00    -0.000 C 
BRANCH   5   6
ATOM      6  C   UNL     1     175.170 190.310 198.599  1.00  0.00    -0.000 C 
BRANCH   6   7
ATOM      7  C   UNL     1     175.552 189.065 199.415  1.00  0.00    -0.000 C 
BRANCH   7   8
ATOM      8  C   UNL     1     174.873 189.027 200.795  1.00  0.00    -0.000 C 
BRANCH   8   9
ATOM      9  C   UNL     1     173.594 188.172 200.798  1.00  0.00    -0.000 C 
BRANCH   9  10
ATOM     10  C   UNL     1     172.522 188.717 201.757  1.00  0.00    -0.000 C 
BRANCH  10  11
ATOM     11  C   UNL     1     172.901 190.081 202.354  1.00  0.00    -0.003 C 
ATOM     12  C   UNL     1     171.709 191.034 202.345  1.00  0.00     0.004 C 
ENDBRANCH  10  11
ENDBRANCH   9  10
ENDBRANCH   8   9
ENDBRANCH   7   8
ENDBRANCH   6   7
ENDBRANCH   5   6
ENDBRANCH   4   5
ENDBRANCH   3   4
ENDBRANCH   2   3
ENDBRANCH   1   2
BRANCH   1  13
ATOM     13  C   UNL     1     172.317 189.144 196.578  1.00  0.00     0.000 C 
BRANCH  13  14
ATOM     14  C   UNL     1     173.286 187.961 196.436  1.00  0.00     0.000 C 
BRANCH  14  15
ATOM     15  C   UNL     1     172.959 186.812 197.401  1.00  0.00     0.000 C 
BRANCH  15  16
ATOM     16  C   UNL     1     174.219 186.007 197.742  1.00  0.00     0.000 C 
BRANCH  16  17
ATOM     17  C   UNL     1     173.954 185.033 198.900  1.00  0.00     0.000 C 
BRANCH  17  18
ATOM     18  C   UNL     1     172.455 184.848 199.187  1.00  0.00     0.000 C 
BRANCH  18  19
ATOM     19  C   UNL     1     172.151 184.730 200.691  1.00  0.00     0.000 C 
BRANCH  19  20
ATOM     20  C   UNL     1     170.864 185.467 201.092  1.00  0.00     0.006 C 
BRANCH  20  21
ATOM     21  C   UNL     1     170.254 186.261 199.930  1.00  0.00     0.053 C 
BRANCH  21  22
ATOM     22  C   UNL     1     169.289 187.282 200.447  1.00  0.00     0.041 C 
ATOM     23  O   UNL     1     168.635 187.997 199.644  1.00  0.00    -0.550 OA
ATOM     24  O   UNL     1     169.153 187.482 201.815  1.00  0.00    -0.550 OA
ENDBRANCH  21  22
ENDBRANCH  20  21
ENDBRANCH  19  20
ENDBRANCH  18  19
ENDBRANCH  17  18
ENDBRANCH  16  17
ENDBRANCH  15  16
ENDBRANCH  14  15
ENDBRANCH  13  14
ENDBRANCH   1  13
TORSDOF 20
ENDMDL
