MODEL 1
REMARK VINA RESULT:    -5.865      0.000      0.000
REMARK INTER + INTRA:          -7.205
REMARK INTER:                  -6.894
REMARK INTRA:                  -0.312
REMARK UNBOUND:                -0.312
REMARK SMILES O=c1cc(-c2ccc(O)c(O)c2)oc2cc(O)cc(O)c12
REMARK SMILES IDX 4 1 3 2 2 3 1 4 21 5 19 6 18 7 16 8 15 9 14 10 13 11 5 12
REMARK SMILES IDX 6 13 7 14 8 15 12 16 10 17 9 18 11 20 20 22 17 24
REMARK H PARENT 9 19 11 21 20 23 17 25
REMARK Flexibility Score: inf
ROOT
ATOM      1  C   UNL     1     -17.291  75.943  -2.150  1.00  0.00     0.138 A 
ATOM      2  C   UNL     1     -18.564  75.985  -1.568  1.00  0.00     0.100 A 
ATOM      3  C   UNL     1     -18.788  76.798  -0.456  1.00  0.00     0.197 A 
ATOM      4  O   UNL     1     -19.956  76.857   0.010  1.00  0.00    -0.289 OA
ATOM      5  C   UNL     1     -17.720  77.546   0.096  1.00  0.00     0.107 A 
ATOM      6  C   UNL     1     -17.822  78.384   1.248  1.00  0.00     0.134 A 
ATOM      7  C   UNL     1     -16.720  79.152   1.642  1.00  0.00     0.093 A 
ATOM      8  C   UNL     1     -15.503  79.070   0.961  1.00  0.00     0.123 A 
ATOM      9  C   UNL     1     -15.379  78.219  -0.135  1.00  0.00     0.094 A 
ATOM     10  C   UNL     1     -16.470  77.465  -0.573  1.00  0.00     0.146 A 
ATOM     11  O   UNL     1     -16.313  76.679  -1.633  1.00  0.00    -0.456 OA
ENDROOT
BRANCH   1  12
ATOM     12  C   UNL     1     -16.995  75.093  -3.332  1.00  0.00     0.021 A 
ATOM     13  C   UNL     1     -17.801  73.988  -3.670  1.00  0.00     0.016 A 
ATOM     14  C   UNL     1     -17.505  73.212  -4.793  1.00  0.00     0.051 A 
ATOM     15  C   UNL     1     -16.405  73.529  -5.601  1.00  0.00     0.157 A 
ATOM     16  C   UNL     1     -15.901  75.411  -4.157  1.00  0.00     0.062 A 
ATOM     17  C   UNL     1     -15.604  74.631  -5.283  1.00  0.00     0.158 A 
BRANCH  15  18
ATOM     18  O   UNL     1     -16.106  72.756  -6.721  1.00  0.00    -0.504 OA
ATOM     19  H   UNL     1     -15.877  71.772  -6.640  1.00  0.00     0.293 HD
ENDBRANCH  15  18
BRANCH  17  20
ATOM     20  O   UNL     1     -14.513  74.947  -6.091  1.00  0.00    -0.504 OA
ATOM     21  H   UNL     1     -14.632  75.244  -7.053  1.00  0.00     0.293 HD
ENDBRANCH  17  20
ENDBRANCH   1  12
BRANCH   6  22
ATOM     22  O   UNL     1     -18.965  78.480   2.048  1.00  0.00    -0.507 OA
ATOM     23  H   UNL     1     -19.281  77.774   2.696  1.00  0.00     0.293 HD
ENDBRANCH   6  22
BRANCH   8  24
ATOM     24  O   UNL     1     -14.408  79.827   1.370  1.00  0.00    -0.508 OA
ATOM     25  H   UNL     1     -13.923  80.446   0.730  1.00  0.00     0.293 HD
ENDBRANCH   8  24
TORSDOF 5
ENDMDL
MODEL 2
REMARK VINA RESULT:    -5.699      1.934      6.947
REMARK INTER + INTRA:          -7.010
REMARK INTER:                  -6.741
REMARK INTRA:                  -0.269
REMARK UNBOUND:                -0.312
REMARK SMILES O=c1cc(-c2ccc(O)c(O)c2)oc2cc(O)cc(O)c12
REMARK SMILES IDX 4 1 3 2 2 3 1 4 21 5 19 6 18 7 16 8 15 9 14 10 13 11 5 12
REMARK SMILES IDX 6 13 7 14 8 15 12 16 10 17 9 18 11 20 20 22 17 24
REMARK H PARENT 9 19 11 21 20 23 17 25
REMARK Flexibility Score: inf
ROOT
ATOM      1  C   UNL     1     -16.998  76.799  -2.692  1.00  0.00     0.138 A 
ATOM      2  C   UNL     1     -18.327  76.891  -3.125  1.00  0.00     0.100 A 
ATOM      3  C   UNL     1     -18.746  76.151  -4.232  1.00  0.00     0.197 A 
ATOM      4  O   UNL     1     -19.958  76.211  -4.562  1.00  0.00    -0.289 OA
ATOM      5  C   UNL     1     -17.816  75.341  -4.929  1.00  0.00     0.107 A 
ATOM      6  C   UNL     1     -18.121  74.568  -6.091  1.00  0.00     0.134 A 
ATOM      7  C   UNL     1     -17.142  73.728  -6.636  1.00  0.00     0.093 A 
ATOM      8  C   UNL     1     -15.854  73.677  -6.098  1.00  0.00     0.123 A 
ATOM      9  C   UNL     1     -15.534  74.464  -4.994  1.00  0.00     0.094 A 
ATOM     10  C   UNL     1     -16.497  75.287  -4.406  1.00  0.00     0.146 A 
ATOM     11  O   UNL     1     -16.153  76.008  -3.345  1.00  0.00    -0.456 OA
ENDROOT
BRANCH   1  12
ATOM     12  C   UNL     1     -16.498  77.567  -1.523  1.00  0.00     0.021 A 
ATOM     13  C   UNL     1     -16.289  78.958  -1.586  1.00  0.00     0.016 A 
ATOM     14  C   UNL     1     -15.827  79.657  -0.467  1.00  0.00     0.051 A 
ATOM     15  C   UNL     1     -15.573  78.980   0.733  1.00  0.00     0.157 A 
ATOM     16  C   UNL     1     -16.253  76.899  -0.310  1.00  0.00     0.062 A 
ATOM     17  C   UNL     1     -15.788  77.600   0.812  1.00  0.00     0.158 A 
BRANCH  15  18
ATOM     18  O   UNL     1     -15.111  79.674   1.850  1.00  0.00    -0.504 OA
ATOM     19  H   UNL     1     -14.361  79.310   2.427  1.00  0.00     0.293 HD
ENDBRANCH  15  18
BRANCH  17  20
ATOM     20  O   UNL     1     -15.539  76.930   2.009  1.00  0.00    -0.504 OA
ATOM     21  H   UNL     1     -16.082  76.121   2.287  1.00  0.00     0.293 HD
ENDBRANCH  17  20
ENDBRANCH   1  12
BRANCH   6  22
ATOM     22  O   UNL     1     -19.349  74.604  -6.757  1.00  0.00    -0.507 OA
ATOM     23  H   UNL     1     -19.907  73.797  -6.991  1.00  0.00     0.293 HD
ENDBRANCH   6  22
BRANCH   8  24
ATOM     24  O   UNL     1     -14.883  72.849  -6.656  1.00  0.00    -0.508 OA
ATOM     25  H   UNL     1     -13.906  72.927  -6.396  1.00  0.00     0.293 HD
ENDBRANCH   8  24
TORSDOF 5
ENDMDL
MODEL 3
REMARK VINA RESULT:    -5.576     12.915     16.622
REMARK INTER + INTRA:          -6.866
REMARK INTER:                  -6.572
REMARK INTRA:                  -0.293
REMARK UNBOUND:                -0.312
REMARK SMILES O=c1cc(-c2ccc(O)c(O)c2)oc2cc(O)cc(O)c12
REMARK SMILES IDX 4 1 3 2 2 3 1 4 21 5 19 6 18 7 16 8 15 9 14 10 13 11 5 12
REMARK SMILES IDX 6 13 7 14 8 15 12 16 10 17 9 18 11 20 20 22 17 24
REMARK H PARENT 9 19 11 21 20 23 17 25
REMARK Flexibility Score: inf
ROOT
ATOM      1  C   UNL     1      -2.357  79.662   3.054  1.00  0.00     0.138 A 
ATOM      2  C   UNL     1      -1.307  79.511   2.139  1.00  0.00     0.100 A 
ATOM      3  C   UNL     1      -1.592  79.295   0.790  1.00  0.00     0.197 A 
ATOM      4  O   UNL     1      -0.628  79.220  -0.016  1.00  0.00    -0.289 OA
ATOM      5  C   UNL     1      -2.938  79.195   0.362  1.00  0.00     0.107 A 
ATOM      6  C   UNL     1      -3.349  78.943  -0.982  1.00  0.00     0.134 A 
ATOM      7  C   UNL     1      -4.712  78.964  -1.302  1.00  0.00     0.093 A 
ATOM      8  C   UNL     1      -5.682  79.169  -0.317  1.00  0.00     0.123 A 
ATOM      9  C   UNL     1      -5.292  79.366   1.006  1.00  0.00     0.094 A 
ATOM     10  C   UNL     1      -3.939  79.386   1.352  1.00  0.00     0.146 A 
ATOM     11  O   UNL     1      -3.612  79.594   2.622  1.00  0.00    -0.456 OA
ENDROOT
BRANCH   1  12
ATOM     12  C   UNL     1      -2.112  79.889   4.501  1.00  0.00     0.021 A 
ATOM     13  C   UNL     1      -1.161  80.824   4.953  1.00  0.00     0.016 A 
ATOM     14  C   UNL     1      -0.958  81.025   6.321  1.00  0.00     0.051 A 
ATOM     15  C   UNL     1      -1.705  80.302   7.259  1.00  0.00     0.157 A 
ATOM     16  C   UNL     1      -2.867  79.178   5.451  1.00  0.00     0.062 A 
ATOM     17  C   UNL     1      -2.662  79.379   6.823  1.00  0.00     0.158 A 
BRANCH  15  18
ATOM     18  O   UNL     1      -1.505  80.499   8.624  1.00  0.00    -0.504 OA
ATOM     19  H   UNL     1      -2.277  80.488   9.280  1.00  0.00     0.293 HD
ENDBRANCH  15  18
BRANCH  17  20
ATOM     20  O   UNL     1      -3.408  78.664   7.759  1.00  0.00    -0.504 OA
ATOM     21  H   UNL     1      -4.392  78.851   7.909  1.00  0.00     0.293 HD
ENDBRANCH  17  20
ENDBRANCH   1  12
BRANCH   6  22
ATOM     22  O   UNL     1      -2.470  78.648  -2.028  1.00  0.00    -0.507 OA
ATOM     23  H   UNL     1      -2.240  77.720  -2.350  1.00  0.00     0.293 HD
ENDBRANCH   6  22
BRANCH   8  24
ATOM     24  O   UNL     1      -7.036  79.172  -0.643  1.00  0.00    -0.508 OA
ATOM     25  H   UNL     1      -7.602  78.336  -0.563  1.00  0.00     0.293 HD
ENDBRANCH   8  24
TORSDOF 5
ENDMDL
MODEL 4
REMARK VINA RESULT:    -5.474      1.438      6.968
REMARK INTER + INTRA:          -6.746
REMARK INTER:                  -6.480
REMARK INTRA:                  -0.266
REMARK UNBOUND:                -0.312
REMARK SMILES O=c1cc(-c2ccc(O)c(O)c2)oc2cc(O)cc(O)c12
REMARK SMILES IDX 4 1 3 2 2 3 1 4 21 5 19 6 18 7 16 8 15 9 14 10 13 11 5 12
REMARK SMILES IDX 6 13 7 14 8 15 12 16 10 17 9 18 11 20 20 22 17 24
REMARK H PARENT 9 19 11 21 20 23 17 25
REMARK Flexibility Score: inf
ROOT
ATOM      1  C   UNL     1     -16.436  76.153  -1.782  1.00  0.00     0.138 A 
ATOM      2  C   UNL     1     -17.241  75.009  -1.859  1.00  0.00     0.100 A 
ATOM      3  C   UNL     1     -17.212  74.221  -3.010  1.00  0.00     0.197 A 
ATOM      4  O   UNL     1     -17.904  73.170  -3.027  1.00  0.00    -0.289 OA
ATOM      5  C   UNL     1     -16.398  74.602  -4.104  1.00  0.00     0.107 A 
ATOM      6  C   UNL     1     -16.314  73.895  -5.342  1.00  0.00     0.134 A 
ATOM      7  C   UNL     1     -15.398  74.313  -6.314  1.00  0.00     0.093 A 
ATOM      8  C   UNL     1     -14.605  75.448  -6.119  1.00  0.00     0.123 A 
ATOM      9  C   UNL     1     -14.716  76.173  -4.935  1.00  0.00     0.094 A 
ATOM     10  C   UNL     1     -15.596  75.761  -3.931  1.00  0.00     0.146 A 
ATOM     11  O   UNL     1     -15.657  76.473  -2.811  1.00  0.00    -0.456 OA
ENDROOT
BRANCH   1  12
ATOM     12  C   UNL     1     -16.430  77.030  -0.584  1.00  0.00     0.021 A 
ATOM     13  C   UNL     1     -15.248  77.292   0.136  1.00  0.00     0.016 A 
ATOM     14  C   UNL     1     -15.269  78.130   1.254  1.00  0.00     0.051 A 
ATOM     15  C   UNL     1     -16.468  78.724   1.669  1.00  0.00     0.157 A 
ATOM     16  C   UNL     1     -17.626  77.643  -0.168  1.00  0.00     0.062 A 
ATOM     17  C   UNL     1     -17.646  78.483   0.955  1.00  0.00     0.158 A 
BRANCH  15  18
ATOM     18  O   UNL     1     -16.493  79.559   2.785  1.00  0.00    -0.504 OA
ATOM     19  H   UNL     1     -15.707  79.617   3.420  1.00  0.00     0.293 HD
ENDBRANCH  15  18
BRANCH  17  20
ATOM     20  O   UNL     1     -18.838  79.079   1.367  1.00  0.00    -0.504 OA
ATOM     21  H   UNL     1     -19.231  79.874   0.876  1.00  0.00     0.293 HD
ENDBRANCH  17  20
ENDBRANCH   1  12
BRANCH   6  22
ATOM     22  O   UNL     1     -17.114  72.798  -5.674  1.00  0.00    -0.507 OA
ATOM     23  H   UNL     1     -16.886  72.100  -6.366  1.00  0.00     0.293 HD
ENDBRANCH   6  22
BRANCH   8  24
ATOM     24  O   UNL     1     -13.708  75.865  -7.099  1.00  0.00    -0.508 OA
ATOM     25  H   UNL     1     -13.116  75.206  -7.591  1.00  0.00     0.293 HD
ENDBRANCH   8  24
TORSDOF 5
ENDMDL
MODEL 5
REMARK VINA RESULT:    -5.417     13.349     16.740
REMARK INTER + INTRA:          -6.679
REMARK INTER:                  -6.407
REMARK INTRA:                  -0.271
REMARK UNBOUND:                -0.312
REMARK SMILES O=c1cc(-c2ccc(O)c(O)c2)oc2cc(O)cc(O)c12
REMARK SMILES IDX 4 1 3 2 2 3 1 4 21 5 19 6 18 7 16 8 15 9 14 10 13 11 5 12
REMARK SMILES IDX 6 13 7 14 8 15 12 16 10 17 9 18 11 20 20 22 17 24
REMARK H PARENT 9 19 11 21 20 23 17 25
REMARK Flexibility Score: inf
ROOT
ATOM      1  C   UNL     1      -2.645  79.624   2.691  1.00  0.00     0.138 A 
ATOM      2  C   UNL     1      -3.978  79.616   2.261  1.00  0.00     0.100 A 
ATOM      3  C   UNL     1      -4.271  79.347   0.924  1.00  0.00     0.197 A 
ATOM      4  O   UNL     1      -5.480  79.292   0.581  1.00  0.00    -0.289 OA
ATOM      5  C   UNL     1      -3.218  79.117   0.005  1.00  0.00     0.107 A 
ATOM      6  C   UNL     1      -3.395  78.864  -1.389  1.00  0.00     0.134 A 
ATOM      7  C   UNL     1      -2.282  78.554  -2.180  1.00  0.00     0.093 A 
ATOM      8  C   UNL     1      -0.993  78.543  -1.641  1.00  0.00     0.123 A 
ATOM      9  C   UNL     1      -0.806  78.837  -0.292  1.00  0.00     0.094 A 
ATOM     10  C   UNL     1      -1.899  79.117   0.532  1.00  0.00     0.146 A 
ATOM     11  O   UNL     1      -1.676  79.374   1.816  1.00  0.00    -0.456 OA
ENDROOT
BRANCH   1  12
ATOM     12  C   UNL     1      -2.275  79.909   4.101  1.00  0.00     0.021 A 
ATOM     13  C   UNL     1      -1.312  80.881   4.432  1.00  0.00     0.016 A 
ATOM     14  C   UNL     1      -0.991  81.136   5.768  1.00  0.00     0.051 A 
ATOM     15  C   UNL     1      -1.630  80.429   6.795  1.00  0.00     0.157 A 
ATOM     16  C   UNL     1      -2.921  79.213   5.140  1.00  0.00     0.062 A 
ATOM     17  C   UNL     1      -2.597  79.469   6.480  1.00  0.00     0.158 A 
BRANCH  15  18
ATOM     18  O   UNL     1      -1.311  80.679   8.128  1.00  0.00    -0.504 OA
ATOM     19  H   UNL     1      -1.917  80.379   8.883  1.00  0.00     0.293 HD
ENDBRANCH  15  18
BRANCH  17  20
ATOM     20  O   UNL     1      -3.234  78.769   7.504  1.00  0.00    -0.504 OA
ATOM     21  H   UNL     1      -2.999  77.806   7.716  1.00  0.00     0.293 HD
ENDBRANCH  17  20
ENDBRANCH   1  12
BRANCH   6  22
ATOM     22  O   UNL     1      -4.627  78.928  -2.047  1.00  0.00    -0.507 OA
ATOM     23  H   UNL     1      -4.802  79.427  -2.906  1.00  0.00     0.293 HD
ENDBRANCH   6  22
BRANCH   8  24
ATOM     24  O   UNL     1       0.109  78.248  -2.439  1.00  0.00    -0.508 OA
ATOM     25  H   UNL     1       0.904  77.736  -2.076  1.00  0.00     0.293 HD
ENDBRANCH   8  24
TORSDOF 5
ENDMDL
MODEL 6
REMARK VINA RESULT:    -5.412      2.587      7.488
REMARK INTER + INTRA:          -6.673
REMARK INTER:                  -6.380
REMARK INTRA:                  -0.293
REMARK UNBOUND:                -0.312
REMARK SMILES O=c1cc(-c2ccc(O)c(O)c2)oc2cc(O)cc(O)c12
REMARK SMILES IDX 4 1 3 2 2 3 1 4 21 5 19 6 18 7 16 8 15 9 14 10 13 11 5 12
REMARK SMILES IDX 6 13 7 14 8 15 12 16 10 17 9 18 11 20 20 22 17 24
REMARK H PARENT 9 19 11 21 20 23 17 25
REMARK Flexibility Score: inf
ROOT
ATOM      1  C   UNL     1     -18.855  77.055  -1.170  1.00  0.00     0.138 A 
ATOM      2  C   UNL     1     -18.111  75.911  -0.855  1.00  0.00     0.100 A 
ATOM      3  C   UNL     1     -17.833  74.972  -1.850  1.00  0.00     0.197 A 
ATOM      4  O   UNL     1     -17.116  73.983  -1.549  1.00  0.00    -0.289 OA
ATOM      5  C   UNL     1     -18.334  75.166  -3.160  1.00  0.00     0.107 A 
ATOM      6  C   UNL     1     -18.143  74.260  -4.247  1.00  0.00     0.134 A 
ATOM      7  C   UNL     1     -18.602  74.608  -5.523  1.00  0.00     0.093 A 
ATOM      8  C   UNL     1     -19.297  75.800  -5.740  1.00  0.00     0.123 A 
ATOM      9  C   UNL     1     -19.532  76.667  -4.675  1.00  0.00     0.094 A 
ATOM     10  C   UNL     1     -19.056  76.366  -3.397  1.00  0.00     0.146 A 
ATOM     11  O   UNL     1     -19.287  77.229  -2.414  1.00  0.00    -0.456 OA
ENDROOT
BRANCH   1  12
ATOM     12  C   UNL     1     -19.183  78.084  -0.151  1.00  0.00     0.021 A 
ATOM     13  C   UNL     1     -19.717  79.337  -0.508  1.00  0.00     0.016 A 
ATOM     14  C   UNL     1     -20.026  80.283   0.473  1.00  0.00     0.051 A 
ATOM     15  C   UNL     1     -19.814  79.991   1.826  1.00  0.00     0.157 A 
ATOM     16  C   UNL     1     -18.987  77.796   1.212  1.00  0.00     0.062 A 
ATOM     17  C   UNL     1     -19.296  78.745   2.196  1.00  0.00     0.158 A 
BRANCH  15  18
ATOM     18  O   UNL     1     -20.120  80.932   2.808  1.00  0.00    -0.504 OA
ATOM     19  H   UNL     1     -19.420  81.263   3.461  1.00  0.00     0.293 HD
ENDBRANCH  15  18
BRANCH  17  20
ATOM     20  O   UNL     1     -19.090  78.456   3.545  1.00  0.00    -0.504 OA
ATOM     21  H   UNL     1     -19.656  78.879   4.271  1.00  0.00     0.293 HD
ENDBRANCH  17  20
ENDBRANCH   1  12
BRANCH   6  22
ATOM     22  O   UNL     1     -17.534  73.008  -4.126  1.00  0.00    -0.507 OA
ATOM     23  H   UNL     1     -17.082  72.506  -4.875  1.00  0.00     0.293 HD
ENDBRANCH   6  22
BRANCH   8  24
ATOM     24  O   UNL     1     -19.764  76.130  -7.010  1.00  0.00    -0.508 OA
ATOM     25  H   UNL     1     -19.586  77.040  -7.421  1.00  0.00     0.293 HD
ENDBRANCH   8  24
TORSDOF 5
ENDMDL
MODEL 7
REMARK VINA RESULT:    -5.400      1.673      2.925
REMARK INTER + INTRA:          -6.659
REMARK INTER:                  -6.371
REMARK INTRA:                  -0.287
REMARK UNBOUND:                -0.312
REMARK SMILES O=c1cc(-c2ccc(O)c(O)c2)oc2cc(O)cc(O)c12
REMARK SMILES IDX 4 1 3 2 2 3 1 4 21 5 19 6 18 7 16 8 15 9 14 10 13 11 5 12
REMARK SMILES IDX 6 13 7 14 8 15 12 16 10 17 9 18 11 20 20 22 17 24
REMARK H PARENT 9 19 11 21 20 23 17 25
REMARK Flexibility Score: inf
ROOT
ATOM      1  C   UNL     1     -17.535  76.484  -2.248  1.00  0.00     0.138 A 
ATOM      2  C   UNL     1     -16.196  76.491  -1.837  1.00  0.00     0.100 A 
ATOM      3  C   UNL     1     -15.843  77.119  -0.642  1.00  0.00     0.197 A 
ATOM      4  O   UNL     1     -14.642  77.060  -0.273  1.00  0.00    -0.289 OA
ATOM      5  C   UNL     1     -16.835  77.773   0.129  1.00  0.00     0.107 A 
ATOM      6  C   UNL     1     -16.587  78.474   1.348  1.00  0.00     0.134 A 
ATOM      7  C   UNL     1     -17.664  78.997   2.074  1.00  0.00     0.093 A 
ATOM      8  C   UNL     1     -18.974  78.895   1.596  1.00  0.00     0.123 A 
ATOM      9  C   UNL     1     -19.219  78.256   0.383  1.00  0.00     0.094 A 
ATOM     10  C   UNL     1     -18.171  77.693  -0.347  1.00  0.00     0.146 A 
ATOM     11  O   UNL     1     -18.452  77.078  -1.490  1.00  0.00    -0.456 OA
ENDROOT
BRANCH   1  12
ATOM     12  C   UNL     1     -17.966  75.835  -3.512  1.00  0.00     0.021 A 
ATOM     13  C   UNL     1     -19.107  76.268  -4.215  1.00  0.00     0.016 A 
ATOM     14  C   UNL     1     -19.483  75.645  -5.408  1.00  0.00     0.051 A 
ATOM     15  C   UNL     1     -18.725  74.585  -5.922  1.00  0.00     0.157 A 
ATOM     16  C   UNL     1     -17.204  74.778  -4.043  1.00  0.00     0.062 A 
ATOM     17  C   UNL     1     -17.583  74.153  -5.239  1.00  0.00     0.158 A 
BRANCH  15  18
ATOM     18  O   UNL     1     -19.099  73.961  -7.110  1.00  0.00    -0.504 OA
ATOM     19  H   UNL     1     -19.777  73.209  -7.123  1.00  0.00     0.293 HD
ENDBRANCH  15  18
BRANCH  17  20
ATOM     20  O   UNL     1     -16.828  73.101  -5.754  1.00  0.00    -0.504 OA
ATOM     21  H   UNL     1     -16.801  72.195  -5.301  1.00  0.00     0.293 HD
ENDBRANCH  17  20
ENDBRANCH   1  12
BRANCH   6  22
ATOM     22  O   UNL     1     -15.313  78.704   1.875  1.00  0.00    -0.507 OA
ATOM     23  H   UNL     1     -15.033  79.531   2.380  1.00  0.00     0.293 HD
ENDBRANCH   6  22
BRANCH   8  24
ATOM     24  O   UNL     1     -20.037  79.432   2.318  1.00  0.00    -0.508 OA
ATOM     25  H   UNL     1     -20.022  80.390   2.650  1.00  0.00     0.293 HD
ENDBRANCH   8  24
TORSDOF 5
ENDMDL
MODEL 8
REMARK VINA RESULT:    -5.356      1.625      6.820
REMARK INTER + INTRA:          -6.607
REMARK INTER:                  -6.314
REMARK INTRA:                  -0.293
REMARK UNBOUND:                -0.312
REMARK SMILES O=c1cc(-c2ccc(O)c(O)c2)oc2cc(O)cc(O)c12
REMARK SMILES IDX 4 1 3 2 2 3 1 4 21 5 19 6 18 7 16 8 15 9 14 10 13 11 5 12
REMARK SMILES IDX 6 13 7 14 8 15 12 16 10 17 9 18 11 20 20 22 17 24
REMARK H PARENT 9 19 11 21 20 23 17 25
REMARK Flexibility Score: inf
ROOT
ATOM      1  C   UNL     1     -16.839  76.952  -0.786  1.00  0.00     0.138 A 
ATOM      2  C   UNL     1     -17.562  75.793  -0.473  1.00  0.00     0.100 A 
ATOM      3  C   UNL     1     -17.648  74.759  -1.405  1.00  0.00     0.197 A 
ATOM      4  O   UNL     1     -18.256  73.709  -1.073  1.00  0.00    -0.289 OA
ATOM      5  C   UNL     1     -17.034  74.902  -2.673  1.00  0.00     0.107 A 
ATOM      6  C   UNL     1     -17.083  73.928  -3.717  1.00  0.00     0.134 A 
ATOM      7  C   UNL     1     -16.353  74.140  -4.892  1.00  0.00     0.093 A 
ATOM      8  C   UNL     1     -15.625  75.316  -5.088  1.00  0.00     0.123 A 
ATOM      9  C   UNL     1     -15.611  76.294  -4.096  1.00  0.00     0.094 A 
ATOM     10  C   UNL     1     -16.300  76.098  -2.897  1.00  0.00     0.146 A 
ATOM     11  O   UNL     1     -16.246  77.049  -1.971  1.00  0.00    -0.456 OA
ENDROOT
BRANCH   1  12
ATOM     12  C   UNL     1     -16.719  78.084   0.167  1.00  0.00     0.021 A 
ATOM     13  C   UNL     1     -17.825  78.559   0.898  1.00  0.00     0.016 A 
ATOM     14  C   UNL     1     -17.680  79.620   1.795  1.00  0.00     0.051 A 
ATOM     15  C   UNL     1     -16.429  80.220   1.982  1.00  0.00     0.157 A 
ATOM     16  C   UNL     1     -15.463  78.685   0.372  1.00  0.00     0.062 A 
ATOM     17  C   UNL     1     -15.319  79.751   1.272  1.00  0.00     0.158 A 
BRANCH  15  18
ATOM     18  O   UNL     1     -16.281  81.280   2.875  1.00  0.00    -0.504 OA
ATOM     19  H   UNL     1     -16.771  82.157   2.743  1.00  0.00     0.293 HD
ENDBRANCH  15  18
BRANCH  17  20
ATOM     20  O   UNL     1     -14.074  80.348   1.463  1.00  0.00    -0.504 OA
ATOM     21  H   UNL     1     -13.987  81.327   1.710  1.00  0.00     0.293 HD
ENDBRANCH  17  20
ENDBRANCH   1  12
BRANCH   6  22
ATOM     22  O   UNL     1     -17.842  72.756  -3.659  1.00  0.00    -0.507 OA
ATOM     23  H   UNL     1     -17.662  71.920  -4.194  1.00  0.00     0.293 HD
ENDBRANCH   6  22
BRANCH   8  24
ATOM     24  O   UNL     1     -14.914  75.525  -6.268  1.00  0.00    -0.508 OA
ATOM     25  H   UNL     1     -14.337  76.346  -6.401  1.00  0.00     0.293 HD
ENDBRANCH   8  24
TORSDOF 5
ENDMDL
MODEL 9
REMARK VINA RESULT:    -5.346      1.536      7.373
REMARK INTER + INTRA:          -6.595
REMARK INTER:                  -6.318
REMARK INTRA:                  -0.277
REMARK UNBOUND:                -0.312
REMARK SMILES O=c1cc(-c2ccc(O)c(O)c2)oc2cc(O)cc(O)c12
REMARK SMILES IDX 4 1 3 2 2 3 1 4 21 5 19 6 18 7 16 8 15 9 14 10 13 11 5 12
REMARK SMILES IDX 6 13 7 14 8 15 12 16 10 17 9 18 11 20 20 22 17 24
REMARK H PARENT 9 19 11 21 20 23 17 25
REMARK Flexibility Score: inf
ROOT
ATOM      1  C   UNL     1     -16.758  76.123  -3.061  1.00  0.00     0.138 A 
ATOM      2  C   UNL     1     -15.684  76.832  -3.614  1.00  0.00     0.100 A 
ATOM      3  C   UNL     1     -15.054  76.349  -4.762  1.00  0.00     0.197 A 
ATOM      4  O   UNL     1     -14.130  77.038  -5.266  1.00  0.00    -0.289 OA
ATOM      5  C   UNL     1     -15.482  75.128  -5.338  1.00  0.00     0.107 A 
ATOM      6  C   UNL     1     -14.894  74.520  -6.489  1.00  0.00     0.134 A 
ATOM      7  C   UNL     1     -15.468  73.362  -7.025  1.00  0.00     0.093 A 
ATOM      8  C   UNL     1     -16.571  72.755  -6.420  1.00  0.00     0.123 A 
ATOM      9  C   UNL     1     -17.121  73.314  -5.268  1.00  0.00     0.094 A 
ATOM     10  C   UNL     1     -16.594  74.488  -4.728  1.00  0.00     0.146 A 
ATOM     11  O   UNL     1     -17.160  74.996  -3.639  1.00  0.00    -0.456 OA
ENDROOT
BRANCH   1  12
ATOM     12  C   UNL     1     -17.461  76.589  -1.839  1.00  0.00     0.021 A 
ATOM     13  C   UNL     1     -18.864  76.534  -1.726  1.00  0.00     0.016 A 
ATOM     14  C   UNL     1     -19.499  76.970  -0.560  1.00  0.00     0.051 A 
ATOM     15  C   UNL     1     -18.745  77.461   0.514  1.00  0.00     0.157 A 
ATOM     16  C   UNL     1     -16.712  77.071  -0.750  1.00  0.00     0.062 A 
ATOM     17  C   UNL     1     -17.350  77.509   0.419  1.00  0.00     0.158 A 
BRANCH  15  18
ATOM     18  O   UNL     1     -19.375  77.898   1.678  1.00  0.00    -0.504 OA
ATOM     19  H   UNL     1     -20.385  77.935   1.751  1.00  0.00     0.293 HD
ENDBRANCH  15  18
BRANCH  17  20
ATOM     20  O   UNL     1     -16.601  77.994   1.491  1.00  0.00    -0.504 OA
ATOM     21  H   UNL     1     -16.715  77.625   2.428  1.00  0.00     0.293 HD
ENDBRANCH  17  20
ENDBRANCH   1  12
BRANCH   6  22
ATOM     22  O   UNL     1     -13.744  74.997  -7.125  1.00  0.00    -0.507 OA
ATOM     23  H   UNL     1     -13.508  75.970  -7.246  1.00  0.00     0.293 HD
ENDBRANCH   6  22
BRANCH   8  24
ATOM     24  O   UNL     1     -17.125  71.594  -6.953  1.00  0.00    -0.508 OA
ATOM     25  H   UNL     1     -17.220  70.750  -6.400  1.00  0.00     0.293 HD
ENDBRANCH   8  24
TORSDOF 5
ENDMDL
