MODEL 1
REMARK VINA RESULT:    -4.754      0.000      0.000
REMARK INTER + INTRA:          -5.884
REMARK INTER:                  -5.588
REMARK INTRA:                  -0.297
REMARK UNBOUND:                -0.297
REMARK SMILES O=c1cc(-c2ccc(O)c(O)c2)oc2cc(O)cc(O)c12
REMARK SMILES IDX 4 1 3 2 2 3 1 4 21 5 19 6 18 7 16 8 15 9 14 10 13 11 5 12
REMARK SMILES IDX 6 13 7 14 8 15 12 16 10 17 9 18 11 20 20 22 17 24
REMARK H PARENT 9 19 11 21 20 23 17 25
REMARK Flexibility Score: inf
ROOT
ATOM      1  C   UNL     1      24.759  28.055   5.321  1.00  0.00     0.138 A 
ATOM      2  C   UNL     1      25.879  28.300   6.127  1.00  0.00     0.100 A 
ATOM      3  C   UNL     1      26.599  27.227   6.655  1.00  0.00     0.197 A 
ATOM      4  O   UNL     1      27.564  27.480   7.419  1.00  0.00    -0.289 OA
ATOM      5  C   UNL     1      26.214  25.901   6.342  1.00  0.00     0.107 A 
ATOM      6  C   UNL     1      26.892  24.728   6.795  1.00  0.00     0.134 A 
ATOM      7  C   UNL     1      26.360  23.466   6.501  1.00  0.00     0.093 A 
ATOM      8  C   UNL     1      25.207  23.333   5.723  1.00  0.00     0.123 A 
ATOM      9  C   UNL     1      24.566  24.469   5.235  1.00  0.00     0.094 A 
ATOM     10  C   UNL     1      25.053  25.743   5.540  1.00  0.00     0.146 A 
ATOM     11  O   UNL     1      24.400  26.801   5.069  1.00  0.00    -0.456 OA
ENDROOT
BRANCH   1  12
ATOM     12  C   UNL     1      23.960  29.158   4.732  1.00  0.00     0.021 A 
ATOM     13  C   UNL     1      22.892  28.854   3.869  1.00  0.00     0.016 A 
ATOM     14  C   UNL     1      22.119  29.873   3.307  1.00  0.00     0.051 A 
ATOM     15  C   UNL     1      22.392  31.211   3.602  1.00  0.00     0.157 A 
ATOM     16  C   UNL     1      24.221  30.509   5.036  1.00  0.00     0.062 A 
ATOM     17  C   UNL     1      23.446  31.532   4.473  1.00  0.00     0.158 A 
BRANCH  15  18
ATOM     18  O   UNL     1      21.604  32.206   3.024  1.00  0.00    -0.504 OA
ATOM     19  H   UNL     1      20.796  32.594   3.494  1.00  0.00     0.293 HD
ENDBRANCH  15  18
BRANCH  17  20
ATOM     20  O   UNL     1      23.714  32.865   4.779  1.00  0.00    -0.504 OA
ATOM     21  H   UNL     1      24.659  33.231   4.774  1.00  0.00     0.293 HD
ENDBRANCH  17  20
ENDBRANCH   1  12
BRANCH   6  22
ATOM     22  O   UNL     1      28.094  24.744   7.509  1.00  0.00    -0.507 OA
ATOM     23  H   UNL     1      28.173  24.864   8.508  1.00  0.00     0.293 HD
ENDBRANCH   6  22
BRANCH   8  24
ATOM     24  O   UNL     1      24.693  22.074   5.423  1.00  0.00    -0.508 OA
ATOM     25  H   UNL     1      24.232  21.885   4.541  1.00  0.00     0.293 HD
ENDBRANCH   8  24
TORSDOF 5
ENDMDL
MODEL 2
REMARK VINA RESULT:    -4.562      3.325      4.735
REMARK INTER + INTRA:          -5.658
REMARK INTER:                  -5.345
REMARK INTRA:                  -0.313
REMARK UNBOUND:                -0.297
REMARK SMILES O=c1cc(-c2ccc(O)c(O)c2)oc2cc(O)cc(O)c12
REMARK SMILES IDX 4 1 3 2 2 3 1 4 21 5 19 6 18 7 16 8 15 9 14 10 13 11 5 12
REMARK SMILES IDX 6 13 7 14 8 15 12 16 10 17 9 18 11 20 20 22 17 24
REMARK H PARENT 9 19 11 21 20 23 17 25
REMARK Flexibility Score: inf
ROOT
ATOM      1  C   UNL     1      22.267  27.184   4.675  1.00  0.00     0.138 A 
ATOM      2  C   UNL     1      23.078  26.177   5.214  1.00  0.00     0.100 A 
ATOM      3  C   UNL     1      22.648  24.849   5.180  1.00  0.00     0.197 A 
ATOM      4  O   UNL     1      23.374  23.977   5.722  1.00  0.00    -0.289 OA
ATOM      5  C   UNL     1      21.412  24.527   4.569  1.00  0.00     0.107 A 
ATOM      6  C   UNL     1      20.887  23.204   4.444  1.00  0.00     0.134 A 
ATOM      7  C   UNL     1      19.607  23.019   3.907  1.00  0.00     0.093 A 
ATOM      8  C   UNL     1      18.858  24.101   3.437  1.00  0.00     0.123 A 
ATOM      9  C   UNL     1      19.382  25.388   3.508  1.00  0.00     0.094 A 
ATOM     10  C   UNL     1      20.642  25.611   4.070  1.00  0.00     0.146 A 
ATOM     11  O   UNL     1      21.097  26.857   4.135  1.00  0.00    -0.456 OA
ENDROOT
BRANCH   1  12
ATOM     12  C   UNL     1      22.676  28.610   4.682  1.00  0.00     0.021 A 
ATOM     13  C   UNL     1      23.702  29.030   5.547  1.00  0.00     0.016 A 
ATOM     14  C   UNL     1      24.112  30.366   5.568  1.00  0.00     0.051 A 
ATOM     15  C   UNL     1      23.513  31.303   4.722  1.00  0.00     0.157 A 
ATOM     16  C   UNL     1      22.086  29.556   3.821  1.00  0.00     0.062 A 
ATOM     17  C   UNL     1      22.497  30.896   3.841  1.00  0.00     0.158 A 
BRANCH  15  18
ATOM     18  O   UNL     1      23.942  32.629   4.767  1.00  0.00    -0.504 OA
ATOM     19  H   UNL     1      24.682  32.976   4.169  1.00  0.00     0.293 HD
ENDBRANCH  15  18
BRANCH  17  20
ATOM     20  O   UNL     1      21.905  31.825   2.986  1.00  0.00    -0.504 OA
ATOM     21  H   UNL     1      21.501  31.547   2.099  1.00  0.00     0.293 HD
ENDBRANCH  17  20
ENDBRANCH   1  12
BRANCH   6  22
ATOM     22  O   UNL     1      21.582  22.047   4.807  1.00  0.00    -0.507 OA
ATOM     23  H   UNL     1      21.937  21.849   5.730  1.00  0.00     0.293 HD
ENDBRANCH   6  22
BRANCH   8  24
ATOM     24  O   UNL     1      17.592  23.905   2.891  1.00  0.00    -0.508 OA
ATOM     25  H   UNL     1      17.447  23.298   2.091  1.00  0.00     0.293 HD
ENDBRANCH   8  24
TORSDOF 5
ENDMDL
MODEL 3
REMARK VINA RESULT:    -4.411      2.571      4.490
REMARK INTER + INTRA:          -5.481
REMARK INTER:                  -5.193
REMARK INTRA:                  -0.288
REMARK UNBOUND:                -0.297
REMARK SMILES O=c1cc(-c2ccc(O)c(O)c2)oc2cc(O)cc(O)c12
REMARK SMILES IDX 4 1 3 2 2 3 1 4 21 5 19 6 18 7 16 8 15 9 14 10 13 11 5 12
REMARK SMILES IDX 6 13 7 14 8 15 12 16 10 17 9 18 11 20 20 22 17 24
REMARK H PARENT 9 19 11 21 20 23 17 25
REMARK Flexibility Score: inf
ROOT
ATOM      1  C   UNL     1      22.054  27.513   4.294  1.00  0.00     0.138 A 
ATOM      2  C   UNL     1      20.746  27.202   3.898  1.00  0.00     0.100 A 
ATOM      3  C   UNL     1      20.345  25.867   3.822  1.00  0.00     0.197 A 
ATOM      4  O   UNL     1      19.183  25.620   3.409  1.00  0.00    -0.289 OA
ATOM      5  C   UNL     1      21.251  24.840   4.180  1.00  0.00     0.107 A 
ATOM      6  C   UNL     1      20.943  23.445   4.174  1.00  0.00     0.134 A 
ATOM      7  C   UNL     1      21.951  22.515   4.454  1.00  0.00     0.093 A 
ATOM      8  C   UNL     1      23.241  22.930   4.797  1.00  0.00     0.123 A 
ATOM      9  C   UNL     1      23.538  24.289   4.854  1.00  0.00     0.094 A 
ATOM     10  C   UNL     1      22.563  25.242   4.546  1.00  0.00     0.146 A 
ATOM     11  O   UNL     1      22.893  26.528   4.595  1.00  0.00    -0.456 OA
ENDROOT
BRANCH   1  12
ATOM     12  C   UNL     1      22.532  28.914   4.396  1.00  0.00     0.021 A 
ATOM     13  C   UNL     1      23.552  29.231   5.309  1.00  0.00     0.016 A 
ATOM     14  C   UNL     1      24.026  30.541   5.419  1.00  0.00     0.051 A 
ATOM     15  C   UNL     1      23.497  31.554   4.615  1.00  0.00     0.157 A 
ATOM     16  C   UNL     1      22.011  29.936   3.579  1.00  0.00     0.062 A 
ATOM     17  C   UNL     1      22.487  31.251   3.688  1.00  0.00     0.158 A 
BRANCH  15  18
ATOM     18  O   UNL     1      23.988  32.852   4.749  1.00  0.00    -0.504 OA
ATOM     19  H   UNL     1      24.578  33.127   5.525  1.00  0.00     0.293 HD
ENDBRANCH  15  18
BRANCH  17  20
ATOM     20  O   UNL     1      21.963  32.256   2.875  1.00  0.00    -0.504 OA
ATOM     21  H   UNL     1      21.636  33.133   3.261  1.00  0.00     0.293 HD
ENDBRANCH  17  20
ENDBRANCH   1  12
BRANCH   6  22
ATOM     22  O   UNL     1      19.669  22.924   3.925  1.00  0.00    -0.507 OA
ATOM     23  H   UNL     1      19.343  22.020   4.231  1.00  0.00     0.293 HD
ENDBRANCH   6  22
BRANCH   8  24
ATOM     24  O   UNL     1      24.234  21.998   5.088  1.00  0.00    -0.508 OA
ATOM     25  H   UNL     1      24.006  21.054   5.380  1.00  0.00     0.293 HD
ENDBRANCH   8  24
TORSDOF 5
ENDMDL
MODEL 4
REMARK VINA RESULT:    -4.373      3.215      6.472
REMARK INTER + INTRA:          -5.436
REMARK INTER:                  -5.131
REMARK INTRA:                  -0.305
REMARK UNBOUND:                -0.297
REMARK SMILES O=c1cc(-c2ccc(O)c(O)c2)oc2cc(O)cc(O)c12
REMARK SMILES IDX 4 1 3 2 2 3 1 4 21 5 19 6 18 7 16 8 15 9 14 10 13 11 5 12
REMARK SMILES IDX 6 13 7 14 8 15 12 16 10 17 9 18 11 20 20 22 17 24
REMARK H PARENT 9 19 11 21 20 23 17 25
REMARK Flexibility Score: inf
ROOT
ATOM      1  C   UNL     1      23.067  24.519   5.162  1.00  0.00     0.138 A 
ATOM      2  C   UNL     1      24.322  24.094   5.620  1.00  0.00     0.100 A 
ATOM      3  C   UNL     1      25.246  25.035   6.075  1.00  0.00     0.197 A 
ATOM      4  O   UNL     1      26.383  24.628   6.427  1.00  0.00    -0.289 OA
ATOM      5  C   UNL     1      24.898  26.407   6.103  1.00  0.00     0.107 A 
ATOM      6  C   UNL     1      25.746  27.454   6.578  1.00  0.00     0.134 A 
ATOM      7  C   UNL     1      25.329  28.785   6.465  1.00  0.00     0.093 A 
ATOM      8  C   UNL     1      24.070  29.106   5.949  1.00  0.00     0.123 A 
ATOM      9  C   UNL     1      23.215  28.090   5.530  1.00  0.00     0.094 A 
ATOM     10  C   UNL     1      23.616  26.753   5.597  1.00  0.00     0.146 A 
ATOM     11  O   UNL     1      22.776  25.816   5.170  1.00  0.00    -0.456 OA
ENDROOT
BRANCH   1  12
ATOM     12  C   UNL     1      22.045  23.562   4.671  1.00  0.00     0.021 A 
ATOM     13  C   UNL     1      22.457  22.360   4.069  1.00  0.00     0.016 A 
ATOM     14  C   UNL     1      21.516  21.437   3.606  1.00  0.00     0.051 A 
ATOM     15  C   UNL     1      20.148  21.694   3.741  1.00  0.00     0.157 A 
ATOM     16  C   UNL     1      20.666  23.808   4.817  1.00  0.00     0.062 A 
ATOM     17  C   UNL     1      19.720  22.883   4.353  1.00  0.00     0.158 A 
BRANCH  15  18
ATOM     18  O   UNL     1      19.233  20.755   3.267  1.00  0.00    -0.504 OA
ATOM     19  H   UNL     1      18.250  20.971   3.155  1.00  0.00     0.293 HD
ENDBRANCH  15  18
BRANCH  17  20
ATOM     20  O   UNL     1      18.358  23.138   4.502  1.00  0.00    -0.504 OA
ATOM     21  H   UNL     1      18.021  23.929   5.038  1.00  0.00     0.293 HD
ENDBRANCH  17  20
ENDBRANCH   1  12
BRANCH   6  22
ATOM     22  O   UNL     1      26.988  27.242   7.184  1.00  0.00    -0.507 OA
ATOM     23  H   UNL     1      27.867  27.166   6.695  1.00  0.00     0.293 HD
ENDBRANCH   6  22
BRANCH   8  24
ATOM     24  O   UNL     1      23.657  30.432   5.854  1.00  0.00    -0.508 OA
ATOM     25  H   UNL     1      23.734  31.069   6.640  1.00  0.00     0.293 HD
ENDBRANCH   8  24
TORSDOF 5
ENDMDL
MODEL 5
REMARK VINA RESULT:    -4.341      3.664      6.777
REMARK INTER + INTRA:          -5.399
REMARK INTER:                  -5.088
REMARK INTRA:                  -0.310
REMARK UNBOUND:                -0.297
REMARK SMILES O=c1cc(-c2ccc(O)c(O)c2)oc2cc(O)cc(O)c12
REMARK SMILES IDX 4 1 3 2 2 3 1 4 21 5 19 6 18 7 16 8 15 9 14 10 13 11 5 12
REMARK SMILES IDX 6 13 7 14 8 15 12 16 10 17 9 18 11 20 20 22 17 24
REMARK H PARENT 9 19 11 21 20 23 17 25
REMARK Flexibility Score: inf
ROOT
ATOM      1  C   UNL     1      21.127  26.841   4.061  1.00  0.00     0.138 A 
ATOM      2  C   UNL     1      21.009  28.013   3.302  1.00  0.00     0.100 A 
ATOM      3  C   UNL     1      21.879  29.079   3.535  1.00  0.00     0.197 A 
ATOM      4  O   UNL     1      21.711  30.137   2.875  1.00  0.00    -0.289 OA
ATOM      5  C   UNL     1      22.897  28.955   4.511  1.00  0.00     0.107 A 
ATOM      6  C   UNL     1      23.864  29.963   4.811  1.00  0.00     0.134 A 
ATOM      7  C   UNL     1      24.762  29.763   5.867  1.00  0.00     0.093 A 
ATOM      8  C   UNL     1      24.768  28.570   6.595  1.00  0.00     0.123 A 
ATOM      9  C   UNL     1      23.862  27.562   6.276  1.00  0.00     0.094 A 
ATOM     10  C   UNL     1      22.930  27.743   5.251  1.00  0.00     0.146 A 
ATOM     11  O   UNL     1      22.072  26.762   4.992  1.00  0.00    -0.456 OA
ENDROOT
BRANCH   1  12
ATOM     12  C   UNL     1      20.231  25.677   3.853  1.00  0.00     0.021 A 
ATOM     13  C   UNL     1      18.976  25.870   3.250  1.00  0.00     0.016 A 
ATOM     14  C   UNL     1      18.116  24.790   3.035  1.00  0.00     0.051 A 
ATOM     15  C   UNL     1      18.496  23.498   3.410  1.00  0.00     0.157 A 
ATOM     16  C   UNL     1      20.614  24.371   4.216  1.00  0.00     0.062 A 
ATOM     17  C   UNL     1      19.753  23.286   4.000  1.00  0.00     0.158 A 
BRANCH  15  18
ATOM     18  O   UNL     1      17.616  22.441   3.185  1.00  0.00    -0.504 OA
ATOM     19  H   UNL     1      16.679  22.586   2.831  1.00  0.00     0.293 HD
ENDBRANCH  15  18
BRANCH  17  20
ATOM     20  O   UNL     1      20.142  21.998   4.365  1.00  0.00    -0.504 OA
ATOM     21  H   UNL     1      19.855  21.186   3.832  1.00  0.00     0.293 HD
ENDBRANCH  17  20
ENDBRANCH   1  12
BRANCH   6  22
ATOM     22  O   UNL     1      24.000  31.157   4.097  1.00  0.00    -0.507 OA
ATOM     23  H   UNL     1      23.300  31.550   3.488  1.00  0.00     0.293 HD
ENDBRANCH   6  22
BRANCH   8  24
ATOM     24  O   UNL     1      25.675  28.375   7.633  1.00  0.00    -0.508 OA
ATOM     25  H   UNL     1      25.727  27.495   8.134  1.00  0.00     0.293 HD
ENDBRANCH   8  24
TORSDOF 5
ENDMDL
MODEL 6
REMARK VINA RESULT:    -4.267      2.367      3.964
REMARK INTER + INTRA:          -5.312
REMARK INTER:                  -4.996
REMARK INTRA:                  -0.316
REMARK UNBOUND:                -0.297
REMARK SMILES O=c1cc(-c2ccc(O)c(O)c2)oc2cc(O)cc(O)c12
REMARK SMILES IDX 4 1 3 2 2 3 1 4 21 5 19 6 18 7 16 8 15 9 14 10 13 11 5 12
REMARK SMILES IDX 6 13 7 14 8 15 12 16 10 17 9 18 11 20 20 22 17 24
REMARK H PARENT 9 19 11 21 20 23 17 25
REMARK Flexibility Score: inf
ROOT
ATOM      1  C   UNL     1      24.175  25.183   5.503  1.00  0.00     0.138 A 
ATOM      2  C   UNL     1      25.309  24.516   5.987  1.00  0.00     0.100 A 
ATOM      3  C   UNL     1      25.412  23.132   5.839  1.00  0.00     0.197 A 
ATOM      4  O   UNL     1      26.415  22.557   6.334  1.00  0.00    -0.289 OA
ATOM      5  C   UNL     1      24.389  22.418   5.171  1.00  0.00     0.107 A 
ATOM      6  C   UNL     1      24.402  21.009   4.931  1.00  0.00     0.134 A 
ATOM      7  C   UNL     1      23.286  20.399   4.345  1.00  0.00     0.093 A 
ATOM      8  C   UNL     1      22.182  21.153   3.937  1.00  0.00     0.123 A 
ATOM      9  C   UNL     1      22.181  22.533   4.121  1.00  0.00     0.094 A 
ATOM     10  C   UNL     1      23.265  23.168   4.734  1.00  0.00     0.146 A 
ATOM     11  O   UNL     1      23.215  24.484   4.906  1.00  0.00    -0.456 OA
ENDROOT
BRANCH   1  12
ATOM     12  C   UNL     1      24.015  26.653   5.629  1.00  0.00     0.021 A 
ATOM     13  C   UNL     1      24.888  27.373   6.463  1.00  0.00     0.016 A 
ATOM     14  C   UNL     1      24.764  28.759   6.594  1.00  0.00     0.051 A 
ATOM     15  C   UNL     1      23.774  29.450   5.891  1.00  0.00     0.157 A 
ATOM     16  C   UNL     1      23.028  27.356   4.912  1.00  0.00     0.062 A 
ATOM     17  C   UNL     1      22.903  28.747   5.042  1.00  0.00     0.158 A 
BRANCH  15  18
ATOM     18  O   UNL     1      23.674  30.832   6.044  1.00  0.00    -0.504 OA
ATOM     19  H   UNL     1      23.689  31.276   6.953  1.00  0.00     0.293 HD
ENDBRANCH  15  18
BRANCH  17  20
ATOM     20  O   UNL     1      21.922  29.433   4.329  1.00  0.00    -0.504 OA
ATOM     21  H   UNL     1      22.006  30.422   4.126  1.00  0.00     0.293 HD
ENDBRANCH  17  20
ENDBRANCH   1  12
BRANCH   6  22
ATOM     22  O   UNL     1      25.484  20.174   5.225  1.00  0.00    -0.507 OA
ATOM     23  H   UNL     1      26.444  20.361   4.979  1.00  0.00     0.293 HD
ENDBRANCH   6  22
BRANCH   8  24
ATOM     24  O   UNL     1      21.083  20.539   3.342  1.00  0.00    -0.508 OA
ATOM     25  H   UNL     1      21.002  19.530   3.293  1.00  0.00     0.293 HD
ENDBRANCH   8  24
TORSDOF 5
ENDMDL
MODEL 7
REMARK VINA RESULT:    -4.257      3.055      7.460
REMARK INTER + INTRA:          -5.300
REMARK INTER:                  -5.007
REMARK INTRA:                  -0.293
REMARK UNBOUND:                -0.297
REMARK SMILES O=c1cc(-c2ccc(O)c(O)c2)oc2cc(O)cc(O)c12
REMARK SMILES IDX 4 1 3 2 2 3 1 4 21 5 19 6 18 7 16 8 15 9 14 10 13 11 5 12
REMARK SMILES IDX 6 13 7 14 8 15 12 16 10 17 9 18 11 20 20 22 17 24
REMARK H PARENT 9 19 11 21 20 23 17 25
REMARK Flexibility Score: inf
ROOT
ATOM      1  C   UNL     1      22.508  24.743   4.524  1.00  0.00     0.138 A 
ATOM      2  C   UNL     1      21.635  25.652   3.912  1.00  0.00     0.100 A 
ATOM      3  C   UNL     1      21.762  27.017   4.175  1.00  0.00     0.197 A 
ATOM      4  O   UNL     1      20.928  27.801   3.655  1.00  0.00    -0.289 OA
ATOM      5  C   UNL     1      22.794  27.475   5.029  1.00  0.00     0.107 A 
ATOM      6  C   UNL     1      23.043  28.847   5.343  1.00  0.00     0.134 A 
ATOM      7  C   UNL     1      24.033  29.171   6.279  1.00  0.00     0.093 A 
ATOM      8  C   UNL     1      24.822  28.180   6.868  1.00  0.00     0.123 A 
ATOM      9  C   UNL     1      24.621  26.844   6.530  1.00  0.00     0.094 A 
ATOM     10  C   UNL     1      23.618  26.485   5.626  1.00  0.00     0.146 A 
ATOM     11  O   UNL     1      23.449  25.197   5.345  1.00  0.00    -0.456 OA
ENDROOT
BRANCH   1  12
ATOM     12  C   UNL     1      22.420  23.282   4.277  1.00  0.00     0.021 A 
ATOM     13  C   UNL     1      23.517  22.461   4.592  1.00  0.00     0.016 A 
ATOM     14  C   UNL     1      23.457  21.082   4.377  1.00  0.00     0.051 A 
ATOM     15  C   UNL     1      22.301  20.497   3.853  1.00  0.00     0.157 A 
ATOM     16  C   UNL     1      21.252  22.686   3.762  1.00  0.00     0.062 A 
ATOM     17  C   UNL     1      21.191  21.302   3.547  1.00  0.00     0.158 A 
BRANCH  15  18
ATOM     18  O   UNL     1      22.272  19.118   3.647  1.00  0.00    -0.504 OA
ATOM     19  H   UNL     1      22.860  18.483   4.173  1.00  0.00     0.293 HD
ENDBRANCH  15  18
BRANCH  17  20
ATOM     20  O   UNL     1      20.031  20.722   3.035  1.00  0.00    -0.504 OA
ATOM     21  H   UNL     1      19.853  20.681   2.039  1.00  0.00     0.293 HD
ENDBRANCH  17  20
ENDBRANCH   1  12
BRANCH   6  22
ATOM     22  O   UNL     1      22.368  29.920   4.754  1.00  0.00    -0.507 OA
ATOM     23  H   UNL     1      21.489  30.298   5.072  1.00  0.00     0.293 HD
ENDBRANCH   6  22
BRANCH   8  24
ATOM     24  O   UNL     1      25.814  28.514   7.786  1.00  0.00    -0.508 OA
ATOM     25  H   UNL     1      26.631  29.050   7.513  1.00  0.00     0.293 HD
ENDBRANCH   8  24
TORSDOF 5
ENDMDL
MODEL 8
REMARK VINA RESULT:    -4.167      2.898      7.403
REMARK INTER + INTRA:          -5.195
REMARK INTER:                  -4.878
REMARK INTRA:                  -0.317
REMARK UNBOUND:                -0.297
REMARK SMILES O=c1cc(-c2ccc(O)c(O)c2)oc2cc(O)cc(O)c12
REMARK SMILES IDX 4 1 3 2 2 3 1 4 21 5 19 6 18 7 16 8 15 9 14 10 13 11 5 12
REMARK SMILES IDX 6 13 7 14 8 15 12 16 10 17 9 18 11 20 20 22 17 24
REMARK H PARENT 9 19 11 21 20 23 17 25
REMARK Flexibility Score: inf
ROOT
ATOM      1  C   UNL     1      22.473  24.771   4.435  1.00  0.00     0.138 A 
ATOM      2  C   UNL     1      21.615  25.686   3.810  1.00  0.00     0.100 A 
ATOM      3  C   UNL     1      21.747  27.050   4.075  1.00  0.00     0.197 A 
ATOM      4  O   UNL     1      20.925  27.839   3.543  1.00  0.00    -0.289 OA
ATOM      5  C   UNL     1      22.768  27.501   4.945  1.00  0.00     0.107 A 
ATOM      6  C   UNL     1      23.020  28.871   5.264  1.00  0.00     0.134 A 
ATOM      7  C   UNL     1      23.997  29.190   6.215  1.00  0.00     0.093 A 
ATOM      8  C   UNL     1      24.772  28.193   6.815  1.00  0.00     0.123 A 
ATOM      9  C   UNL     1      24.568  26.859   6.474  1.00  0.00     0.094 A 
ATOM     10  C   UNL     1      23.577  26.505   5.555  1.00  0.00     0.146 A 
ATOM     11  O   UNL     1      23.404  25.219   5.271  1.00  0.00    -0.456 OA
ENDROOT
BRANCH   1  12
ATOM     12  C   UNL     1      22.380  23.311   4.187  1.00  0.00     0.021 A 
ATOM     13  C   UNL     1      21.317  22.808   3.417  1.00  0.00     0.016 A 
ATOM     14  C   UNL     1      21.210  21.438   3.161  1.00  0.00     0.051 A 
ATOM     15  C   UNL     1      22.164  20.549   3.662  1.00  0.00     0.157 A 
ATOM     16  C   UNL     1      23.346  22.411   4.677  1.00  0.00     0.062 A 
ATOM     17  C   UNL     1      23.240  21.037   4.421  1.00  0.00     0.158 A 
BRANCH  15  18
ATOM     18  O   UNL     1      22.029  19.187   3.392  1.00  0.00    -0.504 OA
ATOM     19  H   UNL     1      21.289  18.629   3.797  1.00  0.00     0.293 HD
ENDBRANCH  15  18
BRANCH  17  20
ATOM     20  O   UNL     1      24.202  20.155   4.912  1.00  0.00    -0.504 OA
ATOM     21  H   UNL     1      25.179  20.416   4.975  1.00  0.00     0.293 HD
ENDBRANCH  17  20
ENDBRANCH   1  12
BRANCH   6  22
ATOM     22  O   UNL     1      22.362  29.949   4.665  1.00  0.00    -0.507 OA
ATOM     23  H   UNL     1      22.043  30.775   5.148  1.00  0.00     0.293 HD
ENDBRANCH   6  22
BRANCH   8  24
ATOM     24  O   UNL     1      25.752  28.521   7.749  1.00  0.00    -0.508 OA
ATOM     25  H   UNL     1      26.525  27.896   7.949  1.00  0.00     0.293 HD
ENDBRANCH   8  24
TORSDOF 5
ENDMDL
MODEL 9
REMARK VINA RESULT:    -4.134      1.118      2.763
REMARK INTER + INTRA:          -5.155
REMARK INTER:                  -4.840
REMARK INTRA:                  -0.315
REMARK UNBOUND:                -0.297
REMARK SMILES O=c1cc(-c2ccc(O)c(O)c2)oc2cc(O)cc(O)c12
REMARK SMILES IDX 4 1 3 2 2 3 1 4 21 5 19 6 18 7 16 8 15 9 14 10 13 11 5 12
REMARK SMILES IDX 6 13 7 14 8 15 12 16 10 17 9 18 11 20 20 22 17 24
REMARK H PARENT 9 19 11 21 20 23 17 25
REMARK Flexibility Score: inf
ROOT
ATOM      1  C   UNL     1      23.652  27.600   4.479  1.00  0.00     0.138 A 
ATOM      2  C   UNL     1      22.899  26.494   4.064  1.00  0.00     0.100 A 
ATOM      3  C   UNL     1      23.319  25.206   4.401  1.00  0.00     0.197 A 
ATOM      4  O   UNL     1      22.652  24.232   3.967  1.00  0.00    -0.289 OA
ATOM      5  C   UNL     1      24.483  25.030   5.188  1.00  0.00     0.107 A 
ATOM      6  C   UNL     1      24.989  23.766   5.622  1.00  0.00     0.134 A 
ATOM      7  C   UNL     1      26.205  23.711   6.314  1.00  0.00     0.093 A 
ATOM      8  C   UNL     1      26.903  24.876   6.640  1.00  0.00     0.123 A 
ATOM      9  C   UNL     1      26.393  26.116   6.265  1.00  0.00     0.094 A 
ATOM     10  C   UNL     1      25.200  26.203   5.543  1.00  0.00     0.146 A 
ATOM     11  O   UNL     1      24.757  27.406   5.190  1.00  0.00    -0.456 OA
ENDROOT
BRANCH   1  12
ATOM     12  C   UNL     1      23.250  28.991   4.152  1.00  0.00     0.021 A 
ATOM     13  C   UNL     1      22.243  29.212   3.196  1.00  0.00     0.016 A 
ATOM     14  C   UNL     1      21.840  30.511   2.876  1.00  0.00     0.051 A 
ATOM     15  C   UNL     1      22.427  31.610   3.509  1.00  0.00     0.157 A 
ATOM     16  C   UNL     1      23.828  30.102   4.797  1.00  0.00     0.062 A 
ATOM     17  C   UNL     1      23.423  31.405   4.477  1.00  0.00     0.158 A 
BRANCH  15  18
ATOM     18  O   UNL     1      22.005  32.894   3.166  1.00  0.00    -0.504 OA
ATOM     19  H   UNL     1      22.541  33.719   3.405  1.00  0.00     0.293 HD
ENDBRANCH  15  18
BRANCH  17  20
ATOM     20  O   UNL     1      24.003  32.498   5.120  1.00  0.00    -0.504 OA
ATOM     21  H   UNL     1      24.098  33.396   4.660  1.00  0.00     0.293 HD
ENDBRANCH  17  20
ENDBRANCH   1  12
BRANCH   6  22
ATOM     22  O   UNL     1      24.333  22.548   5.420  1.00  0.00    -0.507 OA
ATOM     23  H   UNL     1      23.623  22.165   6.025  1.00  0.00     0.293 HD
ENDBRANCH   6  22
BRANCH   8  24
ATOM     24  O   UNL     1      28.104  24.812   7.342  1.00  0.00    -0.508 OA
ATOM     25  H   UNL     1      28.206  25.235   8.258  1.00  0.00     0.293 HD
ENDBRANCH   8  24
TORSDOF 5
ENDMDL
