MODEL 1
REMARK VINA RESULT:    -4.530      0.000      0.000
REMARK INTER + INTRA:         -12.569
REMARK INTER:                  -9.826
REMARK INTRA:                  -2.744
REMARK UNBOUND:                -2.744
REMARK SMILES CCCCCCCCCCCCCCCCCCCCCC(=O)[O-]
REMARK SMILES IDX 12 1 11 2 10 3 9 4 8 5 7 6 6 7 5 8 4 9 3 10 2 11 1 12 13 13
REMARK SMILES IDX 14 14 15 15 16 16 17 17 18 18 19 19 20 20 21 21 22 22 23 23
REMARK SMILES IDX 24 24
REMARK H PARENT
REMARK Flexibility Score: inf
ROOT
ATOM      1  C   UNL     1      55.738  -1.769  21.671  1.00  0.00     0.000 C 
ENDROOT
BRANCH   1   2
ATOM      2  C   UNL     1      56.533  -2.824  20.880  1.00  0.00     0.000 C 
BRANCH   2   3
ATOM      3  C   UNL     1      58.009  -2.894  21.307  1.00  0.00     0.000 C 
BRANCH   3   4
ATOM      4  C   UNL     1      58.986  -2.745  20.124  1.00  0.00    -0.000 C 
BRANCH   4   5
ATOM      5  C   UNL     1      58.911  -1.392  19.393  1.00  0.00    -0.000 C 
BRANCH   5   6
ATOM      6  C   UNL     1      58.345  -1.509  17.965  1.00  0.00    -0.000 C 
BRANCH   6   7
ATOM      7  C   UNL     1      57.053  -0.685  17.786  1.00  0.00    -0.000 C 
BRANCH   7   8
ATOM      8  C   UNL     1      56.731  -0.356  16.315  1.00  0.00    -0.000 C 
BRANCH   8   9
ATOM      9  C   UNL     1      55.398  -0.952  15.841  1.00  0.00    -0.000 C 
BRANCH   9  10
ATOM     10  C   UNL     1      55.578  -1.718  14.522  1.00  0.00    -0.000 C 
BRANCH  10  11
ATOM     11  C   UNL     1      56.961  -2.380  14.411  1.00  0.00    -0.003 C 
ATOM     12  C   UNL     1      56.906  -3.741  13.715  1.00  0.00     0.004 C 
ENDBRANCH  10  11
ENDBRANCH   9  10
ENDBRANCH   8   9
ENDBRANCH   7   8
ENDBRANCH   6   7
ENDBRANCH   5   6
ENDBRANCH   4   5
ENDBRANCH   3   4
ENDBRANCH   2   3
ENDBRANCH   1   2
BRANCH   1  13
ATOM     13  C   UNL     1      55.961  -0.309  21.224  1.00  0.00     0.000 C 
BRANCH  13  14
ATOM     14  C   UNL     1      56.501   0.637  22.313  1.00  0.00     0.000 C 
BRANCH  14  15
ATOM     15  C   UNL     1      58.027   0.815  22.246  1.00  0.00     0.000 C 
BRANCH  15  16
ATOM     16  C   UNL     1      58.762   0.031  23.344  1.00  0.00     0.000 C 
BRANCH  16  17
ATOM     17  C   UNL     1      60.274  -0.086  23.085  1.00  0.00     0.000 C 
BRANCH  17  18
ATOM     18  C   UNL     1      60.951  -1.136  23.986  1.00  0.00     0.000 C 
BRANCH  18  19
ATOM     19  C   UNL     1      62.057  -1.965  23.300  1.00  0.00     0.000 C 
BRANCH  19  20
ATOM     20  C   UNL     1      61.634  -3.378  22.861  1.00  0.00     0.006 C 
BRANCH  20  21
ATOM     21  C   UNL     1      62.315  -3.825  21.562  1.00  0.00     0.053 C 
BRANCH  21  22
ATOM     22  C   UNL     1      63.772  -4.077  21.795  1.00  0.00     0.041 C 
ATOM     23  O   UNL     1      64.626  -3.666  20.966  1.00  0.00    -0.550 OA
ATOM     24  O   UNL     1      64.183  -4.810  22.901  1.00  0.00    -0.550 OA
ENDBRANCH  21  22
ENDBRANCH  20  21
ENDBRANCH  19  20
ENDBRANCH  18  19
ENDBRANCH  17  18
ENDBRANCH  16  17
ENDBRANCH  15  16
ENDBRANCH  14  15
ENDBRANCH  13  14
ENDBRANCH   1  13
TORSDOF 20
ENDMDL
MODEL 2
REMARK VINA RESULT:    -4.518      6.817      9.713
REMARK INTER + INTRA:         -12.544
REMARK INTER:                  -8.984
REMARK INTRA:                  -3.560
REMARK UNBOUND:                -2.744
REMARK SMILES CCCCCCCCCCCCCCCCCCCCCC(=O)[O-]
REMARK SMILES IDX 12 1 11 2 10 3 9 4 8 5 7 6 6 7 5 8 4 9 3 10 2 11 1 12 13 13
REMARK SMILES IDX 14 14 15 15 16 16 17 17 18 18 19 19 20 20 21 21 22 22 23 23
REMARK SMILES IDX 24 24
REMARK H PARENT
REMARK Flexibility Score: inf
ROOT
ATOM      1  C   UNL     1      53.842   0.903  16.208  1.00  0.00     0.000 C 
ENDROOT
BRANCH   1   2
ATOM      2  C   UNL     1      54.560   0.395  17.471  1.00  0.00     0.000 C 
BRANCH   2   3
ATOM      3  C   UNL     1      55.384  -0.878  17.211  1.00  0.00     0.000 C 
BRANCH   3   4
ATOM      4  C   UNL     1      56.904  -0.637  17.279  1.00  0.00    -0.000 C 
BRANCH   4   5
ATOM      5  C   UNL     1      57.723  -1.378  16.206  1.00  0.00    -0.000 C 
BRANCH   5   6
ATOM      6  C   UNL     1      56.996  -1.469  14.850  1.00  0.00    -0.000 C 
BRANCH   6   7
ATOM      7  C   UNL     1      56.746  -2.931  14.425  1.00  0.00    -0.000 C 
BRANCH   7   8
ATOM      8  C   UNL     1      55.505  -3.108  13.529  1.00  0.00    -0.000 C 
BRANCH   8   9
ATOM      9  C   UNL     1      54.510  -1.943  13.637  1.00  0.00    -0.000 C 
BRANCH   9  10
ATOM     10  C   UNL     1      53.260  -2.208  12.786  1.00  0.00    -0.000 C 
BRANCH  10  11
ATOM     11  C   UNL     1      52.857  -3.691  12.778  1.00  0.00    -0.003 C 
ATOM     12  C   UNL     1      51.370  -3.895  12.487  1.00  0.00     0.004 C 
ENDBRANCH  10  11
ENDBRANCH   9  10
ENDBRANCH   8   9
ENDBRANCH   7   8
ENDBRANCH   6   7
ENDBRANCH   5   6
ENDBRANCH   4   5
ENDBRANCH   3   4
ENDBRANCH   2   3
ENDBRANCH   1   2
BRANCH   1  13
ATOM     13  C   UNL     1      54.763   1.506  15.127  1.00  0.00     0.000 C 
BRANCH  13  14
ATOM     14  C   UNL     1      55.563   2.747  15.563  1.00  0.00     0.000 C 
BRANCH  14  15
ATOM     15  C   UNL     1      57.071   2.612  15.288  1.00  0.00     0.000 C 
BRANCH  15  16
ATOM     16  C   UNL     1      57.367   1.906  13.956  1.00  0.00     0.000 C 
BRANCH  16  17
ATOM     17  C   UNL     1      57.518   2.888  12.780  1.00  0.00     0.000 C 
BRANCH  17  18
ATOM     18  C   UNL     1      56.365   2.780  11.766  1.00  0.00     0.000 C 
BRANCH  18  19
ATOM     19  C   UNL     1      55.257   3.842  11.927  1.00  0.00     0.000 C 
BRANCH  19  20
ATOM     20  C   UNL     1      53.820   3.295  11.882  1.00  0.00     0.006 C 
BRANCH  20  21
ATOM     21  C   UNL     1      53.768   1.775  11.683  1.00  0.00     0.053 C 
BRANCH  21  22
ATOM     22  C   UNL     1      52.369   1.273  11.853  1.00  0.00     0.041 C 
ATOM     23  O   UNL     1      51.808   1.331  12.980  1.00  0.00    -0.550 OA
ATOM     24  O   UNL     1      51.701   0.694  10.781  1.00  0.00    -0.550 OA
ENDBRANCH  21  22
ENDBRANCH  20  21
ENDBRANCH  19  20
ENDBRANCH  18  19
ENDBRANCH  17  18
ENDBRANCH  16  17
ENDBRANCH  15  16
ENDBRANCH  14  15
ENDBRANCH  13  14
ENDBRANCH   1  13
TORSDOF 20
ENDMDL
MODEL 3
REMARK VINA RESULT:    -4.498      2.304      4.171
REMARK INTER + INTRA:         -12.501
REMARK INTER:                 -10.770
REMARK INTRA:                  -1.731
REMARK UNBOUND:                -2.744
REMARK SMILES CCCCCCCCCCCCCCCCCCCCCC(=O)[O-]
REMARK SMILES IDX 12 1 11 2 10 3 9 4 8 5 7 6 6 7 5 8 4 9 3 10 2 11 1 12 13 13
REMARK SMILES IDX 14 14 15 15 16 16 17 17 18 18 19 19 20 20 21 21 22 22 23 23
REMARK SMILES IDX 24 24
REMARK H PARENT
REMARK Flexibility Score: inf
ROOT
ATOM      1  C   UNL     1      56.253  -0.837  18.841  1.00  0.00     0.000 C 
ENDROOT
BRANCH   1   2
ATOM      2  C   UNL     1      56.926   0.051  17.779  1.00  0.00     0.000 C 
BRANCH   2   3
ATOM      3  C   UNL     1      56.097   0.158  16.487  1.00  0.00     0.000 C 
BRANCH   3   4
ATOM      4  C   UNL     1      56.829  -0.407  15.253  1.00  0.00    -0.000 C 
BRANCH   4   5
ATOM      5  C   UNL     1      57.300  -1.865  15.395  1.00  0.00    -0.000 C 
BRANCH   5   6
ATOM      6  C   UNL     1      57.073  -2.698  14.119  1.00  0.00    -0.000 C 
BRANCH   6   7
ATOM      7  C   UNL     1      55.691  -3.385  14.115  1.00  0.00    -0.000 C 
BRANCH   7   8
ATOM      8  C   UNL     1      54.892  -3.155  12.818  1.00  0.00    -0.000 C 
BRANCH   8   9
ATOM      9  C   UNL     1      53.378  -3.046  13.052  1.00  0.00    -0.000 C 
BRANCH   9  10
ATOM     10  C   UNL     1      52.621  -2.959  11.720  1.00  0.00    -0.000 C 
BRANCH  10  11
ATOM     11  C   UNL     1      52.049  -4.316  11.279  1.00  0.00    -0.003 C 
ATOM     12  C   UNL     1      52.649  -4.807   9.961  1.00  0.00     0.004 C 
ENDBRANCH  10  11
ENDBRANCH   9  10
ENDBRANCH   8   9
ENDBRANCH   7   8
ENDBRANCH   6   7
ENDBRANCH   5   6
ENDBRANCH   4   5
ENDBRANCH   3   4
ENDBRANCH   2   3
ENDBRANCH   1   2
BRANCH   1  13
ATOM     13  C   UNL     1      57.217  -1.709  19.672  1.00  0.00     0.000 C 
BRANCH  13  14
ATOM     14  C   UNL     1      58.650  -1.817  19.118  1.00  0.00     0.000 C 
BRANCH  14  15
ATOM     15  C   UNL     1      59.552  -2.728  19.969  1.00  0.00     0.000 C 
BRANCH  15  16
ATOM     16  C   UNL     1      58.973  -4.141  20.137  1.00  0.00     0.000 C 
BRANCH  16  17
ATOM     17  C   UNL     1      58.796  -4.543  21.612  1.00  0.00     0.000 C 
BRANCH  17  18
ATOM     18  C   UNL     1      59.708  -3.742  22.559  1.00  0.00     0.000 C 
BRANCH  18  19
ATOM     19  C   UNL     1      60.619  -4.599  23.462  1.00  0.00     0.000 C 
BRANCH  19  20
ATOM     20  C   UNL     1      62.122  -4.282  23.361  1.00  0.00     0.006 C 
BRANCH  20  21
ATOM     21  C   UNL     1      62.440  -3.258  22.265  1.00  0.00     0.053 C 
BRANCH  21  22
ATOM     22  C   UNL     1      63.157  -3.916  21.128  1.00  0.00     0.041 C 
ATOM     23  O   UNL     1      62.545  -4.713  20.369  1.00  0.00    -0.550 OA
ATOM     24  O   UNL     1      64.515  -3.689  20.937  1.00  0.00    -0.550 OA
ENDBRANCH  21  22
ENDBRANCH  20  21
ENDBRANCH  19  20
ENDBRANCH  18  19
ENDBRANCH  17  18
ENDBRANCH  16  17
ENDBRANCH  15  16
ENDBRANCH  14  15
ENDBRANCH  13  14
ENDBRANCH   1  13
TORSDOF 20
ENDMDL
MODEL 4
REMARK VINA RESULT:    -4.478      7.081     10.040
REMARK INTER + INTRA:         -12.458
REMARK INTER:                  -9.016
REMARK INTRA:                  -3.442
REMARK UNBOUND:                -2.744
REMARK SMILES CCCCCCCCCCCCCCCCCCCCCC(=O)[O-]
REMARK SMILES IDX 12 1 11 2 10 3 9 4 8 5 7 6 6 7 5 8 4 9 3 10 2 11 1 12 13 13
REMARK SMILES IDX 14 14 15 15 16 16 17 17 18 18 19 19 20 20 21 21 22 22 23 23
REMARK SMILES IDX 24 24
REMARK H PARENT
REMARK Flexibility Score: inf
ROOT
ATOM      1  C   UNL     1      53.923   1.463  14.880  1.00  0.00     0.000 C 
ENDROOT
BRANCH   1   2
ATOM      2  C   UNL     1      54.135   0.658  13.586  1.00  0.00     0.000 C 
BRANCH   2   3
ATOM      3  C   UNL     1      52.831   0.455  12.795  1.00  0.00     0.000 C 
BRANCH   3   4
ATOM      4  C   UNL     1      51.917   1.695  12.810  1.00  0.00    -0.000 C 
BRANCH   4   5
ATOM      5  C   UNL     1      51.774   2.407  11.453  1.00  0.00    -0.000 C 
BRANCH   5   6
ATOM      6  C   UNL     1      52.599   1.742  10.334  1.00  0.00    -0.000 C 
BRANCH   6   7
ATOM      7  C   UNL     1      53.565   2.737   9.658  1.00  0.00    -0.000 C 
BRANCH   7   8
ATOM      8  C   UNL     1      54.936   2.834  10.354  1.00  0.00    -0.000 C 
BRANCH   8   9
ATOM      9  C   UNL     1      55.105   4.118  11.180  1.00  0.00    -0.000 C 
BRANCH   9  10
ATOM     10  C   UNL     1      55.788   3.822  12.523  1.00  0.00    -0.000 C 
BRANCH  10  11
ATOM     11  C   UNL     1      56.872   2.738  12.404  1.00  0.00    -0.003 C 
ATOM     12  C   UNL     1      57.660   2.550  13.701  1.00  0.00     0.004 C 
ENDBRANCH  10  11
ENDBRANCH   9  10
ENDBRANCH   8   9
ENDBRANCH   7   8
ENDBRANCH   6   7
ENDBRANCH   5   6
ENDBRANCH   4   5
ENDBRANCH   3   4
ENDBRANCH   2   3
ENDBRANCH   1   2
BRANCH   1  13
ATOM     13  C   UNL     1      54.886   1.116  16.034  1.00  0.00     0.000 C 
BRANCH  13  14
ATOM     14  C   UNL     1      54.749  -0.310  16.598  1.00  0.00     0.000 C 
BRANCH  14  15
ATOM     15  C   UNL     1      56.107  -1.005  16.801  1.00  0.00     0.000 C 
BRANCH  15  16
ATOM     16  C   UNL     1      57.176  -0.508  15.817  1.00  0.00     0.000 C 
BRANCH  16  17
ATOM     17  C   UNL     1      57.538  -1.555  14.749  1.00  0.00     0.000 C 
BRANCH  17  18
ATOM     18  C   UNL     1      56.583  -2.763  14.754  1.00  0.00     0.000 C 
BRANCH  18  19
ATOM     19  C   UNL     1      55.964  -3.109  13.384  1.00  0.00     0.000 C 
BRANCH  19  20
ATOM     20  C   UNL     1      54.426  -3.153  13.357  1.00  0.00     0.006 C 
BRANCH  20  21
ATOM     21  C   UNL     1      53.859  -3.219  11.934  1.00  0.00     0.053 C 
BRANCH  21  22
ATOM     22  C   UNL     1      52.478  -3.794  11.947  1.00  0.00     0.041 C 
ATOM     23  O   UNL     1      52.100  -4.557  11.018  1.00  0.00    -0.550 OA
ATOM     24  O   UNL     1      51.590  -3.450  12.959  1.00  0.00    -0.550 OA
ENDBRANCH  21  22
ENDBRANCH  20  21
ENDBRANCH  19  20
ENDBRANCH  18  19
ENDBRANCH  17  18
ENDBRANCH  16  17
ENDBRANCH  15  16
ENDBRANCH  14  15
ENDBRANCH  13  14
ENDBRANCH   1  13
TORSDOF 20
ENDMDL
MODEL 5
REMARK VINA RESULT:    -4.456      6.774     10.582
REMARK INTER + INTRA:         -12.410
REMARK INTER:                  -9.366
REMARK INTRA:                  -3.044
REMARK UNBOUND:                -2.744
REMARK SMILES CCCCCCCCCCCCCCCCCCCCCC(=O)[O-]
REMARK SMILES IDX 12 1 11 2 10 3 9 4 8 5 7 6 6 7 5 8 4 9 3 10 2 11 1 12 13 13
REMARK SMILES IDX 14 14 15 15 16 16 17 17 18 18 19 19 20 20 21 21 22 22 23 23
REMARK SMILES IDX 24 24
REMARK H PARENT
REMARK Flexibility Score: inf
ROOT
ATOM      1  C   UNL     1      53.097   0.526  12.602  1.00  0.00     0.000 C 
ENDROOT
BRANCH   1   2
ATOM      2  C   UNL     1      52.646   1.820  13.302  1.00  0.00     0.000 C 
BRANCH   2   3
ATOM      3  C   UNL     1      53.201   3.084  12.622  1.00  0.00     0.000 C 
BRANCH   3   4
ATOM      4  C   UNL     1      53.871   2.794  11.265  1.00  0.00    -0.000 C 
BRANCH   4   5
ATOM      5  C   UNL     1      55.260   3.432  11.083  1.00  0.00    -0.000 C 
BRANCH   5   6
ATOM      6  C   UNL     1      56.362   2.718  11.890  1.00  0.00    -0.000 C 
BRANCH   6   7
ATOM      7  C   UNL     1      57.079   3.678  12.863  1.00  0.00    -0.000 C 
BRANCH   7   8
ATOM      8  C   UNL     1      57.700   2.969  14.082  1.00  0.00    -0.000 C 
BRANCH   8   9
ATOM      9  C   UNL     1      57.180   1.537  14.277  1.00  0.00    -0.000 C 
BRANCH   9  10
ATOM     10  C   UNL     1      56.605   1.349  15.688  1.00  0.00    -0.000 C 
BRANCH  10  11
ATOM     11  C   UNL     1      55.155   0.839  15.668  1.00  0.00    -0.003 C 
ATOM     12  C   UNL     1      54.847  -0.103  16.832  1.00  0.00     0.004 C 
ENDBRANCH  10  11
ENDBRANCH   9  10
ENDBRANCH   8   9
ENDBRANCH   7   8
ENDBRANCH   6   7
ENDBRANCH   5   6
ENDBRANCH   4   5
ENDBRANCH   3   4
ENDBRANCH   2   3
ENDBRANCH   1   2
BRANCH   1  13
ATOM     13  C   UNL     1      51.970  -0.279  11.921  1.00  0.00     0.000 C 
BRANCH  13  14
ATOM     14  C   UNL     1      52.181  -0.569  10.424  1.00  0.00     0.000 C 
BRANCH  14  15
ATOM     15  C   UNL     1      51.726  -1.982  10.020  1.00  0.00     0.000 C 
BRANCH  15  16
ATOM     16  C   UNL     1      52.902  -2.893   9.635  1.00  0.00     0.000 C 
BRANCH  16  17
ATOM     17  C   UNL     1      53.113  -4.049  10.630  1.00  0.00     0.000 C 
BRANCH  17  18
ATOM     18  C   UNL     1      52.176  -3.961  11.848  1.00  0.00     0.000 C 
BRANCH  18  19
ATOM     19  C   UNL     1      52.867  -3.571  13.172  1.00  0.00     0.000 C 
BRANCH  19  20
ATOM     20  C   UNL     1      54.403  -3.653  13.154  1.00  0.00     0.006 C 
BRANCH  20  21
ATOM     21  C   UNL     1      55.069  -2.512  13.933  1.00  0.00     0.053 C 
BRANCH  21  22
ATOM     22  C   UNL     1      56.512  -2.819  14.178  1.00  0.00     0.041 C 
ATOM     23  O   UNL     1      57.250  -1.975  14.754  1.00  0.00    -0.550 OA
ATOM     24  O   UNL     1      57.057  -4.014  13.725  1.00  0.00    -0.550 OA
ENDBRANCH  21  22
ENDBRANCH  20  21
ENDBRANCH  19  20
ENDBRANCH  18  19
ENDBRANCH  17  18
ENDBRANCH  16  17
ENDBRANCH  15  16
ENDBRANCH  14  15
ENDBRANCH  13  14
ENDBRANCH   1  13
TORSDOF 20
ENDMDL
MODEL 6
REMARK VINA RESULT:    -4.450      5.112      9.552
REMARK INTER + INTRA:         -12.398
REMARK INTER:                 -10.523
REMARK INTRA:                  -1.874
REMARK UNBOUND:                -2.744
REMARK SMILES CCCCCCCCCCCCCCCCCCCCCC(=O)[O-]
REMARK SMILES IDX 12 1 11 2 10 3 9 4 8 5 7 6 6 7 5 8 4 9 3 10 2 11 1 12 13 13
REMARK SMILES IDX 14 14 15 15 16 16 17 17 18 18 19 19 20 20 21 21 22 22 23 23
REMARK SMILES IDX 24 24
REMARK H PARENT
REMARK Flexibility Score: inf
ROOT
ATOM      1  C   UNL     1      58.613   0.734  19.205  1.00  0.00     0.000 C 
ENDROOT
BRANCH   1   2
ATOM      2  C   UNL     1      58.761  -0.658  19.843  1.00  0.00     0.000 C 
BRANCH   2   3
ATOM      3  C   UNL     1      58.673  -0.617  21.379  1.00  0.00     0.000 C 
BRANCH   3   4
ATOM      4  C   UNL     1      57.876  -1.797  21.969  1.00  0.00    -0.000 C 
BRANCH   4   5
ATOM      5  C   UNL     1      57.318  -2.782  20.926  1.00  0.00    -0.000 C 
BRANCH   5   6
ATOM      6  C   UNL     1      58.037  -4.145  20.940  1.00  0.00    -0.000 C 
BRANCH   6   7
ATOM      7  C   UNL     1      59.168  -4.213  19.893  1.00  0.00    -0.000 C 
BRANCH   7   8
ATOM      8  C   UNL     1      60.555  -3.852  20.460  1.00  0.00    -0.000 C 
BRANCH   8   9
ATOM      9  C   UNL     1      60.703  -4.184  21.952  1.00  0.00    -0.000 C 
BRANCH   9  10
ATOM     10  C   UNL     1      61.597  -3.154  22.658  1.00  0.00    -0.000 C 
BRANCH  10  11
ATOM     11  C   UNL     1      62.940  -3.752  23.108  1.00  0.00    -0.003 C 
ATOM     12  C   UNL     1      62.784  -5.132  23.746  1.00  0.00     0.004 C 
ENDBRANCH  10  11
ENDBRANCH   9  10
ENDBRANCH   8   9
ENDBRANCH   7   8
ENDBRANCH   6   7
ENDBRANCH   5   6
ENDBRANCH   4   5
ENDBRANCH   3   4
ENDBRANCH   2   3
ENDBRANCH   1   2
BRANCH   1  13
ATOM     13  C   UNL     1      57.595   0.821  18.049  1.00  0.00     0.000 C 
BRANCH  13  14
ATOM     14  C   UNL     1      56.513  -0.275  18.042  1.00  0.00     0.000 C 
BRANCH  14  15
ATOM     15  C   UNL     1      56.152  -0.748  16.623  1.00  0.00     0.000 C 
BRANCH  15  16
ATOM     16  C   UNL     1      57.391  -1.098  15.785  1.00  0.00     0.000 C 
BRANCH  16  17
ATOM     17  C   UNL     1      57.126  -2.223  14.769  1.00  0.00     0.000 C 
BRANCH  17  18
ATOM     18  C   UNL     1      55.691  -2.195  14.213  1.00  0.00     0.000 C 
BRANCH  18  19
ATOM     19  C   UNL     1      55.231  -3.504  13.536  1.00  0.00     0.000 C 
BRANCH  19  20
ATOM     20  C   UNL     1      54.224  -3.323  12.387  1.00  0.00     0.006 C 
BRANCH  20  21
ATOM     21  C   UNL     1      52.951  -4.156  12.575  1.00  0.00     0.053 C 
BRANCH  21  22
ATOM     22  C   UNL     1      51.847  -3.626  11.716  1.00  0.00     0.041 C 
ATOM     23  O   UNL     1      51.890  -3.775  10.465  1.00  0.00    -0.550 OA
ATOM     24  O   UNL     1      50.795  -2.922  12.289  1.00  0.00    -0.550 OA
ENDBRANCH  21  22
ENDBRANCH  20  21
ENDBRANCH  19  20
ENDBRANCH  18  19
ENDBRANCH  17  18
ENDBRANCH  16  17
ENDBRANCH  15  16
ENDBRANCH  14  15
ENDBRANCH  13  14
ENDBRANCH   1  13
TORSDOF 20
ENDMDL
MODEL 7
REMARK VINA RESULT:    -4.441      6.408     11.663
REMARK INTER + INTRA:         -12.378
REMARK INTER:                 -10.815
REMARK INTRA:                  -1.563
REMARK UNBOUND:                -2.744
REMARK SMILES CCCCCCCCCCCCCCCCCCCCCC(=O)[O-]
REMARK SMILES IDX 12 1 11 2 10 3 9 4 8 5 7 6 6 7 5 8 4 9 3 10 2 11 1 12 13 13
REMARK SMILES IDX 14 14 15 15 16 16 17 17 18 18 19 19 20 20 21 21 22 22 23 23
REMARK SMILES IDX 24 24
REMARK H PARENT
REMARK Flexibility Score: inf
ROOT
ATOM      1  C   UNL     1      54.985  -2.434  13.706  1.00  0.00     0.000 C 
ENDROOT
BRANCH   1   2
ATOM      2  C   UNL     1      56.276  -2.457  14.544  1.00  0.00     0.000 C 
BRANCH   2   3
ATOM      3  C   UNL     1      56.495  -1.151  15.327  1.00  0.00     0.000 C 
BRANCH   3   4
ATOM      4  C   UNL     1      57.616  -1.259  16.379  1.00  0.00    -0.000 C 
BRANCH   4   5
ATOM      5  C   UNL     1      57.344  -0.502  17.691  1.00  0.00    -0.000 C 
BRANCH   5   6
ATOM      6  C   UNL     1      56.005  -0.893  18.346  1.00  0.00    -0.000 C 
BRANCH   6   7
ATOM      7  C   UNL     1      56.147  -1.113  19.866  1.00  0.00    -0.000 C 
BRANCH   7   8
ATOM      8  C   UNL     1      57.574  -1.501  20.302  1.00  0.00    -0.000 C 
BRANCH   8   9
ATOM      9  C   UNL     1      57.604  -2.659  21.311  1.00  0.00    -0.000 C 
BRANCH   9  10
ATOM     10  C   UNL     1      57.842  -3.999  20.601  1.00  0.00    -0.000 C 
BRANCH  10  11
ATOM     11  C   UNL     1      59.231  -4.079  19.947  1.00  0.00    -0.003 C 
ATOM     12  C   UNL     1      60.366  -3.879  20.951  1.00  0.00     0.004 C 
ENDBRANCH  10  11
ENDBRANCH   9  10
ENDBRANCH   8   9
ENDBRANCH   7   8
ENDBRANCH   6   7
ENDBRANCH   5   6
ENDBRANCH   4   5
ENDBRANCH   3   4
ENDBRANCH   2   3
ENDBRANCH   1   2
BRANCH   1  13
ATOM     13  C   UNL     1      54.377  -3.819  13.401  1.00  0.00     0.000 C 
BRANCH  13  14
ATOM     14  C   UNL     1      53.413  -3.864  12.201  1.00  0.00     0.000 C 
BRANCH  14  15
ATOM     15  C   UNL     1      51.935  -3.783  12.620  1.00  0.00     0.000 C 
BRANCH  15  16
ATOM     16  C   UNL     1      51.192  -2.622  11.941  1.00  0.00     0.000 C 
BRANCH  16  17
ATOM     17  C   UNL     1      52.031  -1.332  11.877  1.00  0.00     0.000 C 
BRANCH  17  18
ATOM     18  C   UNL     1      52.005  -0.677  10.484  1.00  0.00     0.000 C 
BRANCH  18  19
ATOM     19  C   UNL     1      51.904  -1.665   9.303  1.00  0.00     0.000 C 
BRANCH  19  20
ATOM     20  C   UNL     1      53.195  -2.443   8.993  1.00  0.00     0.006 C 
BRANCH  20  21
ATOM     21  C   UNL     1      53.115  -3.226   7.677  1.00  0.00     0.053 C 
BRANCH  21  22
ATOM     22  C   UNL     1      52.327  -4.484   7.864  1.00  0.00     0.041 C 
ATOM     23  O   UNL     1      51.770  -5.036   6.877  1.00  0.00    -0.550 OA
ATOM     24  O   UNL     1      52.165  -5.022   9.135  1.00  0.00    -0.550 OA
ENDBRANCH  21  22
ENDBRANCH  20  21
ENDBRANCH  19  20
ENDBRANCH  18  19
ENDBRANCH  17  18
ENDBRANCH  16  17
ENDBRANCH  15  16
ENDBRANCH  14  15
ENDBRANCH  13  14
ENDBRANCH   1  13
TORSDOF 20
ENDMDL
MODEL 8
REMARK VINA RESULT:    -4.391      5.610      9.229
REMARK INTER + INTRA:         -12.268
REMARK INTER:                  -8.565
REMARK INTRA:                  -3.703
REMARK UNBOUND:                -2.744
REMARK SMILES CCCCCCCCCCCCCCCCCCCCCC(=O)[O-]
REMARK SMILES IDX 12 1 11 2 10 3 9 4 8 5 7 6 6 7 5 8 4 9 3 10 2 11 1 12 13 13
REMARK SMILES IDX 14 14 15 15 16 16 17 17 18 18 19 19 20 20 21 21 22 22 23 23
REMARK SMILES IDX 24 24
REMARK H PARENT
REMARK Flexibility Score: inf
ROOT
ATOM      1  C   UNL     1      54.005   1.204  14.814  1.00  0.00     0.000 C 
ENDROOT
BRANCH   1   2
ATOM      2  C   UNL     1      54.736   2.489  14.386  1.00  0.00     0.000 C 
BRANCH   2   3
ATOM      3  C   UNL     1      56.016   2.201  13.582  1.00  0.00     0.000 C 
BRANCH   3   4
ATOM      4  C   UNL     1      57.298   2.302  14.432  1.00  0.00    -0.000 C 
BRANCH   4   5
ATOM      5  C   UNL     1      57.141   3.097  15.741  1.00  0.00    -0.000 C 
BRANCH   5   6
ATOM      6  C   UNL     1      58.011   2.546  16.888  1.00  0.00    -0.000 C 
BRANCH   6   7
ATOM      7  C   UNL     1      57.485   2.981  18.272  1.00  0.00    -0.000 C 
BRANCH   7   8
ATOM      8  C   UNL     1      57.574   1.874  19.340  1.00  0.00    -0.000 C 
BRANCH   8   9
ATOM      9  C   UNL     1      58.686   0.852  19.060  1.00  0.00    -0.000 C 
BRANCH   9  10
ATOM     10  C   UNL     1      58.271  -0.552  19.522  1.00  0.00    -0.000 C 
BRANCH  10  11
ATOM     11  C   UNL     1      56.989  -0.536  20.370  1.00  0.00    -0.003 C 
ATOM     12  C   UNL     1      56.189  -1.834  20.250  1.00  0.00     0.004 C 
ENDBRANCH  10  11
ENDBRANCH   9  10
ENDBRANCH   8   9
ENDBRANCH   7   8
ENDBRANCH   6   7
ENDBRANCH   5   6
ENDBRANCH   4   5
ENDBRANCH   3   4
ENDBRANCH   2   3
ENDBRANCH   1   2
BRANCH   1  13
ATOM     13  C   UNL     1      53.754   1.066  16.331  1.00  0.00     0.000 C 
BRANCH  13  14
ATOM     14  C   UNL     1      54.942   0.522  17.146  1.00  0.00     0.000 C 
BRANCH  14  15
ATOM     15  C   UNL     1      55.326  -0.915  16.754  1.00  0.00     0.000 C 
BRANCH  15  16
ATOM     16  C   UNL     1      56.729  -1.003  16.136  1.00  0.00     0.000 C 
BRANCH  16  17
ATOM     17  C   UNL     1      56.701  -1.339  14.634  1.00  0.00     0.000 C 
BRANCH  17  18
ATOM     18  C   UNL     1      56.867  -2.845  14.361  1.00  0.00     0.000 C 
BRANCH  18  19
ATOM     19  C   UNL     1      55.595  -3.559  13.857  1.00  0.00     0.000 C 
BRANCH  19  20
ATOM     20  C   UNL     1      54.420  -2.628  13.513  1.00  0.00     0.006 C 
BRANCH  20  21
ATOM     21  C   UNL     1      53.665  -3.066  12.252  1.00  0.00     0.053 C 
BRANCH  21  22
ATOM     22  C   UNL     1      52.238  -2.619  12.315  1.00  0.00     0.041 C 
ATOM     23  O   UNL     1      51.937  -1.421  12.065  1.00  0.00    -0.550 OA
ATOM     24  O   UNL     1      51.245  -3.512  12.699  1.00  0.00    -0.550 OA
ENDBRANCH  21  22
ENDBRANCH  20  21
ENDBRANCH  19  20
ENDBRANCH  18  19
ENDBRANCH  17  18
ENDBRANCH  16  17
ENDBRANCH  15  16
ENDBRANCH  14  15
ENDBRANCH  13  14
ENDBRANCH   1  13
TORSDOF 20
ENDMDL
MODEL 9
REMARK VINA RESULT:    -4.374      2.628      5.141
REMARK INTER + INTRA:         -12.231
REMARK INTER:                 -10.725
REMARK INTRA:                  -1.506
REMARK UNBOUND:                -2.744
REMARK SMILES CCCCCCCCCCCCCCCCCCCCCC(=O)[O-]
REMARK SMILES IDX 12 1 11 2 10 3 9 4 8 5 7 6 6 7 5 8 4 9 3 10 2 11 1 12 13 13
REMARK SMILES IDX 14 14 15 15 16 16 17 17 18 18 19 19 20 20 21 21 22 22 23 23
REMARK SMILES IDX 24 24
REMARK H PARENT
REMARK Flexibility Score: inf
ROOT
ATOM      1  C   UNL     1      55.474  -1.193  16.820  1.00  0.00     0.000 C 
ENDROOT
BRANCH   1   2
ATOM      2  C   UNL     1      55.837  -0.823  15.371  1.00  0.00     0.000 C 
BRANCH   2   3
ATOM      3  C   UNL     1      56.934  -1.730  14.786  1.00  0.00     0.000 C 
BRANCH   3   4
ATOM      4  C   UNL     1      56.373  -3.005  14.126  1.00  0.00    -0.000 C 
BRANCH   4   5
ATOM      5  C   UNL     1      55.033  -2.814  13.393  1.00  0.00    -0.000 C 
BRANCH   5   6
ATOM      6  C   UNL     1      54.194  -4.105  13.327  1.00  0.00    -0.000 C 
BRANCH   6   7
ATOM      7  C   UNL     1      52.854  -3.886  12.594  1.00  0.00    -0.000 C 
BRANCH   7   8
ATOM      8  C   UNL     1      53.018  -3.440  11.129  1.00  0.00    -0.000 C 
BRANCH   8   9
ATOM      9  C   UNL     1      52.180  -2.203  10.776  1.00  0.00    -0.000 C 
BRANCH   9  10
ATOM     10  C   UNL     1      51.792  -1.423  12.040  1.00  0.00    -0.000 C 
BRANCH  10  11
ATOM     11  C   UNL     1      52.244   0.045  11.987  1.00  0.00    -0.003 C 
ATOM     12  C   UNL     1      52.591   0.503  10.571  1.00  0.00     0.004 C 
ENDBRANCH  10  11
ENDBRANCH   9  10
ENDBRANCH   8   9
ENDBRANCH   7   8
ENDBRANCH   6   7
ENDBRANCH   5   6
ENDBRANCH   4   5
ENDBRANCH   3   4
ENDBRANCH   2   3
ENDBRANCH   1   2
BRANCH   1  13
ATOM     13  C   UNL     1      56.265  -0.437  17.908  1.00  0.00     0.000 C 
BRANCH  13  14
ATOM     14  C   UNL     1      57.768  -0.764  17.976  1.00  0.00     0.000 C 
BRANCH  14  15
ATOM     15  C   UNL     1      58.147  -1.570  19.230  1.00  0.00     0.000 C 
BRANCH  15  16
ATOM     16  C   UNL     1      56.987  -1.687  20.230  1.00  0.00     0.000 C 
BRANCH  16  17
ATOM     17  C   UNL     1      56.962  -3.041  20.961  1.00  0.00     0.000 C 
BRANCH  17  18
ATOM     18  C   UNL     1      58.140  -3.950  20.567  1.00  0.00     0.000 C 
BRANCH  18  19
ATOM     19  C   UNL     1      59.216  -4.129  21.658  1.00  0.00     0.000 C 
BRANCH  19  20
ATOM     20  C   UNL     1      60.536  -3.381  21.401  1.00  0.00     0.006 C 
BRANCH  20  21
ATOM     21  C   UNL     1      61.674  -3.853  22.314  1.00  0.00     0.053 C 
BRANCH  21  22
ATOM     22  C   UNL     1      62.926  -4.063  21.523  1.00  0.00     0.041 C 
ATOM     23  O   UNL     1      63.991  -3.476  21.854  1.00  0.00    -0.550 OA
ATOM     24  O   UNL     1      62.907  -4.867  20.389  1.00  0.00    -0.550 OA
ENDBRANCH  21  22
ENDBRANCH  20  21
ENDBRANCH  19  20
ENDBRANCH  18  19
ENDBRANCH  17  18
ENDBRANCH  16  17
ENDBRANCH  15  16
ENDBRANCH  14  15
ENDBRANCH  13  14
ENDBRANCH   1  13
TORSDOF 20
ENDMDL
