MODEL 1
REMARK VINA RESULT:    -5.227      0.000      0.000
REMARK INTER + INTRA:          -5.750
REMARK INTER:                  -5.685
REMARK INTRA:                  -0.065
REMARK UNBOUND:                -0.065
REMARK SMILES COc1cc2ccc(=O)oc2cc1O
REMARK SMILES IDX 3 1 13 2 12 3 11 4 5 5 4 6 6 7 7 8 8 9 9 10 10 11 2 12 1 13
REMARK SMILES IDX 14 14
REMARK H PARENT 14 15
REMARK Flexibility Score: inf
ROOT
ATOM      1  C   UNL     1      10.739  52.512  21.059  1.00  0.00     0.161 A 
ATOM      2  C   UNL     1       9.603  53.266  20.727  1.00  0.00     0.161 A 
ATOM      3  C   UNL     1       8.445  53.186  21.515  1.00  0.00     0.098 A 
ATOM      4  C   UNL     1       8.413  52.356  22.637  1.00  0.00     0.142 A 
ATOM      5  C   UNL     1       9.552  51.595  22.979  1.00  0.00     0.022 A 
ATOM      6  C   UNL     1      10.709  51.674  22.193  1.00  0.00     0.062 A 
ATOM      7  C   UNL     1       9.489  50.774  24.109  1.00  0.00     0.019 A 
ATOM      8  C   UNL     1       8.314  50.730  24.860  1.00  0.00     0.094 A 
ATOM      9  C   UNL     1       7.224  51.512  24.460  1.00  0.00     0.336 A 
ATOM     10  O   UNL     1       6.156  51.487  25.124  1.00  0.00    -0.246 OA
ATOM     11  O   UNL     1       7.311  52.285  23.381  1.00  0.00    -0.423 OA
ENDROOT
BRANCH   1  12
ATOM     12  O   UNL     1      11.876  52.623  20.243  1.00  0.00    -0.493 OA
ATOM     13  C   UNL     1      12.297  51.634  19.309  1.00  0.00     0.278 C 
ENDBRANCH   1  12
BRANCH   2  14
ATOM     14  O   UNL     1       9.632  54.094  19.606  1.00  0.00    -0.504 OA
ATOM     15  H   UNL     1       9.920  53.748  18.698  1.00  0.00     0.293 HD
ENDBRANCH   2  14
TORSDOF 2
ENDMDL
MODEL 2
REMARK VINA RESULT:    -5.073      2.643      3.593
REMARK INTER + INTRA:          -5.583
REMARK INTER:                  -5.518
REMARK INTRA:                  -0.065
REMARK UNBOUND:                -0.065
REMARK SMILES COc1cc2ccc(=O)oc2cc1O
REMARK SMILES IDX 3 1 13 2 12 3 11 4 5 5 4 6 6 7 7 8 8 9 9 10 10 11 2 12 1 13
REMARK SMILES IDX 14 14
REMARK H PARENT 14 15
REMARK Flexibility Score: inf
ROOT
ATOM      1  C   UNL     1      13.123  51.334  23.953  1.00  0.00     0.161 A 
ATOM      2  C   UNL     1      12.936  51.499  22.572  1.00  0.00     0.161 A 
ATOM      3  C   UNL     1      11.651  51.710  22.052  1.00  0.00     0.098 A 
ATOM      4  C   UNL     1      10.545  51.758  22.905  1.00  0.00     0.142 A 
ATOM      5  C   UNL     1      10.725  51.594  24.295  1.00  0.00     0.022 A 
ATOM      6  C   UNL     1      12.009  51.382  24.815  1.00  0.00     0.062 A 
ATOM      7  C   UNL     1       9.599  51.647  25.122  1.00  0.00     0.019 A 
ATOM      8  C   UNL     1       8.342  51.860  24.556  1.00  0.00     0.094 A 
ATOM      9  C   UNL     1       8.241  52.015  23.169  1.00  0.00     0.336 A 
ATOM     10  O   UNL     1       7.116  52.208  22.640  1.00  0.00    -0.246 OA
ATOM     11  O   UNL     1       9.328  51.959  22.405  1.00  0.00    -0.423 OA
ENDROOT
BRANCH   1  12
ATOM     12  O   UNL     1      14.428  51.125  24.430  1.00  0.00    -0.493 OA
ATOM     13  C   UNL     1      15.214  52.113  25.086  1.00  0.00     0.278 C 
ENDBRANCH   1  12
BRANCH   2  14
ATOM     14  O   UNL     1      14.038  51.451  21.719  1.00  0.00    -0.504 OA
ATOM     15  H   UNL     1      14.362  50.577  21.321  1.00  0.00     0.293 HD
ENDBRANCH   2  14
TORSDOF 2
ENDMDL
MODEL 3
REMARK VINA RESULT:    -5.072      2.095      4.973
REMARK INTER + INTRA:          -5.582
REMARK INTER:                  -5.517
REMARK INTRA:                  -0.065
REMARK UNBOUND:                -0.065
REMARK SMILES COc1cc2ccc(=O)oc2cc1O
REMARK SMILES IDX 3 1 13 2 12 3 11 4 5 5 4 6 6 7 7 8 8 9 9 10 10 11 2 12 1 13
REMARK SMILES IDX 14 14
REMARK H PARENT 14 15
REMARK Flexibility Score: inf
ROOT
ATOM      1  C   UNL     1       8.583  51.912  24.208  1.00  0.00     0.161 A 
ATOM      2  C   UNL     1       8.735  52.183  22.839  1.00  0.00     0.161 A 
ATOM      3  C   UNL     1      10.004  52.129  22.244  1.00  0.00     0.098 A 
ATOM      4  C   UNL     1      11.128  51.806  23.008  1.00  0.00     0.142 A 
ATOM      5  C   UNL     1      10.983  51.531  24.385  1.00  0.00     0.022 A 
ATOM      6  C   UNL     1       9.716  51.585  24.981  1.00  0.00     0.062 A 
ATOM      7  C   UNL     1      12.126  51.210  25.123  1.00  0.00     0.019 A 
ATOM      8  C   UNL     1      13.366  51.170  24.485  1.00  0.00     0.094 A 
ATOM      9  C   UNL     1      13.432  51.454  23.116  1.00  0.00     0.336 A 
ATOM     10  O   UNL     1      14.541  51.423  22.522  1.00  0.00    -0.246 OA
ATOM     11  O   UNL     1      12.329  51.757  22.437  1.00  0.00    -0.423 OA
ENDROOT
BRANCH   1  12
ATOM     12  O   UNL     1       7.294  51.977  24.762  1.00  0.00    -0.493 OA
ATOM     13  C   UNL     1       6.515  50.842  25.125  1.00  0.00     0.278 C 
ENDBRANCH   1  12
BRANCH   2  14
ATOM     14  O   UNL     1       7.616  52.506  22.074  1.00  0.00    -0.504 OA
ATOM     15  H   UNL     1       6.807  51.896  22.033  1.00  0.00     0.293 HD
ENDBRANCH   2  14
TORSDOF 2
ENDMDL
MODEL 4
REMARK VINA RESULT:    -4.926      5.720      6.810
REMARK INTER + INTRA:          -5.423
REMARK INTER:                  -5.358
REMARK INTRA:                  -0.065
REMARK UNBOUND:                -0.065
REMARK SMILES COc1cc2ccc(=O)oc2cc1O
REMARK SMILES IDX 3 1 13 2 12 3 11 4 5 5 4 6 6 7 7 8 8 9 9 10 10 11 2 12 1 13
REMARK SMILES IDX 14 14
REMARK H PARENT 14 15
REMARK Flexibility Score: inf
ROOT
ATOM      1  C   UNL     1       4.901  51.948  16.503  1.00  0.00     0.161 A 
ATOM      2  C   UNL     1       3.991  52.982  16.237  1.00  0.00     0.161 A 
ATOM      3  C   UNL     1       3.753  53.980  17.194  1.00  0.00     0.098 A 
ATOM      4  C   UNL     1       4.419  53.951  18.422  1.00  0.00     0.142 A 
ATOM      5  C   UNL     1       5.337  52.914  18.697  1.00  0.00     0.022 A 
ATOM      6  C   UNL     1       5.575  51.918  17.741  1.00  0.00     0.062 A 
ATOM      7  C   UNL     1       5.989  52.913  19.934  1.00  0.00     0.019 A 
ATOM      8  C   UNL     1       5.718  53.928  20.852  1.00  0.00     0.094 A 
ATOM      9  C   UNL     1       4.796  54.924  20.510  1.00  0.00     0.336 A 
ATOM     10  O   UNL     1       4.538  55.847  21.324  1.00  0.00    -0.246 OA
ATOM     11  O   UNL     1       4.189  54.900  19.326  1.00  0.00    -0.423 OA
ENDROOT
BRANCH   1  12
ATOM     12  O   UNL     1       5.108  50.971  15.516  1.00  0.00    -0.493 OA
ATOM     13  C   UNL     1       4.542  49.665  15.542  1.00  0.00     0.278 C 
ENDBRANCH   1  12
BRANCH   2  14
ATOM     14  O   UNL     1       3.324  53.012  15.014  1.00  0.00    -0.504 OA
ATOM     15  H   UNL     1       3.811  53.221  14.149  1.00  0.00     0.293 HD
ENDBRANCH   2  14
TORSDOF 2
ENDMDL
MODEL 5
REMARK VINA RESULT:    -4.833      2.357      3.757
REMARK INTER + INTRA:          -5.322
REMARK INTER:                  -5.265
REMARK INTRA:                  -0.057
REMARK UNBOUND:                -0.065
REMARK SMILES COc1cc2ccc(=O)oc2cc1O
REMARK SMILES IDX 3 1 13 2 12 3 11 4 5 5 4 6 6 7 7 8 8 9 9 10 10 11 2 12 1 13
REMARK SMILES IDX 14 14
REMARK H PARENT 14 15
REMARK Flexibility Score: inf
ROOT
ATOM      1  C   UNL     1       9.202  52.577  20.797  1.00  0.00     0.161 A 
ATOM      2  C   UNL     1      10.412  52.199  20.194  1.00  0.00     0.161 A 
ATOM      3  C   UNL     1      11.502  51.804  20.983  1.00  0.00     0.098 A 
ATOM      4  C   UNL     1      11.394  51.784  22.376  1.00  0.00     0.142 A 
ATOM      5  C   UNL     1      10.180  52.162  22.989  1.00  0.00     0.022 A 
ATOM      6  C   UNL     1       9.090  52.556  22.202  1.00  0.00     0.062 A 
ATOM      7  C   UNL     1      10.102  52.131  24.385  1.00  0.00     0.019 A 
ATOM      8  C   UNL     1      11.215  51.730  25.125  1.00  0.00     0.094 A 
ATOM      9  C   UNL     1      12.385  51.369  24.447  1.00  0.00     0.336 A 
ATOM     10  O   UNL     1      13.399  51.005  25.097  1.00  0.00    -0.246 OA
ATOM     11  O   UNL     1      12.432  51.408  23.118  1.00  0.00    -0.423 OA
ENDROOT
BRANCH   1  12
ATOM     12  O   UNL     1       8.136  52.965  19.968  1.00  0.00    -0.493 OA
ATOM     13  C   UNL     1       6.837  52.386  20.003  1.00  0.00     0.278 C 
ENDBRANCH   1  12
BRANCH   2  14
ATOM     14  O   UNL     1      10.523  52.219  18.805  1.00  0.00    -0.504 OA
ATOM     15  H   UNL     1      10.964  52.993  18.319  1.00  0.00     0.293 HD
ENDBRANCH   2  14
TORSDOF 2
ENDMDL
MODEL 6
REMARK VINA RESULT:    -4.830      4.279      6.123
REMARK INTER + INTRA:          -5.319
REMARK INTER:                  -5.255
REMARK INTRA:                  -0.064
REMARK UNBOUND:                -0.065
REMARK SMILES COc1cc2ccc(=O)oc2cc1O
REMARK SMILES IDX 3 1 13 2 12 3 11 4 5 5 4 6 6 7 7 8 8 9 9 10 10 11 2 12 1 13
REMARK SMILES IDX 14 14
REMARK H PARENT 14 15
REMARK Flexibility Score: inf
ROOT
ATOM      1  C   UNL     1       7.095  52.945  20.902  1.00  0.00     0.161 A 
ATOM      2  C   UNL     1       7.503  52.429  19.662  1.00  0.00     0.161 A 
ATOM      3  C   UNL     1       6.696  52.594  18.527  1.00  0.00     0.098 A 
ATOM      4  C   UNL     1       5.479  53.273  18.620  1.00  0.00     0.142 A 
ATOM      5  C   UNL     1       5.062  53.796  19.863  1.00  0.00     0.022 A 
ATOM      6  C   UNL     1       5.867  53.632  20.998  1.00  0.00     0.062 A 
ATOM      7  C   UNL     1       3.839  54.472  19.924  1.00  0.00     0.019 A 
ATOM      8  C   UNL     1       3.074  54.609  18.767  1.00  0.00     0.094 A 
ATOM      9  C   UNL     1       3.551  54.064  17.569  1.00  0.00     0.336 A 
ATOM     10  O   UNL     1       2.875  54.178  16.514  1.00  0.00    -0.246 OA
ATOM     11  O   UNL     1       4.718  53.426  17.539  1.00  0.00    -0.423 OA
ENDROOT
BRANCH   1  12
ATOM     12  O   UNL     1       7.935  52.757  22.012  1.00  0.00    -0.493 OA
ATOM     13  C   UNL     1       7.751  51.750  23.000  1.00  0.00     0.278 C 
ENDBRANCH   1  12
BRANCH   2  14
ATOM     14  O   UNL     1       8.716  51.750  19.567  1.00  0.00    -0.504 OA
ATOM     15  H   UNL     1       8.878  50.880  20.062  1.00  0.00     0.293 HD
ENDBRANCH   2  14
TORSDOF 2
ENDMDL
MODEL 7
REMARK VINA RESULT:    -4.818      3.417      4.904
REMARK INTER + INTRA:          -5.306
REMARK INTER:                  -5.260
REMARK INTRA:                  -0.045
REMARK UNBOUND:                -0.065
REMARK SMILES COc1cc2ccc(=O)oc2cc1O
REMARK SMILES IDX 3 1 13 2 12 3 11 4 5 5 4 6 6 7 7 8 8 9 9 10 10 11 2 12 1 13
REMARK SMILES IDX 14 14
REMARK H PARENT 14 15
REMARK Flexibility Score: inf
ROOT
ATOM      1  C   UNL     1       5.628  52.728  18.598  1.00  0.00     0.161 A 
ATOM      2  C   UNL     1       4.989  52.919  19.833  1.00  0.00     0.161 A 
ATOM      3  C   UNL     1       5.736  52.951  21.019  1.00  0.00     0.098 A 
ATOM      4  C   UNL     1       7.124  52.792  20.982  1.00  0.00     0.142 A 
ATOM      5  C   UNL     1       7.774  52.601  19.744  1.00  0.00     0.022 A 
ATOM      6  C   UNL     1       7.028  52.569  18.559  1.00  0.00     0.062 A 
ATOM      7  C   UNL     1       9.164  52.445  19.739  1.00  0.00     0.019 A 
ATOM      8  C   UNL     1       9.862  52.485  20.946  1.00  0.00     0.094 A 
ATOM      9  C   UNL     1       9.150  52.679  22.135  1.00  0.00     0.336 A 
ATOM     10  O   UNL     1       9.761  52.717  23.234  1.00  0.00    -0.246 OA
ATOM     11  O   UNL     1       7.827  52.823  22.111  1.00  0.00    -0.423 OA
ENDROOT
BRANCH   1  12
ATOM     12  O   UNL     1       4.840  52.703  17.436  1.00  0.00    -0.493 OA
ATOM     13  C   UNL     1       5.359  52.660  16.111  1.00  0.00     0.278 C 
ENDBRANCH   1  12
BRANCH   2  14
ATOM     14  O   UNL     1       3.604  53.077  19.873  1.00  0.00    -0.504 OA
ATOM     15  H   UNL     1       3.029  52.923  19.052  1.00  0.00     0.293 HD
ENDBRANCH   2  14
TORSDOF 2
ENDMDL
MODEL 8
REMARK VINA RESULT:    -4.738      2.447      4.674
REMARK INTER + INTRA:          -5.219
REMARK INTER:                  -5.171
REMARK INTRA:                  -0.048
REMARK UNBOUND:                -0.065
REMARK SMILES COc1cc2ccc(=O)oc2cc1O
REMARK SMILES IDX 3 1 13 2 12 3 11 4 5 5 4 6 6 7 7 8 8 9 9 10 10 11 2 12 1 13
REMARK SMILES IDX 14 14
REMARK H PARENT 14 15
REMARK Flexibility Score: inf
ROOT
ATOM      1  C   UNL     1       8.298  52.168  22.875  1.00  0.00     0.161 A 
ATOM      2  C   UNL     1       8.255  51.991  24.267  1.00  0.00     0.161 A 
ATOM      3  C   UNL     1       9.431  51.728  24.984  1.00  0.00     0.098 A 
ATOM      4  C   UNL     1      10.657  51.640  24.318  1.00  0.00     0.142 A 
ATOM      5  C   UNL     1      10.708  51.818  22.919  1.00  0.00     0.022 A 
ATOM      6  C   UNL     1       9.534  52.080  22.202  1.00  0.00     0.062 A 
ATOM      7  C   UNL     1      11.950  51.724  22.282  1.00  0.00     0.019 A 
ATOM      8  C   UNL     1      13.091  51.462  23.040  1.00  0.00     0.094 A 
ATOM      9  C   UNL     1      12.963  51.297  24.424  1.00  0.00     0.336 A 
ATOM     10  O   UNL     1      13.980  51.059  25.124  1.00  0.00    -0.246 OA
ATOM     11  O   UNL     1      11.769  51.391  25.005  1.00  0.00    -0.423 OA
ENDROOT
BRANCH   1  12
ATOM     12  O   UNL     1       7.095  52.429  22.198  1.00  0.00    -0.493 OA
ATOM     13  C   UNL     1       6.993  53.200  21.006  1.00  0.00     0.278 C 
ENDBRANCH   1  12
BRANCH   2  14
ATOM     14  O   UNL     1       7.033  52.077  24.933  1.00  0.00    -0.504 OA
ATOM     15  H   UNL     1       6.381  52.832  24.748  1.00  0.00     0.293 HD
ENDBRANCH   2  14
TORSDOF 2
ENDMDL
