MODEL 1
REMARK VINA RESULT:     4.061      0.000      0.000
REMARK INTER + INTRA:           9.079
REMARK INTER:                  10.708
REMARK INTRA:                  -1.629
REMARK UNBOUND:                -1.629
REMARK SMILES CCCCCCCCCCCCCCCCCCCCCCCCCCCCCC(=O)[O-]
REMARK SMILES IDX 16 1 17 2 18 3 19 4 20 5 21 6 22 7 23 8 24 9 25 10 26 11
REMARK SMILES IDX 27 12 28 13 29 14 30 15 31 16 32 17 15 18 14 19 13 20 12 21
REMARK SMILES IDX 11 22 10 23 9 24 8 25 7 26 6 27 5 28 4 29 3 30 2 31 1 32
REMARK H PARENT
REMARK Flexibility Score: inf
ROOT
ATOM      1  C   UNL     1      -2.636  50.488   0.021  1.00  0.00     0.000 C 
ENDROOT
BRANCH   1   2
ATOM      2  C   UNL     1      -3.981  50.806   0.692  1.00  0.00     0.000 C 
BRANCH   2   3
ATOM      3  C   UNL     1      -4.571  52.125   0.172  1.00  0.00     0.000 C 
BRANCH   3   4
ATOM      4  C   UNL     1      -6.102  52.087   0.165  1.00  0.00     0.000 C 
BRANCH   4   5
ATOM      5  C   UNL     1      -6.631  51.381  -1.095  1.00  0.00     0.000 C 
BRANCH   5   6
ATOM      6  C   UNL     1      -8.174  51.340  -1.165  1.00  0.00     0.000 C 
BRANCH   6   7
ATOM      7  C   UNL     1      -8.760  49.927  -1.368  1.00  0.00     0.000 C 
BRANCH   7   8
ATOM      8  C   UNL     1      -7.890  48.765  -0.852  1.00  0.00     0.000 C 
BRANCH   8   9
ATOM      9  C   UNL     1      -7.144  47.969  -1.941  1.00  0.00     0.000 C 
BRANCH   9  10
ATOM     10  C   UNL     1      -6.626  46.608  -1.443  1.00  0.00     0.000 C 
BRANCH  10  11
ATOM     11  C   UNL     1      -7.632  45.471  -1.692  1.00  0.00     0.000 C 
BRANCH  11  12
ATOM     12  C   UNL     1      -7.007  44.266  -2.415  1.00  0.00     0.000 C 
BRANCH  12  13
ATOM     13  C   UNL     1      -5.490  44.162  -2.192  1.00  0.00     0.006 C 
BRANCH  13  14
ATOM     14  C   UNL     1      -5.117  43.079  -1.167  1.00  0.00     0.053 C 
BRANCH  14  15
ATOM     15  C   UNL     1      -3.632  42.936  -1.059  1.00  0.00     0.041 C 
ATOM     16  O   UNL     1      -2.873  43.891  -1.377  1.00  0.00    -0.550 OA
ATOM     17  O   UNL     1      -3.084  41.763  -0.550  1.00  0.00    -0.550 OA
ENDBRANCH  14  15
ENDBRANCH  13  14
ENDBRANCH  12  13
ENDBRANCH  11  12
ENDBRANCH  10  11
ENDBRANCH   9  10
ENDBRANCH   8   9
ENDBRANCH   7   8
ENDBRANCH   6   7
ENDBRANCH   5   6
ENDBRANCH   4   5
ENDBRANCH   3   4
ENDBRANCH   2   3
ENDBRANCH   1   2
BRANCH   1  18
ATOM     18  C   UNL     1      -1.845  51.770  -0.326  1.00  0.00     0.000 C 
BRANCH  18  19
ATOM     19  C   UNL     1      -1.529  51.885  -1.827  1.00  0.00     0.000 C 
BRANCH  19  20
ATOM     20  C   UNL     1      -0.407  50.913  -2.247  1.00  0.00     0.000 C 
BRANCH  20  21
ATOM     21  C   UNL     1       0.101  51.174  -3.675  1.00  0.00     0.000 C 
BRANCH  21  22
ATOM     22  C   UNL     1      -0.936  51.895  -4.565  1.00  0.00     0.000 C 
BRANCH  22  23
ATOM     23  C   UNL     1      -0.866  51.423  -6.029  1.00  0.00     0.000 C 
BRANCH  23  24
ATOM     24  C   UNL     1      -1.916  52.117  -6.922  1.00  0.00    -0.000 C 
BRANCH  24  25
ATOM     25  C   UNL     1      -3.275  51.395  -6.966  1.00  0.00    -0.000 C 
BRANCH  25  26
ATOM     26  C   UNL     1      -4.315  52.124  -7.830  1.00  0.00    -0.000 C 
BRANCH  26  27
ATOM     27  C   UNL     1      -4.194  51.725  -9.304  1.00  0.00    -0.000 C 
BRANCH  27  28
ATOM     28  C   UNL     1      -5.454  52.120 -10.084  1.00  0.00    -0.000 C 
BRANCH  28  29
ATOM     29  C   UNL     1      -6.724  51.648  -9.358  1.00  0.00    -0.000 C 
BRANCH  29  30
ATOM     30  C   UNL     1      -6.994  50.148  -9.555  1.00  0.00    -0.000 C 
BRANCH  30  31
ATOM     31  C   UNL     1      -8.309  49.696  -8.903  1.00  0.00    -0.003 C 
ATOM     32  C   UNL     1      -8.820  48.404  -9.536  1.00  0.00     0.004 C 
ENDBRANCH  30  31
ENDBRANCH  29  30
ENDBRANCH  28  29
ENDBRANCH  27  28
ENDBRANCH  26  27
ENDBRANCH  25  26
ENDBRANCH  24  25
ENDBRANCH  23  24
ENDBRANCH  22  23
ENDBRANCH  21  22
ENDBRANCH  20  21
ENDBRANCH  19  20
ENDBRANCH  18  19
ENDBRANCH   1  18
TORSDOF 28
ENDMDL
