MODEL 1
REMARK VINA RESULT:    61.458      0.000      0.000
REMARK INTER + INTRA:          87.911
REMARK INTER:                  88.404
REMARK INTRA:                  -0.493
REMARK UNBOUND:                -0.493
REMARK SMILES O=c1c(O[C@@H]2O[C@@H](CO)[C@@H](O)[C@@H](O)[C@@H]2O)c(-c2ccc(O)cc2)oc2cc(O)cc(O)c12
REMARK SMILES IDX 4 1 3 2 16 3 24 4 2 5 25 6 1 7 32 8 26 9 30 10 27 11 29 12
REMARK SMILES IDX 17 13 18 14 19 15 20 16 23 17 22 18 21 19 31 21 28 23 5 25
REMARK SMILES IDX 14 26 6 27 12 28 7 29 10 30 15 31 13 33 8 35 9 36 11 38
REMARK H PARENT 21 20 31 22 28 24 15 32 13 34 9 37 11 39
REMARK Flexibility Score: inf
ROOT
ATOM      1  O   UNL     1      -0.101   2.089  -1.518  1.00  0.00    -0.454 OA
ENDROOT
BRANCH   1   2
ATOM      2  C   UNL     1      -0.208   0.722  -1.255  1.00  0.00     0.214 A 
ATOM      3  C   UNL     1      -0.793   0.301  -0.043  1.00  0.00     0.180 A 
ATOM      4  O   UNL     1      -0.804  -0.983   0.287  1.00  0.00    -0.452 OA
ATOM      5  C   UNL     1       0.224  -0.262  -2.167  1.00  0.00     0.239 A 
ATOM      6  C   UNL     1      -0.337  -1.939  -0.508  1.00  0.00     0.146 A 
ATOM      7  O   UNL     1       0.578   0.075  -3.335  1.00  0.00    -0.285 OA
ATOM      8  C   UNL     1       0.208  -1.610  -1.777  1.00  0.00     0.111 A 
ATOM      9  C   UNL     1      -0.393  -3.271  -0.079  1.00  0.00     0.094 A 
ATOM     10  C   UNL     1       0.728  -2.651  -2.589  1.00  0.00     0.134 A 
ATOM     11  C   UNL     1       0.079  -4.302  -0.910  1.00  0.00     0.123 A 
ATOM     12  C   UNL     1       0.643  -3.985  -2.156  1.00  0.00     0.093 A 
BRANCH   3  13
ATOM     13  C   UNL     1      -1.395   1.263   0.910  1.00  0.00     0.021 A 
ATOM     14  C   UNL     1      -2.781   1.525   0.911  1.00  0.00     0.016 A 
ATOM     15  C   UNL     1      -3.318   2.496   1.768  1.00  0.00     0.047 A 
ATOM     16  C   UNL     1      -2.491   3.147   2.687  1.00  0.00     0.115 A 
ATOM     17  C   UNL     1      -0.570   1.952   1.816  1.00  0.00     0.016 A 
ATOM     18  C   UNL     1      -1.112   2.868   2.718  1.00  0.00     0.047 A 
BRANCH  16  19
ATOM     19  O   UNL     1      -3.049   4.091   3.552  1.00  0.00    -0.508 OA
ATOM     20  H   UNL     1      -3.808   3.847   4.175  1.00  0.00     0.293 HD
ENDBRANCH  16  19
ENDBRANCH   3  13
BRANCH  10  21
ATOM     21  O   UNL     1       1.313  -2.368  -3.819  1.00  0.00    -0.507 OA
ATOM     22  H   UNL     1       2.294  -2.103  -3.902  1.00  0.00     0.293 HD
ENDBRANCH  10  21
BRANCH  11  23
ATOM     23  O   UNL     1       0.044  -5.640  -0.483  1.00  0.00    -0.508 OA
ATOM     24  H   UNL     1      -0.706  -5.980   0.114  1.00  0.00     0.293 HD
ENDBRANCH  11  23
ENDBRANCH   1   2
BRANCH   1  25
ATOM     25  C   UNL     1      -0.891   2.871  -2.409  1.00  0.00     0.339 C 
ATOM     26  C   UNL     1      -0.145   4.173  -2.676  1.00  0.00     0.214 C 
ATOM     27  O   UNL     1      -1.088   2.218  -3.646  1.00  0.00    -0.332 OA
ATOM     28  C   UNL     1      -1.092   5.141  -3.397  1.00  0.00     0.180 C 
ATOM     29  C   UNL     1      -2.046   2.885  -4.457  1.00  0.00     0.179 C 
ATOM     30  C   UNL     1      -1.911   4.453  -4.542  1.00  0.00     0.177 C 
BRANCH  26  31
ATOM     31  O   UNL     1       1.000   3.961  -3.475  1.00  0.00    -0.384 OA
ATOM     32  H   UNL     1       0.940   4.539  -4.289  1.00  0.00     0.211 HD
ENDBRANCH  26  31
BRANCH  28  33
ATOM     33  O   UNL     1      -1.941   5.771  -2.476  1.00  0.00    -0.387 OA
ATOM     34  H   UNL     1      -2.536   5.067  -2.089  1.00  0.00     0.211 HD
ENDBRANCH  28  33
BRANCH  29  35
ATOM     35  C   UNL     1      -3.469   2.336  -4.171  1.00  0.00     0.191 C 
BRANCH  35  36
ATOM     36  O   UNL     1      -4.385   2.879  -5.079  1.00  0.00    -0.394 OA
ATOM     37  H   UNL     1      -3.851   3.402  -5.731  1.00  0.00     0.210 HD
ENDBRANCH  35  36
ENDBRANCH  29  35
BRANCH  30  38
ATOM     38  O   UNL     1      -3.185   5.072  -4.640  1.00  0.00    -0.387 OA
ATOM     39  H   UNL     1      -3.711   4.612  -5.351  1.00  0.00     0.211 HD
ENDBRANCH  30  38
ENDBRANCH   1  25
TORSDOF 11
ENDMDL
MODEL 2
REMARK VINA RESULT:    62.022      1.056      2.051
REMARK INTER + INTRA:          88.722
REMARK INTER:                  86.962
REMARK INTRA:                   1.761
REMARK UNBOUND:                -0.493
REMARK SMILES O=c1c(O[C@@H]2O[C@@H](CO)[C@@H](O)[C@@H](O)[C@@H]2O)c(-c2ccc(O)cc2)oc2cc(O)cc(O)c12
REMARK SMILES IDX 4 1 3 2 16 3 24 4 2 5 25 6 1 7 32 8 26 9 30 10 27 11 29 12
REMARK SMILES IDX 17 13 18 14 19 15 20 16 23 17 22 18 21 19 31 21 28 23 5 25
REMARK SMILES IDX 14 26 6 27 12 28 7 29 10 30 15 31 13 33 8 35 9 36 11 38
REMARK H PARENT 21 20 31 22 28 24 15 32 13 34 9 37 11 39
REMARK Flexibility Score: inf
ROOT
ATOM      1  O   UNL     1      -0.164   2.446  -1.553  1.00  0.00    -0.454 OA
ENDROOT
BRANCH   1   2
ATOM      2  C   UNL     1      -0.245   1.073  -1.308  1.00  0.00     0.214 A 
ATOM      3  C   UNL     1      -0.797   0.626  -0.090  1.00  0.00     0.180 A 
ATOM      4  O   UNL     1      -0.781  -0.663   0.220  1.00  0.00    -0.452 OA
ATOM      5  C   UNL     1       0.181   0.110  -2.244  1.00  0.00     0.239 A 
ATOM      6  C   UNL     1      -0.318  -1.601  -0.600  1.00  0.00     0.146 A 
ATOM      7  O   UNL     1       0.504   0.470  -3.414  1.00  0.00    -0.285 OA
ATOM      8  C   UNL     1       0.194  -1.244  -1.875  1.00  0.00     0.111 A 
ATOM      9  C   UNL     1      -0.345  -2.939  -0.189  1.00  0.00     0.094 A 
ATOM     10  C   UNL     1       0.711  -2.265  -2.714  1.00  0.00     0.134 A 
ATOM     11  C   UNL     1       0.124  -3.950  -1.046  1.00  0.00     0.123 A 
ATOM     12  C   UNL     1       0.655  -3.606  -2.299  1.00  0.00     0.093 A 
BRANCH   3  13
ATOM     13  C   UNL     1      -1.392   1.564   0.890  1.00  0.00     0.021 A 
ATOM     14  C   UNL     1      -0.587   2.278   1.803  1.00  0.00     0.016 A 
ATOM     15  C   UNL     1      -1.176   3.101   2.773  1.00  0.00     0.047 A 
ATOM     16  C   UNL     1      -2.562   3.284   2.783  1.00  0.00     0.115 A 
ATOM     17  C   UNL     1      -2.787   1.731   0.935  1.00  0.00     0.016 A 
ATOM     18  C   UNL     1      -3.371   2.604   1.854  1.00  0.00     0.047 A 
BRANCH  16  19
ATOM     19  O   UNL     1      -3.128   4.131   3.739  1.00  0.00    -0.508 OA
ATOM     20  H   UNL     1      -2.601   4.896   4.139  1.00  0.00     0.293 HD
ENDBRANCH  16  19
ENDBRANCH   3  13
BRANCH  10  21
ATOM     21  O   UNL     1       1.265  -1.955  -3.952  1.00  0.00    -0.507 OA
ATOM     22  H   UNL     1       2.239  -2.158  -4.174  1.00  0.00     0.293 HD
ENDBRANCH  10  21
BRANCH  11  23
ATOM     23  O   UNL     1       0.118  -5.294  -0.639  1.00  0.00    -0.508 OA
ATOM     24  H   UNL     1      -0.466  -5.606   0.133  1.00  0.00     0.293 HD
ENDBRANCH  11  23
ENDBRANCH   1   2
BRANCH   1  25
ATOM     25  C   UNL     1      -0.698   3.168  -2.659  1.00  0.00     0.339 C 
ATOM     26  C   UNL     1      -1.070   2.161  -3.740  1.00  0.00     0.214 C 
ATOM     27  O   UNL     1      -1.865   3.881  -2.304  1.00  0.00    -0.332 OA
ATOM     28  C   UNL     1      -1.379   2.923  -5.034  1.00  0.00     0.180 C 
ATOM     29  C   UNL     1      -2.281   4.771  -3.332  1.00  0.00     0.179 C 
ATOM     30  C   UNL     1      -2.271   4.190  -4.798  1.00  0.00     0.177 C 
BRANCH  26  31
ATOM     31  O   UNL     1      -2.198   1.395  -3.370  1.00  0.00    -0.384 OA
ATOM     32  H   UNL     1      -2.262   0.599  -3.971  1.00  0.00     0.211 HD
ENDBRANCH  26  31
BRANCH  28  33
ATOM     33  O   UNL     1      -0.191   3.257  -5.701  1.00  0.00    -0.387 OA
ATOM     34  H   UNL     1      -0.175   4.252  -5.800  1.00  0.00     0.211 HD
ENDBRANCH  28  33
BRANCH  29  35
ATOM     35  C   UNL     1      -1.618   6.161  -3.143  1.00  0.00     0.191 C 
BRANCH  35  36
ATOM     36  O   UNL     1      -2.600   7.139  -2.947  1.00  0.00    -0.394 OA
ATOM     37  H   UNL     1      -2.325   7.920  -3.493  1.00  0.00     0.210 HD
ENDBRANCH  35  36
ENDBRANCH  29  35
BRANCH  30  38
ATOM     38  O   UNL     1      -1.918   5.191  -5.742  1.00  0.00    -0.387 OA
ATOM     39  H   UNL     1      -0.971   5.049  -6.020  1.00  0.00     0.211 HD
ENDBRANCH  30  38
ENDBRANCH   1  25
TORSDOF 11
ENDMDL
