MODEL 1
REMARK VINA RESULT:    36.236      0.000      0.000
REMARK INTER + INTRA:          50.874
REMARK INTER:                  50.005
REMARK INTRA:                   0.869
REMARK UNBOUND:                 0.869
REMARK SMILES CC[C@H](CC[C@H](C)[C@H]1CC[C@@H]2[C@H]3CC=C4C[C@H](O)CC[C@]4(C)[C@@H]3CC[C@]21C)C(C)C
REMARK SMILES IDX 5 1 4 2 3 3 2 4 1 5 28 6 29 7 30 8 6 9 7 10 8 11 9 12 26 13
REMARK SMILES IDX 10 14 11 15 25 16 27 17 12 18 24 19 23 20 13 21 21 22 14 23
REMARK SMILES IDX 15 24 20 25 22 26 16 27 19 28 17 29 18 30
REMARK H PARENT 18 31
REMARK Flexibility Score: inf
ROOT
ATOM      1  C   UNL     1       1.988  46.579  50.235  1.00  0.00     0.004 C 
ENDROOT
BRANCH   1   2
ATOM      2  C   UNL     1       2.147  48.024  49.724  1.00  0.00     0.004 C 
BRANCH   2   3
ATOM      3  C   UNL     1       2.862  48.084  48.342  1.00  0.00    -0.009 C 
BRANCH   3   4
ATOM      4  C   UNL     1       4.338  47.612  48.454  1.00  0.00     0.000 C 
ATOM      5  C   UNL     1       5.187  48.038  47.254  1.00  0.00     0.004 C 
ENDBRANCH   3   4
BRANCH   3   6
ATOM      6  C   UNL     1       2.060  47.295  47.251  1.00  0.00    -0.014 C 
ATOM      7  C   UNL     1       0.543  47.246  47.509  1.00  0.00     0.007 C 
ATOM      8  C   UNL     1       2.611  45.872  47.064  1.00  0.00     0.007 C 
ENDBRANCH   3   6
ENDBRANCH   2   3
ENDBRANCH   1   2
BRANCH   1   9
ATOM      9  C   UNL     1       0.556  46.022  50.003  1.00  0.00    -0.011 C 
ATOM     10  C   UNL     1      -0.527  46.947  50.596  1.00  0.00     0.008 C 
BRANCH   9  11
ATOM     11  C   UNL     1       0.336  44.513  50.388  1.00  0.00    -0.002 C 
ATOM     12  C   UNL     1      -0.307  43.707  49.223  1.00  0.00     0.005 C 
ATOM     13  C   UNL     1       1.537  43.617  50.842  1.00  0.00    -0.026 C 
ATOM     14  C   UNL     1       0.711  42.642  48.781  1.00  0.00     0.005 C 
ATOM     15  C   UNL     1       1.996  42.998  49.518  1.00  0.00    -0.001 C 
ATOM     16  C   UNL     1       2.765  44.294  51.499  1.00  0.00     0.007 C 
ATOM     17  C   UNL     1       0.955  42.556  51.837  1.00  0.00     0.012 C 
ATOM     18  C   UNL     1       3.065  41.895  49.696  1.00  0.00     0.000 C 
ATOM     19  C   UNL     1       3.913  43.283  51.723  1.00  0.00     0.005 C 
ATOM     20  C   UNL     1       4.303  42.493  50.429  1.00  0.00     0.003 C 
ATOM     21  C   UNL     1       3.522  41.377  48.326  1.00  0.00     0.031 C 
ATOM     22  C   UNL     1       5.448  41.414  50.643  1.00  0.00    -0.008 C 
ATOM     23  C   UNL     1       4.622  40.373  48.474  1.00  0.00    -0.027 C 
ATOM     24  C   UNL     1       5.517  40.401  49.484  1.00  0.00    -0.065 C 
ATOM     25  C   UNL     1       5.224  40.596  51.955  1.00  0.00     0.014 C 
ATOM     26  C   UNL     1       6.801  42.169  50.724  1.00  0.00     0.016 C 
ATOM     27  C   UNL     1       6.481  39.239  49.619  1.00  0.00     0.063 C 
ATOM     28  C   UNL     1       6.178  39.394  52.121  1.00  0.00     0.033 C 
ATOM     29  C   UNL     1       6.167  38.459  50.899  1.00  0.00     0.118 C 
BRANCH  29  30
ATOM     30  O   UNL     1       4.915  37.832  50.773  1.00  0.00    -0.393 OA
ATOM     31  H   UNL     1       4.275  38.530  50.476  1.00  0.00     0.210 HD
ENDBRANCH  29  30
ENDBRANCH   9  11
ENDBRANCH   1   9
TORSDOF 7
ENDMDL
