MODEL 1
REMARK VINA RESULT:     7.892      0.000      0.000
REMARK INTER + INTRA:          20.546
REMARK INTER:                  20.811
REMARK INTRA:                  -0.265
REMARK UNBOUND:                -0.265
REMARK SMILES CCCCCCCCCCCCCCCCCCCCCCCCCCCCCC(=O)[O-]
REMARK SMILES IDX 16 1 17 2 18 3 19 4 20 5 21 6 22 7 23 8 24 9 25 10 26 11
REMARK SMILES IDX 27 12 28 13 29 14 30 15 31 16 32 17 15 18 14 19 13 20 12 21
REMARK SMILES IDX 11 22 10 23 9 24 8 25 7 26 6 27 5 28 4 29 3 30 2 31 1 32
REMARK H PARENT
REMARK Flexibility Score: inf
ROOT
ATOM      1  C   UNL     1      23.617  51.931  26.856  1.00  0.00     0.000 C 
ENDROOT
BRANCH   1   2
ATOM      2  C   UNL     1      22.470  52.796  27.413  1.00  0.00     0.000 C 
BRANCH   2   3
ATOM      3  C   UNL     1      22.284  52.619  28.930  1.00  0.00     0.000 C 
BRANCH   3   4
ATOM      4  C   UNL     1      21.434  53.751  29.539  1.00  0.00     0.000 C 
BRANCH   4   5
ATOM      5  C   UNL     1      21.293  53.635  31.070  1.00  0.00     0.000 C 
BRANCH   5   6
ATOM      6  C   UNL     1      21.056  54.984  31.778  1.00  0.00     0.000 C 
BRANCH   6   7
ATOM      7  C   UNL     1      20.919  54.901  33.308  1.00  0.00     0.000 C 
BRANCH   7   8
ATOM      8  C   UNL     1      20.370  53.546  33.778  1.00  0.00     0.000 C 
BRANCH   8   9
ATOM      9  C   UNL     1      21.421  52.764  34.583  1.00  0.00     0.000 C 
BRANCH   9  10
ATOM     10  C   UNL     1      21.990  53.588  35.752  1.00  0.00     0.000 C 
BRANCH  10  11
ATOM     11  C   UNL     1      22.977  54.671  35.281  1.00  0.00     0.000 C 
BRANCH  11  12
ATOM     12  C   UNL     1      24.365  54.102  34.949  1.00  0.00     0.000 C 
BRANCH  12  13
ATOM     13  C   UNL     1      25.083  54.885  33.838  1.00  0.00     0.006 C 
BRANCH  13  14
ATOM     14  C   UNL     1      24.466  54.630  32.457  1.00  0.00     0.053 C 
BRANCH  14  15
ATOM     15  C   UNL     1      25.515  54.338  31.428  1.00  0.00     0.041 C 
ATOM     16  O   UNL     1      25.268  53.555  30.474  1.00  0.00    -0.550 OA
ATOM     17  O   UNL     1      26.779  54.900  31.544  1.00  0.00    -0.550 OA
ENDBRANCH  14  15
ENDBRANCH  13  14
ENDBRANCH  12  13
ENDBRANCH  11  12
ENDBRANCH  10  11
ENDBRANCH   9  10
ENDBRANCH   8   9
ENDBRANCH   7   8
ENDBRANCH   6   7
ENDBRANCH   5   6
ENDBRANCH   4   5
ENDBRANCH   3   4
ENDBRANCH   2   3
ENDBRANCH   1   2
BRANCH   1  18
ATOM     18  C   UNL     1      23.605  51.867  25.318  1.00  0.00     0.000 C 
BRANCH  18  19
ATOM     19  C   UNL     1      24.971  51.433  24.752  1.00  0.00     0.000 C 
BRANCH  19  20
ATOM     20  C   UNL     1      25.710  50.437  25.663  1.00  0.00     0.000 C 
BRANCH  20  21
ATOM     21  C   UNL     1      26.966  49.803  25.042  1.00  0.00     0.000 C 
BRANCH  21  22
ATOM     22  C   UNL     1      27.873  49.125  26.084  1.00  0.00     0.000 C 
BRANCH  22  23
ATOM     23  C   UNL     1      29.224  48.726  25.470  1.00  0.00     0.000 C 
BRANCH  23  24
ATOM     24  C   UNL     1      30.379  48.732  26.488  1.00  0.00    -0.000 C 
BRANCH  24  25
ATOM     25  C   UNL     1      31.685  48.076  26.003  1.00  0.00    -0.000 C 
BRANCH  25  26
ATOM     26  C   UNL     1      32.345  47.187  27.072  1.00  0.00    -0.000 C 
BRANCH  26  27
ATOM     27  C   UNL     1      33.239  46.100  26.455  1.00  0.00    -0.000 C 
BRANCH  27  28
ATOM     28  C   UNL     1      32.577  45.401  25.254  1.00  0.00    -0.000 C 
BRANCH  28  29
ATOM     29  C   UNL     1      32.565  46.279  23.992  1.00  0.00    -0.000 C 
BRANCH  29  30
ATOM     30  C   UNL     1      33.849  47.114  23.843  1.00  0.00    -0.000 C 
BRANCH  30  31
ATOM     31  C   UNL     1      34.452  47.020  22.433  1.00  0.00    -0.003 C 
ATOM     32  C   UNL     1      35.601  48.005  22.213  1.00  0.00     0.004 C 
ENDBRANCH  30  31
ENDBRANCH  29  30
ENDBRANCH  28  29
ENDBRANCH  27  28
ENDBRANCH  26  27
ENDBRANCH  25  26
ENDBRANCH  24  25
ENDBRANCH  23  24
ENDBRANCH  22  23
ENDBRANCH  21  22
ENDBRANCH  20  21
ENDBRANCH  19  20
ENDBRANCH  18  19
ENDBRANCH   1  18
TORSDOF 28
ENDMDL
MODEL 2
REMARK VINA RESULT:     8.215      4.864     14.670
REMARK INTER + INTRA:          21.396
REMARK INTER:                  22.448
REMARK INTRA:                  -1.051
REMARK UNBOUND:                -0.265
REMARK SMILES CCCCCCCCCCCCCCCCCCCCCCCCCCCCCC(=O)[O-]
REMARK SMILES IDX 16 1 17 2 18 3 19 4 20 5 21 6 22 7 23 8 24 9 25 10 26 11
REMARK SMILES IDX 27 12 28 13 29 14 30 15 31 16 32 17 15 18 14 19 13 20 12 21
REMARK SMILES IDX 11 22 10 23 9 24 8 25 7 26 6 27 5 28 4 29 3 30 2 31 1 32
REMARK H PARENT
REMARK Flexibility Score: inf
ROOT
ATOM      1  C   UNL     1      27.620  49.229  26.435  1.00  0.00     0.000 C 
ENDROOT
BRANCH   1   2
ATOM      2  C   UNL     1      28.775  48.594  25.636  1.00  0.00     0.000 C 
BRANCH   2   3
ATOM      3  C   UNL     1      30.132  48.747  26.344  1.00  0.00     0.000 C 
BRANCH   3   4
ATOM      4  C   UNL     1      31.096  47.599  25.989  1.00  0.00     0.000 C 
BRANCH   4   5
ATOM      5  C   UNL     1      32.386  47.618  26.834  1.00  0.00     0.000 C 
BRANCH   5   6
ATOM      6  C   UNL     1      33.558  46.843  26.200  1.00  0.00     0.000 C 
BRANCH   6   7
ATOM      7  C   UNL     1      33.168  45.525  25.508  1.00  0.00     0.000 C 
BRANCH   7   8
ATOM      8  C   UNL     1      32.444  45.752  24.173  1.00  0.00     0.000 C 
BRANCH   8   9
ATOM      9  C   UNL     1      33.439  45.854  23.005  1.00  0.00     0.000 C 
BRANCH   9  10
ATOM     10  C   UNL     1      33.842  47.311  22.710  1.00  0.00     0.000 C 
BRANCH  10  11
ATOM     11  C   UNL     1      35.365  47.480  22.561  1.00  0.00     0.000 C 
BRANCH  11  12
ATOM     12  C   UNL     1      36.140  46.205  22.930  1.00  0.00     0.000 C 
BRANCH  12  13
ATOM     13  C   UNL     1      37.562  46.496  23.439  1.00  0.00     0.006 C 
BRANCH  13  14
ATOM     14  C   UNL     1      38.080  45.394  24.372  1.00  0.00     0.053 C 
BRANCH  14  15
ATOM     15  C   UNL     1      39.425  44.893  23.943  1.00  0.00     0.041 C 
ATOM     16  O   UNL     1      39.947  45.306  22.875  1.00  0.00    -0.550 OA
ATOM     17  O   UNL     1      40.086  43.938  24.704  1.00  0.00    -0.550 OA
ENDBRANCH  14  15
ENDBRANCH  13  14
ENDBRANCH  12  13
ENDBRANCH  11  12
ENDBRANCH  10  11
ENDBRANCH   9  10
ENDBRANCH   8   9
ENDBRANCH   7   8
ENDBRANCH   6   7
ENDBRANCH   5   6
ENDBRANCH   4   5
ENDBRANCH   3   4
ENDBRANCH   2   3
ENDBRANCH   1   2
BRANCH   1  18
ATOM     18  C   UNL     1      26.716  50.109  25.554  1.00  0.00     0.000 C 
BRANCH  18  19
ATOM     19  C   UNL     1      25.523  50.678  26.345  1.00  0.00     0.000 C 
BRANCH  19  20
ATOM     20  C   UNL     1      24.389  51.187  25.438  1.00  0.00     0.000 C 
BRANCH  20  21
ATOM     21  C   UNL     1      23.060  51.469  26.160  1.00  0.00     0.000 C 
BRANCH  21  22
ATOM     22  C   UNL     1      23.211  52.453  27.333  1.00  0.00     0.000 C 
BRANCH  22  23
ATOM     23  C   UNL     1      21.855  52.745  27.994  1.00  0.00     0.000 C 
BRANCH  23  24
ATOM     24  C   UNL     1      21.945  52.896  29.523  1.00  0.00    -0.000 C 
BRANCH  24  25
ATOM     25  C   UNL     1      21.245  54.139  30.102  1.00  0.00    -0.000 C 
BRANCH  25  26
ATOM     26  C   UNL     1      21.501  54.327  31.608  1.00  0.00    -0.000 C 
BRANCH  26  27
ATOM     27  C   UNL     1      20.201  54.303  32.428  1.00  0.00    -0.000 C 
BRANCH  27  28
ATOM     28  C   UNL     1      20.437  54.598  33.920  1.00  0.00    -0.000 C 
BRANCH  28  29
ATOM     29  C   UNL     1      21.340  53.552  34.593  1.00  0.00    -0.000 C 
BRANCH  29  30
ATOM     30  C   UNL     1      22.171  54.144  35.744  1.00  0.00    -0.000 C 
BRANCH  30  31
ATOM     31  C   UNL     1      23.320  55.033  35.245  1.00  0.00    -0.003 C 
ATOM     32  C   UNL     1      24.093  54.408  34.083  1.00  0.00     0.004 C 
ENDBRANCH  30  31
ENDBRANCH  29  30
ENDBRANCH  28  29
ENDBRANCH  27  28
ENDBRANCH  26  27
ENDBRANCH  25  26
ENDBRANCH  24  25
ENDBRANCH  23  24
ENDBRANCH  22  23
ENDBRANCH  21  22
ENDBRANCH  20  21
ENDBRANCH  19  20
ENDBRANCH  18  19
ENDBRANCH   1  18
TORSDOF 28
ENDMDL
MODEL 3
REMARK VINA RESULT:     8.650      2.675      6.403
REMARK INTER + INTRA:          22.544
REMARK INTER:                  23.735
REMARK INTRA:                  -1.191
REMARK UNBOUND:                -0.265
REMARK SMILES CCCCCCCCCCCCCCCCCCCCCCCCCCCCCC(=O)[O-]
REMARK SMILES IDX 16 1 17 2 18 3 19 4 20 5 21 6 22 7 23 8 24 9 25 10 26 11
REMARK SMILES IDX 27 12 28 13 29 14 30 15 31 16 32 17 15 18 14 19 13 20 12 21
REMARK SMILES IDX 11 22 10 23 9 24 8 25 7 26 6 27 5 28 4 29 3 30 2 31 1 32
REMARK H PARENT
REMARK Flexibility Score: inf
ROOT
ATOM      1  C   UNL     1      29.925  47.865  26.077  1.00  0.00     0.000 C 
ENDROOT
BRANCH   1   2
ATOM      2  C   UNL     1      28.726  48.447  25.302  1.00  0.00     0.000 C 
BRANCH   2   3
ATOM      3  C   UNL     1      27.955  49.499  26.117  1.00  0.00     0.000 C 
BRANCH   3   4
ATOM      4  C   UNL     1      26.468  49.556  25.717  1.00  0.00     0.000 C 
BRANCH   4   5
ATOM      5  C   UNL     1      26.017  50.968  25.292  1.00  0.00     0.000 C 
BRANCH   5   6
ATOM      6  C   UNL     1      24.500  51.207  25.434  1.00  0.00     0.000 C 
BRANCH   6   7
ATOM      7  C   UNL     1      23.954  51.089  26.867  1.00  0.00     0.000 C 
BRANCH   7   8
ATOM      8  C   UNL     1      22.855  52.120  27.167  1.00  0.00     0.000 C 
BRANCH   8   9
ATOM      9  C   UNL     1      22.394  52.038  28.632  1.00  0.00     0.000 C 
BRANCH   9  10
ATOM     10  C   UNL     1      22.782  53.293  29.434  1.00  0.00     0.000 C 
BRANCH  10  11
ATOM     11  C   UNL     1      23.804  52.988  30.544  1.00  0.00     0.000 C 
BRANCH  11  12
ATOM     12  C   UNL     1      24.414  54.261  31.152  1.00  0.00     0.000 C 
BRANCH  12  13
ATOM     13  C   UNL     1      23.924  54.534  32.583  1.00  0.00     0.006 C 
BRANCH  13  14
ATOM     14  C   UNL     1      22.403  54.720  32.650  1.00  0.00     0.053 C 
BRANCH  14  15
ATOM     15  C   UNL     1      21.856  54.332  33.989  1.00  0.00     0.041 C 
ATOM     16  O   UNL     1      22.633  54.009  34.924  1.00  0.00    -0.550 OA
ATOM     17  O   UNL     1      20.483  54.288  34.193  1.00  0.00    -0.550 OA
ENDBRANCH  14  15
ENDBRANCH  13  14
ENDBRANCH  12  13
ENDBRANCH  11  12
ENDBRANCH  10  11
ENDBRANCH   9  10
ENDBRANCH   8   9
ENDBRANCH   7   8
ENDBRANCH   6   7
ENDBRANCH   5   6
ENDBRANCH   4   5
ENDBRANCH   3   4
ENDBRANCH   2   3
ENDBRANCH   1   2
BRANCH   1  18
ATOM     18  C   UNL     1      31.252  48.541  25.690  1.00  0.00     0.000 C 
BRANCH  18  19
ATOM     19  C   UNL     1      32.345  48.307  26.751  1.00  0.00     0.000 C 
BRANCH  19  20
ATOM     20  C   UNL     1      32.596  46.816  27.036  1.00  0.00     0.000 C 
BRANCH  20  21
ATOM     21  C   UNL     1      33.481  46.100  26.000  1.00  0.00     0.000 C 
BRANCH  21  22
ATOM     22  C   UNL     1      32.670  45.444  24.869  1.00  0.00     0.000 C 
BRANCH  22  23
ATOM     23  C   UNL     1      33.194  45.871  23.489  1.00  0.00     0.000 C 
BRANCH  23  24
ATOM     24  C   UNL     1      34.015  47.173  23.528  1.00  0.00    -0.000 C 
BRANCH  24  25
ATOM     25  C   UNL     1      34.823  47.477  22.253  1.00  0.00    -0.000 C 
BRANCH  25  26
ATOM     26  C   UNL     1      36.303  47.067  22.366  1.00  0.00    -0.000 C 
BRANCH  26  27
ATOM     27  C   UNL     1      36.632  46.444  23.733  1.00  0.00    -0.000 C 
BRANCH  27  28
ATOM     28  C   UNL     1      37.584  45.240  23.619  1.00  0.00    -0.000 C 
BRANCH  28  29
ATOM     29  C   UNL     1      38.931  45.611  22.977  1.00  0.00    -0.000 C 
BRANCH  29  30
ATOM     30  C   UNL     1      40.109  44.831  23.585  1.00  0.00    -0.000 C 
BRANCH  30  31
ATOM     31  C   UNL     1      39.822  44.349  25.015  1.00  0.00    -0.003 C 
ATOM     32  C   UNL     1      39.337  45.471  25.934  1.00  0.00     0.004 C 
ENDBRANCH  30  31
ENDBRANCH  29  30
ENDBRANCH  28  29
ENDBRANCH  27  28
ENDBRANCH  26  27
ENDBRANCH  25  26
ENDBRANCH  24  25
ENDBRANCH  23  24
ENDBRANCH  22  23
ENDBRANCH  21  22
ENDBRANCH  20  21
ENDBRANCH  19  20
ENDBRANCH  18  19
ENDBRANCH   1  18
TORSDOF 28
ENDMDL
MODEL 4
REMARK VINA RESULT:     9.024      4.910     14.330
REMARK INTER + INTRA:          23.530
REMARK INTER:                  24.862
REMARK INTRA:                  -1.332
REMARK UNBOUND:                -0.265
REMARK SMILES CCCCCCCCCCCCCCCCCCCCCCCCCCCCCC(=O)[O-]
REMARK SMILES IDX 16 1 17 2 18 3 19 4 20 5 21 6 22 7 23 8 24 9 25 10 26 11
REMARK SMILES IDX 27 12 28 13 29 14 30 15 31 16 32 17 15 18 14 19 13 20 12 21
REMARK SMILES IDX 11 22 10 23 9 24 8 25 7 26 6 27 5 28 4 29 3 30 2 31 1 32
REMARK H PARENT
REMARK Flexibility Score: inf
ROOT
ATOM      1  C   UNL     1      27.778  49.003  24.902  1.00  0.00     0.000 C 
ENDROOT
BRANCH   1   2
ATOM      2  C   UNL     1      28.321  49.010  26.344  1.00  0.00     0.000 C 
BRANCH   2   3
ATOM      3  C   UNL     1      29.836  49.269  26.400  1.00  0.00     0.000 C 
BRANCH   3   4
ATOM      4  C   UNL     1      30.647  47.993  26.098  1.00  0.00     0.000 C 
BRANCH   4   5
ATOM      5  C   UNL     1      32.086  48.056  26.646  1.00  0.00     0.000 C 
BRANCH   5   6
ATOM      6  C   UNL     1      32.924  46.797  26.344  1.00  0.00     0.000 C 
BRANCH   6   7
ATOM      7  C   UNL     1      32.180  45.690  25.577  1.00  0.00     0.000 C 
BRANCH   7   8
ATOM      8  C   UNL     1      32.594  45.615  24.099  1.00  0.00     0.000 C 
BRANCH   8   9
ATOM      9  C   UNL     1      33.627  46.700  23.751  1.00  0.00     0.000 C 
BRANCH   9  10
ATOM     10  C   UNL     1      34.033  46.661  22.267  1.00  0.00     0.000 C 
BRANCH  10  11
ATOM     11  C   UNL     1      35.488  47.115  22.045  1.00  0.00     0.000 C 
BRANCH  11  12
ATOM     12  C   UNL     1      36.371  46.895  23.282  1.00  0.00     0.000 C 
BRANCH  12  13
ATOM     13  C   UNL     1      37.286  45.666  23.154  1.00  0.00     0.006 C 
BRANCH  13  14
ATOM     14  C   UNL     1      38.212  45.503  24.366  1.00  0.00     0.053 C 
BRANCH  14  15
ATOM     15  C   UNL     1      39.531  44.907  23.981  1.00  0.00     0.041 C 
ATOM     16  O   UNL     1      40.125  44.119  24.762  1.00  0.00    -0.550 OA
ATOM     17  O   UNL     1      40.124  45.253  22.775  1.00  0.00    -0.550 OA
ENDBRANCH  14  15
ENDBRANCH  13  14
ENDBRANCH  12  13
ENDBRANCH  11  12
ENDBRANCH  10  11
ENDBRANCH   9  10
ENDBRANCH   8   9
ENDBRANCH   7   8
ENDBRANCH   6   7
ENDBRANCH   5   6
ENDBRANCH   4   5
ENDBRANCH   3   4
ENDBRANCH   2   3
ENDBRANCH   1   2
BRANCH   1  18
ATOM     18  C   UNL     1      26.490  49.834  24.759  1.00  0.00     0.000 C 
BRANCH  18  19
ATOM     19  C   UNL     1      25.947  50.289  26.127  1.00  0.00     0.000 C 
BRANCH  19  20
ATOM     20  C   UNL     1      24.441  50.603  26.100  1.00  0.00     0.000 C 
BRANCH  20  21
ATOM     21  C   UNL     1      24.076  51.970  25.495  1.00  0.00     0.000 C 
BRANCH  21  22
ATOM     22  C   UNL     1      23.296  52.869  26.471  1.00  0.00     0.000 C 
BRANCH  22  23
ATOM     23  C   UNL     1      22.992  52.132  27.784  1.00  0.00     0.000 C 
BRANCH  23  24
ATOM     24  C   UNL     1      21.792  52.721  28.547  1.00  0.00    -0.000 C 
BRANCH  24  25
ATOM     25  C   UNL     1      21.982  52.853  30.069  1.00  0.00    -0.000 C 
BRANCH  25  26
ATOM     26  C   UNL     1      23.296  53.557  30.453  1.00  0.00    -0.000 C 
BRANCH  26  27
ATOM     27  C   UNL     1      23.098  54.592  31.572  1.00  0.00    -0.000 C 
BRANCH  27  28
ATOM     28  C   UNL     1      24.397  54.884  32.344  1.00  0.00    -0.000 C 
BRANCH  28  29
ATOM     29  C   UNL     1      24.198  54.854  33.868  1.00  0.00    -0.000 C 
BRANCH  29  30
ATOM     30  C   UNL     1      23.037  53.939  34.293  1.00  0.00    -0.000 C 
BRANCH  30  31
ATOM     31  C   UNL     1      21.691  54.678  34.343  1.00  0.00    -0.003 C 
ATOM     32  C   UNL     1      20.549  53.799  34.853  1.00  0.00     0.004 C 
ENDBRANCH  30  31
ENDBRANCH  29  30
ENDBRANCH  28  29
ENDBRANCH  27  28
ENDBRANCH  26  27
ENDBRANCH  25  26
ENDBRANCH  24  25
ENDBRANCH  23  24
ENDBRANCH  22  23
ENDBRANCH  21  22
ENDBRANCH  20  21
ENDBRANCH  19  20
ENDBRANCH  18  19
ENDBRANCH   1  18
TORSDOF 28
ENDMDL
MODEL 5
REMARK VINA RESULT:     9.660      2.067      5.692
REMARK INTER + INTRA:          25.206
REMARK INTER:                  26.132
REMARK INTRA:                  -0.925
REMARK UNBOUND:                -0.265
REMARK SMILES CCCCCCCCCCCCCCCCCCCCCCCCCCCCCC(=O)[O-]
REMARK SMILES IDX 16 1 17 2 18 3 19 4 20 5 21 6 22 7 23 8 24 9 25 10 26 11
REMARK SMILES IDX 27 12 28 13 29 14 30 15 31 16 32 17 15 18 14 19 13 20 12 21
REMARK SMILES IDX 11 22 10 23 9 24 8 25 7 26 6 27 5 28 4 29 3 30 2 31 1 32
REMARK H PARENT
REMARK Flexibility Score: inf
ROOT
ATOM      1  C   UNL     1      29.051  48.797  25.201  1.00  0.00     0.000 C 
ENDROOT
BRANCH   1   2
ATOM      2  C   UNL     1      27.941  49.485  26.018  1.00  0.00     0.000 C 
BRANCH   2   3
ATOM      3  C   UNL     1      26.636  49.643  25.219  1.00  0.00     0.000 C 
BRANCH   3   4
ATOM      4  C   UNL     1      25.643  50.588  25.925  1.00  0.00     0.000 C 
BRANCH   4   5
ATOM      5  C   UNL     1      24.922  51.535  24.946  1.00  0.00     0.000 C 
BRANCH   5   6
ATOM      6  C   UNL     1      23.492  51.913  25.384  1.00  0.00     0.000 C 
BRANCH   6   7
ATOM      7  C   UNL     1      23.404  52.716  26.692  1.00  0.00     0.000 C 
BRANCH   7   8
ATOM      8  C   UNL     1      22.786  51.906  27.842  1.00  0.00     0.000 C 
BRANCH   8   9
ATOM      9  C   UNL     1      21.535  52.599  28.408  1.00  0.00     0.000 C 
BRANCH   9  10
ATOM     10  C   UNL     1      21.835  53.366  29.709  1.00  0.00     0.000 C 
BRANCH  10  11
ATOM     11  C   UNL     1      20.554  53.850  30.413  1.00  0.00     0.000 C 
BRANCH  11  12
ATOM     12  C   UNL     1      20.848  54.755  31.619  1.00  0.00     0.000 C 
BRANCH  12  13
ATOM     13  C   UNL     1      22.236  54.502  32.232  1.00  0.00     0.006 C 
BRANCH  13  14
ATOM     14  C   UNL     1      22.372  55.116  33.632  1.00  0.00     0.053 C 
BRANCH  14  15
ATOM     15  C   UNL     1      23.228  54.273  34.526  1.00  0.00     0.041 C 
ATOM     16  O   UNL     1      22.710  53.611  35.463  1.00  0.00    -0.550 OA
ATOM     17  O   UNL     1      24.605  54.249  34.350  1.00  0.00    -0.550 OA
ENDBRANCH  14  15
ENDBRANCH  13  14
ENDBRANCH  12  13
ENDBRANCH  11  12
ENDBRANCH  10  11
ENDBRANCH   9  10
ENDBRANCH   8   9
ENDBRANCH   7   8
ENDBRANCH   6   7
ENDBRANCH   5   6
ENDBRANCH   4   5
ENDBRANCH   3   4
ENDBRANCH   2   3
ENDBRANCH   1   2
BRANCH   1  18
ATOM     18  C   UNL     1      29.943  47.894  26.072  1.00  0.00     0.000 C 
BRANCH  18  19
ATOM     19  C   UNL     1      31.376  48.447  26.192  1.00  0.00     0.000 C 
BRANCH  19  20
ATOM     20  C   UNL     1      32.053  48.077  27.523  1.00  0.00     0.000 C 
BRANCH  20  21
ATOM     21  C   UNL     1      33.155  47.008  27.413  1.00  0.00     0.000 C 
BRANCH  21  22
ATOM     22  C   UNL     1      32.746  45.814  26.534  1.00  0.00     0.000 C 
BRANCH  22  23
ATOM     23  C   UNL     1      33.224  45.999  25.085  1.00  0.00     0.000 C 
BRANCH  23  24
ATOM     24  C   UNL     1      32.180  45.566  24.041  1.00  0.00    -0.000 C 
BRANCH  24  25
ATOM     25  C   UNL     1      32.585  45.795  22.573  1.00  0.00    -0.000 C 
BRANCH  25  26
ATOM     26  C   UNL     1      34.108  45.902  22.378  1.00  0.00    -0.000 C 
BRANCH  26  27
ATOM     27  C   UNL     1      34.609  47.352  22.490  1.00  0.00    -0.000 C 
BRANCH  27  28
ATOM     28  C   UNL     1      35.951  47.458  23.236  1.00  0.00    -0.000 C 
BRANCH  28  29
ATOM     29  C   UNL     1      36.216  46.250  24.149  1.00  0.00    -0.000 C 
BRANCH  29  30
ATOM     30  C   UNL     1      37.704  46.099  24.510  1.00  0.00    -0.000 C 
BRANCH  30  31
ATOM     31  C   UNL     1      38.316  44.802  23.960  1.00  0.00    -0.003 C 
ATOM     32  C   UNL     1      39.838  44.762  24.089  1.00  0.00     0.004 C 
ENDBRANCH  30  31
ENDBRANCH  29  30
ENDBRANCH  28  29
ENDBRANCH  27  28
ENDBRANCH  26  27
ENDBRANCH  25  26
ENDBRANCH  24  25
ENDBRANCH  23  24
ENDBRANCH  22  23
ENDBRANCH  21  22
ENDBRANCH  20  21
ENDBRANCH  19  20
ENDBRANCH  18  19
ENDBRANCH   1  18
TORSDOF 28
ENDMDL
MODEL 6
REMARK VINA RESULT:     9.904      2.877      6.118
REMARK INTER + INTRA:          25.851
REMARK INTER:                  25.802
REMARK INTRA:                   0.049
REMARK UNBOUND:                -0.265
REMARK SMILES CCCCCCCCCCCCCCCCCCCCCCCCCCCCCC(=O)[O-]
REMARK SMILES IDX 16 1 17 2 18 3 19 4 20 5 21 6 22 7 23 8 24 9 25 10 26 11
REMARK SMILES IDX 27 12 28 13 29 14 30 15 31 16 32 17 15 18 14 19 13 20 12 21
REMARK SMILES IDX 11 22 10 23 9 24 8 25 7 26 6 27 5 28 4 29 3 30 2 31 1 32
REMARK H PARENT
REMARK Flexibility Score: inf
ROOT
ATOM      1  C   UNL     1      28.854  49.055  25.622  1.00  0.00     0.000 C 
ENDROOT
BRANCH   1   2
ATOM      2  C   UNL     1      27.560  49.651  26.209  1.00  0.00     0.000 C 
BRANCH   2   3
ATOM      3  C   UNL     1      26.546  50.041  25.120  1.00  0.00     0.000 C 
BRANCH   3   4
ATOM      4  C   UNL     1      25.243  50.601  25.724  1.00  0.00     0.000 C 
BRANCH   4   5
ATOM      5  C   UNL     1      24.793  51.916  25.058  1.00  0.00     0.000 C 
BRANCH   5   6
ATOM      6  C   UNL     1      23.663  52.643  25.815  1.00  0.00     0.000 C 
BRANCH   6   7
ATOM      7  C   UNL     1      23.493  52.227  27.286  1.00  0.00     0.000 C 
BRANCH   7   8
ATOM      8  C   UNL     1      22.153  51.525  27.550  1.00  0.00     0.000 C 
BRANCH   8   9
ATOM      9  C   UNL     1      21.401  52.175  28.724  1.00  0.00     0.000 C 
BRANCH   9  10
ATOM     10  C   UNL     1      22.359  52.803  29.751  1.00  0.00     0.000 C 
BRANCH  10  11
ATOM     11  C   UNL     1      21.952  54.238  30.133  1.00  0.00     0.000 C 
BRANCH  11  12
ATOM     12  C   UNL     1      20.771  54.277  31.114  1.00  0.00     0.000 C 
BRANCH  12  13
ATOM     13  C   UNL     1      21.206  54.124  32.581  1.00  0.00     0.006 C 
BRANCH  13  14
ATOM     14  C   UNL     1      22.586  54.739  32.843  1.00  0.00     0.053 C 
BRANCH  14  15
ATOM     15  C   UNL     1      23.100  54.387  34.206  1.00  0.00     0.041 C 
ATOM     16  O   UNL     1      24.336  54.252  34.404  1.00  0.00    -0.550 OA
ATOM     17  O   UNL     1      22.211  54.168  35.249  1.00  0.00    -0.550 OA
ENDBRANCH  14  15
ENDBRANCH  13  14
ENDBRANCH  12  13
ENDBRANCH  11  12
ENDBRANCH  10  11
ENDBRANCH   9  10
ENDBRANCH   8   9
ENDBRANCH   7   8
ENDBRANCH   6   7
ENDBRANCH   5   6
ENDBRANCH   4   5
ENDBRANCH   3   4
ENDBRANCH   2   3
ENDBRANCH   1   2
BRANCH   1  18
ATOM     18  C   UNL     1      29.792  48.509  26.713  1.00  0.00     0.000 C 
BRANCH  18  19
ATOM     19  C   UNL     1      31.259  48.475  26.244  1.00  0.00     0.000 C 
BRANCH  19  20
ATOM     20  C   UNL     1      32.084  47.372  26.931  1.00  0.00     0.000 C 
BRANCH  20  21
ATOM     21  C   UNL     1      32.729  46.355  25.973  1.00  0.00     0.000 C 
BRANCH  21  22
ATOM     22  C   UNL     1      33.809  46.981  25.073  1.00  0.00     0.000 C 
BRANCH  22  23
ATOM     23  C   UNL     1      34.604  45.899  24.325  1.00  0.00     0.000 C 
BRANCH  23  24
ATOM     24  C   UNL     1      35.721  46.473  23.436  1.00  0.00    -0.000 C 
BRANCH  24  25
ATOM     25  C   UNL     1      37.122  45.882  23.677  1.00  0.00    -0.000 C 
BRANCH  25  26
ATOM     26  C   UNL     1      37.379  45.524  25.152  1.00  0.00    -0.000 C 
BRANCH  26  27
ATOM     27  C   UNL     1      38.833  45.793  25.572  1.00  0.00    -0.000 C 
BRANCH  27  28
ATOM     28  C   UNL     1      39.800  44.699  25.087  1.00  0.00    -0.000 C 
BRANCH  28  29
ATOM     29  C   UNL     1      40.061  44.768  23.574  1.00  0.00    -0.000 C 
BRANCH  29  30
ATOM     30  C   UNL     1      39.712  46.143  22.978  1.00  0.00    -0.000 C 
BRANCH  30  31
ATOM     31  C   UNL     1      40.120  46.268  21.503  1.00  0.00    -0.003 C 
ATOM     32  C   UNL     1      39.917  44.971  20.719  1.00  0.00     0.004 C 
ENDBRANCH  30  31
ENDBRANCH  29  30
ENDBRANCH  28  29
ENDBRANCH  27  28
ENDBRANCH  26  27
ENDBRANCH  25  26
ENDBRANCH  24  25
ENDBRANCH  23  24
ENDBRANCH  22  23
ENDBRANCH  21  22
ENDBRANCH  20  21
ENDBRANCH  19  20
ENDBRANCH  18  19
ENDBRANCH   1  18
TORSDOF 28
ENDMDL
MODEL 7
REMARK VINA RESULT:    10.215      2.172      3.915
REMARK INTER + INTRA:          26.671
REMARK INTER:                  26.276
REMARK INTRA:                   0.395
REMARK UNBOUND:                -0.265
REMARK SMILES CCCCCCCCCCCCCCCCCCCCCCCCCCCCCC(=O)[O-]
REMARK SMILES IDX 16 1 17 2 18 3 19 4 20 5 21 6 22 7 23 8 24 9 25 10 26 11
REMARK SMILES IDX 27 12 28 13 29 14 30 15 31 16 32 17 15 18 14 19 13 20 12 21
REMARK SMILES IDX 11 22 10 23 9 24 8 25 7 26 6 27 5 28 4 29 3 30 2 31 1 32
REMARK H PARENT
REMARK Flexibility Score: inf
ROOT
ATOM      1  C   UNL     1      24.769  50.669  25.612  1.00  0.00     0.000 C 
ENDROOT
BRANCH   1   2
ATOM      2  C   UNL     1      23.938  51.565  24.674  1.00  0.00     0.000 C 
BRANCH   2   3
ATOM      3  C   UNL     1      23.954  53.041  25.104  1.00  0.00     0.000 C 
BRANCH   3   4
ATOM      4  C   UNL     1      23.461  53.221  26.554  1.00  0.00     0.000 C 
BRANCH   4   5
ATOM      5  C   UNL     1      21.931  53.380  26.649  1.00  0.00     0.000 C 
BRANCH   5   6
ATOM      6  C   UNL     1      21.324  52.805  27.945  1.00  0.00     0.000 C 
BRANCH   6   7
ATOM      7  C   UNL     1      20.131  53.595  28.511  1.00  0.00     0.000 C 
BRANCH   7   8
ATOM      8  C   UNL     1      20.568  54.744  29.433  1.00  0.00     0.000 C 
BRANCH   8   9
ATOM      9  C   UNL     1      20.851  54.242  30.859  1.00  0.00     0.000 C 
BRANCH   9  10
ATOM     10  C   UNL     1      22.300  53.750  31.026  1.00  0.00     0.000 C 
BRANCH  10  11
ATOM     11  C   UNL     1      22.933  54.228  32.346  1.00  0.00     0.000 C 
BRANCH  11  12
ATOM     12  C   UNL     1      21.989  55.123  33.165  1.00  0.00     0.000 C 
BRANCH  12  13
ATOM     13  C   UNL     1      20.535  54.626  33.154  1.00  0.00     0.006 C 
BRANCH  13  14
ATOM     14  C   UNL     1      20.276  53.566  34.233  1.00  0.00     0.053 C 
BRANCH  14  15
ATOM     15  C   UNL     1      21.108  53.806  35.455  1.00  0.00     0.041 C 
ATOM     16  O   UNL     1      21.696  52.848  36.022  1.00  0.00    -0.550 OA
ATOM     17  O   UNL     1      21.201  55.082  35.994  1.00  0.00    -0.550 OA
ENDBRANCH  14  15
ENDBRANCH  13  14
ENDBRANCH  12  13
ENDBRANCH  11  12
ENDBRANCH  10  11
ENDBRANCH   9  10
ENDBRANCH   8   9
ENDBRANCH   7   8
ENDBRANCH   6   7
ENDBRANCH   5   6
ENDBRANCH   4   5
ENDBRANCH   3   4
ENDBRANCH   2   3
ENDBRANCH   1   2
BRANCH   1  18
ATOM     18  C   UNL     1      26.091  50.216  24.968  1.00  0.00     0.000 C 
BRANCH  18  19
ATOM     19  C   UNL     1      27.185  49.960  26.022  1.00  0.00     0.000 C 
BRANCH  19  20
ATOM     20  C   UNL     1      28.275  48.990  25.533  1.00  0.00     0.000 C 
BRANCH  20  21
ATOM     21  C   UNL     1      29.079  48.304  26.652  1.00  0.00     0.000 C 
BRANCH  21  22
ATOM     22  C   UNL     1      30.373  47.646  26.143  1.00  0.00     0.000 C 
BRANCH  22  23
ATOM     23  C   UNL     1      31.610  48.458  26.558  1.00  0.00     0.000 C 
BRANCH  23  24
ATOM     24  C   UNL     1      32.862  47.589  26.775  1.00  0.00    -0.000 C 
BRANCH  24  25
ATOM     25  C   UNL     1      32.724  46.118  26.339  1.00  0.00    -0.000 C 
BRANCH  25  26
ATOM     26  C   UNL     1      33.643  45.751  25.160  1.00  0.00    -0.000 C 
BRANCH  26  27
ATOM     27  C   UNL     1      32.922  45.849  23.806  1.00  0.00    -0.000 C 
BRANCH  27  28
ATOM     28  C   UNL     1      33.660  46.757  22.806  1.00  0.00    -0.000 C 
BRANCH  28  29
ATOM     29  C   UNL     1      35.015  47.247  23.343  1.00  0.00    -0.000 C 
BRANCH  29  30
ATOM     30  C   UNL     1      36.199  46.444  22.778  1.00  0.00    -0.000 C 
BRANCH  30  31
ATOM     31  C   UNL     1      36.948  45.655  23.862  1.00  0.00    -0.003 C 
ATOM     32  C   UNL     1      38.465  45.813  23.770  1.00  0.00     0.004 C 
ENDBRANCH  30  31
ENDBRANCH  29  30
ENDBRANCH  28  29
ENDBRANCH  27  28
ENDBRANCH  26  27
ENDBRANCH  25  26
ENDBRANCH  24  25
ENDBRANCH  23  24
ENDBRANCH  22  23
ENDBRANCH  21  22
ENDBRANCH  20  21
ENDBRANCH  19  20
ENDBRANCH  18  19
ENDBRANCH   1  18
TORSDOF 28
ENDMDL
MODEL 8
REMARK VINA RESULT:    10.262      4.801     14.414
REMARK INTER + INTRA:          26.795
REMARK INTER:                  26.920
REMARK INTRA:                  -0.125
REMARK UNBOUND:                -0.265
REMARK SMILES CCCCCCCCCCCCCCCCCCCCCCCCCCCCCC(=O)[O-]
REMARK SMILES IDX 16 1 17 2 18 3 19 4 20 5 21 6 22 7 23 8 24 9 25 10 26 11
REMARK SMILES IDX 27 12 28 13 29 14 30 15 31 16 32 17 15 18 14 19 13 20 12 21
REMARK SMILES IDX 11 22 10 23 9 24 8 25 7 26 6 27 5 28 4 29 3 30 2 31 1 32
REMARK H PARENT
REMARK Flexibility Score: inf
ROOT
ATOM      1  C   UNL     1      26.918  49.276  24.765  1.00  0.00     0.000 C 
ENDROOT
BRANCH   1   2
ATOM      2  C   UNL     1      27.965  48.992  25.860  1.00  0.00     0.000 C 
BRANCH   2   3
ATOM      3  C   UNL     1      29.398  48.944  25.303  1.00  0.00     0.000 C 
BRANCH   3   4
ATOM      4  C   UNL     1      30.409  48.473  26.366  1.00  0.00     0.000 C 
BRANCH   4   5
ATOM      5  C   UNL     1      31.779  48.099  25.764  1.00  0.00     0.000 C 
BRANCH   5   6
ATOM      6  C   UNL     1      32.687  47.307  26.726  1.00  0.00     0.000 C 
BRANCH   6   7
ATOM      7  C   UNL     1      32.740  45.791  26.471  1.00  0.00     0.000 C 
BRANCH   7   8
ATOM      8  C   UNL     1      33.255  45.447  25.065  1.00  0.00     0.000 C 
BRANCH   8   9
ATOM      9  C   UNL     1      33.030  46.611  24.086  1.00  0.00     0.000 C 
BRANCH   9  10
ATOM     10  C   UNL     1      33.961  46.530  22.863  1.00  0.00     0.000 C 
BRANCH  10  11
ATOM     11  C   UNL     1      35.218  47.405  23.023  1.00  0.00     0.000 C 
BRANCH  11  12
ATOM     12  C   UNL     1      36.520  46.603  22.870  1.00  0.00     0.000 C 
BRANCH  12  13
ATOM     13  C   UNL     1      36.684  45.518  23.948  1.00  0.00     0.006 C 
BRANCH  13  14
ATOM     14  C   UNL     1      37.975  45.696  24.757  1.00  0.00     0.053 C 
BRANCH  14  15
ATOM     15  C   UNL     1      39.172  45.197  24.007  1.00  0.00     0.041 C 
ATOM     16  O   UNL     1      39.303  45.447  22.780  1.00  0.00    -0.550 OA
ATOM     17  O   UNL     1      40.125  44.422  24.653  1.00  0.00    -0.550 OA
ENDBRANCH  14  15
ENDBRANCH  13  14
ENDBRANCH  12  13
ENDBRANCH  11  12
ENDBRANCH  10  11
ENDBRANCH   9  10
ENDBRANCH   8   9
ENDBRANCH   7   8
ENDBRANCH   6   7
ENDBRANCH   5   6
ENDBRANCH   4   5
ENDBRANCH   3   4
ENDBRANCH   2   3
ENDBRANCH   1   2
BRANCH   1  18
ATOM     18  C   UNL     1      25.953  50.408  25.160  1.00  0.00     0.000 C 
BRANCH  18  19
ATOM     19  C   UNL     1      25.216  50.099  26.478  1.00  0.00     0.000 C 
BRANCH  19  20
ATOM     20  C   UNL     1      23.927  50.922  26.652  1.00  0.00     0.000 C 
BRANCH  20  21
ATOM     21  C   UNL     1      23.774  52.098  25.672  1.00  0.00     0.000 C 
BRANCH  21  22
ATOM     22  C   UNL     1      23.122  53.334  26.316  1.00  0.00     0.000 C 
BRANCH  22  23
ATOM     23  C   UNL     1      23.190  53.263  27.849  1.00  0.00     0.000 C 
BRANCH  23  24
ATOM     24  C   UNL     1      21.876  52.783  28.493  1.00  0.00    -0.000 C 
BRANCH  24  25
ATOM     25  C   UNL     1      20.595  53.418  27.922  1.00  0.00    -0.000 C 
BRANCH  25  26
ATOM     26  C   UNL     1      19.877  54.334  28.929  1.00  0.00    -0.000 C 
BRANCH  26  27
ATOM     27  C   UNL     1      20.843  54.930  29.966  1.00  0.00    -0.000 C 
BRANCH  27  28
ATOM     28  C   UNL     1      20.756  54.224  31.330  1.00  0.00    -0.000 C 
BRANCH  28  29
ATOM     29  C   UNL     1      22.077  54.284  32.113  1.00  0.00    -0.000 C 
BRANCH  29  30
ATOM     30  C   UNL     1      21.891  53.973  33.608  1.00  0.00    -0.000 C 
BRANCH  30  31
ATOM     31  C   UNL     1      20.466  54.267  34.099  1.00  0.00    -0.003 C 
ATOM     32  C   UNL     1      20.220  53.785  35.529  1.00  0.00     0.004 C 
ENDBRANCH  30  31
ENDBRANCH  29  30
ENDBRANCH  28  29
ENDBRANCH  27  28
ENDBRANCH  26  27
ENDBRANCH  25  26
ENDBRANCH  24  25
ENDBRANCH  23  24
ENDBRANCH  22  23
ENDBRANCH  21  22
ENDBRANCH  20  21
ENDBRANCH  19  20
ENDBRANCH  18  19
ENDBRANCH   1  18
TORSDOF 28
ENDMDL
