MODEL 1
REMARK VINA RESULT:    -5.931      0.000      0.000
REMARK INTER + INTRA:          -7.240
REMARK INTER:                  -6.971
REMARK INTRA:                  -0.269
REMARK UNBOUND:                -0.269
REMARK SMILES O=c1cc(-c2ccc(O)c(O)c2)oc2cc(O)cc(O)c12
REMARK SMILES IDX 4 1 3 2 2 3 1 4 21 5 19 6 18 7 16 8 15 9 14 10 13 11 5 12
REMARK SMILES IDX 6 13 7 14 8 15 12 16 10 17 9 18 11 20 20 22 17 24
REMARK H PARENT 9 19 11 21 20 23 17 25
REMARK Flexibility Score: inf
ROOT
ATOM      1  C   UNL     1      -4.466   8.974   4.658  1.00  0.00     0.138 A 
ATOM      2  C   UNL     1      -5.393   9.072   5.704  1.00  0.00     0.100 A 
ATOM      3  C   UNL     1      -4.949   9.355   6.995  1.00  0.00     0.197 A 
ATOM      4  O   UNL     1      -5.811   9.492   7.902  1.00  0.00    -0.289 OA
ATOM      5  C   UNL     1      -3.564   9.504   7.248  1.00  0.00     0.107 A 
ATOM      6  C   UNL     1      -2.992   9.759   8.531  1.00  0.00     0.134 A 
ATOM      7  C   UNL     1      -1.615   9.985   8.640  1.00  0.00     0.093 A 
ATOM      8  C   UNL     1      -0.781   9.908   7.522  1.00  0.00     0.123 A 
ATOM      9  C   UNL     1      -1.322   9.609   6.274  1.00  0.00     0.094 A 
ATOM     10  C   UNL     1      -2.698   9.413   6.126  1.00  0.00     0.146 A 
ATOM     11  O   UNL     1      -3.174   9.149   4.914  1.00  0.00    -0.456 OA
ENDROOT
BRANCH   1  12
ATOM     12  C   UNL     1      -4.882   8.672   3.265  1.00  0.00     0.021 A 
ATOM     13  C   UNL     1      -4.526   9.504   2.189  1.00  0.00     0.016 A 
ATOM     14  C   UNL     1      -4.923   9.189   0.889  1.00  0.00     0.051 A 
ATOM     15  C   UNL     1      -5.675   8.039   0.629  1.00  0.00     0.157 A 
ATOM     16  C   UNL     1      -5.626   7.509   3.001  1.00  0.00     0.062 A 
ATOM     17  C   UNL     1      -6.030   7.185   1.700  1.00  0.00     0.158 A 
BRANCH  15  18
ATOM     18  O   UNL     1      -6.042   7.783  -0.693  1.00  0.00    -0.504 OA
ATOM     19  H   UNL     1      -6.097   6.858  -1.096  1.00  0.00     0.293 HD
ENDBRANCH  15  18
BRANCH  17  20
ATOM     20  O   UNL     1      -6.774   6.018   1.519  1.00  0.00    -0.504 OA
ATOM     21  H   UNL     1      -6.666   5.396   0.732  1.00  0.00     0.293 HD
ENDBRANCH  17  20
ENDBRANCH   1  12
BRANCH   6  22
ATOM     22  O   UNL     1      -3.722   9.779   9.724  1.00  0.00    -0.507 OA
ATOM     23  H   UNL     1      -3.581  10.433  10.479  1.00  0.00     0.293 HD
ENDBRANCH   6  22
BRANCH   8  24
ATOM     24  O   UNL     1       0.591  10.120   7.642  1.00  0.00    -0.508 OA
ATOM     25  H   UNL     1       1.192   9.452   8.111  1.00  0.00     0.293 HD
ENDBRANCH   8  24
TORSDOF 5
ENDMDL
MODEL 2
REMARK VINA RESULT:    -5.806     15.303     16.717
REMARK INTER + INTRA:          -7.093
REMARK INTER:                  -6.829
REMARK INTRA:                  -0.264
REMARK UNBOUND:                -0.269
REMARK SMILES O=c1cc(-c2ccc(O)c(O)c2)oc2cc(O)cc(O)c12
REMARK SMILES IDX 4 1 3 2 2 3 1 4 21 5 19 6 18 7 16 8 15 9 14 10 13 11 5 12
REMARK SMILES IDX 6 13 7 14 8 15 12 16 10 17 9 18 11 20 20 22 17 24
REMARK H PARENT 9 19 11 21 20 23 17 25
REMARK Flexibility Score: inf
ROOT
ATOM      1  C   UNL     1      -4.152  -6.524   7.679  1.00  0.00     0.138 A 
ATOM      2  C   UNL     1      -3.356  -6.664   8.824  1.00  0.00     0.100 A 
ATOM      3  C   UNL     1      -2.231  -7.488   8.786  1.00  0.00     0.197 A 
ATOM      4  O   UNL     1      -1.506  -7.550   9.812  1.00  0.00    -0.289 OA
ATOM      5  C   UNL     1      -1.922  -8.205   7.604  1.00  0.00     0.107 A 
ATOM      6  C   UNL     1      -0.821  -9.102   7.460  1.00  0.00     0.134 A 
ATOM      7  C   UNL     1      -0.560  -9.678   6.210  1.00  0.00     0.093 A 
ATOM      8  C   UNL     1      -1.393  -9.436   5.116  1.00  0.00     0.123 A 
ATOM      9  C   UNL     1      -2.500  -8.602   5.260  1.00  0.00     0.094 A 
ATOM     10  C   UNL     1      -2.768  -7.984   6.484  1.00  0.00     0.146 A 
ATOM     11  O   UNL     1      -3.823  -7.182   6.573  1.00  0.00    -0.456 OA
ENDROOT
BRANCH   1  12
ATOM     12  C   UNL     1      -5.362  -5.662   7.664  1.00  0.00     0.021 A 
ATOM     13  C   UNL     1      -6.655  -6.206   7.581  1.00  0.00     0.016 A 
ATOM     14  C   UNL     1      -7.774  -5.372   7.579  1.00  0.00     0.051 A 
ATOM     15  C   UNL     1      -7.632  -3.983   7.668  1.00  0.00     0.157 A 
ATOM     16  C   UNL     1      -5.220  -4.268   7.768  1.00  0.00     0.062 A 
ATOM     17  C   UNL     1      -6.336  -3.424   7.766  1.00  0.00     0.158 A 
BRANCH  15  18
ATOM     18  O   UNL     1      -8.792  -3.206   7.659  1.00  0.00    -0.504 OA
ATOM     19  H   UNL     1      -9.716  -3.573   7.484  1.00  0.00     0.293 HD
ENDBRANCH  15  18
BRANCH  17  20
ATOM     20  O   UNL     1      -6.115  -2.049   7.862  1.00  0.00    -0.504 OA
ATOM     21  H   UNL     1      -5.994  -1.439   7.066  1.00  0.00     0.293 HD
ENDBRANCH  17  20
ENDBRANCH   1  12
BRANCH   6  22
ATOM     22  O   UNL     1       0.028  -9.475   8.506  1.00  0.00    -0.507 OA
ATOM     23  H   UNL     1       0.533  -8.836   9.100  1.00  0.00     0.293 HD
ENDBRANCH   6  22
BRANCH   8  24
ATOM     24  O   UNL     1      -1.134 -10.025   3.880  1.00  0.00    -0.508 OA
ATOM     25  H   UNL     1      -0.722  -9.498   3.118  1.00  0.00     0.293 HD
ENDBRANCH   8  24
TORSDOF 5
ENDMDL
MODEL 3
REMARK VINA RESULT:    -5.763      1.327      2.958
REMARK INTER + INTRA:          -7.042
REMARK INTER:                  -6.764
REMARK INTRA:                  -0.278
REMARK UNBOUND:                -0.269
REMARK SMILES O=c1cc(-c2ccc(O)c(O)c2)oc2cc(O)cc(O)c12
REMARK SMILES IDX 4 1 3 2 2 3 1 4 21 5 19 6 18 7 16 8 15 9 14 10 13 11 5 12
REMARK SMILES IDX 6 13 7 14 8 15 12 16 10 17 9 18 11 20 20 22 17 24
REMARK H PARENT 9 19 11 21 20 23 17 25
REMARK Flexibility Score: inf
ROOT
ATOM      1  C   UNL     1      -4.533   8.972   4.829  1.00  0.00     0.138 A 
ATOM      2  C   UNL     1      -3.197   9.085   5.235  1.00  0.00     0.100 A 
ATOM      3  C   UNL     1      -2.902   9.352   6.572  1.00  0.00     0.197 A 
ATOM      4  O   UNL     1      -1.692   9.392   6.916  1.00  0.00    -0.289 OA
ATOM      5  C   UNL     1      -3.953   9.543   7.502  1.00  0.00     0.107 A 
ATOM      6  C   UNL     1      -3.772   9.854   8.883  1.00  0.00     0.134 A 
ATOM      7  C   UNL     1      -4.888   9.922   9.726  1.00  0.00     0.093 A 
ATOM      8  C   UNL     1      -6.181   9.749   9.227  1.00  0.00     0.123 A 
ATOM      9  C   UNL     1      -6.371   9.494   7.871  1.00  0.00     0.094 A 
ATOM     10  C   UNL     1      -5.276   9.385   7.009  1.00  0.00     0.146 A 
ATOM     11  O   UNL     1      -5.502   9.123   5.726  1.00  0.00    -0.456 OA
ENDROOT
BRANCH   1  12
ATOM     12  C   UNL     1      -4.905   8.692   3.419  1.00  0.00     0.021 A 
ATOM     13  C   UNL     1      -4.520   9.544   2.369  1.00  0.00     0.016 A 
ATOM     14  C   UNL     1      -4.876   9.250   1.052  1.00  0.00     0.051 A 
ATOM     15  C   UNL     1      -5.613   8.100   0.750  1.00  0.00     0.157 A 
ATOM     16  C   UNL     1      -5.633   7.530   3.113  1.00  0.00     0.062 A 
ATOM     17  C   UNL     1      -5.996   7.227   1.795  1.00  0.00     0.158 A 
BRANCH  15  18
ATOM     18  O   UNL     1      -5.938   7.866  -0.588  1.00  0.00    -0.504 OA
ATOM     19  H   UNL     1      -6.793   7.423  -0.892  1.00  0.00     0.293 HD
ENDBRANCH  15  18
BRANCH  17  20
ATOM     20  O   UNL     1      -6.728   6.060   1.571  1.00  0.00    -0.504 OA
ATOM     21  H   UNL     1      -6.762   5.575   0.686  1.00  0.00     0.293 HD
ENDBRANCH  17  20
ENDBRANCH   1  12
BRANCH   6  22
ATOM     22  O   UNL     1      -2.532  10.125   9.470  1.00  0.00    -0.507 OA
ATOM     23  H   UNL     1      -2.166   9.665  10.289  1.00  0.00     0.293 HD
ENDBRANCH   6  22
BRANCH   8  24
ATOM     24  O   UNL     1      -7.287   9.833  10.071  1.00  0.00    -0.508 OA
ATOM     25  H   UNL     1      -8.137   9.314   9.884  1.00  0.00     0.293 HD
ENDBRANCH   8  24
TORSDOF 5
ENDMDL
MODEL 4
REMARK VINA RESULT:    -5.146     15.259     17.946
REMARK INTER + INTRA:          -6.317
REMARK INTER:                  -6.012
REMARK INTRA:                  -0.305
REMARK UNBOUND:                -0.269
REMARK SMILES O=c1cc(-c2ccc(O)c(O)c2)oc2cc(O)cc(O)c12
REMARK SMILES IDX 4 1 3 2 2 3 1 4 21 5 19 6 18 7 16 8 15 9 14 10 13 11 5 12
REMARK SMILES IDX 6 13 7 14 8 15 12 16 10 17 9 18 11 20 20 22 17 24
REMARK H PARENT 9 19 11 21 20 23 17 25
REMARK Flexibility Score: inf
ROOT
ATOM      1  C   UNL     1       5.865   3.120  -7.491  1.00  0.00     0.138 A 
ATOM      2  C   UNL     1       5.348   2.725  -8.732  1.00  0.00     0.100 A 
ATOM      3  C   UNL     1       5.215   1.368  -9.024  1.00  0.00     0.197 A 
ATOM      4  O   UNL     1       4.696   1.046 -10.125  1.00  0.00    -0.289 OA
ATOM      5  C   UNL     1       5.638   0.399  -8.082  1.00  0.00     0.107 A 
ATOM      6  C   UNL     1       5.583  -1.013  -8.284  1.00  0.00     0.134 A 
ATOM      7  C   UNL     1       5.938  -1.874  -7.238  1.00  0.00     0.093 A 
ATOM      8  C   UNL     1       6.401  -1.375  -6.019  1.00  0.00     0.123 A 
ATOM      9  C   UNL     1       6.506   0.001  -5.829  1.00  0.00     0.094 A 
ATOM     10  C   UNL     1       6.126   0.888  -6.840  1.00  0.00     0.146 A 
ATOM     11  O   UNL     1       6.225   2.193  -6.610  1.00  0.00    -0.456 OA
ENDROOT
BRANCH   1  12
ATOM     12  C   UNL     1       6.031   4.551  -7.128  1.00  0.00     0.021 A 
ATOM     13  C   UNL     1       6.295   5.534  -8.097  1.00  0.00     0.016 A 
ATOM     14  C   UNL     1       6.436   6.872  -7.728  1.00  0.00     0.051 A 
ATOM     15  C   UNL     1       6.310   7.262  -6.390  1.00  0.00     0.157 A 
ATOM     16  C   UNL     1       5.890   4.945  -5.787  1.00  0.00     0.062 A 
ATOM     17  C   UNL     1       6.031   6.285  -5.406  1.00  0.00     0.158 A 
BRANCH  15  18
ATOM     18  O   UNL     1       6.465   8.616  -6.087  1.00  0.00    -0.504 OA
ATOM     19  H   UNL     1       6.956   9.274  -6.676  1.00  0.00     0.293 HD
ENDBRANCH  15  18
BRANCH  17  20
ATOM     20  O   UNL     1       5.887   6.598  -4.053  1.00  0.00    -0.504 OA
ATOM     21  H   UNL     1       6.660   6.711  -3.414  1.00  0.00     0.293 HD
ENDBRANCH  17  20
ENDBRANCH   1  12
BRANCH   6  22
ATOM     22  O   UNL     1       5.212  -1.618  -9.489  1.00  0.00    -0.507 OA
ATOM     23  H   UNL     1       5.585  -1.381 -10.395  1.00  0.00     0.293 HD
ENDBRANCH   6  22
BRANCH   8  24
ATOM     24  O   UNL     1       6.766  -2.240  -4.989  1.00  0.00    -0.508 OA
ATOM     25  H   UNL     1       7.567  -2.051  -4.397  1.00  0.00     0.293 HD
ENDBRANCH   8  24
TORSDOF 5
ENDMDL
MODEL 5
REMARK VINA RESULT:    -5.102     13.369     16.310
REMARK INTER + INTRA:          -6.265
REMARK INTER:                  -5.985
REMARK INTRA:                  -0.280
REMARK UNBOUND:                -0.269
REMARK SMILES O=c1cc(-c2ccc(O)c(O)c2)oc2cc(O)cc(O)c12
REMARK SMILES IDX 4 1 3 2 2 3 1 4 21 5 19 6 18 7 16 8 15 9 14 10 13 11 5 12
REMARK SMILES IDX 6 13 7 14 8 15 12 16 10 17 9 18 11 20 20 22 17 24
REMARK H PARENT 9 19 11 21 20 23 17 25
REMARK Flexibility Score: inf
ROOT
ATOM      1  C   UNL     1       6.310   6.863  -5.101  1.00  0.00     0.138 A 
ATOM      2  C   UNL     1       6.950   7.504  -6.170  1.00  0.00     0.100 A 
ATOM      3  C   UNL     1       7.078   6.845  -7.393  1.00  0.00     0.197 A 
ATOM      4  O   UNL     1       7.607   7.467  -8.350  1.00  0.00    -0.289 OA
ATOM      5  C   UNL     1       6.595   5.521  -7.534  1.00  0.00     0.107 A 
ATOM      6  C   UNL     1       6.701   4.737  -8.723  1.00  0.00     0.134 A 
ATOM      7  C   UNL     1       6.098   3.475  -8.773  1.00  0.00     0.093 A 
ATOM      8  C   UNL     1       5.442   2.944  -7.659  1.00  0.00     0.123 A 
ATOM      9  C   UNL     1       5.377   3.680  -6.479  1.00  0.00     0.094 A 
ATOM     10  C   UNL     1       5.938   4.958  -6.407  1.00  0.00     0.146 A 
ATOM     11  O   UNL     1       5.837   5.633  -5.267  1.00  0.00    -0.456 OA
ENDROOT
BRANCH   1  12
ATOM     12  C   UNL     1       6.148   7.516  -3.776  1.00  0.00     0.021 A 
ATOM     13  C   UNL     1       5.449   8.727  -3.629  1.00  0.00     0.016 A 
ATOM     14  C   UNL     1       5.304   9.312  -2.370  1.00  0.00     0.051 A 
ATOM     15  C   UNL     1       5.844   8.704  -1.233  1.00  0.00     0.157 A 
ATOM     16  C   UNL     1       6.679   6.898  -2.631  1.00  0.00     0.062 A 
ATOM     17  C   UNL     1       6.540   7.479  -1.364  1.00  0.00     0.158 A 
BRANCH  15  18
ATOM     18  O   UNL     1       5.666   9.343  -0.004  1.00  0.00    -0.504 OA
ATOM     19  H   UNL     1       6.019  10.265   0.210  1.00  0.00     0.293 HD
ENDBRANCH  15  18
BRANCH  17  20
ATOM     20  O   UNL     1       7.102   6.811  -0.275  1.00  0.00    -0.504 OA
ATOM     21  H   UNL     1       6.709   5.980   0.142  1.00  0.00     0.293 HD
ENDBRANCH  17  20
ENDBRANCH   1  12
BRANCH   6  22
ATOM     22  O   UNL     1       7.401   5.138  -9.865  1.00  0.00    -0.507 OA
ATOM     23  H   UNL     1       7.969   5.968  -9.936  1.00  0.00     0.293 HD
ENDBRANCH   6  22
BRANCH   8  24
ATOM     24  O   UNL     1       4.857   1.681  -7.714  1.00  0.00    -0.508 OA
ATOM     25  H   UNL     1       5.389   0.861  -7.983  1.00  0.00     0.293 HD
ENDBRANCH   8  24
TORSDOF 5
ENDMDL
MODEL 6
REMARK VINA RESULT:    -5.081     15.675     16.976
REMARK INTER + INTRA:          -6.241
REMARK INTER:                  -5.957
REMARK INTRA:                  -0.284
REMARK UNBOUND:                -0.269
REMARK SMILES O=c1cc(-c2ccc(O)c(O)c2)oc2cc(O)cc(O)c12
REMARK SMILES IDX 4 1 3 2 2 3 1 4 21 5 19 6 18 7 16 8 15 9 14 10 13 11 5 12
REMARK SMILES IDX 6 13 7 14 8 15 12 16 10 17 9 18 11 20 20 22 17 24
REMARK H PARENT 9 19 11 21 20 23 17 25
REMARK Flexibility Score: inf
ROOT
ATOM      1  C   UNL     1      -3.670  -6.593   7.894  1.00  0.00     0.138 A 
ATOM      2  C   UNL     1      -3.559  -6.902   6.532  1.00  0.00     0.100 A 
ATOM      3  C   UNL     1      -2.594  -7.815   6.108  1.00  0.00     0.197 A 
ATOM      4  O   UNL     1      -2.556  -8.114   4.886  1.00  0.00    -0.289 OA
ATOM      5  C   UNL     1      -1.709  -8.394   7.050  1.00  0.00     0.107 A 
ATOM      6  C   UNL     1      -0.663  -9.311   6.729  1.00  0.00     0.134 A 
ATOM      7  C   UNL     1       0.085  -9.893   7.760  1.00  0.00     0.093 A 
ATOM      8  C   UNL     1      -0.137  -9.548   9.095  1.00  0.00     0.123 A 
ATOM      9  C   UNL     1      -1.122  -8.616   9.415  1.00  0.00     0.094 A 
ATOM     10  C   UNL     1      -1.909  -8.044   8.412  1.00  0.00     0.146 A 
ATOM     11  O   UNL     1      -2.850  -7.173   8.763  1.00  0.00    -0.456 OA
ENDROOT
BRANCH   1  12
ATOM     12  C   UNL     1      -4.678  -5.626   8.401  1.00  0.00     0.021 A 
ATOM     13  C   UNL     1      -5.263  -5.765   9.671  1.00  0.00     0.016 A 
ATOM     14  C   UNL     1      -6.199  -4.835  10.125  1.00  0.00     0.051 A 
ATOM     15  C   UNL     1      -6.568  -3.745   9.330  1.00  0.00     0.157 A 
ATOM     16  C   UNL     1      -5.038  -4.523   7.608  1.00  0.00     0.062 A 
ATOM     17  C   UNL     1      -5.978  -3.586   8.054  1.00  0.00     0.158 A 
BRANCH  15  18
ATOM     18  O   UNL     1      -7.512  -2.853   9.842  1.00  0.00    -0.504 OA
ATOM     19  H   UNL     1      -7.312  -2.167  10.555  1.00  0.00     0.293 HD
ENDBRANCH  15  18
BRANCH  17  20
ATOM     20  O   UNL     1      -6.292  -2.522   7.206  1.00  0.00    -0.504 OA
ATOM     21  H   UNL     1      -6.624  -1.624   7.526  1.00  0.00     0.293 HD
ENDBRANCH  17  20
ENDBRANCH   1  12
BRANCH   6  22
ATOM     22  O   UNL     1      -0.304  -9.664   5.425  1.00  0.00    -0.507 OA
ATOM     23  H   UNL     1       0.291  -9.120   4.819  1.00  0.00     0.293 HD
ENDBRANCH   6  22
BRANCH   8  24
ATOM     24  O   UNL     1       0.622 -10.121  10.113  1.00  0.00    -0.508 OA
ATOM     25  H   UNL     1       0.190 -10.488  10.954  1.00  0.00     0.293 HD
ENDBRANCH   8  24
TORSDOF 5
ENDMDL
MODEL 7
REMARK VINA RESULT:    -5.045     15.002     16.528
REMARK INTER + INTRA:          -6.198
REMARK INTER:                  -5.934
REMARK INTRA:                  -0.264
REMARK UNBOUND:                -0.269
REMARK SMILES O=c1cc(-c2ccc(O)c(O)c2)oc2cc(O)cc(O)c12
REMARK SMILES IDX 4 1 3 2 2 3 1 4 21 5 19 6 18 7 16 8 15 9 14 10 13 11 5 12
REMARK SMILES IDX 6 13 7 14 8 15 12 16 10 17 9 18 11 20 20 22 17 24
REMARK H PARENT 9 19 11 21 20 23 17 25
REMARK Flexibility Score: inf
ROOT
ATOM      1  C   UNL     1      -4.290  -6.850   7.888  1.00  0.00     0.138 A 
ATOM      2  C   UNL     1      -5.454  -7.567   7.581  1.00  0.00     0.100 A 
ATOM      3  C   UNL     1      -6.681  -6.905   7.539  1.00  0.00     0.197 A 
ATOM      4  O   UNL     1      -7.699  -7.565   7.206  1.00  0.00    -0.289 OA
ATOM      5  C   UNL     1      -6.747  -5.523   7.841  1.00  0.00     0.107 A 
ATOM      6  C   UNL     1      -7.948  -4.751   7.863  1.00  0.00     0.134 A 
ATOM      7  C   UNL     1      -7.875  -3.370   8.080  1.00  0.00     0.093 A 
ATOM      8  C   UNL     1      -6.653  -2.743   8.333  1.00  0.00     0.123 A 
ATOM      9  C   UNL     1      -5.482  -3.496   8.363  1.00  0.00     0.094 A 
ATOM     10  C   UNL     1      -5.516  -4.871   8.116  1.00  0.00     0.146 A 
ATOM     11  O   UNL     1      -4.373  -5.548   8.136  1.00  0.00    -0.456 OA
ENDROOT
BRANCH   1  12
ATOM     12  C   UNL     1      -2.957  -7.504   7.950  1.00  0.00     0.021 A 
ATOM     13  C   UNL     1      -2.212  -7.552   9.141  1.00  0.00     0.016 A 
ATOM     14  C   UNL     1      -0.967  -8.183   9.172  1.00  0.00     0.051 A 
ATOM     15  C   UNL     1      -0.442  -8.785   8.023  1.00  0.00     0.157 A 
ATOM     16  C   UNL     1      -2.435  -8.121   6.801  1.00  0.00     0.062 A 
ATOM     17  C   UNL     1      -1.187  -8.755   6.822  1.00  0.00     0.158 A 
BRANCH  15  18
ATOM     18  O   UNL     1       0.810  -9.396   8.122  1.00  0.00    -0.504 OA
ATOM     19  H   UNL     1       1.608  -8.980   8.579  1.00  0.00     0.293 HD
ENDBRANCH  15  18
BRANCH  17  20
ATOM     20  O   UNL     1      -0.731  -9.337   5.638  1.00  0.00    -0.504 OA
ATOM     21  H   UNL     1      -0.162 -10.171   5.601  1.00  0.00     0.293 HD
ENDBRANCH  17  20
ENDBRANCH   1  12
BRANCH   6  22
ATOM     22  O   UNL     1      -9.228  -5.289   7.702  1.00  0.00    -0.507 OA
ATOM     23  H   UNL     1      -9.759  -5.750   8.425  1.00  0.00     0.293 HD
ENDBRANCH   6  22
BRANCH   8  24
ATOM     24  O   UNL     1      -6.592  -1.369   8.561  1.00  0.00    -0.508 OA
ATOM     25  H   UNL     1      -6.179  -0.990   9.406  1.00  0.00     0.293 HD
ENDBRANCH   8  24
TORSDOF 5
ENDMDL
MODEL 8
REMARK VINA RESULT:    -4.887     13.463     15.044
REMARK INTER + INTRA:          -6.013
REMARK INTER:                  -5.696
REMARK INTRA:                  -0.317
REMARK UNBOUND:                -0.269
REMARK SMILES O=c1cc(-c2ccc(O)c(O)c2)oc2cc(O)cc(O)c12
REMARK SMILES IDX 4 1 3 2 2 3 1 4 21 5 19 6 18 7 16 8 15 9 14 10 13 11 5 12
REMARK SMILES IDX 6 13 7 14 8 15 12 16 10 17 9 18 11 20 20 22 17 24
REMARK H PARENT 9 19 11 21 20 23 17 25
REMARK Flexibility Score: inf
ROOT
ATOM      1  C   UNL     1       6.946   6.108  -5.323  1.00  0.00     0.138 A 
ATOM      2  C   UNL     1       8.228   6.608  -5.589  1.00  0.00     0.100 A 
ATOM      3  C   UNL     1       8.796   7.545  -4.726  1.00  0.00     0.197 A 
ATOM      4  O   UNL     1       9.969   7.933  -4.961  1.00  0.00    -0.289 OA
ATOM      5  C   UNL     1       8.061   8.011  -3.609  1.00  0.00     0.107 A 
ATOM      6  C   UNL     1       8.524   8.990  -2.679  1.00  0.00     0.134 A 
ATOM      7  C   UNL     1       7.746   9.298  -1.556  1.00  0.00     0.093 A 
ATOM      8  C   UNL     1       6.497   8.706  -1.360  1.00  0.00     0.123 A 
ATOM      9  C   UNL     1       6.013   7.787  -2.288  1.00  0.00     0.094 A 
ATOM     10  C   UNL     1       6.781   7.431  -3.401  1.00  0.00     0.146 A 
ATOM     11  O   UNL     1       6.289   6.536  -4.251  1.00  0.00    -0.456 OA
ENDROOT
BRANCH   1  12
ATOM     12  C   UNL     1       6.292   5.112  -6.210  1.00  0.00     0.021 A 
ATOM     13  C   UNL     1       6.833   4.766  -7.460  1.00  0.00     0.016 A 
ATOM     14  C   UNL     1       6.202   3.819  -8.268  1.00  0.00     0.051 A 
ATOM     15  C   UNL     1       5.024   3.192  -7.847  1.00  0.00     0.157 A 
ATOM     16  C   UNL     1       5.117   4.471  -5.782  1.00  0.00     0.062 A 
ATOM     17  C   UNL     1       4.475   3.521  -6.586  1.00  0.00     0.158 A 
BRANCH  15  18
ATOM     18  O   UNL     1       4.442   2.256  -8.704  1.00  0.00    -0.504 OA
ATOM     19  H   UNL     1       4.745   2.093  -9.653  1.00  0.00     0.293 HD
ENDBRANCH  15  18
BRANCH  17  20
ATOM     20  O   UNL     1       3.307   2.934  -6.096  1.00  0.00    -0.504 OA
ATOM     21  H   UNL     1       2.738   2.286  -6.621  1.00  0.00     0.293 HD
ENDBRANCH  17  20
ENDBRANCH   1  12
BRANCH   6  22
ATOM     22  O   UNL     1       9.720   9.700  -2.821  1.00  0.00    -0.507 OA
ATOM     23  H   UNL     1      10.274   9.742  -3.663  1.00  0.00     0.293 HD
ENDBRANCH   6  22
BRANCH   8  24
ATOM     24  O   UNL     1       5.723   9.029  -0.247  1.00  0.00    -0.508 OA
ATOM     25  H   UNL     1       6.031   8.812   0.694  1.00  0.00     0.293 HD
ENDBRANCH   8  24
TORSDOF 5
ENDMDL
MODEL 9
REMARK VINA RESULT:    -4.882     14.504     16.154
REMARK INTER + INTRA:          -6.007
REMARK INTER:                  -5.706
REMARK INTRA:                  -0.301
REMARK UNBOUND:                -0.269
REMARK SMILES O=c1cc(-c2ccc(O)c(O)c2)oc2cc(O)cc(O)c12
REMARK SMILES IDX 4 1 3 2 2 3 1 4 21 5 19 6 18 7 16 8 15 9 14 10 13 11 5 12
REMARK SMILES IDX 6 13 7 14 8 15 12 16 10 17 9 18 11 20 20 22 17 24
REMARK H PARENT 9 19 11 21 20 23 17 25
REMARK Flexibility Score: inf
ROOT
ATOM      1  C   UNL     1      -4.566  -5.951   8.086  1.00  0.00     0.138 A 
ATOM      2  C   UNL     1      -4.504  -4.891   9.000  1.00  0.00     0.100 A 
ATOM      3  C   UNL     1      -5.603  -4.044   9.149  1.00  0.00     0.197 A 
ATOM      4  O   UNL     1      -5.537  -3.136  10.018  1.00  0.00    -0.289 OA
ATOM      5  C   UNL     1      -6.756  -4.238   8.351  1.00  0.00     0.107 A 
ATOM      6  C   UNL     1      -7.923  -3.416   8.391  1.00  0.00     0.134 A 
ATOM      7  C   UNL     1      -9.040  -3.767   7.624  1.00  0.00     0.093 A 
ATOM      8  C   UNL     1      -9.013  -4.875   6.774  1.00  0.00     0.123 A 
ATOM      9  C   UNL     1      -7.862  -5.654   6.689  1.00  0.00     0.094 A 
ATOM     10  C   UNL     1      -6.742  -5.352   7.469  1.00  0.00     0.146 A 
ATOM     11  O   UNL     1      -5.671  -6.132   7.371  1.00  0.00    -0.456 OA
ENDROOT
BRANCH   1  12
ATOM     12  C   UNL     1      -3.425  -6.881   7.884  1.00  0.00     0.021 A 
ATOM     13  C   UNL     1      -2.613  -7.298   8.952  1.00  0.00     0.016 A 
ATOM     14  C   UNL     1      -1.554  -8.181   8.734  1.00  0.00     0.051 A 
ATOM     15  C   UNL     1      -1.286  -8.674   7.452  1.00  0.00     0.157 A 
ATOM     16  C   UNL     1      -3.165  -7.388   6.599  1.00  0.00     0.062 A 
ATOM     17  C   UNL     1      -2.104  -8.273   6.370  1.00  0.00     0.158 A 
BRANCH  15  18
ATOM     18  O   UNL     1      -0.211  -9.552   7.302  1.00  0.00    -0.504 OA
ATOM     19  H   UNL     1      -0.310 -10.538   7.105  1.00  0.00     0.293 HD
ENDBRANCH  15  18
BRANCH  17  20
ATOM     20  O   UNL     1      -1.902  -8.725   5.065  1.00  0.00    -0.504 OA
ATOM     21  H   UNL     1      -1.456  -9.600   4.833  1.00  0.00     0.293 HD
ENDBRANCH  17  20
ENDBRANCH   1  12
BRANCH   6  22
ATOM     22  O   UNL     1      -8.029  -2.243   9.144  1.00  0.00    -0.507 OA
ATOM     23  H   UNL     1      -7.865  -1.312   8.793  1.00  0.00     0.293 HD
ENDBRANCH   6  22
BRANCH   8  24
ATOM     24  O   UNL     1     -10.125  -5.208   6.003  1.00  0.00    -0.508 OA
ATOM     25  H   UNL     1     -11.061  -4.928   6.275  1.00  0.00     0.293 HD
ENDBRANCH   8  24
TORSDOF 5
ENDMDL
