MODEL 1
REMARK VINA RESULT:    -8.238      0.000      0.000
REMARK INTER + INTRA:         -12.369
REMARK INTER:                 -11.369
REMARK INTRA:                  -1.000
REMARK UNBOUND:                -1.000
REMARK SMILES CC[C@H](CC[C@H](C)[C@@H]1CC[C@@H]2[C@@H]3CC=C4C[C@H](O)CC[C@@]4(C)[C@@H]3CC[C@@]21C)C(C)C
REMARK SMILES IDX 5 1 4 2 3 3 2 4 1 5 28 6 29 7 30 8 6 9 7 10 8 11 9 12 26 13
REMARK SMILES IDX 10 14 11 15 25 16 27 17 12 18 24 19 23 20 13 21 21 22 14 23
REMARK SMILES IDX 15 24 20 25 22 26 16 27 19 28 17 29 18 30
REMARK H PARENT 18 31
REMARK Flexibility Score: inf
ROOT
ATOM      1  C   UNL     1      15.330  -3.156  17.524  1.00  0.00     0.004 C 
ENDROOT
BRANCH   1   2
ATOM      2  C   UNL     1      15.929  -1.756  17.820  1.00  0.00     0.004 C 
BRANCH   2   3
ATOM      3  C   UNL     1      14.855  -0.679  18.150  1.00  0.00    -0.009 C 
BRANCH   3   4
ATOM      4  C   UNL     1      14.365  -0.754  19.628  1.00  0.00     0.000 C 
ATOM      5  C   UNL     1      15.453  -0.863  20.701  1.00  0.00     0.004 C 
ENDBRANCH   3   4
BRANCH   3   6
ATOM      6  C   UNL     1      15.262   0.743  17.631  1.00  0.00    -0.014 C 
ATOM      7  C   UNL     1      16.781   0.971  17.682  1.00  0.00     0.007 C 
ATOM      8  C   UNL     1      14.706   1.125  16.245  1.00  0.00     0.007 C 
ENDBRANCH   3   6
ENDBRANCH   2   3
ENDBRANCH   1   2
BRANCH   1   9
ATOM      9  C   UNL     1      16.388  -4.291  17.419  1.00  0.00    -0.011 C 
ATOM     10  C   UNL     1      15.725  -5.634  17.043  1.00  0.00     0.008 C 
BRANCH   9  11
ATOM     11  C   UNL     1      17.263  -4.476  18.724  1.00  0.00    -0.002 C 
ATOM     12  C   UNL     1      16.762  -3.859  20.037  1.00  0.00     0.005 C 
ATOM     13  C   UNL     1      18.738  -3.996  18.638  1.00  0.00    -0.026 C 
ATOM     14  C   UNL     1      17.969  -3.878  20.978  1.00  0.00     0.005 C 
ATOM     15  C   UNL     1      19.200  -4.200  20.104  1.00  0.00    -0.001 C 
ATOM     16  C   UNL     1      18.852  -2.493  18.173  1.00  0.00     0.007 C 
ATOM     17  C   UNL     1      19.550  -4.905  17.684  1.00  0.00     0.012 C 
ATOM     18  C   UNL     1      20.523  -3.468  20.474  1.00  0.00     0.000 C 
ATOM     19  C   UNL     1      19.367  -1.516  19.237  1.00  0.00     0.005 C 
ATOM     20  C   UNL     1      20.674  -2.018  19.885  1.00  0.00     0.003 C 
ATOM     21  C   UNL     1      20.848  -3.577  21.978  1.00  0.00     0.031 C 
ATOM     22  C   UNL     1      21.342  -0.964  20.867  1.00  0.00    -0.008 C 
ATOM     23  C   UNL     1      22.141  -2.878  22.262  1.00  0.00    -0.027 C 
ATOM     24  C   UNL     1      22.392  -1.662  21.741  1.00  0.00    -0.065 C 
ATOM     25  C   UNL     1      22.061   0.138  20.029  1.00  0.00     0.014 C 
ATOM     26  C   UNL     1      20.289  -0.287  21.787  1.00  0.00     0.016 C 
ATOM     27  C   UNL     1      23.778  -1.072  21.886  1.00  0.00     0.063 C 
ATOM     28  C   UNL     1      22.887   1.125  20.879  1.00  0.00     0.033 C 
ATOM     29  C   UNL     1      23.725   0.462  22.001  1.00  0.00     0.118 C 
BRANCH  29  30
ATOM     30  O   UNL     1      23.204   0.832  23.255  1.00  0.00    -0.393 OA
ATOM     31  H   UNL     1      23.376   0.074  23.876  1.00  0.00     0.210 HD
ENDBRANCH  29  30
ENDBRANCH   9  11
ENDBRANCH   1   9
TORSDOF 7
ENDMDL
MODEL 2
REMARK VINA RESULT:    -7.282      2.610      5.686
REMARK INTER + INTRA:         -11.049
REMARK INTER:                 -10.628
REMARK INTRA:                  -0.421
REMARK UNBOUND:                -1.000
REMARK SMILES CC[C@H](CC[C@H](C)[C@@H]1CC[C@@H]2[C@@H]3CC=C4C[C@H](O)CC[C@@]4(C)[C@@H]3CC[C@@]21C)C(C)C
REMARK SMILES IDX 5 1 4 2 3 3 2 4 1 5 28 6 29 7 30 8 6 9 7 10 8 11 9 12 26 13
REMARK SMILES IDX 10 14 11 15 25 16 27 17 12 18 24 19 23 20 13 21 21 22 14 23
REMARK SMILES IDX 15 24 20 25 22 26 16 27 19 28 17 29 18 30
REMARK H PARENT 18 31
REMARK Flexibility Score: inf
ROOT
ATOM      1  C   UNL     1      16.540  -6.059  15.496  1.00  0.00     0.004 C 
ENDROOT
BRANCH   1   2
ATOM      2  C   UNL     1      15.758  -7.306  15.005  1.00  0.00     0.004 C 
BRANCH   2   3
ATOM      3  C   UNL     1      16.633  -8.308  14.198  1.00  0.00    -0.009 C 
BRANCH   3   4
ATOM      4  C   UNL     1      18.074  -8.449  14.778  1.00  0.00     0.000 C 
ATOM      5  C   UNL     1      19.201  -8.641  13.759  1.00  0.00     0.004 C 
ENDBRANCH   3   4
BRANCH   3   6
ATOM      6  C   UNL     1      15.878  -9.648  13.899  1.00  0.00    -0.014 C 
ATOM      7  C   UNL     1      14.382  -9.427  13.627  1.00  0.00     0.007 C 
ATOM      8  C   UNL     1      16.501 -10.526  12.796  1.00  0.00     0.007 C 
ENDBRANCH   3   6
ENDBRANCH   2   3
ENDBRANCH   1   2
BRANCH   1   9
ATOM      9  C   UNL     1      16.108  -5.551  16.901  1.00  0.00    -0.011 C 
ATOM     10  C   UNL     1      14.576  -5.645  17.078  1.00  0.00     0.008 C 
BRANCH   9  11
ATOM     11  C   UNL     1      16.594  -4.082  17.231  1.00  0.00    -0.002 C 
ATOM     12  C   UNL     1      17.887  -3.574  16.580  1.00  0.00     0.005 C 
ATOM     13  C   UNL     1      16.787  -3.742  18.734  1.00  0.00    -0.026 C 
ATOM     14  C   UNL     1      18.273  -2.321  17.371  1.00  0.00     0.005 C 
ATOM     15  C   UNL     1      17.390  -2.317  18.638  1.00  0.00    -0.001 C 
ATOM     16  C   UNL     1      17.752  -4.758  19.459  1.00  0.00     0.007 C 
ATOM     17  C   UNL     1      15.422  -3.702  19.461  1.00  0.00     0.012 C 
ATOM     18  C   UNL     1      18.062  -1.808  19.947  1.00  0.00     0.000 C 
ATOM     19  C   UNL     1      19.097  -4.175  19.911  1.00  0.00     0.005 C 
ATOM     20  C   UNL     1      18.910  -2.878  20.726  1.00  0.00     0.003 C 
ATOM     21  C   UNL     1      18.779  -0.457  19.747  1.00  0.00     0.031 C 
ATOM     22  C   UNL     1      20.255  -2.329  21.364  1.00  0.00    -0.008 C 
ATOM     23  C   UNL     1      19.378  -0.012  21.045  1.00  0.00    -0.027 C 
ATOM     24  C   UNL     1      20.061  -0.877  21.817  1.00  0.00    -0.065 C 
ATOM     25  C   UNL     1      20.619  -3.186  22.617  1.00  0.00     0.014 C 
ATOM     26  C   UNL     1      21.437  -2.390  20.357  1.00  0.00     0.016 C 
ATOM     27  C   UNL     1      20.482  -0.448  23.206  1.00  0.00     0.063 C 
ATOM     28  C   UNL     1      21.819  -2.640  23.416  1.00  0.00     0.033 C 
ATOM     29  C   UNL     1      21.814  -1.103  23.614  1.00  0.00     0.118 C 
BRANCH  29  30
ATOM     30  O   UNL     1      22.874  -0.533  22.885  1.00  0.00    -0.393 OA
ATOM     31  H   UNL     1      23.220  -1.239  22.276  1.00  0.00     0.210 HD
ENDBRANCH  29  30
ENDBRANCH   9  11
ENDBRANCH   1   9
TORSDOF 7
ENDMDL
MODEL 3
REMARK VINA RESULT:    -7.032     14.535     17.533
REMARK INTER + INTRA:         -10.705
REMARK INTER:                  -9.181
REMARK INTRA:                  -1.524
REMARK UNBOUND:                -1.000
REMARK SMILES CC[C@H](CC[C@H](C)[C@@H]1CC[C@@H]2[C@@H]3CC=C4C[C@H](O)CC[C@@]4(C)[C@@H]3CC[C@@]21C)C(C)C
REMARK SMILES IDX 5 1 4 2 3 3 2 4 1 5 28 6 29 7 30 8 6 9 7 10 8 11 9 12 26 13
REMARK SMILES IDX 10 14 11 15 25 16 27 17 12 18 24 19 23 20 13 21 21 22 14 23
REMARK SMILES IDX 15 24 20 25 22 26 16 27 19 28 17 29 18 30
REMARK H PARENT 18 31
REMARK Flexibility Score: inf
ROOT
ATOM      1  C   UNL     1      19.467 -15.638   6.353  1.00  0.00     0.004 C 
ENDROOT
BRANCH   1   2
ATOM      2  C   UNL     1      18.358 -15.641   7.439  1.00  0.00     0.004 C 
BRANCH   2   3
ATOM      3  C   UNL     1      18.779 -14.927   8.756  1.00  0.00    -0.009 C 
BRANCH   3   4
ATOM      4  C   UNL     1      18.162 -13.502   8.890  1.00  0.00     0.000 C 
ATOM      5  C   UNL     1      17.239 -13.051   7.752  1.00  0.00     0.004 C 
ENDBRANCH   3   4
BRANCH   3   6
ATOM      6  C   UNL     1      18.637 -15.859  10.007  1.00  0.00    -0.014 C 
ATOM      7  C   UNL     1      18.260 -17.299   9.624  1.00  0.00     0.007 C 
ATOM      8  C   UNL     1      19.837 -15.856  10.974  1.00  0.00     0.007 C 
ENDBRANCH   3   6
ENDBRANCH   2   3
ENDBRANCH   1   2
BRANCH   1   9
ATOM      9  C   UNL     1      19.175 -14.698   5.149  1.00  0.00    -0.011 C 
ATOM     10  C   UNL     1      18.379 -15.435   4.050  1.00  0.00     0.008 C 
BRANCH   9  11
ATOM     11  C   UNL     1      20.468 -14.039   4.519  1.00  0.00    -0.002 C 
ATOM     12  C   UNL     1      21.842 -14.589   4.926  1.00  0.00     0.005 C 
ATOM     13  C   UNL     1      20.621 -12.505   4.708  1.00  0.00    -0.026 C 
ATOM     14  C   UNL     1      22.851 -13.531   4.468  1.00  0.00     0.005 C 
ATOM     15  C   UNL     1      22.031 -12.274   4.107  1.00  0.00    -0.001 C 
ATOM     16  C   UNL     1      20.534 -12.077   6.224  1.00  0.00     0.007 C 
ATOM     17  C   UNL     1      19.552 -11.748   3.884  1.00  0.00     0.012 C 
ATOM     18  C   UNL     1      22.673 -10.902   4.468  1.00  0.00     0.000 C 
ATOM     19  C   UNL     1      21.837 -11.539   6.828  1.00  0.00     0.005 C 
ATOM     20  C   UNL     1      22.456 -10.431   5.952  1.00  0.00     0.003 C 
ATOM     21  C   UNL     1      24.130 -10.794   3.977  1.00  0.00     0.031 C 
ATOM     22  C   UNL     1      23.711  -9.721   6.618  1.00  0.00    -0.008 C 
ATOM     23  C   UNL     1      24.679  -9.446   4.331  1.00  0.00    -0.027 C 
ATOM     24  C   UNL     1      24.481  -8.926   5.557  1.00  0.00    -0.065 C 
ATOM     25  C   UNL     1      23.218  -8.724   7.712  1.00  0.00     0.014 C 
ATOM     26  C   UNL     1      24.672 -10.750   7.275  1.00  0.00     0.016 C 
ATOM     27  C   UNL     1      24.876  -7.488   5.818  1.00  0.00     0.063 C 
ATOM     28  C   UNL     1      24.342  -7.854   8.311  1.00  0.00     0.033 C 
ATOM     29  C   UNL     1      25.343  -7.291   7.271  1.00  0.00     0.118 C 
BRANCH  29  30
ATOM     30  O   UNL     1      26.601  -7.895   7.458  1.00  0.00    -0.393 OA
ATOM     31  H   UNL     1      27.272  -7.309   7.015  1.00  0.00     0.210 HD
ENDBRANCH  29  30
ENDBRANCH   9  11
ENDBRANCH   1   9
TORSDOF 7
ENDMDL
MODEL 4
REMARK VINA RESULT:    -6.713     13.828     17.104
REMARK INTER + INTRA:         -10.264
REMARK INTER:                  -9.889
REMARK INTRA:                  -0.375
REMARK UNBOUND:                -1.000
REMARK SMILES CC[C@H](CC[C@H](C)[C@@H]1CC[C@@H]2[C@@H]3CC=C4C[C@H](O)CC[C@@]4(C)[C@@H]3CC[C@@]21C)C(C)C
REMARK SMILES IDX 5 1 4 2 3 3 2 4 1 5 28 6 29 7 30 8 6 9 7 10 8 11 9 12 26 13
REMARK SMILES IDX 10 14 11 15 25 16 27 17 12 18 24 19 23 20 13 21 21 22 14 23
REMARK SMILES IDX 15 24 20 25 22 26 16 27 19 28 17 29 18 30
REMARK H PARENT 18 31
REMARK Flexibility Score: inf
ROOT
ATOM      1  C   UNL     1      20.124 -14.280   5.888  1.00  0.00     0.004 C 
ENDROOT
BRANCH   1   2
ATOM      2  C   UNL     1      19.079 -15.371   6.239  1.00  0.00     0.004 C 
BRANCH   2   3
ATOM      3  C   UNL     1      18.353 -15.122   7.594  1.00  0.00    -0.009 C 
BRANCH   3   4
ATOM      4  C   UNL     1      18.378 -16.372   8.526  1.00  0.00     0.000 C 
ATOM      5  C   UNL     1      18.264 -17.736   7.837  1.00  0.00     0.004 C 
ENDBRANCH   3   4
BRANCH   3   6
ATOM      6  C   UNL     1      18.775 -13.764   8.252  1.00  0.00    -0.014 C 
ATOM      7  C   UNL     1      17.648 -12.720   8.211  1.00  0.00     0.007 C 
ATOM      8  C   UNL     1      19.358 -13.872   9.674  1.00  0.00     0.007 C 
ENDBRANCH   3   6
ENDBRANCH   2   3
ENDBRANCH   1   2
BRANCH   1   9
ATOM      9  C   UNL     1      20.632 -14.337   4.419  1.00  0.00    -0.011 C 
ATOM     10  C   UNL     1      21.224 -15.725   4.090  1.00  0.00     0.008 C 
BRANCH   9  11
ATOM     11  C   UNL     1      21.684 -13.211   4.059  1.00  0.00    -0.002 C 
ATOM     12  C   UNL     1      23.174 -13.499   4.285  1.00  0.00     0.005 C 
ATOM     13  C   UNL     1      21.474 -11.831   4.740  1.00  0.00    -0.026 C 
ATOM     14  C   UNL     1      23.864 -12.135   4.214  1.00  0.00     0.005 C 
ATOM     15  C   UNL     1      22.744 -11.075   4.269  1.00  0.00    -0.001 C 
ATOM     16  C   UNL     1      21.389 -11.945   6.312  1.00  0.00     0.007 C 
ATOM     17  C   UNL     1      20.202 -11.142   4.192  1.00  0.00     0.012 C 
ATOM     18  C   UNL     1      23.058  -9.776   5.068  1.00  0.00     0.000 C 
ATOM     19  C   UNL     1      22.561 -11.321   7.079  1.00  0.00     0.005 C 
ATOM     20  C   UNL     1      22.835  -9.874   6.621  1.00  0.00     0.003 C 
ATOM     21  C   UNL     1      24.410  -9.155   4.662  1.00  0.00     0.031 C 
ATOM     22  C   UNL     1      23.923  -9.124   7.502  1.00  0.00    -0.008 C 
ATOM     23  C   UNL     1      24.640  -7.900   5.445  1.00  0.00    -0.027 C 
ATOM     24  C   UNL     1      24.405  -7.866   6.770  1.00  0.00    -0.065 C 
ATOM     25  C   UNL     1      23.280  -8.685   8.854  1.00  0.00     0.014 C 
ATOM     26  C   UNL     1      25.146 -10.034   7.802  1.00  0.00     0.016 C 
ATOM     27  C   UNL     1      24.459  -6.537   7.492  1.00  0.00     0.063 C 
ATOM     28  C   UNL     1      24.198  -7.801   9.721  1.00  0.00     0.033 C 
ATOM     29  C   UNL     1      24.962  -6.704   8.937  1.00  0.00     0.118 C 
BRANCH  29  30
ATOM     30  O   UNL     1      26.338  -7.001   8.936  1.00  0.00    -0.393 OA
ATOM     31  H   UNL     1      26.452  -7.846   9.449  1.00  0.00     0.210 HD
ENDBRANCH  29  30
ENDBRANCH   9  11
ENDBRANCH   1   9
TORSDOF 7
ENDMDL
MODEL 5
REMARK VINA RESULT:    -6.438     14.512     17.684
REMARK INTER + INTRA:          -9.885
REMARK INTER:                  -9.521
REMARK INTRA:                  -0.364
REMARK UNBOUND:                -1.000
REMARK SMILES CC[C@H](CC[C@H](C)[C@@H]1CC[C@@H]2[C@@H]3CC=C4C[C@H](O)CC[C@@]4(C)[C@@H]3CC[C@@]21C)C(C)C
REMARK SMILES IDX 5 1 4 2 3 3 2 4 1 5 28 6 29 7 30 8 6 9 7 10 8 11 9 12 26 13
REMARK SMILES IDX 10 14 11 15 25 16 27 17 12 18 24 19 23 20 13 21 21 22 14 23
REMARK SMILES IDX 15 24 20 25 22 26 16 27 19 28 17 29 18 30
REMARK H PARENT 18 31
REMARK Flexibility Score: inf
ROOT
ATOM      1  C   UNL     1      17.302 -16.894   9.987  1.00  0.00     0.004 C 
ENDROOT
BRANCH   1   2
ATOM      2  C   UNL     1      18.379 -16.351   9.010  1.00  0.00     0.004 C 
BRANCH   2   3
ATOM      3  C   UNL     1      18.752 -14.862   9.266  1.00  0.00    -0.009 C 
BRANCH   3   4
ATOM      4  C   UNL     1      17.569 -13.889   8.978  1.00  0.00     0.000 C 
ATOM      5  C   UNL     1      17.318 -13.539   7.507  1.00  0.00     0.004 C 
ENDBRANCH   3   4
BRANCH   3   6
ATOM      6  C   UNL     1      19.492 -14.661  10.632  1.00  0.00    -0.014 C 
ATOM      7  C   UNL     1      18.710 -13.750  11.591  1.00  0.00     0.007 C 
ATOM      8  C   UNL     1      19.919 -15.956  11.349  1.00  0.00     0.007 C 
ENDBRANCH   3   6
ENDBRANCH   2   3
ENDBRANCH   1   2
BRANCH   1   9
ATOM      9  C   UNL     1      17.295 -18.443  10.126  1.00  0.00    -0.011 C 
ATOM     10  C   UNL     1      17.206 -19.124   8.742  1.00  0.00     0.008 C 
BRANCH   9  11
ATOM     11  C   UNL     1      16.151 -18.998  11.067  1.00  0.00    -0.002 C 
ATOM     12  C   UNL     1      14.690 -18.803  10.640  1.00  0.00     0.005 C 
ATOM     13  C   UNL     1      16.167 -18.500  12.538  1.00  0.00    -0.026 C 
ATOM     14  C   UNL     1      13.860 -19.088  11.894  1.00  0.00     0.005 C 
ATOM     15  C   UNL     1      14.854 -19.125  13.075  1.00  0.00    -0.001 C 
ATOM     16  C   UNL     1      16.170 -16.925  12.637  1.00  0.00     0.007 C 
ATOM     17  C   UNL     1      17.388 -19.077  13.294  1.00  0.00     0.012 C 
ATOM     18  C   UNL     1      14.352 -18.522  14.420  1.00  0.00     0.000 C 
ATOM     19  C   UNL     1      14.893 -16.302  13.214  1.00  0.00     0.005 C 
ATOM     20  C   UNL     1      14.491 -16.962  14.549  1.00  0.00     0.003 C 
ATOM     21  C   UNL     1      12.968 -19.069  14.823  1.00  0.00     0.031 C 
ATOM     22  C   UNL     1      13.277 -16.240  15.274  1.00  0.00    -0.008 C 
ATOM     23  C   UNL     1      12.556 -18.472  16.134  1.00  0.00    -0.027 C 
ATOM     24  C   UNL     1      12.706 -17.155  16.364  1.00  0.00    -0.065 C 
ATOM     25  C   UNL     1      13.787 -14.931  15.954  1.00  0.00     0.014 C 
ATOM     26  C   UNL     1      12.145 -15.876  14.275  1.00  0.00     0.016 C 
ATOM     27  C   UNL     1      12.465 -16.621  17.760  1.00  0.00     0.063 C 
ATOM     28  C   UNL     1      12.727 -14.233  16.830  1.00  0.00     0.033 C 
ATOM     29  C   UNL     1      11.897 -15.191  17.722  1.00  0.00     0.118 C 
BRANCH  29  30
ATOM     30  O   UNL     1      10.564 -15.214  17.270  1.00  0.00    -0.393 OA
ATOM     31  H   UNL     1      10.010 -15.561  18.019  1.00  0.00     0.210 HD
ENDBRANCH  29  30
ENDBRANCH   9  11
ENDBRANCH   1   9
TORSDOF 7
ENDMDL
MODEL 6
REMARK VINA RESULT:    -6.041     13.641     16.617
REMARK INTER + INTRA:          -9.338
REMARK INTER:                  -8.305
REMARK INTRA:                  -1.033
REMARK UNBOUND:                -1.000
REMARK SMILES CC[C@H](CC[C@H](C)[C@@H]1CC[C@@H]2[C@@H]3CC=C4C[C@H](O)CC[C@@]4(C)[C@@H]3CC[C@@]21C)C(C)C
REMARK SMILES IDX 5 1 4 2 3 3 2 4 1 5 28 6 29 7 30 8 6 9 7 10 8 11 9 12 26 13
REMARK SMILES IDX 10 14 11 15 25 16 27 17 12 18 24 19 23 20 13 21 21 22 14 23
REMARK SMILES IDX 15 24 20 25 22 26 16 27 19 28 17 29 18 30
REMARK H PARENT 18 31
REMARK Flexibility Score: inf
ROOT
ATOM      1  C   UNL     1       8.295 -14.329  17.797  1.00  0.00     0.004 C 
ENDROOT
BRANCH   1   2
ATOM      2  C   UNL     1       9.191 -13.063  17.761  1.00  0.00     0.004 C 
BRANCH   2   3
ATOM      3  C   UNL     1       9.171 -12.328  16.389  1.00  0.00    -0.009 C 
BRANCH   3   4
ATOM      4  C   UNL     1       8.195 -11.113  16.374  1.00  0.00     0.000 C 
ATOM      5  C   UNL     1       8.838  -9.726  16.274  1.00  0.00     0.004 C 
ENDBRANCH   3   4
BRANCH   3   6
ATOM      6  C   UNL     1      10.613 -12.061  15.838  1.00  0.00    -0.014 C 
ATOM      7  C   UNL     1      11.706 -12.556  16.798  1.00  0.00     0.007 C 
ATOM      8  C   UNL     1      10.880 -12.571  14.409  1.00  0.00     0.007 C 
ENDBRANCH   3   6
ENDBRANCH   2   3
ENDBRANCH   1   2
BRANCH   1   9
ATOM      9  C   UNL     1       8.512 -15.226  19.050  1.00  0.00    -0.011 C 
ATOM     10  C   UNL     1       8.333 -14.413  20.351  1.00  0.00     0.008 C 
BRANCH   9  11
ATOM     11  C   UNL     1       9.909 -15.968  19.074  1.00  0.00    -0.002 C 
ATOM     12  C   UNL     1      11.185 -15.126  19.210  1.00  0.00     0.005 C 
ATOM     13  C   UNL     1      10.215 -16.897  17.867  1.00  0.00    -0.026 C 
ATOM     14  C   UNL     1      12.331 -16.065  18.823  1.00  0.00     0.005 C 
ATOM     15  C   UNL     1      11.680 -17.305  18.175  1.00  0.00    -0.001 C 
ATOM     16  C   UNL     1      10.074 -16.150  16.485  1.00  0.00     0.007 C 
ATOM     17  C   UNL     1       9.293 -18.140  17.891  1.00  0.00     0.012 C 
ATOM     18  C   UNL     1      12.441 -17.938  16.973  1.00  0.00     0.000 C 
ATOM     19  C   UNL     1      11.385 -15.944  15.715  1.00  0.00     0.005 C 
ATOM     20  C   UNL     1      12.179 -17.259  15.580  1.00  0.00     0.003 C 
ATOM     21  C   UNL     1      13.932 -18.177  17.290  1.00  0.00     0.031 C 
ATOM     22  C   UNL     1      13.456 -17.138  14.644  1.00  0.00    -0.008 C 
ATOM     23  C   UNL     1      14.599 -18.810  16.108  1.00  0.00    -0.027 C 
ATOM     24  C   UNL     1      14.377 -18.344  14.864  1.00  0.00    -0.065 C 
ATOM     25  C   UNL     1      13.003 -17.137  13.151  1.00  0.00     0.014 C 
ATOM     26  C   UNL     1      14.253 -15.834  14.926  1.00  0.00     0.016 C 
ATOM     27  C   UNL     1      14.908 -19.124  13.681  1.00  0.00     0.063 C 
ATOM     28  C   UNL     1      14.172 -17.190  12.148  1.00  0.00     0.033 C 
ATOM     29  C   UNL     1      15.296 -18.189  12.522  1.00  0.00     0.118 C 
BRANCH  29  30
ATOM     30  O   UNL     1      16.465 -17.477  12.849  1.00  0.00    -0.393 OA
ATOM     31  H   UNL     1      16.486 -16.670  12.268  1.00  0.00     0.210 HD
ENDBRANCH  29  30
ENDBRANCH   9  11
ENDBRANCH   1   9
TORSDOF 7
ENDMDL
MODEL 7
REMARK VINA RESULT:    -5.900     14.263     17.591
REMARK INTER + INTRA:          -9.142
REMARK INTER:                  -8.536
REMARK INTRA:                  -0.606
REMARK UNBOUND:                -1.000
REMARK SMILES CC[C@H](CC[C@H](C)[C@@H]1CC[C@@H]2[C@@H]3CC=C4C[C@H](O)CC[C@@]4(C)[C@@H]3CC[C@@]21C)C(C)C
REMARK SMILES IDX 5 1 4 2 3 3 2 4 1 5 28 6 29 7 30 8 6 9 7 10 8 11 9 12 26 13
REMARK SMILES IDX 10 14 11 15 25 16 27 17 12 18 24 19 23 20 13 21 21 22 14 23
REMARK SMILES IDX 15 24 20 25 22 26 16 27 19 28 17 29 18 30
REMARK H PARENT 18 31
REMARK Flexibility Score: inf
ROOT
ATOM      1  C   UNL     1      16.948 -16.744  10.908  1.00  0.00     0.004 C 
ENDROOT
BRANCH   1   2
ATOM      2  C   UNL     1      17.991 -16.318   9.841  1.00  0.00     0.004 C 
BRANCH   2   3
ATOM      3  C   UNL     1      18.133 -14.775   9.694  1.00  0.00    -0.009 C 
BRANCH   3   4
ATOM      4  C   UNL     1      18.820 -14.116  10.928  1.00  0.00     0.000 C 
ATOM      5  C   UNL     1      18.183 -12.824  11.452  1.00  0.00     0.004 C 
ENDBRANCH   3   4
BRANCH   3   6
ATOM      6  C   UNL     1      18.695 -14.362   8.291  1.00  0.00    -0.014 C 
ATOM      7  C   UNL     1      18.646 -15.517   7.278  1.00  0.00     0.007 C 
ATOM      8  C   UNL     1      18.082 -13.086   7.683  1.00  0.00     0.007 C 
ENDBRANCH   3   6
ENDBRANCH   2   3
ENDBRANCH   1   2
BRANCH   1   9
ATOM      9  C   UNL     1      16.962 -18.263  11.239  1.00  0.00    -0.011 C 
ATOM     10  C   UNL     1      17.228 -19.105   9.971  1.00  0.00     0.008 C 
BRANCH   9  11
ATOM     11  C   UNL     1      15.648 -18.777  11.954  1.00  0.00    -0.002 C 
ATOM     12  C   UNL     1      14.289 -18.424  11.333  1.00  0.00     0.005 C 
ATOM     13  C   UNL     1      15.477 -18.384  13.446  1.00  0.00    -0.026 C 
ATOM     14  C   UNL     1      13.257 -18.719  12.425  1.00  0.00     0.005 C 
ATOM     15  C   UNL     1      14.052 -18.925  13.732  1.00  0.00    -0.001 C 
ATOM     16  C   UNL     1      15.587 -16.826  13.672  1.00  0.00     0.007 C 
ATOM     17  C   UNL     1      16.519 -19.118  14.324  1.00  0.00     0.012 C 
ATOM     18  C   UNL     1      13.398 -18.373  15.033  1.00  0.00     0.000 C 
ATOM     19  C   UNL     1      14.288 -16.133  14.103  1.00  0.00     0.005 C 
ATOM     20  C   UNL     1      13.637 -16.844  15.307  1.00  0.00     0.003 C 
ATOM     21  C   UNL     1      11.930 -18.821  15.182  1.00  0.00     0.031 C 
ATOM     22  C   UNL     1      12.386 -16.068  15.901  1.00  0.00    -0.008 C 
ATOM     23  C   UNL     1      11.370 -18.281  16.462  1.00  0.00    -0.027 C 
ATOM     24  C   UNL     1      11.584 -17.001  16.818  1.00  0.00    -0.065 C 
ATOM     25  C   UNL     1      12.885 -14.859  16.753  1.00  0.00     0.014 C 
ATOM     26  C   UNL     1      11.452 -15.537  14.779  1.00  0.00     0.016 C 
ATOM     27  C   UNL     1      11.174 -16.544  18.201  1.00  0.00     0.063 C 
ATOM     28  C   UNL     1      11.761 -14.131  17.516  1.00  0.00     0.033 C 
ATOM     29  C   UNL     1      10.732 -15.070  18.196  1.00  0.00     0.118 C 
BRANCH  29  30
ATOM     30  O   UNL     1       9.486 -14.943  17.552  1.00  0.00    -0.393 OA
ATOM     31  H   UNL     1       9.021 -15.817  17.648  1.00  0.00     0.210 HD
ENDBRANCH  29  30
ENDBRANCH   9  11
ENDBRANCH   1   9
TORSDOF 7
ENDMDL
MODEL 8
REMARK VINA RESULT:    -5.893     13.790     17.549
REMARK INTER + INTRA:          -9.133
REMARK INTER:                  -7.554
REMARK INTRA:                  -1.579
REMARK UNBOUND:                -1.000
REMARK SMILES CC[C@H](CC[C@H](C)[C@@H]1CC[C@@H]2[C@@H]3CC=C4C[C@H](O)CC[C@@]4(C)[C@@H]3CC[C@@]21C)C(C)C
REMARK SMILES IDX 5 1 4 2 3 3 2 4 1 5 28 6 29 7 30 8 6 9 7 10 8 11 9 12 26 13
REMARK SMILES IDX 10 14 11 15 25 16 27 17 12 18 24 19 23 20 13 21 21 22 14 23
REMARK SMILES IDX 15 24 20 25 22 26 16 27 19 28 17 29 18 30
REMARK H PARENT 18 31
REMARK Flexibility Score: inf
ROOT
ATOM      1  C   UNL     1      23.320  -8.665   4.403  1.00  0.00     0.004 C 
ENDROOT
BRANCH   1   2
ATOM      2  C   UNL     1      23.544  -7.695   5.593  1.00  0.00     0.004 C 
BRANCH   2   3
ATOM      3  C   UNL     1      24.298  -8.346   6.789  1.00  0.00    -0.009 C 
BRANCH   3   4
ATOM      4  C   UNL     1      25.840  -8.124   6.718  1.00  0.00     0.000 C 
ATOM      5  C   UNL     1      26.711  -9.383   6.775  1.00  0.00     0.004 C 
ENDBRANCH   3   4
BRANCH   3   6
ATOM      6  C   UNL     1      23.619  -8.025   8.164  1.00  0.00    -0.014 C 
ATOM      7  C   UNL     1      23.638  -9.228   9.120  1.00  0.00     0.007 C 
ATOM      8  C   UNL     1      24.137  -6.761   8.878  1.00  0.00     0.007 C 
ENDBRANCH   3   6
ENDBRANCH   2   3
ENDBRANCH   1   2
BRANCH   1   9
ATOM      9  C   UNL     1      23.620 -10.155   4.732  1.00  0.00    -0.011 C 
ATOM     10  C   UNL     1      24.793 -10.687   3.879  1.00  0.00     0.008 C 
BRANCH   9  11
ATOM     11  C   UNL     1      22.370 -11.112   4.576  1.00  0.00    -0.002 C 
ATOM     12  C   UNL     1      20.965 -10.502   4.659  1.00  0.00     0.005 C 
ATOM     13  C   UNL     1      22.300 -12.319   5.551  1.00  0.00    -0.026 C 
ATOM     14  C   UNL     1      20.019 -11.691   4.853  1.00  0.00     0.005 C 
ATOM     15  C   UNL     1      20.910 -12.905   5.194  1.00  0.00    -0.001 C 
ATOM     16  C   UNL     1      22.398 -11.874   7.062  1.00  0.00     0.007 C 
ATOM     17  C   UNL     1      23.416 -13.342   5.230  1.00  0.00     0.012 C 
ATOM     18  C   UNL     1      20.341 -13.908   6.241  1.00  0.00     0.000 C 
ATOM     19  C   UNL     1      21.121 -12.075   7.887  1.00  0.00     0.005 C 
ATOM     20  C   UNL     1      20.571 -13.509   7.744  1.00  0.00     0.003 C 
ATOM     21  C   UNL     1      18.896 -14.334   5.913  1.00  0.00     0.031 C 
ATOM     22  C   UNL     1      19.351 -13.822   8.712  1.00  0.00    -0.008 C 
ATOM     23  C   UNL     1      18.420 -15.316   6.940  1.00  0.00    -0.027 C 
ATOM     24  C   UNL     1      18.635 -15.096   8.250  1.00  0.00    -0.065 C 
ATOM     25  C   UNL     1      19.888 -14.061  10.158  1.00  0.00     0.014 C 
ATOM     26  C   UNL     1      18.330 -12.652   8.746  1.00  0.00     0.016 C 
ATOM     27  C   UNL     1      18.317 -16.195   9.241  1.00  0.00     0.063 C 
ATOM     28  C   UNL     1      18.809 -14.537  11.150  1.00  0.00     0.033 C 
ATOM     29  C   UNL     1      17.849 -15.616  10.588  1.00  0.00     0.118 C 
BRANCH  29  30
ATOM     30  O   UNL     1      16.558 -15.070  10.454  1.00  0.00    -0.393 OA
ATOM     31  H   UNL     1      16.090 -15.219  11.319  1.00  0.00     0.210 HD
ENDBRANCH  29  30
ENDBRANCH   9  11
ENDBRANCH   1   9
TORSDOF 7
ENDMDL
MODEL 9
REMARK VINA RESULT:    -5.878     14.046     17.158
REMARK INTER + INTRA:          -9.112
REMARK INTER:                  -9.176
REMARK INTRA:                   0.064
REMARK UNBOUND:                -1.000
REMARK SMILES CC[C@H](CC[C@H](C)[C@@H]1CC[C@@H]2[C@@H]3CC=C4C[C@H](O)CC[C@@]4(C)[C@@H]3CC[C@@]21C)C(C)C
REMARK SMILES IDX 5 1 4 2 3 3 2 4 1 5 28 6 29 7 30 8 6 9 7 10 8 11 9 12 26 13
REMARK SMILES IDX 10 14 11 15 25 16 27 17 12 18 24 19 23 20 13 21 21 22 14 23
REMARK SMILES IDX 15 24 20 25 22 26 16 27 19 28 17 29 18 30
REMARK H PARENT 18 31
REMARK Flexibility Score: inf
ROOT
ATOM      1  C   UNL     1      20.331 -13.221   4.045  1.00  0.00     0.004 C 
ENDROOT
BRANCH   1   2
ATOM      2  C   UNL     1      19.009 -13.121   4.852  1.00  0.00     0.004 C 
BRANCH   2   3
ATOM      3  C   UNL     1      18.374 -14.505   5.175  1.00  0.00    -0.009 C 
BRANCH   3   4
ATOM      4  C   UNL     1      19.289 -15.696   4.758  1.00  0.00     0.000 C 
ATOM      5  C   UNL     1      18.646 -16.771   3.875  1.00  0.00     0.004 C 
ENDBRANCH   3   4
BRANCH   3   6
ATOM      6  C   UNL     1      17.785 -14.563   6.625  1.00  0.00    -0.014 C 
ATOM      7  C   UNL     1      18.652 -15.406   7.574  1.00  0.00     0.007 C 
ATOM      8  C   UNL     1      17.461 -13.198   7.263  1.00  0.00     0.007 C 
ENDBRANCH   3   6
ENDBRANCH   2   3
ENDBRANCH   1   2
BRANCH   1   9
ATOM      9  C   UNL     1      21.614 -13.226   4.924  1.00  0.00    -0.011 C 
ATOM     10  C   UNL     1      21.269 -12.974   6.409  1.00  0.00     0.008 C 
BRANCH   9  11
ATOM     11  C   UNL     1      22.721 -12.200   4.452  1.00  0.00    -0.002 C 
ATOM     12  C   UNL     1      24.193 -12.530   4.733  1.00  0.00     0.005 C 
ATOM     13  C   UNL     1      22.572 -10.742   4.965  1.00  0.00    -0.026 C 
ATOM     14  C   UNL     1      24.950 -11.217   4.514  1.00  0.00     0.005 C 
ATOM     15  C   UNL     1      23.881 -10.106   4.429  1.00  0.00    -0.001 C 
ATOM     16  C   UNL     1      22.466 -10.668   6.537  1.00  0.00     0.007 C 
ATOM     17  C   UNL     1      21.339 -10.063   4.321  1.00  0.00     0.012 C 
ATOM     18  C   UNL     1      24.249  -8.739   5.076  1.00  0.00     0.000 C 
ATOM     19  C   UNL     1      23.660 -10.014   7.244  1.00  0.00     0.005 C 
ATOM     20  C   UNL     1      24.007  -8.644   6.626  1.00  0.00     0.003 C 
ATOM     21  C   UNL     1      25.634  -8.234   4.621  1.00  0.00     0.031 C 
ATOM     22  C   UNL     1      25.121  -7.849   7.430  1.00  0.00    -0.008 C 
ATOM     23  C   UNL     1      25.916  -6.907   5.256  1.00  0.00    -0.027 C 
ATOM     24  C   UNL     1      25.670  -6.708   6.565  1.00  0.00    -0.065 C 
ATOM     25  C   UNL     1      24.486  -7.225   8.712  1.00  0.00     0.014 C 
ATOM     26  C   UNL     1      26.296  -8.773   7.853  1.00  0.00     0.016 C 
ATOM     27  C   UNL     1      25.780  -5.308   7.128  1.00  0.00     0.063 C 
ATOM     28  C   UNL     1      25.438  -6.290   9.484  1.00  0.00     0.033 C 
ATOM     29  C   UNL     1      26.261  -5.329   8.590  1.00  0.00     0.118 C 
BRANCH  29  30
ATOM     30  O   UNL     1      27.621  -5.687   8.645  1.00  0.00    -0.393 OA
ATOM     31  H   UNL     1      28.080  -5.196   7.912  1.00  0.00     0.210 HD
ENDBRANCH  29  30
ENDBRANCH   9  11
ENDBRANCH   1   9
TORSDOF 7
ENDMDL
