MODEL 1
REMARK VINA RESULT:    -5.651      0.000      0.000
REMARK INTER + INTRA:         -11.871
REMARK INTER:                  -9.285
REMARK INTRA:                  -2.586
REMARK UNBOUND:                -2.586
REMARK SMILES C[C@H]1O[C@@H](OC[C@H]2O[C@@H](Oc3c(-c4ccc(O)c(O)c4)oc4cc(O)cc(O)c4c3=O)[C@@H](O)[C@H](O)[C@H]2O)[C@@H](O)[C@H](O)[C@@H]1O
REMARK SMILES IDX 7 1 36 2 34 3 32 4 9 5 8 6 6 7 5 8 4 9 1 10 2 11 42 12 3 13
REMARK SMILES IDX 40 14 38 15 43 16 41 18 39 20 37 22 35 24 10 26 11 27 12 28
REMARK SMILES IDX 30 29 21 30 29 31 31 32 22 33 27 34 23 35 26 36 24 37 13 38
REMARK SMILES IDX 20 39 14 40 18 41 15 42 16 43 19 44 17 46 28 48 25 50 33 52
REMARK H PARENT 43 17 41 19 39 21 37 23 35 25 19 45 17 47 28 49 25 51 33 53
REMARK Flexibility Score: inf
ROOT
ATOM      1  C   UNL     1       6.971   0.519   6.920  1.00  0.00     0.180 C 
ATOM      2  C   UNL     1       8.326   0.739   6.181  1.00  0.00     0.177 C 
ATOM      3  C   UNL     1       8.700  -0.511   5.373  1.00  0.00     0.180 C 
ATOM      4  C   UNL     1       8.712  -1.706   6.330  1.00  0.00     0.214 C 
ATOM      5  C   UNL     1       7.349  -1.853   7.050  1.00  0.00     0.339 C 
ATOM      6  O   UNL     1       6.957  -0.659   7.725  1.00  0.00    -0.332 OA
ENDROOT
BRANCH   1   7
ATOM      7  C   UNL     1       5.722   0.617   6.007  1.00  0.00     0.198 C 
BRANCH   7   8
ATOM      8  O   UNL     1       5.432   1.963   5.703  1.00  0.00    -0.347 OA
BRANCH   8   9
ATOM      9  C   UNL     1       5.235   2.777   6.846  1.00  0.00     0.281 C 
ATOM     10  C   UNL     1       3.086   2.964   4.690  1.00  0.00     0.041 C 
ATOM     11  C   UNL     1       3.169   3.653   6.079  1.00  0.00     0.150 C 
ATOM     12  C   UNL     1       3.702   5.110   5.992  1.00  0.00     0.174 C 
ATOM     13  O   UNL     1       3.842   2.892   7.085  1.00  0.00    -0.344 OA
ATOM     14  C   UNL     1       5.215   5.109   5.728  1.00  0.00     0.179 C 
ATOM     15  C   UNL     1       5.912   4.184   6.761  1.00  0.00     0.202 C 
BRANCH  12  16
ATOM     16  O   UNL     1       3.444   5.823   7.184  1.00  0.00    -0.388 OA
ATOM     17  H   UNL     1       2.500   6.105   7.180  1.00  0.00     0.211 HD
ENDBRANCH  12  16
BRANCH  14  18
ATOM     18  O   UNL     1       5.702   6.429   5.848  1.00  0.00    -0.387 OA
ATOM     19  H   UNL     1       4.926   7.050   5.855  1.00  0.00     0.211 HD
ENDBRANCH  14  18
BRANCH  15  20
ATOM     20  O   UNL     1       7.299   4.074   6.542  1.00  0.00    -0.385 OA
ATOM     21  H   UNL     1       7.523   4.463   5.655  1.00  0.00     0.211 HD
ENDBRANCH  15  20
ENDBRANCH   8   9
ENDBRANCH   7   8
ENDBRANCH   1   7
BRANCH   2  22
ATOM     22  O   UNL     1       8.296   1.867   5.337  1.00  0.00    -0.387 OA
ATOM     23  H   UNL     1       9.251   2.095   5.128  1.00  0.00     0.211 HD
ENDBRANCH   2  22
BRANCH   3  24
ATOM     24  O   UNL     1       9.972  -0.374   4.791  1.00  0.00    -0.387 OA
ATOM     25  H   UNL     1      10.346   0.484   5.119  1.00  0.00     0.211 HD
ENDBRANCH   3  24
BRANCH   5  26
ATOM     26  O   UNL     1       6.373  -2.359   6.142  1.00  0.00    -0.454 OA
BRANCH  26  27
ATOM     27  C   UNL     1       5.277  -3.214   6.391  1.00  0.00     0.214 A 
ATOM     28  C   UNL     1       5.308  -4.515   5.847  1.00  0.00     0.180 A 
ATOM     29  C   UNL     1       4.109  -2.806   7.054  1.00  0.00     0.239 A 
ATOM     30  O   UNL     1       4.193  -5.240   5.793  1.00  0.00    -0.452 OA
ATOM     31  C   UNL     1       2.909  -3.511   6.819  1.00  0.00     0.111 A 
ATOM     32  O   UNL     1       4.121  -1.817   7.830  1.00  0.00    -0.285 OA
ATOM     33  C   UNL     1       3.010  -4.779   6.177  1.00  0.00     0.146 A 
ATOM     34  C   UNL     1       1.619  -2.991   7.104  1.00  0.00     0.134 A 
ATOM     35  C   UNL     1       1.871  -5.508   5.848  1.00  0.00     0.094 A 
ATOM     36  C   UNL     1       0.486  -3.717   6.724  1.00  0.00     0.093 A 
ATOM     37  C   UNL     1       0.609  -4.976   6.094  1.00  0.00     0.123 A 
BRANCH  28  38
ATOM     38  C   UNL     1       6.538  -5.105   5.293  1.00  0.00     0.025 A 
ATOM     39  C   UNL     1       6.806  -5.063   3.909  1.00  0.00     0.062 A 
ATOM     40  C   UNL     1       7.424  -5.770   6.147  1.00  0.00     0.016 A 
ATOM     41  C   UNL     1       7.986  -5.626   3.401  1.00  0.00     0.158 A 
ATOM     42  C   UNL     1       8.590  -6.348   5.639  1.00  0.00     0.051 A 
ATOM     43  C   UNL     1       8.888  -6.261   4.270  1.00  0.00     0.157 A 
BRANCH  41  44
ATOM     44  O   UNL     1       8.268  -5.561   2.033  1.00  0.00    -0.504 OA
ATOM     45  H   UNL     1       8.063  -6.342   1.418  1.00  0.00     0.293 HD
ENDBRANCH  41  44
BRANCH  43  46
ATOM     46  O   UNL     1      10.073  -6.797   3.768  1.00  0.00    -0.504 OA
ATOM     47  H   UNL     1      10.509  -6.435   2.928  1.00  0.00     0.293 HD
ENDBRANCH  43  46
ENDBRANCH  28  38
BRANCH  34  48
ATOM     48  O   UNL     1       1.424  -1.712   7.627  1.00  0.00    -0.507 OA
ATOM     49  H   UNL     1       2.148  -1.247   8.178  1.00  0.00     0.293 HD
ENDBRANCH  34  48
BRANCH  37  50
ATOM     50  O   UNL     1      -0.520  -5.677   5.677  1.00  0.00    -0.508 OA
ATOM     51  H   UNL     1      -0.473  -6.679   5.461  1.00  0.00     0.293 HD
ENDBRANCH  37  50
ENDBRANCH  26  27
ENDBRANCH   5  26
BRANCH   4  52
ATOM     52  O   UNL     1       9.007  -2.883   5.612  1.00  0.00    -0.384 OA
ATOM     53  H   UNL     1       8.307  -3.548   5.843  1.00  0.00     0.211 HD
ENDBRANCH   4  52
TORSDOF 16
ENDMDL
MODEL 2
REMARK VINA RESULT:    -5.205      2.053      4.823
REMARK INTER + INTRA:         -11.138
REMARK INTER:                  -7.852
REMARK INTRA:                  -3.286
REMARK UNBOUND:                -2.586
REMARK SMILES C[C@H]1O[C@@H](OC[C@H]2O[C@@H](Oc3c(-c4ccc(O)c(O)c4)oc4cc(O)cc(O)c4c3=O)[C@@H](O)[C@H](O)[C@H]2O)[C@@H](O)[C@H](O)[C@@H]1O
REMARK SMILES IDX 7 1 36 2 34 3 32 4 9 5 8 6 6 7 5 8 4 9 1 10 2 11 42 12 3 13
REMARK SMILES IDX 40 14 38 15 43 16 41 18 39 20 37 22 35 24 10 26 11 27 12 28
REMARK SMILES IDX 30 29 21 30 29 31 31 32 22 33 27 34 23 35 26 36 24 37 13 38
REMARK SMILES IDX 20 39 14 40 18 41 15 42 16 43 19 44 17 46 28 48 25 50 33 52
REMARK H PARENT 43 17 41 19 39 21 37 23 35 25 19 45 17 47 28 49 25 51 33 53
REMARK Flexibility Score: inf
ROOT
ATOM      1  C   UNL     1       7.581   1.914   6.566  1.00  0.00     0.180 C 
ATOM      2  C   UNL     1       8.840   2.118   5.671  1.00  0.00     0.177 C 
ATOM      3  C   UNL     1       8.936   0.997   4.625  1.00  0.00     0.180 C 
ATOM      4  C   UNL     1       8.922  -0.342   5.366  1.00  0.00     0.214 C 
ATOM      5  C   UNL     1       7.662  -0.470   6.256  1.00  0.00     0.339 C 
ATOM      6  O   UNL     1       7.524   0.621   7.166  1.00  0.00    -0.332 OA
ENDROOT
BRANCH   1   7
ATOM      7  C   UNL     1       6.244   2.303   5.886  1.00  0.00     0.198 C 
BRANCH   7   8
ATOM      8  O   UNL     1       6.155   3.701   5.727  1.00  0.00    -0.347 OA
BRANCH   8   9
ATOM      9  C   UNL     1       6.001   4.406   6.945  1.00  0.00     0.281 C 
ATOM     10  C   UNL     1       4.069   5.168   4.712  1.00  0.00     0.041 C 
ATOM     11  C   UNL     1       4.155   5.680   6.175  1.00  0.00     0.150 C 
ATOM     12  C   UNL     1       4.908   7.033   6.292  1.00  0.00     0.174 C 
ATOM     13  O   UNL     1       4.628   4.716   7.119  1.00  0.00    -0.344 OA
ATOM     14  C   UNL     1       6.418   6.819   6.114  1.00  0.00     0.179 C 
ATOM     15  C   UNL     1       6.889   5.687   7.067  1.00  0.00     0.202 C 
BRANCH  12  16
ATOM     16  O   UNL     1       4.675   7.644   7.544  1.00  0.00    -0.388 OA
ATOM     17  H   UNL     1       5.061   8.550   7.526  1.00  0.00     0.211 HD
ENDBRANCH  12  16
BRANCH  14  18
ATOM     18  O   UNL     1       7.092   8.024   6.417  1.00  0.00    -0.387 OA
ATOM     19  H   UNL     1       6.418   8.753   6.472  1.00  0.00     0.211 HD
ENDBRANCH  14  18
BRANCH  15  20
ATOM     20  O   UNL     1       8.255   5.382   6.912  1.00  0.00    -0.385 OA
ATOM     21  H   UNL     1       8.367   4.756   6.149  1.00  0.00     0.211 HD
ENDBRANCH  15  20
ENDBRANCH   8   9
ENDBRANCH   7   8
ENDBRANCH   1   7
BRANCH   2  22
ATOM     22  O   UNL     1       8.844   3.373   5.032  1.00  0.00    -0.387 OA
ATOM     23  H   UNL     1       8.084   3.899   5.426  1.00  0.00     0.211 HD
ENDBRANCH   2  22
BRANCH   3  24
ATOM     24  O   UNL     1      10.124   1.101   3.882  1.00  0.00    -0.387 OA
ATOM     25  H   UNL     1      10.780   1.575   4.455  1.00  0.00     0.211 HD
ENDBRANCH   3  24
BRANCH   5  26
ATOM     26  O   UNL     1       6.514  -0.702   5.443  1.00  0.00    -0.454 OA
BRANCH  26  27
ATOM     27  C   UNL     1       5.640  -1.811   5.423  1.00  0.00     0.214 A 
ATOM     28  C   UNL     1       4.374  -1.675   6.029  1.00  0.00     0.180 A 
ATOM     29  C   UNL     1       6.002  -3.075   4.932  1.00  0.00     0.239 A 
ATOM     30  O   UNL     1       3.648  -2.756   6.302  1.00  0.00    -0.452 OA
ATOM     31  C   UNL     1       5.306  -4.212   5.397  1.00  0.00     0.111 A 
ATOM     32  O   UNL     1       6.943  -3.201   4.108  1.00  0.00    -0.285 OA
ATOM     33  C   UNL     1       4.079  -3.992   6.086  1.00  0.00     0.146 A 
ATOM     34  C   UNL     1       5.802  -5.538   5.292  1.00  0.00     0.134 A 
ATOM     35  C   UNL     1       3.365  -5.053   6.636  1.00  0.00     0.094 A 
ATOM     36  C   UNL     1       5.094  -6.586   5.890  1.00  0.00     0.093 A 
ATOM     37  C   UNL     1       3.875  -6.346   6.564  1.00  0.00     0.123 A 
BRANCH  28  38
ATOM     38  C   UNL     1       3.823  -0.364   6.412  1.00  0.00     0.025 A 
ATOM     39  C   UNL     1       3.259   0.497   5.449  1.00  0.00     0.062 A 
ATOM     40  C   UNL     1       3.916   0.056   7.743  1.00  0.00     0.016 A 
ATOM     41  C   UNL     1       2.733   1.740   5.835  1.00  0.00     0.158 A 
ATOM     42  C   UNL     1       3.412   1.302   8.125  1.00  0.00     0.051 A 
ATOM     43  C   UNL     1       2.799   2.140   7.179  1.00  0.00     0.157 A 
BRANCH  41  44
ATOM     44  O   UNL     1       2.148   2.584   4.887  1.00  0.00    -0.504 OA
ATOM     45  H   UNL     1       1.952   3.556   5.101  1.00  0.00     0.293 HD
ENDBRANCH  41  44
BRANCH  43  46
ATOM     46  O   UNL     1       2.254   3.363   7.566  1.00  0.00    -0.504 OA
ATOM     47  H   UNL     1       1.662   3.449   8.384  1.00  0.00     0.293 HD
ENDBRANCH  43  46
ENDBRANCH  28  38
BRANCH  34  48
ATOM     48  O   UNL     1       7.047  -5.833   4.734  1.00  0.00    -0.507 OA
ATOM     49  H   UNL     1       7.161  -6.594   4.061  1.00  0.00     0.293 HD
ENDBRANCH  34  48
BRANCH  37  50
ATOM     50  O   UNL     1       3.195  -7.384   7.196  1.00  0.00    -0.508 OA
ATOM     51  H   UNL     1       3.465  -7.702   8.134  1.00  0.00     0.293 HD
ENDBRANCH  37  50
ENDBRANCH  26  27
ENDBRANCH   5  26
BRANCH   4  52
ATOM     52  O   UNL     1       8.961  -1.398   4.432  1.00  0.00    -0.384 OA
ATOM     53  H   UNL     1       8.048  -1.788   4.395  1.00  0.00     0.211 HD
ENDBRANCH   4  52
TORSDOF 16
ENDMDL
MODEL 3
REMARK VINA RESULT:    -5.138      2.270      8.558
REMARK INTER + INTRA:         -11.028
REMARK INTER:                  -9.513
REMARK INTRA:                  -1.515
REMARK UNBOUND:                -2.586
REMARK SMILES C[C@H]1O[C@@H](OC[C@H]2O[C@@H](Oc3c(-c4ccc(O)c(O)c4)oc4cc(O)cc(O)c4c3=O)[C@@H](O)[C@H](O)[C@H]2O)[C@@H](O)[C@H](O)[C@@H]1O
REMARK SMILES IDX 7 1 36 2 34 3 32 4 9 5 8 6 6 7 5 8 4 9 1 10 2 11 42 12 3 13
REMARK SMILES IDX 40 14 38 15 43 16 41 18 39 20 37 22 35 24 10 26 11 27 12 28
REMARK SMILES IDX 30 29 21 30 29 31 31 32 22 33 27 34 23 35 26 36 24 37 13 38
REMARK SMILES IDX 20 39 14 40 18 41 15 42 16 43 19 44 17 46 28 48 25 50 33 52
REMARK H PARENT 43 17 41 19 39 21 37 23 35 25 19 45 17 47 28 49 25 51 33 53
REMARK Flexibility Score: inf
ROOT
ATOM      1  C   UNL     1       2.769  -5.097   7.234  1.00  0.00     0.180 C 
ATOM      2  C   UNL     1       1.696  -4.129   7.819  1.00  0.00     0.177 C 
ATOM      3  C   UNL     1       2.067  -2.672   7.509  1.00  0.00     0.180 C 
ATOM      4  C   UNL     1       3.478  -2.420   8.047  1.00  0.00     0.214 C 
ATOM      5  C   UNL     1       4.489  -3.428   7.449  1.00  0.00     0.339 C 
ATOM      6  O   UNL     1       4.095  -4.784   7.657  1.00  0.00    -0.332 OA
ENDROOT
BRANCH   1   7
ATOM      7  C   UNL     1       2.678  -5.299   5.700  1.00  0.00     0.198 C 
BRANCH   7   8
ATOM      8  O   UNL     1       2.584  -6.670   5.384  1.00  0.00    -0.347 OA
BRANCH   8   9
ATOM      9  C   UNL     1       1.541  -7.343   6.065  1.00  0.00     0.281 C 
ATOM     10  C   UNL     1       3.073  -8.995   4.011  1.00  0.00     0.041 C 
ATOM     11  C   UNL     1       1.927  -9.411   4.972  1.00  0.00     0.150 C 
ATOM     12  C   UNL     1       0.538  -9.421   4.277  1.00  0.00     0.174 C 
ATOM     13  O   UNL     1       1.903  -8.706   6.215  1.00  0.00    -0.344 OA
ATOM     14  C   UNL     1       0.043  -7.984   4.057  1.00  0.00     0.179 C 
ATOM     15  C   UNL     1       0.135  -7.202   5.396  1.00  0.00     0.202 C 
BRANCH  12  16
ATOM     16  O   UNL     1      -0.416 -10.124   5.045  1.00  0.00    -0.388 OA
ATOM     17  H   UNL     1      -0.214  -9.982   5.998  1.00  0.00     0.211 HD
ENDBRANCH  12  16
BRANCH  14  18
ATOM     18  O   UNL     1      -1.296  -8.024   3.607  1.00  0.00    -0.387 OA
ATOM     19  H   UNL     1      -1.890  -8.104   4.400  1.00  0.00     0.211 HD
ENDBRANCH  14  18
BRANCH  15  20
ATOM     20  O   UNL     1      -0.237  -5.851   5.261  1.00  0.00    -0.385 OA
ATOM     21  H   UNL     1      -0.724  -5.561   6.078  1.00  0.00     0.211 HD
ENDBRANCH  15  20
ENDBRANCH   8   9
ENDBRANCH   7   8
ENDBRANCH   1   7
BRANCH   2  22
ATOM     22  O   UNL     1       0.403  -4.410   7.335  1.00  0.00    -0.387 OA
ATOM     23  H   UNL     1      -0.243  -4.073   8.026  1.00  0.00     0.211 HD
ENDBRANCH   2  22
BRANCH   3  24
ATOM     24  O   UNL     1       1.172  -1.781   8.125  1.00  0.00    -0.387 OA
ATOM     25  H   UNL     1       0.410  -2.323   8.454  1.00  0.00     0.211 HD
ENDBRANCH   3  24
BRANCH   5  26
ATOM     26  O   UNL     1       4.754  -3.099   6.087  1.00  0.00    -0.454 OA
BRANCH  26  27
ATOM     27  C   UNL     1       5.731  -2.234   5.549  1.00  0.00     0.214 A 
ATOM     28  C   UNL     1       7.031  -2.739   5.342  1.00  0.00     0.180 A 
ATOM     29  C   UNL     1       5.512  -0.867   5.312  1.00  0.00     0.239 A 
ATOM     30  O   UNL     1       8.044  -1.903   5.131  1.00  0.00    -0.452 OA
ATOM     31  C   UNL     1       6.621   0.005   5.274  1.00  0.00     0.111 A 
ATOM     32  O   UNL     1       4.347  -0.420   5.156  1.00  0.00    -0.285 OA
ATOM     33  C   UNL     1       7.913  -0.584   5.161  1.00  0.00     0.146 A 
ATOM     34  C   UNL     1       6.523   1.413   5.430  1.00  0.00     0.134 A 
ATOM     35  C   UNL     1       9.063   0.201   5.185  1.00  0.00     0.094 A 
ATOM     36  C   UNL     1       7.691   2.180   5.498  1.00  0.00     0.093 A 
ATOM     37  C   UNL     1       8.963   1.575   5.377  1.00  0.00     0.123 A 
BRANCH  28  38
ATOM     38  C   UNL     1       7.329  -4.181   5.386  1.00  0.00     0.025 A 
ATOM     39  C   UNL     1       6.843  -5.055   4.392  1.00  0.00     0.062 A 
ATOM     40  C   UNL     1       8.057  -4.699   6.462  1.00  0.00     0.016 A 
ATOM     41  C   UNL     1       7.142  -6.424   4.447  1.00  0.00     0.158 A 
ATOM     42  C   UNL     1       8.339  -6.065   6.529  1.00  0.00     0.051 A 
ATOM     43  C   UNL     1       7.903  -6.931   5.513  1.00  0.00     0.157 A 
BRANCH  41  44
ATOM     44  O   UNL     1       6.684  -7.288   3.447  1.00  0.00    -0.504 OA
ATOM     45  H   UNL     1       6.666  -8.292   3.591  1.00  0.00     0.293 HD
ENDBRANCH  41  44
BRANCH  43  46
ATOM     46  O   UNL     1       8.222  -8.287   5.553  1.00  0.00    -0.504 OA
ATOM     47  H   UNL     1       7.935  -8.925   4.820  1.00  0.00     0.293 HD
ENDBRANCH  43  46
ENDBRANCH  28  38
BRANCH  34  48
ATOM     48  O   UNL     1       5.308   2.061   5.660  1.00  0.00    -0.507 OA
ATOM     49  H   UNL     1       4.478   1.847   5.103  1.00  0.00     0.293 HD
ENDBRANCH  34  48
BRANCH  37  50
ATOM     50  O   UNL     1      10.124   2.335   5.489  1.00  0.00    -0.508 OA
ATOM     51  H   UNL     1      10.872   2.069   6.140  1.00  0.00     0.293 HD
ENDBRANCH  37  50
ENDBRANCH  26  27
ENDBRANCH   5  26
BRANCH   4  52
ATOM     52  O   UNL     1       3.872  -1.102   7.738  1.00  0.00    -0.384 OA
ATOM     53  H   UNL     1       3.085  -0.649   7.336  1.00  0.00     0.211 HD
ENDBRANCH   4  52
TORSDOF 16
ENDMDL
MODEL 4
REMARK VINA RESULT:    -5.018      2.279      6.216
REMARK INTER + INTRA:         -10.831
REMARK INTER:                  -8.400
REMARK INTRA:                  -2.431
REMARK UNBOUND:                -2.586
REMARK SMILES C[C@H]1O[C@@H](OC[C@H]2O[C@@H](Oc3c(-c4ccc(O)c(O)c4)oc4cc(O)cc(O)c4c3=O)[C@@H](O)[C@H](O)[C@H]2O)[C@@H](O)[C@H](O)[C@@H]1O
REMARK SMILES IDX 7 1 36 2 34 3 32 4 9 5 8 6 6 7 5 8 4 9 1 10 2 11 42 12 3 13
REMARK SMILES IDX 40 14 38 15 43 16 41 18 39 20 37 22 35 24 10 26 11 27 12 28
REMARK SMILES IDX 30 29 21 30 29 31 31 32 22 33 27 34 23 35 26 36 24 37 13 38
REMARK SMILES IDX 20 39 14 40 18 41 15 42 16 43 19 44 17 46 28 48 25 50 33 52
REMARK H PARENT 43 17 41 19 39 21 37 23 35 25 19 45 17 47 28 49 25 51 33 53
REMARK Flexibility Score: inf
ROOT
ATOM      1  C   UNL     1       4.708  -1.113   5.594  1.00  0.00     0.180 C 
ATOM      2  C   UNL     1       3.597  -0.514   6.508  1.00  0.00     0.177 C 
ATOM      3  C   UNL     1       2.962  -1.617   7.367  1.00  0.00     0.180 C 
ATOM      4  C   UNL     1       2.457  -2.715   6.428  1.00  0.00     0.214 C 
ATOM      5  C   UNL     1       3.600  -3.247   5.530  1.00  0.00     0.339 C 
ATOM      6  O   UNL     1       4.251  -2.208   4.801  1.00  0.00    -0.332 OA
ENDROOT
BRANCH   1   7
ATOM      7  C   UNL     1       6.033  -1.437   6.328  1.00  0.00     0.198 C 
BRANCH   7   8
ATOM      8  O   UNL     1       6.853  -0.292   6.403  1.00  0.00    -0.347 OA
BRANCH   8   9
ATOM      9  C   UNL     1       7.150   0.282   5.143  1.00  0.00     0.281 C 
ATOM     10  C   UNL     1       9.515  -0.074   7.034  1.00  0.00     0.041 C 
ATOM     11  C   UNL     1       9.475   0.457   5.575  1.00  0.00     0.150 C 
ATOM     12  C   UNL     1       9.475   2.009   5.504  1.00  0.00     0.174 C 
ATOM     13  O   UNL     1       8.454  -0.120   4.757  1.00  0.00    -0.344 OA
ATOM     14  C   UNL     1       8.101   2.561   5.908  1.00  0.00     0.179 C 
ATOM     15  C   UNL     1       6.999   1.837   5.089  1.00  0.00     0.202 C 
BRANCH  12  16
ATOM     16  O   UNL     1       9.789   2.462   4.203  1.00  0.00    -0.388 OA
ATOM     17  H   UNL     1      10.541   3.095   4.267  1.00  0.00     0.211 HD
ENDBRANCH  12  16
BRANCH  14  18
ATOM     18  O   UNL     1       8.070   3.950   5.648  1.00  0.00    -0.387 OA
ATOM     19  H   UNL     1       7.593   4.397   6.396  1.00  0.00     0.211 HD
ENDBRANCH  14  18
BRANCH  15  20
ATOM     20  O   UNL     1       5.700   2.240   5.454  1.00  0.00    -0.385 OA
ATOM     21  H   UNL     1       5.100   2.169   4.665  1.00  0.00     0.211 HD
ENDBRANCH  15  20
ENDBRANCH   8   9
ENDBRANCH   7   8
ENDBRANCH   1   7
BRANCH   2  22
ATOM     22  O   UNL     1       4.084   0.518   7.334  1.00  0.00    -0.387 OA
ATOM     23  H   UNL     1       4.940   0.184   7.738  1.00  0.00     0.211 HD
ENDBRANCH   2  22
BRANCH   3  24
ATOM     24  O   UNL     1       1.883  -1.117   8.116  1.00  0.00    -0.387 OA
ATOM     25  H   UNL     1       1.308  -0.613   7.485  1.00  0.00     0.211 HD
ENDBRANCH   3  24
BRANCH   5  26
ATOM     26  O   UNL     1       4.482  -4.062   6.300  1.00  0.00    -0.454 OA
BRANCH  26  27
ATOM     27  C   UNL     1       5.301  -5.134   5.885  1.00  0.00     0.214 A 
ATOM     28  C   UNL     1       4.796  -6.445   6.003  1.00  0.00     0.180 A 
ATOM     29  C   UNL     1       6.632  -4.977   5.467  1.00  0.00     0.239 A 
ATOM     30  O   UNL     1       5.621  -7.486   5.916  1.00  0.00    -0.452 OA
ATOM     31  C   UNL     1       7.513  -6.076   5.565  1.00  0.00     0.111 A 
ATOM     32  O   UNL     1       7.044  -3.872   5.031  1.00  0.00    -0.285 OA
ATOM     33  C   UNL     1       6.934  -7.360   5.781  1.00  0.00     0.146 A 
ATOM     34  C   UNL     1       8.927  -5.959   5.550  1.00  0.00     0.134 A 
ATOM     35  C   UNL     1       7.734  -8.486   5.956  1.00  0.00     0.094 A 
ATOM     36  C   UNL     1       9.714  -7.093   5.774  1.00  0.00     0.093 A 
ATOM     37  C   UNL     1       9.119  -8.359   5.979  1.00  0.00     0.123 A 
BRANCH  28  38
ATOM     38  C   UNL     1       3.372  -6.718   6.256  1.00  0.00     0.025 A 
ATOM     39  C   UNL     1       2.429  -6.697   5.208  1.00  0.00     0.062 A 
ATOM     40  C   UNL     1       2.939  -6.944   7.568  1.00  0.00     0.016 A 
ATOM     41  C   UNL     1       1.076  -6.965   5.469  1.00  0.00     0.158 A 
ATOM     42  C   UNL     1       1.590  -7.192   7.832  1.00  0.00     0.051 A 
ATOM     43  C   UNL     1       0.656  -7.225   6.783  1.00  0.00     0.157 A 
BRANCH  41  44
ATOM     44  O   UNL     1       0.144  -6.972   4.427  1.00  0.00    -0.504 OA
ATOM     45  H   UNL     1      -0.338  -6.123   4.150  1.00  0.00     0.293 HD
ENDBRANCH  41  44
BRANCH  43  46
ATOM     46  O   UNL     1      -0.682  -7.518   7.038  1.00  0.00    -0.504 OA
ATOM     47  H   UNL     1      -1.149  -8.305   6.603  1.00  0.00     0.293 HD
ENDBRANCH  43  46
ENDBRANCH  28  38
BRANCH  34  48
ATOM     48  O   UNL     1       9.577  -4.727   5.458  1.00  0.00    -0.507 OA
ATOM     49  H   UNL     1      10.380  -4.504   6.051  1.00  0.00     0.293 HD
ENDBRANCH  34  48
BRANCH  37  50
ATOM     50  O   UNL     1       9.904  -9.478   6.246  1.00  0.00    -0.508 OA
ATOM     51  H   UNL     1      10.691  -9.731   5.638  1.00  0.00     0.293 HD
ENDBRANCH  37  50
ENDBRANCH  26  27
ENDBRANCH   5  26
BRANCH   4  52
ATOM     52  O   UNL     1       1.908  -3.769   7.186  1.00  0.00    -0.384 OA
ATOM     53  H   UNL     1       2.523  -4.544   7.094  1.00  0.00     0.211 HD
ENDBRANCH   4  52
TORSDOF 16
ENDMDL
MODEL 5
REMARK VINA RESULT:    -4.976      2.115      5.392
REMARK INTER + INTRA:         -10.762
REMARK INTER:                  -7.924
REMARK INTRA:                  -2.838
REMARK UNBOUND:                -2.586
REMARK SMILES C[C@H]1O[C@@H](OC[C@H]2O[C@@H](Oc3c(-c4ccc(O)c(O)c4)oc4cc(O)cc(O)c4c3=O)[C@@H](O)[C@H](O)[C@H]2O)[C@@H](O)[C@H](O)[C@@H]1O
REMARK SMILES IDX 7 1 36 2 34 3 32 4 9 5 8 6 6 7 5 8 4 9 1 10 2 11 42 12 3 13
REMARK SMILES IDX 40 14 38 15 43 16 41 18 39 20 37 22 35 24 10 26 11 27 12 28
REMARK SMILES IDX 30 29 21 30 29 31 31 32 22 33 27 34 23 35 26 36 24 37 13 38
REMARK SMILES IDX 20 39 14 40 18 41 15 42 16 43 19 44 17 46 28 48 25 50 33 52
REMARK H PARENT 43 17 41 19 39 21 37 23 35 25 19 45 17 47 28 49 25 51 33 53
REMARK Flexibility Score: inf
ROOT
ATOM      1  C   UNL     1       4.356   1.051   5.902  1.00  0.00     0.180 C 
ATOM      2  C   UNL     1       3.022   0.847   6.683  1.00  0.00     0.177 C 
ATOM      3  C   UNL     1       3.080  -0.450   7.504  1.00  0.00     0.180 C 
ATOM      4  C   UNL     1       3.412  -1.598   6.548  1.00  0.00     0.214 C 
ATOM      5  C   UNL     1       4.731  -1.322   5.786  1.00  0.00     0.339 C 
ATOM      6  O   UNL     1       4.712  -0.072   5.098  1.00  0.00    -0.332 OA
ENDROOT
BRANCH   1   7
ATOM      7  C   UNL     1       5.538   1.542   6.776  1.00  0.00     0.198 C 
BRANCH   7   8
ATOM      8  O   UNL     1       5.941   2.836   6.386  1.00  0.00    -0.347 OA
BRANCH   8   9
ATOM      9  C   UNL     1       5.710   3.827   7.371  1.00  0.00     0.281 C 
ATOM     10  C   UNL     1       4.107   4.112   4.793  1.00  0.00     0.041 C 
ATOM     11  C   UNL     1       4.070   4.964   6.091  1.00  0.00     0.150 C 
ATOM     12  C   UNL     1       4.913   6.264   5.977  1.00  0.00     0.174 C 
ATOM     13  O   UNL     1       4.356   4.240   7.290  1.00  0.00    -0.344 OA
ATOM     14  C   UNL     1       6.411   5.936   6.049  1.00  0.00     0.179 C 
ATOM     15  C   UNL     1       6.680   5.051   7.296  1.00  0.00     0.202 C 
BRANCH  12  16
ATOM     16  O   UNL     1       4.592   7.176   7.006  1.00  0.00    -0.388 OA
ATOM     17  H   UNL     1       4.830   6.768   7.870  1.00  0.00     0.211 HD
ENDBRANCH  12  16
BRANCH  14  18
ATOM     18  O   UNL     1       7.141   7.142   6.139  1.00  0.00    -0.387 OA
ATOM     19  H   UNL     1       6.524   7.897   5.945  1.00  0.00     0.211 HD
ENDBRANCH  14  18
BRANCH  15  20
ATOM     20  O   UNL     1       8.025   4.647   7.395  1.00  0.00    -0.385 OA
ATOM     21  H   UNL     1       8.169   4.194   8.267  1.00  0.00     0.211 HD
ENDBRANCH  15  20
ENDBRANCH   8   9
ENDBRANCH   7   8
ENDBRANCH   1   7
BRANCH   2  22
ATOM     22  O   UNL     1       2.725   1.936   7.525  1.00  0.00    -0.387 OA
ATOM     23  H   UNL     1       2.071   2.514   7.028  1.00  0.00     0.211 HD
ENDBRANCH   2  22
BRANCH   3  24
ATOM     24  O   UNL     1       1.846  -0.709   8.125  1.00  0.00    -0.387 OA
ATOM     25  H   UNL     1       2.010  -0.695   9.102  1.00  0.00     0.211 HD
ENDBRANCH   3  24
BRANCH   5  26
ATOM     26  O   UNL     1       5.843  -1.490   6.663  1.00  0.00    -0.454 OA
BRANCH  26  27
ATOM     27  C   UNL     1       6.861  -2.468   6.641  1.00  0.00     0.214 A 
ATOM     28  C   UNL     1       8.119  -2.112   6.114  1.00  0.00     0.180 A 
ATOM     29  C   UNL     1       6.658  -3.807   7.012  1.00  0.00     0.239 A 
ATOM     30  O   UNL     1       8.998  -3.058   5.795  1.00  0.00    -0.452 OA
ATOM     31  C   UNL     1       7.523  -4.796   6.497  1.00  0.00     0.111 A 
ATOM     32  O   UNL     1       5.711  -4.128   7.774  1.00  0.00    -0.285 OA
ATOM     33  C   UNL     1       8.734  -4.354   5.890  1.00  0.00     0.146 A 
ATOM     34  C   UNL     1       7.213  -6.181   6.472  1.00  0.00     0.134 A 
ATOM     35  C   UNL     1       9.611  -5.260   5.297  1.00  0.00     0.094 A 
ATOM     36  C   UNL     1       8.083  -7.069   5.831  1.00  0.00     0.093 A 
ATOM     37  C   UNL     1       9.282  -6.610   5.241  1.00  0.00     0.123 A 
BRANCH  28  38
ATOM     38  C   UNL     1       8.497  -0.711   5.863  1.00  0.00     0.025 A 
ATOM     39  C   UNL     1       8.571  -0.201   4.551  1.00  0.00     0.062 A 
ATOM     40  C   UNL     1       8.846   0.109   6.941  1.00  0.00     0.016 A 
ATOM     41  C   UNL     1       8.927   1.139   4.332  1.00  0.00     0.158 A 
ATOM     42  C   UNL     1       9.220   1.437   6.724  1.00  0.00     0.051 A 
ATOM     43  C   UNL     1       9.242   1.965   5.423  1.00  0.00     0.157 A 
BRANCH  41  44
ATOM     44  O   UNL     1       8.974   1.655   3.034  1.00  0.00    -0.504 OA
ATOM     45  H   UNL     1       8.123   1.864   2.522  1.00  0.00     0.293 HD
ENDBRANCH  41  44
BRANCH  43  46
ATOM     46  O   UNL     1       9.570   3.302   5.207  1.00  0.00    -0.504 OA
ATOM     47  H   UNL     1      10.039   3.607   4.362  1.00  0.00     0.293 HD
ENDBRANCH  43  46
ENDBRANCH  28  38
BRANCH  34  48
ATOM     48  O   UNL     1       5.999  -6.687   6.940  1.00  0.00    -0.507 OA
ATOM     49  H   UNL     1       5.786  -6.718   7.940  1.00  0.00     0.293 HD
ENDBRANCH  34  48
BRANCH  37  50
ATOM     50  O   UNL     1      10.125  -7.490   4.566  1.00  0.00    -0.508 OA
ATOM     51  H   UNL     1      11.003  -7.813   4.988  1.00  0.00     0.293 HD
ENDBRANCH  37  50
ENDBRANCH  26  27
ENDBRANCH   5  26
BRANCH   4  52
ATOM     52  O   UNL     1       3.519  -2.801   7.276  1.00  0.00    -0.384 OA
ATOM     53  H   UNL     1       2.595  -3.132   7.429  1.00  0.00     0.211 HD
ENDBRANCH   4  52
TORSDOF 16
ENDMDL
MODEL 6
REMARK VINA RESULT:    -4.852      2.266      8.398
REMARK INTER + INTRA:         -10.559
REMARK INTER:                  -7.450
REMARK INTRA:                  -3.109
REMARK UNBOUND:                -2.586
REMARK SMILES C[C@H]1O[C@@H](OC[C@H]2O[C@@H](Oc3c(-c4ccc(O)c(O)c4)oc4cc(O)cc(O)c4c3=O)[C@@H](O)[C@H](O)[C@H]2O)[C@@H](O)[C@H](O)[C@@H]1O
REMARK SMILES IDX 7 1 36 2 34 3 32 4 9 5 8 6 6 7 5 8 4 9 1 10 2 11 42 12 3 13
REMARK SMILES IDX 40 14 38 15 43 16 41 18 39 20 37 22 35 24 10 26 11 27 12 28
REMARK SMILES IDX 30 29 21 30 29 31 31 32 22 33 27 34 23 35 26 36 24 37 13 38
REMARK SMILES IDX 20 39 14 40 18 41 15 42 16 43 19 44 17 46 28 48 25 50 33 52
REMARK H PARENT 43 17 41 19 39 21 37 23 35 25 19 45 17 47 28 49 25 51 33 53
REMARK Flexibility Score: inf
ROOT
ATOM      1  C   UNL     1       6.880  -4.440   5.000  1.00  0.00     0.180 C 
ATOM      2  C   UNL     1       8.224  -4.894   5.646  1.00  0.00     0.177 C 
ATOM      3  C   UNL     1       8.739  -3.819   6.614  1.00  0.00     0.180 C 
ATOM      4  C   UNL     1       8.843  -2.500   5.844  1.00  0.00     0.214 C 
ATOM      5  C   UNL     1       7.485  -2.121   5.207  1.00  0.00     0.339 C 
ATOM      6  O   UNL     1       6.962  -3.158   4.378  1.00  0.00    -0.332 OA
ENDROOT
BRANCH   1   7
ATOM      7  C   UNL     1       5.651  -4.558   5.936  1.00  0.00     0.198 C 
BRANCH   7   8
ATOM      8  O   UNL     1       5.297  -5.910   6.125  1.00  0.00    -0.347 OA
BRANCH   8   9
ATOM      9  C   UNL     1       4.575  -6.469   5.042  1.00  0.00     0.281 C 
ATOM     10  C   UNL     1       3.813  -7.481   7.816  1.00  0.00     0.041 C 
ATOM     11  C   UNL     1       3.204  -7.820   6.428  1.00  0.00     0.150 C 
ATOM     12  C   UNL     1       3.751  -9.152   5.844  1.00  0.00     0.174 C 
ATOM     13  O   UNL     1       3.255  -6.754   5.477  1.00  0.00    -0.344 OA
ATOM     14  C   UNL     1       5.189  -8.962   5.341  1.00  0.00     0.179 C 
ATOM     15  C   UNL     1       5.243  -7.728   4.401  1.00  0.00     0.202 C 
BRANCH  12  16
ATOM     16  O   UNL     1       2.947  -9.612   4.778  1.00  0.00    -0.388 OA
ATOM     17  H   UNL     1       2.043  -9.238   4.884  1.00  0.00     0.211 HD
ENDBRANCH  12  16
BRANCH  14  18
ATOM     18  O   UNL     1       5.588 -10.125   4.644  1.00  0.00    -0.387 OA
ATOM     19  H   UNL     1       6.487 -10.394   4.973  1.00  0.00     0.211 HD
ENDBRANCH  14  18
BRANCH  15  20
ATOM     20  O   UNL     1       6.547  -7.445   3.952  1.00  0.00    -0.385 OA
ATOM     21  H   UNL     1       7.171  -7.460   4.725  1.00  0.00     0.211 HD
ENDBRANCH  15  20
ENDBRANCH   8   9
ENDBRANCH   7   8
ENDBRANCH   1   7
BRANCH   2  22
ATOM     22  O   UNL     1       8.106  -6.127   6.315  1.00  0.00    -0.387 OA
ATOM     23  H   UNL     1       7.123  -6.315   6.401  1.00  0.00     0.211 HD
ENDBRANCH   2  22
BRANCH   3  24
ATOM     24  O   UNL     1      10.005  -4.159   7.120  1.00  0.00    -0.387 OA
ATOM     25  H   UNL     1      10.219  -5.062   6.770  1.00  0.00     0.211 HD
ENDBRANCH   3  24
BRANCH   5  26
ATOM     26  O   UNL     1       6.584  -1.669   6.216  1.00  0.00    -0.454 OA
BRANCH  26  27
ATOM     27  C   UNL     1       5.953  -0.414   6.356  1.00  0.00     0.214 A 
ATOM     28  C   UNL     1       4.545  -0.377   6.425  1.00  0.00     0.180 A 
ATOM     29  C   UNL     1       6.642   0.809   6.319  1.00  0.00     0.239 A 
ATOM     30  O   UNL     1       3.901   0.775   6.253  1.00  0.00    -0.452 OA
ATOM     31  C   UNL     1       5.939   1.978   5.955  1.00  0.00     0.111 A 
ATOM     32  O   UNL     1       7.870   0.865   6.585  1.00  0.00    -0.285 OA
ATOM     33  C   UNL     1       4.516   1.911   5.954  1.00  0.00     0.146 A 
ATOM     34  C   UNL     1       6.567   3.171   5.511  1.00  0.00     0.134 A 
ATOM     35  C   UNL     1       3.748   2.998   5.543  1.00  0.00     0.094 A 
ATOM     36  C   UNL     1       5.780   4.234   5.057  1.00  0.00     0.093 A 
ATOM     37  C   UNL     1       4.369   4.150   5.072  1.00  0.00     0.123 A 
BRANCH  28  38
ATOM     38  C   UNL     1       3.738  -1.588   6.649  1.00  0.00     0.025 A 
ATOM     39  C   UNL     1       2.858  -2.069   5.659  1.00  0.00     0.062 A 
ATOM     40  C   UNL     1       3.804  -2.236   7.887  1.00  0.00     0.016 A 
ATOM     41  C   UNL     1       2.102  -3.228   5.889  1.00  0.00     0.158 A 
ATOM     42  C   UNL     1       3.037  -3.379   8.125  1.00  0.00     0.051 A 
ATOM     43  C   UNL     1       2.199  -3.893   7.122  1.00  0.00     0.157 A 
BRANCH  41  44
ATOM     44  O   UNL     1       1.248  -3.723   4.898  1.00  0.00    -0.504 OA
ATOM     45  H   UNL     1       0.683  -3.099   4.333  1.00  0.00     0.293 HD
ENDBRANCH  41  44
BRANCH  43  46
ATOM     46  O   UNL     1       1.467  -5.059   7.340  1.00  0.00    -0.504 OA
ATOM     47  H   UNL     1       0.882  -5.465   6.619  1.00  0.00     0.293 HD
ENDBRANCH  43  46
ENDBRANCH  28  38
BRANCH  34  48
ATOM     48  O   UNL     1       7.952   3.284   5.372  1.00  0.00    -0.507 OA
ATOM     49  H   UNL     1       8.379   3.513   4.472  1.00  0.00     0.293 HD
ENDBRANCH  34  48
BRANCH  37  50
ATOM     50  O   UNL     1       3.589   5.193   4.579  1.00  0.00    -0.508 OA
ATOM     51  H   UNL     1       2.909   5.675   5.177  1.00  0.00     0.293 HD
ENDBRANCH  37  50
ENDBRANCH  26  27
ENDBRANCH   5  26
BRANCH   4  52
ATOM     52  O   UNL     1       9.269  -1.477   6.716  1.00  0.00    -0.384 OA
ATOM     53  H   UNL     1       9.268  -1.857   7.634  1.00  0.00     0.211 HD
ENDBRANCH   4  52
TORSDOF 16
ENDMDL
MODEL 7
REMARK VINA RESULT:    -4.114      1.650      4.995
REMARK INTER + INTRA:          -9.346
REMARK INTER:                  -9.718
REMARK INTRA:                   0.372
REMARK UNBOUND:                -2.586
REMARK SMILES C[C@H]1O[C@@H](OC[C@H]2O[C@@H](Oc3c(-c4ccc(O)c(O)c4)oc4cc(O)cc(O)c4c3=O)[C@@H](O)[C@H](O)[C@H]2O)[C@@H](O)[C@H](O)[C@@H]1O
REMARK SMILES IDX 7 1 36 2 34 3 32 4 9 5 8 6 6 7 5 8 4 9 1 10 2 11 42 12 3 13
REMARK SMILES IDX 40 14 38 15 43 16 41 18 39 20 37 22 35 24 10 26 11 27 12 28
REMARK SMILES IDX 30 29 21 30 29 31 31 32 22 33 27 34 23 35 26 36 24 37 13 38
REMARK SMILES IDX 20 39 14 40 18 41 15 42 16 43 19 44 17 46 28 48 25 50 33 52
REMARK H PARENT 43 17 41 19 39 21 37 23 35 25 19 45 17 47 28 49 25 51 33 53
REMARK Flexibility Score: inf
ROOT
ATOM      1  C   UNL     1       5.838   0.347   7.451  1.00  0.00     0.180 C 
ATOM      2  C   UNL     1       7.238  -0.198   7.869  1.00  0.00     0.177 C 
ATOM      3  C   UNL     1       7.374  -1.676   7.473  1.00  0.00     0.180 C 
ATOM      4  C   UNL     1       6.206  -2.441   8.100  1.00  0.00     0.214 C 
ATOM      5  C   UNL     1       4.849  -1.835   7.668  1.00  0.00     0.339 C 
ATOM      6  O   UNL     1       4.759  -0.440   7.952  1.00  0.00    -0.332 OA
ENDROOT
BRANCH   1   7
ATOM      7  C   UNL     1       5.693   0.639   5.936  1.00  0.00     0.198 C 
BRANCH   7   8
ATOM      8  O   UNL     1       5.227   1.953   5.725  1.00  0.00    -0.347 OA
BRANCH   8   9
ATOM      9  C   UNL     1       5.501   2.836   6.799  1.00  0.00     0.281 C 
ATOM     10  C   UNL     1       3.461   3.817   4.756  1.00  0.00     0.041 C 
ATOM     11  C   UNL     1       3.955   4.479   6.070  1.00  0.00     0.150 C 
ATOM     12  C   UNL     1       5.054   5.550   5.823  1.00  0.00     0.174 C 
ATOM     13  O   UNL     1       4.320   3.561   7.102  1.00  0.00    -0.344 OA
ATOM     14  C   UNL     1       6.388   4.874   5.478  1.00  0.00     0.179 C 
ATOM     15  C   UNL     1       6.707   3.798   6.551  1.00  0.00     0.202 C 
BRANCH  12  16
ATOM     16  O   UNL     1       5.234   6.372   6.958  1.00  0.00    -0.388 OA
ATOM     17  H   UNL     1       4.457   6.258   7.551  1.00  0.00     0.211 HD
ENDBRANCH  12  16
BRANCH  14  18
ATOM     18  O   UNL     1       7.406   5.854   5.452  1.00  0.00    -0.387 OA
ATOM     19  H   UNL     1       7.020   6.695   5.089  1.00  0.00     0.211 HD
ENDBRANCH  14  18
BRANCH  15  20
ATOM     20  O   UNL     1       7.886   3.082   6.267  1.00  0.00    -0.385 OA
ATOM     21  H   UNL     1       8.639   3.469   6.787  1.00  0.00     0.211 HD
ENDBRANCH  15  20
ENDBRANCH   8   9
ENDBRANCH   7   8
ENDBRANCH   1   7
BRANCH   2  22
ATOM     22  O   UNL     1       8.291   0.549   7.307  1.00  0.00    -0.387 OA
ATOM     23  H   UNL     1       8.138   1.506   7.569  1.00  0.00     0.211 HD
ENDBRANCH   2  22
BRANCH   3  24
ATOM     24  O   UNL     1       8.584  -2.215   7.942  1.00  0.00    -0.387 OA
ATOM     25  H   UNL     1       9.187  -1.449   8.121  1.00  0.00     0.211 HD
ENDBRANCH   3  24
BRANCH   5  26
ATOM     26  O   UNL     1       4.577  -2.173   6.309  1.00  0.00    -0.454 OA
BRANCH  26  27
ATOM     27  C   UNL     1       4.611  -3.435   5.676  1.00  0.00     0.214 A 
ATOM     28  C   UNL     1       3.519  -4.307   5.864  1.00  0.00     0.180 A 
ATOM     29  C   UNL     1       5.721  -3.915   4.962  1.00  0.00     0.239 A 
ATOM     30  O   UNL     1       3.634  -5.595   5.550  1.00  0.00    -0.452 OA
ATOM     31  C   UNL     1       5.885  -5.309   4.813  1.00  0.00     0.111 A 
ATOM     32  O   UNL     1       6.568  -3.122   4.480  1.00  0.00    -0.285 OA
ATOM     33  C   UNL     1       4.764  -6.136   5.114  1.00  0.00     0.146 A 
ATOM     34  C   UNL     1       7.116  -5.927   4.468  1.00  0.00     0.134 A 
ATOM     35  C   UNL     1       4.861  -7.524   5.057  1.00  0.00     0.094 A 
ATOM     36  C   UNL     1       7.206  -7.322   4.462  1.00  0.00     0.093 A 
ATOM     37  C   UNL     1       6.080  -8.123   4.757  1.00  0.00     0.123 A 
BRANCH  28  38
ATOM     38  C   UNL     1       2.241  -3.852   6.437  1.00  0.00     0.025 A 
ATOM     39  C   UNL     1       1.011  -4.219   5.853  1.00  0.00     0.062 A 
ATOM     40  C   UNL     1       2.251  -2.995   7.542  1.00  0.00     0.016 A 
ATOM     41  C   UNL     1      -0.197  -3.781   6.417  1.00  0.00     0.158 A 
ATOM     42  C   UNL     1       1.050  -2.542   8.093  1.00  0.00     0.051 A 
ATOM     43  C   UNL     1      -0.180  -2.948   7.548  1.00  0.00     0.157 A 
BRANCH  41  44
ATOM     44  O   UNL     1      -1.419  -4.166   5.857  1.00  0.00    -0.504 OA
ATOM     45  H   UNL     1      -2.231  -4.340   6.440  1.00  0.00     0.293 HD
ENDBRANCH  41  44
BRANCH  43  46
ATOM     46  O   UNL     1      -1.380  -2.535   8.123  1.00  0.00    -0.504 OA
ATOM     47  H   UNL     1      -1.404  -2.020   8.995  1.00  0.00     0.293 HD
ENDBRANCH  43  46
ENDBRANCH  28  38
BRANCH  34  48
ATOM     48  O   UNL     1       8.291  -5.200   4.268  1.00  0.00    -0.507 OA
ATOM     49  H   UNL     1       8.861  -5.332   3.431  1.00  0.00     0.293 HD
ENDBRANCH  34  48
BRANCH  37  50
ATOM     50  O   UNL     1       6.185  -9.512   4.793  1.00  0.00    -0.508 OA
ATOM     51  H   UNL     1       6.114 -10.071   3.936  1.00  0.00     0.293 HD
ENDBRANCH  37  50
ENDBRANCH  26  27
ENDBRANCH   5  26
BRANCH   4  52
ATOM     52  O   UNL     1       6.272  -3.797   7.719  1.00  0.00    -0.384 OA
ATOM     53  H   UNL     1       5.798  -4.320   8.418  1.00  0.00     0.211 HD
ENDBRANCH   4  52
TORSDOF 16
ENDMDL
MODEL 8
REMARK VINA RESULT:    -3.525      3.174      7.790
REMARK INTER + INTRA:          -8.378
REMARK INTER:                  -7.586
REMARK INTRA:                  -0.791
REMARK UNBOUND:                -2.586
REMARK SMILES C[C@H]1O[C@@H](OC[C@H]2O[C@@H](Oc3c(-c4ccc(O)c(O)c4)oc4cc(O)cc(O)c4c3=O)[C@@H](O)[C@H](O)[C@H]2O)[C@@H](O)[C@H](O)[C@@H]1O
REMARK SMILES IDX 7 1 36 2 34 3 32 4 9 5 8 6 6 7 5 8 4 9 1 10 2 11 42 12 3 13
REMARK SMILES IDX 40 14 38 15 43 16 41 18 39 20 37 22 35 24 10 26 11 27 12 28
REMARK SMILES IDX 30 29 21 30 29 31 31 32 22 33 27 34 23 35 26 36 24 37 13 38
REMARK SMILES IDX 20 39 14 40 18 41 15 42 16 43 19 44 17 46 28 48 25 50 33 52
REMARK H PARENT 43 17 41 19 39 21 37 23 35 25 19 45 17 47 28 49 25 51 33 53
REMARK Flexibility Score: inf
ROOT
ATOM      1  C   UNL     1       5.172  -7.893   6.129  1.00  0.00     0.180 C 
ATOM      2  C   UNL     1       4.345  -9.209   6.256  1.00  0.00     0.177 C 
ATOM      3  C   UNL     1       2.843  -8.892   6.289  1.00  0.00     0.180 C 
ATOM      4  C   UNL     1       2.595  -7.901   7.429  1.00  0.00     0.214 C 
ATOM      5  C   UNL     1       3.463  -6.631   7.259  1.00  0.00     0.339 C 
ATOM      6  O   UNL     1       4.853  -6.932   7.135  1.00  0.00    -0.332 OA
ENDROOT
BRANCH   1   7
ATOM      7  C   UNL     1       5.173  -7.274   4.709  1.00  0.00     0.198 C 
BRANCH   7   8
ATOM      8  O   UNL     1       6.410  -6.655   4.436  1.00  0.00    -0.347 OA
BRANCH   8   9
ATOM      9  C   UNL     1       6.512  -5.335   4.938  1.00  0.00     0.281 C 
ATOM     10  C   UNL     1       7.950  -5.872   2.304  1.00  0.00     0.041 C 
ATOM     11  C   UNL     1       7.798  -4.552   3.106  1.00  0.00     0.150 C 
ATOM     12  C   UNL     1       9.042  -4.237   3.982  1.00  0.00     0.174 C 
ATOM     13  O   UNL     1       6.578  -4.437   3.842  1.00  0.00    -0.344 OA
ATOM     14  C   UNL     1       9.077  -5.161   5.208  1.00  0.00     0.179 C 
ATOM     15  C   UNL     1       7.702  -5.109   5.926  1.00  0.00     0.202 C 
BRANCH  12  16
ATOM     16  O   UNL     1       9.036  -2.894   4.419  1.00  0.00    -0.388 OA
ATOM     17  H   UNL     1       8.138  -2.681   4.760  1.00  0.00     0.211 HD
ENDBRANCH  12  16
BRANCH  14  18
ATOM     18  O   UNL     1      10.100  -4.727   6.081  1.00  0.00    -0.387 OA
ATOM     19  H   UNL     1      10.604  -5.525   6.394  1.00  0.00     0.211 HD
ENDBRANCH  14  18
BRANCH  15  20
ATOM     20  O   UNL     1       7.630  -5.987   7.026  1.00  0.00    -0.385 OA
ATOM     21  H   UNL     1       8.477  -5.935   7.542  1.00  0.00     0.211 HD
ENDBRANCH  15  20
ENDBRANCH   8   9
ENDBRANCH   7   8
ENDBRANCH   1   7
BRANCH   2  22
ATOM     22  O   UNL     1       4.623 -10.116   5.215  1.00  0.00    -0.387 OA
ATOM     23  H   UNL     1       3.804 -10.685   5.103  1.00  0.00     0.211 HD
ENDBRANCH   2  22
BRANCH   3  24
ATOM     24  O   UNL     1       2.087 -10.055   6.516  1.00  0.00    -0.387 OA
ATOM     25  H   UNL     1       1.151  -9.839   6.272  1.00  0.00     0.211 HD
ENDBRANCH   3  24
BRANCH   5  26
ATOM     26  O   UNL     1       2.944  -5.825   6.203  1.00  0.00    -0.454 OA
BRANCH  26  27
ATOM     27  C   UNL     1       1.779  -5.028   6.175  1.00  0.00     0.214 A 
ATOM     28  C   UNL     1       1.874  -3.690   6.610  1.00  0.00     0.180 A 
ATOM     29  C   UNL     1       0.507  -5.523   5.844  1.00  0.00     0.239 A 
ATOM     30  O   UNL     1       0.770  -3.001   6.888  1.00  0.00    -0.452 OA
ATOM     31  C   UNL     1      -0.635  -4.843   6.319  1.00  0.00     0.111 A 
ATOM     32  O   UNL     1       0.382  -6.566   5.153  1.00  0.00    -0.285 OA
ATOM     33  C   UNL     1      -0.446  -3.529   6.835  1.00  0.00     0.146 A 
ATOM     34  C   UNL     1      -1.927  -5.426   6.391  1.00  0.00     0.134 A 
ATOM     35  C   UNL     1      -1.508  -2.815   7.385  1.00  0.00     0.094 A 
ATOM     36  C   UNL     1      -2.971  -4.712   6.989  1.00  0.00     0.093 A 
ATOM     37  C   UNL     1      -2.763  -3.406   7.488  1.00  0.00     0.123 A 
BRANCH  28  38
ATOM     38  C   UNL     1       3.169  -3.019   6.809  1.00  0.00     0.025 A 
ATOM     39  C   UNL     1       3.518  -1.875   6.062  1.00  0.00     0.062 A 
ATOM     40  C   UNL     1       4.091  -3.561   7.711  1.00  0.00     0.016 A 
ATOM     41  C   UNL     1       4.755  -1.246   6.270  1.00  0.00     0.158 A 
ATOM     42  C   UNL     1       5.331  -2.947   7.904  1.00  0.00     0.051 A 
ATOM     43  C   UNL     1       5.661  -1.776   7.202  1.00  0.00     0.157 A 
BRANCH  41  44
ATOM     44  O   UNL     1       5.092  -0.095   5.551  1.00  0.00    -0.504 OA
ATOM     45  H   UNL     1       4.871  -0.011   4.564  1.00  0.00     0.293 HD
ENDBRANCH  41  44
BRANCH  43  46
ATOM     46  O   UNL     1       6.878  -1.136   7.427  1.00  0.00    -0.504 OA
ATOM     47  H   UNL     1       7.664  -1.247   6.797  1.00  0.00     0.293 HD
ENDBRANCH  43  46
ENDBRANCH  28  38
BRANCH  34  48
ATOM     48  O   UNL     1      -2.178  -6.746   6.014  1.00  0.00    -0.507 OA
ATOM     49  H   UNL     1      -2.157  -7.032   5.033  1.00  0.00     0.293 HD
ENDBRANCH  34  48
BRANCH  37  50
ATOM     50  O   UNL     1      -3.792  -2.715   8.123  1.00  0.00    -0.508 OA
ATOM     51  H   UNL     1      -3.593  -1.989   8.820  1.00  0.00     0.293 HD
ENDBRANCH  37  50
ENDBRANCH  26  27
ENDBRANCH   5  26
BRANCH   4  52
ATOM     52  O   UNL     1       1.229  -7.550   7.460  1.00  0.00    -0.384 OA
ATOM     53  H   UNL     1       0.726  -8.366   7.720  1.00  0.00     0.211 HD
ENDBRANCH   4  52
TORSDOF 16
ENDMDL
MODEL 9
REMARK VINA RESULT:    -3.068      3.098      6.865
REMARK INTER + INTRA:          -7.627
REMARK INTER:                  -5.873
REMARK INTRA:                  -1.754
REMARK UNBOUND:                -2.586
REMARK SMILES C[C@H]1O[C@@H](OC[C@H]2O[C@@H](Oc3c(-c4ccc(O)c(O)c4)oc4cc(O)cc(O)c4c3=O)[C@@H](O)[C@H](O)[C@H]2O)[C@@H](O)[C@H](O)[C@@H]1O
REMARK SMILES IDX 7 1 36 2 34 3 32 4 9 5 8 6 6 7 5 8 4 9 1 10 2 11 42 12 3 13
REMARK SMILES IDX 40 14 38 15 43 16 41 18 39 20 37 22 35 24 10 26 11 27 12 28
REMARK SMILES IDX 30 29 21 30 29 31 31 32 22 33 27 34 23 35 26 36 24 37 13 38
REMARK SMILES IDX 20 39 14 40 18 41 15 42 16 43 19 44 17 46 28 48 25 50 33 52
REMARK H PARENT 43 17 41 19 39 21 37 23 35 25 19 45 17 47 28 49 25 51 33 53
REMARK Flexibility Score: inf
ROOT
ATOM      1  C   UNL     1       5.572  -3.236   5.278  1.00  0.00     0.180 C 
ATOM      2  C   UNL     1       5.775  -1.722   5.589  1.00  0.00     0.177 C 
ATOM      3  C   UNL     1       4.685  -1.225   6.551  1.00  0.00     0.180 C 
ATOM      4  C   UNL     1       3.325  -1.545   5.927  1.00  0.00     0.214 C 
ATOM      5  C   UNL     1       3.197  -3.056   5.618  1.00  0.00     0.339 C 
ATOM      6  O   UNL     1       4.262  -3.538   4.799  1.00  0.00    -0.332 OA
ENDROOT
BRANCH   1   7
ATOM      7  C   UNL     1       6.011  -4.187   6.420  1.00  0.00     0.198 C 
BRANCH   7   8
ATOM      8  O   UNL     1       7.372  -4.528   6.287  1.00  0.00    -0.347 OA
BRANCH   8   9
ATOM      9  C   UNL     1       7.593  -5.900   6.011  1.00  0.00     0.281 C 
ATOM     10  C   UNL     1      10.054  -4.104   5.890  1.00  0.00     0.041 C 
ATOM     11  C   UNL     1       9.930  -5.641   5.707  1.00  0.00     0.150 C 
ATOM     12  C   UNL     1       9.886  -6.063   4.212  1.00  0.00     0.174 C 
ATOM     13  O   UNL     1       8.888  -6.252   6.470  1.00  0.00    -0.344 OA
ATOM     14  C   UNL     1       8.518  -5.722   3.603  1.00  0.00     0.179 C 
ATOM     15  C   UNL     1       7.398  -6.297   4.512  1.00  0.00     0.202 C 
BRANCH  12  16
ATOM     16  O   UNL     1      10.125  -7.447   4.062  1.00  0.00    -0.388 OA
ATOM     17  H   UNL     1      10.511  -7.602   3.170  1.00  0.00     0.211 HD
ENDBRANCH  12  16
BRANCH  14  18
ATOM     18  O   UNL     1       8.437  -6.289   2.311  1.00  0.00    -0.387 OA
ATOM     19  H   UNL     1       7.479  -6.335   2.050  1.00  0.00     0.211 HD
ENDBRANCH  14  18
BRANCH  15  20
ATOM     20  O   UNL     1       6.107  -5.965   4.056  1.00  0.00    -0.385 OA
ATOM     21  H   UNL     1       6.106  -5.028   3.728  1.00  0.00     0.211 HD
ENDBRANCH  15  20
ENDBRANCH   8   9
ENDBRANCH   7   8
ENDBRANCH   1   7
BRANCH   2  22
ATOM     22  O   UNL     1       7.049  -1.454   6.127  1.00  0.00    -0.387 OA
ATOM     23  H   UNL     1       7.635  -1.184   5.357  1.00  0.00     0.211 HD
ENDBRANCH   2  22
BRANCH   3  24
ATOM     24  O   UNL     1       4.785   0.162   6.754  1.00  0.00    -0.387 OA
ATOM     25  H   UNL     1       3.944   0.447   7.194  1.00  0.00     0.211 HD
ENDBRANCH   3  24
BRANCH   5  26
ATOM     26  O   UNL     1       3.016  -3.786   6.830  1.00  0.00    -0.454 OA
BRANCH  26  27
ATOM     27  C   UNL     1       1.851  -4.402   7.339  1.00  0.00     0.214 A 
ATOM     28  C   UNL     1       1.773  -5.809   7.313  1.00  0.00     0.180 A 
ATOM     29  C   UNL     1       0.721  -3.688   7.767  1.00  0.00     0.239 A 
ATOM     30  O   UNL     1       0.601  -6.413   7.493  1.00  0.00    -0.452 OA
ATOM     31  C   UNL     1      -0.534  -4.334   7.768  1.00  0.00     0.111 A 
ATOM     32  O   UNL     1       0.815  -2.486   8.125  1.00  0.00    -0.285 OA
ATOM     33  C   UNL     1      -0.539  -5.753   7.641  1.00  0.00     0.146 A 
ATOM     34  C   UNL     1      -1.776  -3.647   7.799  1.00  0.00     0.134 A 
ATOM     35  C   UNL     1      -1.735  -6.462   7.565  1.00  0.00     0.094 A 
ATOM     36  C   UNL     1      -2.966  -4.372   7.675  1.00  0.00     0.093 A 
ATOM     37  C   UNL     1      -2.948  -5.780   7.556  1.00  0.00     0.123 A 
BRANCH  28  38
ATOM     38  C   UNL     1       2.950  -6.656   7.056  1.00  0.00     0.025 A 
ATOM     39  C   UNL     1       3.180  -7.215   5.782  1.00  0.00     0.062 A 
ATOM     40  C   UNL     1       3.821  -6.958   8.108  1.00  0.00     0.016 A 
ATOM     41  C   UNL     1       4.310  -8.015   5.555  1.00  0.00     0.158 A 
ATOM     42  C   UNL     1       4.936  -7.770   7.889  1.00  0.00     0.051 A 
ATOM     43  C   UNL     1       5.199  -8.285   6.609  1.00  0.00     0.157 A 
BRANCH  41  44
ATOM     44  O   UNL     1       4.556  -8.548   4.286  1.00  0.00    -0.504 OA
ATOM     45  H   UNL     1       4.136  -8.141   3.457  1.00  0.00     0.293 HD
ENDBRANCH  41  44
BRANCH  43  46
ATOM     46  O   UNL     1       6.335  -9.057   6.376  1.00  0.00    -0.504 OA
ATOM     47  H   UNL     1       6.504  -9.503   5.482  1.00  0.00     0.293 HD
ENDBRANCH  43  46
ENDBRANCH  28  38
BRANCH  34  48
ATOM     48  O   UNL     1      -1.864  -2.254   7.808  1.00  0.00    -0.507 OA
ATOM     49  H   UNL     1      -2.140  -1.745   8.650  1.00  0.00     0.293 HD
ENDBRANCH  34  48
BRANCH  37  50
ATOM     50  O   UNL     1      -4.132  -6.495   7.389  1.00  0.00    -0.508 OA
ATOM     51  H   UNL     1      -4.560  -7.002   8.171  1.00  0.00     0.293 HD
ENDBRANCH  37  50
ENDBRANCH  26  27
ENDBRANCH   5  26
BRANCH   4  52
ATOM     52  O   UNL     1       2.297  -1.144   6.806  1.00  0.00    -0.384 OA
ATOM     53  H   UNL     1       1.552  -1.792   6.696  1.00  0.00     0.211 HD
ENDBRANCH   4  52
TORSDOF 16
ENDMDL
