MODEL 1
REMARK VINA RESULT:     7.301      0.000      0.000
REMARK INTER + INTRA:          18.768
REMARK INTER:                  15.838
REMARK INTRA:                   2.930
REMARK UNBOUND:                 2.930
REMARK SMILES CCCCCCCCCCCCCCCCCCCCCC(=O)[O-]
REMARK SMILES IDX 12 1 11 2 10 3 9 4 8 5 7 6 6 7 5 8 4 9 3 10 2 11 1 12 13 13
REMARK SMILES IDX 14 14 15 15 16 16 17 17 18 18 19 19 20 20 21 21 22 22 23 23
REMARK SMILES IDX 24 24
REMARK H PARENT
REMARK Flexibility Score: inf
ROOT
ATOM      1  C   UNL     1      53.102 148.112  -2.229  1.00  0.00     0.000 C 
ENDROOT
BRANCH   1   2
ATOM      2  C   UNL     1      53.595 147.872  -3.667  1.00  0.00     0.000 C 
BRANCH   2   3
ATOM      3  C   UNL     1      52.483 148.108  -4.711  1.00  0.00     0.000 C 
BRANCH   3   4
ATOM      4  C   UNL     1      51.062 148.042  -4.125  1.00  0.00    -0.000 C 
BRANCH   4   5
ATOM      5  C   UNL     1      50.049 147.401  -5.087  1.00  0.00    -0.000 C 
BRANCH   5   6
ATOM      6  C   UNL     1      48.588 147.715  -4.719  1.00  0.00    -0.000 C 
BRANCH   6   7
ATOM      7  C   UNL     1      47.534 147.235  -5.737  1.00  0.00    -0.000 C 
BRANCH   7   8
ATOM      8  C   UNL     1      47.601 147.912  -7.119  1.00  0.00    -0.000 C 
BRANCH   8   9
ATOM      9  C   UNL     1      48.664 147.331  -8.070  1.00  0.00    -0.000 C 
BRANCH   9  10
ATOM     10  C   UNL     1      50.035 148.013  -7.915  1.00  0.00    -0.000 C 
BRANCH  10  11
ATOM     11  C   UNL     1      51.185 147.002  -7.800  1.00  0.00    -0.003 C 
ATOM     12  C   UNL     1      52.551 147.626  -8.083  1.00  0.00     0.004 C 
ENDBRANCH  10  11
ENDBRANCH   9  10
ENDBRANCH   8   9
ENDBRANCH   7   8
ENDBRANCH   6   7
ENDBRANCH   5   6
ENDBRANCH   4   5
ENDBRANCH   3   4
ENDBRANCH   2   3
ENDBRANCH   1   2
BRANCH   1  13
ATOM     13  C   UNL     1      54.073 147.564  -1.171  1.00  0.00     0.000 C 
BRANCH  13  14
ATOM     14  C   UNL     1      53.541 146.295  -0.484  1.00  0.00     0.000 C 
BRANCH  14  15
ATOM     15  C   UNL     1      52.138 146.489   0.112  1.00  0.00     0.000 C 
BRANCH  15  16
ATOM     16  C   UNL     1      51.596 147.913  -0.084  1.00  0.00     0.000 C 
BRANCH  16  17
ATOM     17  C   UNL     1      50.306 148.125   0.723  1.00  0.00     0.000 C 
BRANCH  17  18
ATOM     18  C   UNL     1      49.922 146.893   1.558  1.00  0.00     0.000 C 
BRANCH  18  19
ATOM     19  C   UNL     1      48.426 146.547   1.451  1.00  0.00     0.000 C 
BRANCH  19  20
ATOM     20  C   UNL     1      47.579 147.731   0.960  1.00  0.00     0.006 C 
BRANCH  20  21
ATOM     21  C   UNL     1      46.979 147.489  -0.432  1.00  0.00     0.053 C 
BRANCH  21  22
ATOM     22  C   UNL     1      48.061 147.275  -1.445  1.00  0.00     0.041 C 
ATOM     23  O   UNL     1      49.074 148.023  -1.456  1.00  0.00    -0.550 OA
ATOM     24  O   UNL     1      47.956 146.243  -2.370  1.00  0.00    -0.550 OA
ENDBRANCH  21  22
ENDBRANCH  20  21
ENDBRANCH  19  20
ENDBRANCH  18  19
ENDBRANCH  17  18
ENDBRANCH  16  17
ENDBRANCH  15  16
ENDBRANCH  14  15
ENDBRANCH  13  14
ENDBRANCH   1  13
TORSDOF 20
ENDMDL
MODEL 2
REMARK VINA RESULT:     8.557      4.753      6.812
REMARK INTER + INTRA:          21.492
REMARK INTER:                  21.140
REMARK INTRA:                   0.351
REMARK UNBOUND:                 2.930
REMARK SMILES CCCCCCCCCCCCCCCCCCCCCC(=O)[O-]
REMARK SMILES IDX 12 1 11 2 10 3 9 4 8 5 7 6 6 7 5 8 4 9 3 10 2 11 1 12 13 13
REMARK SMILES IDX 14 14 15 15 16 16 17 17 18 18 19 19 20 20 21 21 22 22 23 23
REMARK SMILES IDX 24 24
REMARK H PARENT
REMARK Flexibility Score: inf
ROOT
ATOM      1  C   UNL     1      54.356 146.816  -1.770  1.00  0.00     0.000 C 
ENDROOT
BRANCH   1   2
ATOM      2  C   UNL     1      54.720 148.039  -0.906  1.00  0.00     0.000 C 
BRANCH   2   3
ATOM      3  C   UNL     1      53.992 148.027   0.454  1.00  0.00     0.000 C 
BRANCH   3   4
ATOM      4  C   UNL     1      52.788 147.069   0.503  1.00  0.00    -0.000 C 
BRANCH   4   5
ATOM      5  C   UNL     1      51.582 147.666   1.245  1.00  0.00    -0.000 C 
BRANCH   5   6
ATOM      6  C   UNL     1      50.239 147.354   0.559  1.00  0.00    -0.000 C 
BRANCH   6   7
ATOM      7  C   UNL     1      49.975 148.120  -0.752  1.00  0.00    -0.000 C 
BRANCH   7   8
ATOM      8  C   UNL     1      48.549 147.978  -1.320  1.00  0.00    -0.000 C 
BRANCH   8   9
ATOM      9  C   UNL     1      48.477 147.383  -2.738  1.00  0.00    -0.000 C 
BRANCH   9  10
ATOM     10  C   UNL     1      47.476 148.124  -3.642  1.00  0.00    -0.000 C 
BRANCH  10  11
ATOM     11  C   UNL     1      47.865 148.058  -5.127  1.00  0.00    -0.003 C 
ATOM     12  C   UNL     1      49.377 148.122  -5.345  1.00  0.00     0.004 C 
ENDBRANCH  10  11
ENDBRANCH   9  10
ENDBRANCH   8   9
ENDBRANCH   7   8
ENDBRANCH   6   7
ENDBRANCH   5   6
ENDBRANCH   4   5
ENDBRANCH   3   4
ENDBRANCH   2   3
ENDBRANCH   1   2
BRANCH   1  13
ATOM     13  C   UNL     1      54.233 145.525  -0.945  1.00  0.00     0.000 C 
BRANCH  13  14
ATOM     14  C   UNL     1      55.208 144.432  -1.413  1.00  0.00     0.000 C 
BRANCH  14  15
ATOM     15  C   UNL     1      54.880 143.052  -0.819  1.00  0.00     0.000 C 
BRANCH  15  16
ATOM     16  C   UNL     1      55.799 141.940  -1.346  1.00  0.00     0.000 C 
BRANCH  16  17
ATOM     17  C   UNL     1      55.471 140.596  -0.680  1.00  0.00     0.000 C 
BRANCH  17  18
ATOM     18  C   UNL     1      54.033 140.538  -0.140  1.00  0.00     0.000 C 
BRANCH  18  19
ATOM     19  C   UNL     1      53.297 139.249  -0.546  1.00  0.00     0.000 C 
BRANCH  19  20
ATOM     20  C   UNL     1      53.251 138.213   0.588  1.00  0.00     0.006 C 
BRANCH  20  21
ATOM     21  C   UNL     1      52.030 138.393   1.501  1.00  0.00     0.053 C 
BRANCH  21  22
ATOM     22  C   UNL     1      50.761 138.306   0.711  1.00  0.00     0.041 C 
ATOM     23  O   UNL     1      50.367 139.294   0.037  1.00  0.00    -0.550 OA
ATOM     24  O   UNL     1      50.019 137.131   0.711  1.00  0.00    -0.550 OA
ENDBRANCH  21  22
ENDBRANCH  20  21
ENDBRANCH  19  20
ENDBRANCH  18  19
ENDBRANCH  17  18
ENDBRANCH  16  17
ENDBRANCH  15  16
ENDBRANCH  14  15
ENDBRANCH  13  14
ENDBRANCH   1  13
TORSDOF 20
ENDMDL
MODEL 3
REMARK VINA RESULT:     9.365      5.212      7.003
REMARK INTER + INTRA:          23.243
REMARK INTER:                  23.945
REMARK INTRA:                  -0.702
REMARK UNBOUND:                 2.930
REMARK SMILES CCCCCCCCCCCCCCCCCCCCCC(=O)[O-]
REMARK SMILES IDX 12 1 11 2 10 3 9 4 8 5 7 6 6 7 5 8 4 9 3 10 2 11 1 12 13 13
REMARK SMILES IDX 14 14 15 15 16 16 17 17 18 18 19 19 20 20 21 21 22 22 23 23
REMARK SMILES IDX 24 24
REMARK H PARENT
REMARK Flexibility Score: inf
ROOT
ATOM      1  C   UNL     1      54.002 144.742  -0.706  1.00  0.00     0.000 C 
ENDROOT
BRANCH   1   2
ATOM      2  C   UNL     1      53.741 145.519   0.598  1.00  0.00     0.000 C 
BRANCH   2   3
ATOM      3  C   UNL     1      53.568 147.032   0.349  1.00  0.00     0.000 C 
BRANCH   3   4
ATOM      4  C   UNL     1      53.688 147.432  -1.133  1.00  0.00    -0.000 C 
BRANCH   4   5
ATOM      5  C   UNL     1      52.384 148.018  -1.699  1.00  0.00    -0.000 C 
BRANCH   5   6
ATOM      6  C   UNL     1      52.389 148.123  -3.235  1.00  0.00    -0.000 C 
BRANCH   6   7
ATOM      7  C   UNL     1      53.515 147.346  -3.945  1.00  0.00    -0.000 C 
BRANCH   7   8
ATOM      8  C   UNL     1      54.168 148.077  -5.134  1.00  0.00    -0.000 C 
BRANCH   8   9
ATOM      9  C   UNL     1      53.467 147.858  -6.488  1.00  0.00    -0.000 C 
BRANCH   9  10
ATOM     10  C   UNL     1      51.952 148.120  -6.420  1.00  0.00    -0.000 C 
BRANCH  10  11
ATOM     11  C   UNL     1      51.218 147.660  -7.688  1.00  0.00    -0.003 C 
ATOM     12  C   UNL     1      49.707 147.547  -7.488  1.00  0.00     0.004 C 
ENDBRANCH  10  11
ENDBRANCH   9  10
ENDBRANCH   8   9
ENDBRANCH   7   8
ENDBRANCH   6   7
ENDBRANCH   5   6
ENDBRANCH   4   5
ENDBRANCH   3   4
ENDBRANCH   2   3
ENDBRANCH   1   2
BRANCH   1  13
ATOM     13  C   UNL     1      54.268 143.248  -0.461  1.00  0.00     0.000 C 
BRANCH  13  14
ATOM     14  C   UNL     1      55.473 142.725  -1.260  1.00  0.00     0.000 C 
BRANCH  14  15
ATOM     15  C   UNL     1      56.236 141.614  -0.521  1.00  0.00     0.000 C 
BRANCH  15  16
ATOM     16  C   UNL     1      56.517 140.390  -1.407  1.00  0.00     0.000 C 
BRANCH  16  17
ATOM     17  C   UNL     1      55.487 139.280  -1.151  1.00  0.00     0.000 C 
BRANCH  17  18
ATOM     18  C   UNL     1      54.323 139.746  -0.262  1.00  0.00     0.000 C 
BRANCH  18  19
ATOM     19  C   UNL     1      53.214 138.687  -0.133  1.00  0.00     0.000 C 
BRANCH  19  20
ATOM     20  C   UNL     1      52.153 139.067   0.911  1.00  0.00     0.006 C 
BRANCH  20  21
ATOM     21  C   UNL     1      51.335 137.858   1.386  1.00  0.00     0.053 C 
BRANCH  21  22
ATOM     22  C   UNL     1      50.041 137.767   0.639  1.00  0.00     0.041 C 
ATOM     23  O   UNL     1      49.247 136.817   0.864  1.00  0.00    -0.550 OA
ATOM     24  O   UNL     1      49.706 138.738  -0.297  1.00  0.00    -0.550 OA
ENDBRANCH  21  22
ENDBRANCH  20  21
ENDBRANCH  19  20
ENDBRANCH  18  19
ENDBRANCH  17  18
ENDBRANCH  16  17
ENDBRANCH  15  16
ENDBRANCH  14  15
ENDBRANCH  13  14
ENDBRANCH   1  13
TORSDOF 20
ENDMDL
MODEL 4
REMARK VINA RESULT:     9.389      6.206      8.278
REMARK INTER + INTRA:          23.297
REMARK INTER:                  24.305
REMARK INTRA:                  -1.008
REMARK UNBOUND:                 2.930
REMARK SMILES CCCCCCCCCCCCCCCCCCCCCC(=O)[O-]
REMARK SMILES IDX 12 1 11 2 10 3 9 4 8 5 7 6 6 7 5 8 4 9 3 10 2 11 1 12 13 13
REMARK SMILES IDX 14 14 15 15 16 16 17 17 18 18 19 19 20 20 21 21 22 22 23 23
REMARK SMILES IDX 24 24
REMARK H PARENT
REMARK Flexibility Score: inf
ROOT
ATOM      1  C   UNL     1      55.094 143.253  -1.025  1.00  0.00     0.000 C 
ENDROOT
BRANCH   1   2
ATOM      2  C   UNL     1      55.554 144.428  -1.907  1.00  0.00     0.000 C 
BRANCH   2   3
ATOM      3  C   UNL     1      54.717 145.702  -1.664  1.00  0.00     0.000 C 
BRANCH   3   4
ATOM      4  C   UNL     1      55.339 146.974  -2.267  1.00  0.00    -0.000 C 
BRANCH   4   5
ATOM      5  C   UNL     1      54.329 148.125  -2.402  1.00  0.00    -0.000 C 
BRANCH   5   6
ATOM      6  C   UNL     1      52.952 147.660  -2.910  1.00  0.00    -0.000 C 
BRANCH   6   7
ATOM      7  C   UNL     1      51.803 147.765  -1.888  1.00  0.00    -0.000 C 
BRANCH   7   8
ATOM      8  C   UNL     1      52.240 148.010  -0.431  1.00  0.00    -0.000 C 
BRANCH   8   9
ATOM      9  C   UNL     1      51.083 148.122   0.579  1.00  0.00    -0.000 C 
BRANCH   9  10
ATOM     10  C   UNL     1      49.701 147.991  -0.085  1.00  0.00    -0.000 C 
BRANCH  10  11
ATOM     11  C   UNL     1      48.565 147.866   0.941  1.00  0.00    -0.003 C 
ATOM     12  C   UNL     1      47.224 147.514   0.297  1.00  0.00     0.004 C 
ENDBRANCH  10  11
ENDBRANCH   9  10
ENDBRANCH   8   9
ENDBRANCH   7   8
ENDBRANCH   6   7
ENDBRANCH   5   6
ENDBRANCH   4   5
ENDBRANCH   3   4
ENDBRANCH   2   3
ENDBRANCH   1   2
BRANCH   1  13
ATOM     13  C   UNL     1      56.101 142.093  -1.013  1.00  0.00     0.000 C 
BRANCH  13  14
ATOM     14  C   UNL     1      55.417 140.717  -1.070  1.00  0.00     0.000 C 
BRANCH  14  15
ATOM     15  C   UNL     1      54.286 140.575  -0.039  1.00  0.00     0.000 C 
BRANCH  15  16
ATOM     16  C   UNL     1      53.659 139.173  -0.027  1.00  0.00     0.000 C 
BRANCH  16  17
ATOM     17  C   UNL     1      52.677 139.021   1.144  1.00  0.00     0.000 C 
BRANCH  17  18
ATOM     18  C   UNL     1      51.383 139.824   0.938  1.00  0.00     0.000 C 
BRANCH  18  19
ATOM     19  C   UNL     1      50.277 139.003   0.250  1.00  0.00     0.000 C 
BRANCH  19  20
ATOM     20  C   UNL     1      50.039 137.646   0.930  1.00  0.00     0.006 C 
BRANCH  20  21
ATOM     21  C   UNL     1      49.749 136.525  -0.078  1.00  0.00     0.053 C 
BRANCH  21  22
ATOM     22  C   UNL     1      48.809 135.517   0.507  1.00  0.00     0.041 C 
ATOM     23  O   UNL     1      47.824 135.895   1.194  1.00  0.00    -0.550 OA
ATOM     24  O   UNL     1      49.014 134.161   0.284  1.00  0.00    -0.550 OA
ENDBRANCH  21  22
ENDBRANCH  20  21
ENDBRANCH  19  20
ENDBRANCH  18  19
ENDBRANCH  17  18
ENDBRANCH  16  17
ENDBRANCH  15  16
ENDBRANCH  14  15
ENDBRANCH  13  14
ENDBRANCH   1  13
TORSDOF 20
ENDMDL
MODEL 5
REMARK VINA RESULT:     9.393      5.067      7.825
REMARK INTER + INTRA:          23.304
REMARK INTER:                  23.400
REMARK INTRA:                  -0.096
REMARK UNBOUND:                 2.930
REMARK SMILES CCCCCCCCCCCCCCCCCCCCCC(=O)[O-]
REMARK SMILES IDX 12 1 11 2 10 3 9 4 8 5 7 6 6 7 5 8 4 9 3 10 2 11 1 12 13 13
REMARK SMILES IDX 14 14 15 15 16 16 17 17 18 18 19 19 20 20 21 21 22 22 23 23
REMARK SMILES IDX 24 24
REMARK H PARENT
REMARK Flexibility Score: inf
ROOT
ATOM      1  C   UNL     1      55.252 145.734  -2.837  1.00  0.00     0.000 C 
ENDROOT
BRANCH   1   2
ATOM      2  C   UNL     1      55.681 147.212  -2.882  1.00  0.00     0.000 C 
BRANCH   2   3
ATOM      3  C   UNL     1      54.715 148.123  -2.095  1.00  0.00     0.000 C 
BRANCH   3   4
ATOM      4  C   UNL     1      53.343 147.481  -1.825  1.00  0.00    -0.000 C 
BRANCH   4   5
ATOM      5  C   UNL     1      52.611 148.119  -0.634  1.00  0.00    -0.000 C 
BRANCH   5   6
ATOM      6  C   UNL     1      52.559 147.203   0.602  1.00  0.00    -0.000 C 
BRANCH   6   7
ATOM      7  C   UNL     1      52.177 147.899   1.924  1.00  0.00    -0.000 C 
BRANCH   7   8
ATOM      8  C   UNL     1      50.666 148.112   2.140  1.00  0.00    -0.000 C 
BRANCH   8   9
ATOM      9  C   UNL     1      49.778 147.676   0.961  1.00  0.00    -0.000 C 
BRANCH   9  10
ATOM     10  C   UNL     1      48.276 147.821   1.264  1.00  0.00    -0.000 C 
BRANCH  10  11
ATOM     11  C   UNL     1      47.449 148.122   0.005  1.00  0.00    -0.003 C 
ATOM     12  C   UNL     1      48.294 148.123  -1.270  1.00  0.00     0.004 C 
ENDBRANCH  10  11
ENDBRANCH   9  10
ENDBRANCH   8   9
ENDBRANCH   7   8
ENDBRANCH   6   7
ENDBRANCH   5   6
ENDBRANCH   4   5
ENDBRANCH   3   4
ENDBRANCH   2   3
ENDBRANCH   1   2
BRANCH   1  13
ATOM     13  C   UNL     1      55.421 145.112  -1.442  1.00  0.00     0.000 C 
BRANCH  13  14
ATOM     14  C   UNL     1      55.021 143.628  -1.406  1.00  0.00     0.000 C 
BRANCH  14  15
ATOM     15  C   UNL     1      56.154 142.721  -0.900  1.00  0.00     0.000 C 
BRANCH  15  16
ATOM     16  C   UNL     1      55.997 141.260  -1.348  1.00  0.00     0.000 C 
BRANCH  16  17
ATOM     17  C   UNL     1      54.993 140.517  -0.454  1.00  0.00     0.000 C 
BRANCH  17  18
ATOM     18  C   UNL     1      53.867 141.430   0.056  1.00  0.00     0.000 C 
BRANCH  18  19
ATOM     19  C   UNL     1      52.670 140.640   0.615  1.00  0.00     0.000 C 
BRANCH  19  20
ATOM     20  C   UNL     1      52.685 139.164   0.189  1.00  0.00     0.006 C 
BRANCH  20  21
ATOM     21  C   UNL     1      51.760 138.293   1.050  1.00  0.00     0.053 C 
BRANCH  21  22
ATOM     22  C   UNL     1      52.288 138.180   2.447  1.00  0.00     0.041 C 
ATOM     23  O   UNL     1      53.021 137.209   2.769  1.00  0.00    -0.550 OA
ATOM     24  O   UNL     1      51.980 139.154   3.390  1.00  0.00    -0.550 OA
ENDBRANCH  21  22
ENDBRANCH  20  21
ENDBRANCH  19  20
ENDBRANCH  18  19
ENDBRANCH  17  18
ENDBRANCH  16  17
ENDBRANCH  15  16
ENDBRANCH  14  15
ENDBRANCH  13  14
ENDBRANCH   1  13
TORSDOF 20
ENDMDL
MODEL 6
REMARK VINA RESULT:     9.722      3.709      6.798
REMARK INTER + INTRA:          24.018
REMARK INTER:                  21.986
REMARK INTRA:                   2.032
REMARK UNBOUND:                 2.930
REMARK SMILES CCCCCCCCCCCCCCCCCCCCCC(=O)[O-]
REMARK SMILES IDX 12 1 11 2 10 3 9 4 8 5 7 6 6 7 5 8 4 9 3 10 2 11 1 12 13 13
REMARK SMILES IDX 14 14 15 15 16 16 17 17 18 18 19 19 20 20 21 21 22 22 23 23
REMARK SMILES IDX 24 24
REMARK H PARENT
REMARK Flexibility Score: inf
ROOT
ATOM      1  C   UNL     1      53.287 147.221  -0.452  1.00  0.00     0.000 C 
ENDROOT
BRANCH   1   2
ATOM      2  C   UNL     1      53.517 147.271  -1.974  1.00  0.00     0.000 C 
BRANCH   2   3
ATOM      3  C   UNL     1      54.323 146.057  -2.481  1.00  0.00     0.000 C 
BRANCH   3   4
ATOM      4  C   UNL     1      55.157 145.369  -1.386  1.00  0.00    -0.000 C 
BRANCH   4   5
ATOM      5  C   UNL     1      54.698 143.929  -1.103  1.00  0.00    -0.000 C 
BRANCH   5   6
ATOM      6  C   UNL     1      55.820 142.892  -1.290  1.00  0.00    -0.000 C 
BRANCH   6   7
ATOM      7  C   UNL     1      55.628 141.568  -0.524  1.00  0.00    -0.000 C 
BRANCH   7   8
ATOM      8  C   UNL     1      54.268 141.410   0.183  1.00  0.00    -0.000 C 
BRANCH   8   9
ATOM      9  C   UNL     1      53.719 139.972   0.210  1.00  0.00    -0.000 C 
BRANCH   9  10
ATOM     10  C   UNL     1      52.181 139.923   0.183  1.00  0.00    -0.000 C 
BRANCH  10  11
ATOM     11  C   UNL     1      51.612 138.820   1.088  1.00  0.00    -0.003 C 
ATOM     12  C   UNL     1      52.609 138.355   2.150  1.00  0.00     0.004 C 
ENDBRANCH  10  11
ENDBRANCH   9  10
ENDBRANCH   8   9
ENDBRANCH   7   8
ENDBRANCH   6   7
ENDBRANCH   5   6
ENDBRANCH   4   5
ENDBRANCH   3   4
ENDBRANCH   2   3
ENDBRANCH   1   2
BRANCH   1  13
ATOM     13  C   UNL     1      54.600 147.252   0.346  1.00  0.00     0.000 C 
BRANCH  13  14
ATOM     14  C   UNL     1      54.365 147.315   1.864  1.00  0.00     0.000 C 
BRANCH  14  15
ATOM     15  C   UNL     1      53.018 147.960   2.229  1.00  0.00     0.000 C 
BRANCH  15  16
ATOM     16  C   UNL     1      51.821 147.253   1.575  1.00  0.00     0.000 C 
BRANCH  16  17
ATOM     17  C   UNL     1      50.516 148.013   1.854  1.00  0.00     0.000 C 
BRANCH  17  18
ATOM     18  C   UNL     1      49.618 148.124   0.611  1.00  0.00     0.000 C 
BRANCH  18  19
ATOM     19  C   UNL     1      48.219 147.524   0.834  1.00  0.00     0.000 C 
BRANCH  19  20
ATOM     20  C   UNL     1      47.237 147.882  -0.291  1.00  0.00     0.006 C 
BRANCH  20  21
ATOM     21  C   UNL     1      47.421 147.003  -1.536  1.00  0.00     0.053 C 
BRANCH  21  22
ATOM     22  C   UNL     1      48.401 147.623  -2.482  1.00  0.00     0.041 C 
ATOM     23  O   UNL     1      49.548 147.950  -2.080  1.00  0.00    -0.550 OA
ATOM     24  O   UNL     1      48.052 147.829  -3.812  1.00  0.00    -0.550 OA
ENDBRANCH  21  22
ENDBRANCH  20  21
ENDBRANCH  19  20
ENDBRANCH  18  19
ENDBRANCH  17  18
ENDBRANCH  16  17
ENDBRANCH  15  16
ENDBRANCH  14  15
ENDBRANCH  13  14
ENDBRANCH   1  13
TORSDOF 20
ENDMDL
MODEL 7
REMARK VINA RESULT:     9.775      4.998      7.713
REMARK INTER + INTRA:          24.134
REMARK INTER:                  24.944
REMARK INTRA:                  -0.810
REMARK UNBOUND:                 2.930
REMARK SMILES CCCCCCCCCCCCCCCCCCCCCC(=O)[O-]
REMARK SMILES IDX 12 1 11 2 10 3 9 4 8 5 7 6 6 7 5 8 4 9 3 10 2 11 1 12 13 13
REMARK SMILES IDX 14 14 15 15 16 16 17 17 18 18 19 19 20 20 21 21 22 22 23 23
REMARK SMILES IDX 24 24
REMARK H PARENT
REMARK Flexibility Score: inf
ROOT
ATOM      1  C   UNL     1      54.818 145.563  -0.801  1.00  0.00     0.000 C 
ENDROOT
BRANCH   1   2
ATOM      2  C   UNL     1      55.217 144.273  -1.541  1.00  0.00     0.000 C 
BRANCH   2   3
ATOM      3  C   UNL     1      55.077 143.022  -0.647  1.00  0.00     0.000 C 
BRANCH   3   4
ATOM      4  C   UNL     1      55.175 141.696  -1.422  1.00  0.00    -0.000 C 
BRANCH   4   5
ATOM      5  C   UNL     1      55.262 140.471  -0.497  1.00  0.00    -0.000 C 
BRANCH   5   6
ATOM      6  C   UNL     1      53.886 139.858  -0.180  1.00  0.00    -0.000 C 
BRANCH   6   7
ATOM      7  C   UNL     1      53.260 140.297   1.158  1.00  0.00    -0.000 C 
BRANCH   7   8
ATOM      8  C   UNL     1      52.061 139.453   1.631  1.00  0.00    -0.000 C 
BRANCH   8   9
ATOM      9  C   UNL     1      51.563 138.413   0.610  1.00  0.00    -0.000 C 
BRANCH   9  10
ATOM     10  C   UNL     1      50.041 138.192   0.683  1.00  0.00    -0.000 C 
BRANCH  10  11
ATOM     11  C   UNL     1      49.578 137.006  -0.174  1.00  0.00    -0.003 C 
ATOM     12  C   UNL     1      50.082 135.663   0.355  1.00  0.00     0.004 C 
ENDBRANCH  10  11
ENDBRANCH   9  10
ENDBRANCH   8   9
ENDBRANCH   7   8
ENDBRANCH   6   7
ENDBRANCH   5   6
ENDBRANCH   4   5
ENDBRANCH   3   4
ENDBRANCH   2   3
ENDBRANCH   1   2
BRANCH   1  13
ATOM     13  C   UNL     1      54.806 146.793  -1.723  1.00  0.00     0.000 C 
BRANCH  13  14
ATOM     14  C   UNL     1      54.964 148.112  -0.948  1.00  0.00     0.000 C 
BRANCH  14  15
ATOM     15  C   UNL     1      55.245 147.890   0.547  1.00  0.00     0.000 C 
BRANCH  15  16
ATOM     16  C   UNL     1      54.006 148.112   1.428  1.00  0.00     0.000 C 
BRANCH  16  17
ATOM     17  C   UNL     1      52.718 148.029   0.594  1.00  0.00     0.000 C 
BRANCH  17  18
ATOM     18  C   UNL     1      51.570 147.338   1.346  1.00  0.00     0.000 C 
BRANCH  18  19
ATOM     19  C   UNL     1      50.191 147.919   0.987  1.00  0.00     0.000 C 
BRANCH  19  20
ATOM     20  C   UNL     1      49.961 148.003  -0.529  1.00  0.00     0.006 C 
BRANCH  20  21
ATOM     21  C   UNL     1      48.473 148.092  -0.896  1.00  0.00     0.053 C 
BRANCH  21  22
ATOM     22  C   UNL     1      48.263 147.768  -2.342  1.00  0.00     0.041 C 
ATOM     23  O   UNL     1      47.213 147.180  -2.713  1.00  0.00    -0.550 OA
ATOM     24  O   UNL     1      49.222 148.124  -3.283  1.00  0.00    -0.550 OA
ENDBRANCH  21  22
ENDBRANCH  20  21
ENDBRANCH  19  20
ENDBRANCH  18  19
ENDBRANCH  17  18
ENDBRANCH  16  17
ENDBRANCH  15  16
ENDBRANCH  14  15
ENDBRANCH  13  14
ENDBRANCH   1  13
TORSDOF 20
ENDMDL
MODEL 8
REMARK VINA RESULT:     9.991      4.184      7.309
REMARK INTER + INTRA:          24.602
REMARK INTER:                  25.258
REMARK INTRA:                  -0.656
REMARK UNBOUND:                 2.930
REMARK SMILES CCCCCCCCCCCCCCCCCCCCCC(=O)[O-]
REMARK SMILES IDX 12 1 11 2 10 3 9 4 8 5 7 6 6 7 5 8 4 9 3 10 2 11 1 12 13 13
REMARK SMILES IDX 14 14 15 15 16 16 17 17 18 18 19 19 20 20 21 21 22 22 23 23
REMARK SMILES IDX 24 24
REMARK H PARENT
REMARK Flexibility Score: inf
ROOT
ATOM      1  C   UNL     1      54.095 147.847  -0.624  1.00  0.00     0.000 C 
ENDROOT
BRANCH   1   2
ATOM      2  C   UNL     1      54.734 147.333  -1.928  1.00  0.00     0.000 C 
BRANCH   2   3
ATOM      3  C   UNL     1      54.474 145.828  -2.150  1.00  0.00     0.000 C 
BRANCH   3   4
ATOM      4  C   UNL     1      55.535 144.917  -1.506  1.00  0.00    -0.000 C 
BRANCH   4   5
ATOM      5  C   UNL     1      55.338 143.434  -1.858  1.00  0.00    -0.000 C 
BRANCH   5   6
ATOM      6  C   UNL     1      55.667 142.489  -0.687  1.00  0.00    -0.000 C 
BRANCH   6   7
ATOM      7  C   UNL     1      54.501 141.603  -0.208  1.00  0.00    -0.000 C 
BRANCH   7   8
ATOM      8  C   UNL     1      54.517 140.155  -0.734  1.00  0.00    -0.000 C 
BRANCH   8   9
ATOM      9  C   UNL     1      53.999 139.102   0.263  1.00  0.00    -0.000 C 
BRANCH   9  10
ATOM     10  C   UNL     1      52.599 139.438   0.807  1.00  0.00    -0.000 C 
BRANCH  10  11
ATOM     11  C   UNL     1      51.477 138.792  -0.018  1.00  0.00    -0.003 C 
ATOM     12  C   UNL     1      50.788 137.644   0.719  1.00  0.00     0.004 C 
ENDBRANCH  10  11
ENDBRANCH   9  10
ENDBRANCH   8   9
ENDBRANCH   7   8
ENDBRANCH   6   7
ENDBRANCH   5   6
ENDBRANCH   4   5
ENDBRANCH   3   4
ENDBRANCH   2   3
ENDBRANCH   1   2
BRANCH   1  13
ATOM     13  C   UNL     1      53.763 146.712   0.358  1.00  0.00     0.000 C 
BRANCH  13  14
ATOM     14  C   UNL     1      53.255 147.235   1.712  1.00  0.00     0.000 C 
BRANCH  14  15
ATOM     15  C   UNL     1      51.813 147.763   1.639  1.00  0.00     0.000 C 
BRANCH  15  16
ATOM     16  C   UNL     1      51.283 147.858   0.200  1.00  0.00     0.000 C 
BRANCH  16  17
ATOM     17  C   UNL     1      49.803 147.452   0.133  1.00  0.00     0.000 C 
BRANCH  17  18
ATOM     18  C   UNL     1      49.060 148.116  -1.036  1.00  0.00     0.000 C 
BRANCH  18  19
ATOM     19  C   UNL     1      49.176 147.316  -2.345  1.00  0.00     0.000 C 
BRANCH  19  20
ATOM     20  C   UNL     1      50.014 148.041  -3.409  1.00  0.00     0.006 C 
BRANCH  20  21
ATOM     21  C   UNL     1      51.455 147.515  -3.483  1.00  0.00     0.053 C 
BRANCH  21  22
ATOM     22  C   UNL     1      52.061 147.818  -4.817  1.00  0.00     0.041 C 
ATOM     23  O   UNL     1      51.325 148.121  -5.793  1.00  0.00    -0.550 OA
ATOM     24  O   UNL     1      53.441 147.779  -4.982  1.00  0.00    -0.550 OA
ENDBRANCH  21  22
ENDBRANCH  20  21
ENDBRANCH  19  20
ENDBRANCH  18  19
ENDBRANCH  17  18
ENDBRANCH  16  17
ENDBRANCH  15  16
ENDBRANCH  14  15
ENDBRANCH  13  14
ENDBRANCH   1  13
TORSDOF 20
ENDMDL
