MODEL 1
REMARK VINA RESULT:    -4.476      0.000      0.000
REMARK INTER + INTRA:          -8.128
REMARK INTER:                  -7.093
REMARK INTRA:                  -1.035
REMARK UNBOUND:                -1.035
REMARK SMILES CCCCCCCCCCCC(=O)[O-]
REMARK SMILES IDX 7 1 8 2 9 3 10 4 11 5 12 6 13 7 14 8 6 9 5 10 4 11 3 12 2 13
REMARK SMILES IDX 1 14
REMARK H PARENT
REMARK Flexibility Score: inf
ROOT
ATOM      1  C   UNL     1       0.754   8.717  -9.250  1.00  0.00     0.000 C 
ENDROOT
BRANCH   1   2
ATOM      2  C   UNL     1       1.756   9.003  -8.122  1.00  0.00     0.000 C 
BRANCH   2   3
ATOM      3  C   UNL     1       1.129   8.729  -6.749  1.00  0.00     0.000 C 
BRANCH   3   4
ATOM      4  C   UNL     1       1.459   9.855  -5.758  1.00  0.00     0.006 C 
BRANCH   4   5
ATOM      5  C   UNL     1       2.877   9.729  -5.186  1.00  0.00     0.053 C 
BRANCH   5   6
ATOM      6  C   UNL     1       3.201   8.314  -4.814  1.00  0.00     0.041 C 
ATOM      7  O   UNL     1       3.932   7.613  -5.562  1.00  0.00    -0.550 OA
ATOM      8  O   UNL     1       2.722   7.781  -3.623  1.00  0.00    -0.550 OA
ENDBRANCH   5   6
ENDBRANCH   4   5
ENDBRANCH   3   4
ENDBRANCH   2   3
ENDBRANCH   1   2
BRANCH   1   9
ATOM      9  C   UNL     1      -0.060   7.434  -9.010  1.00  0.00     0.000 C 
BRANCH   9  10
ATOM     10  C   UNL     1       0.448   6.248  -9.846  1.00  0.00    -0.000 C 
BRANCH  10  11
ATOM     11  C   UNL     1       0.750   5.004  -8.994  1.00  0.00    -0.000 C 
BRANCH  11  12
ATOM     12  C   UNL     1       1.930   5.193  -8.016  1.00  0.00    -0.000 C 
BRANCH  12  13
ATOM     13  C   UNL     1       1.485   5.111  -6.548  1.00  0.00    -0.003 C 
ATOM     14  C   UNL     1       0.299   4.166  -6.383  1.00  0.00     0.004 C 
ENDBRANCH  12  13
ENDBRANCH  11  12
ENDBRANCH  10  11
ENDBRANCH   9  10
ENDBRANCH   1   9
TORSDOF 10
ENDMDL
MODEL 2
REMARK VINA RESULT:    -4.322      2.417      4.452
REMARK INTER + INTRA:          -7.884
REMARK INTER:                  -6.399
REMARK INTRA:                  -1.485
REMARK UNBOUND:                -1.035
REMARK SMILES CCCCCCCCCCCC(=O)[O-]
REMARK SMILES IDX 7 1 8 2 9 3 10 4 11 5 12 6 13 7 14 8 6 9 5 10 4 11 3 12 2 13
REMARK SMILES IDX 1 14
REMARK H PARENT
REMARK Flexibility Score: inf
ROOT
ATOM      1  C   UNL     1       1.885   8.163  -9.436  1.00  0.00     0.000 C 
ENDROOT
BRANCH   1   2
ATOM      2  C   UNL     1       0.505   8.310  -8.778  1.00  0.00     0.000 C 
BRANCH   2   3
ATOM      3  C   UNL     1       0.039   6.979  -8.176  1.00  0.00     0.000 C 
BRANCH   3   4
ATOM      4  C   UNL     1       0.646   5.788  -8.934  1.00  0.00     0.006 C 
BRANCH   4   5
ATOM      5  C   UNL     1       1.376   4.816  -7.999  1.00  0.00     0.053 C 
BRANCH   5   6
ATOM      6  C   UNL     1       0.431   4.144  -7.049  1.00  0.00     0.041 C 
ATOM      7  O   UNL     1      -0.321   3.219  -7.451  1.00  0.00    -0.550 OA
ATOM      8  O   UNL     1       0.408   4.520  -5.711  1.00  0.00    -0.550 OA
ENDBRANCH   5   6
ENDBRANCH   4   5
ENDBRANCH   3   4
ENDBRANCH   2   3
ENDBRANCH   1   2
BRANCH   1   9
ATOM      9  C   UNL     1       3.010   8.800  -8.602  1.00  0.00     0.000 C 
BRANCH   9  10
ATOM     10  C   UNL     1       4.064   7.774  -8.154  1.00  0.00    -0.000 C 
BRANCH  10  11
ATOM     11  C   UNL     1       4.200   7.688  -6.624  1.00  0.00    -0.000 C 
BRANCH  11  12
ATOM     12  C   UNL     1       2.852   7.513  -5.891  1.00  0.00    -0.000 C 
BRANCH  12  13
ATOM     13  C   UNL     1       2.607   8.621  -4.856  1.00  0.00    -0.003 C 
ATOM     14  C   UNL     1       1.573   9.625  -5.355  1.00  0.00     0.004 C 
ENDBRANCH  12  13
ENDBRANCH  11  12
ENDBRANCH  10  11
ENDBRANCH   9  10
ENDBRANCH   1   9
TORSDOF 10
ENDMDL
MODEL 3
REMARK VINA RESULT:    -4.138      2.434      4.475
REMARK INTER + INTRA:          -7.592
REMARK INTER:                  -6.182
REMARK INTRA:                  -1.411
REMARK UNBOUND:                -1.035
REMARK SMILES CCCCCCCCCCCC(=O)[O-]
REMARK SMILES IDX 7 1 8 2 9 3 10 4 11 5 12 6 13 7 14 8 6 9 5 10 4 11 3 12 2 13
REMARK SMILES IDX 1 14
REMARK H PARENT
REMARK Flexibility Score: inf
ROOT
ATOM      1  C   UNL     1       1.473   8.775  -9.365  1.00  0.00     0.000 C 
ENDROOT
BRANCH   1   2
ATOM      2  C   UNL     1       0.446   7.782  -9.929  1.00  0.00     0.000 C 
BRANCH   2   3
ATOM      3  C   UNL     1       0.028   6.760  -8.863  1.00  0.00     0.000 C 
BRANCH   3   4
ATOM      4  C   UNL     1       0.758   5.424  -9.065  1.00  0.00     0.006 C 
BRANCH   4   5
ATOM      5  C   UNL     1       1.429   4.928  -7.777  1.00  0.00     0.053 C 
BRANCH   5   6
ATOM      6  C   UNL     1       0.460   4.209  -6.888  1.00  0.00     0.041 C 
ATOM      7  O   UNL     1       0.363   4.522  -5.672  1.00  0.00    -0.550 OA
ATOM      8  O   UNL     1      -0.359   3.217  -7.411  1.00  0.00    -0.550 OA
ENDBRANCH   5   6
ENDBRANCH   4   5
ENDBRANCH   3   4
ENDBRANCH   2   3
ENDBRANCH   1   2
BRANCH   1   9
ATOM      9  C   UNL     1       0.903   9.636  -8.225  1.00  0.00     0.000 C 
BRANCH   9  10
ATOM     10  C   UNL     1       1.825   9.672  -6.995  1.00  0.00    -0.000 C 
BRANCH  10  11
ATOM     11  C   UNL     1       1.522   8.548  -5.990  1.00  0.00    -0.000 C 
BRANCH  11  12
ATOM     12  C   UNL     1       2.714   7.598  -5.743  1.00  0.00    -0.000 C 
BRANCH  12  13
ATOM     13  C   UNL     1       4.010   8.114  -6.386  1.00  0.00    -0.003 C 
ATOM     14  C   UNL     1       4.450   7.218  -7.539  1.00  0.00     0.004 C 
ENDBRANCH  12  13
ENDBRANCH  11  12
ENDBRANCH  10  11
ENDBRANCH   9  10
ENDBRANCH   1   9
TORSDOF 10
ENDMDL
MODEL 4
REMARK VINA RESULT:    -4.131      1.662      2.327
REMARK INTER + INTRA:          -7.581
REMARK INTER:                  -6.237
REMARK INTRA:                  -1.344
REMARK UNBOUND:                -1.035
REMARK SMILES CCCCCCCCCCCC(=O)[O-]
REMARK SMILES IDX 7 1 8 2 9 3 10 4 11 5 12 6 13 7 14 8 6 9 5 10 4 11 3 12 2 13
REMARK SMILES IDX 1 14
REMARK H PARENT
REMARK Flexibility Score: inf
ROOT
ATOM      1  C   UNL     1       0.452   7.826  -7.845  1.00  0.00     0.000 C 
ENDROOT
BRANCH   1   2
ATOM      2  C   UNL     1       0.970   9.222  -8.222  1.00  0.00     0.000 C 
BRANCH   2   3
ATOM      3  C   UNL     1       1.826   9.813  -7.094  1.00  0.00     0.000 C 
BRANCH   3   4
ATOM      4  C   UNL     1       1.504   9.144  -5.749  1.00  0.00     0.006 C 
BRANCH   4   5
ATOM      5  C   UNL     1       2.759   8.599  -5.057  1.00  0.00     0.053 C 
BRANCH   5   6
ATOM      6  C   UNL     1       2.486   7.306  -4.349  1.00  0.00     0.041 C 
ATOM      7  O   UNL     1       2.473   6.223  -4.991  1.00  0.00    -0.550 OA
ATOM      8  O   UNL     1       2.280   7.295  -2.976  1.00  0.00    -0.550 OA
ENDBRANCH   5   6
ENDBRANCH   4   5
ENDBRANCH   3   4
ENDBRANCH   2   3
ENDBRANCH   1   2
BRANCH   1   9
ATOM      9  C   UNL     1      -0.043   7.029  -9.063  1.00  0.00     0.000 C 
BRANCH   9  10
ATOM     10  C   UNL     1       0.698   5.692  -9.234  1.00  0.00    -0.000 C 
BRANCH  10  11
ATOM     11  C   UNL     1       2.157   5.754  -8.752  1.00  0.00    -0.000 C 
BRANCH  11  12
ATOM     12  C   UNL     1       3.157   6.171  -9.852  1.00  0.00    -0.000 C 
BRANCH  12  13
ATOM     13  C   UNL     1       3.869   7.491  -9.519  1.00  0.00    -0.003 C 
ATOM     14  C   UNL     1       4.590   7.407  -8.177  1.00  0.00     0.004 C 
ENDBRANCH  12  13
ENDBRANCH  11  12
ENDBRANCH  10  11
ENDBRANCH   9  10
ENDBRANCH   1   9
TORSDOF 10
ENDMDL
MODEL 5
REMARK VINA RESULT:    -4.127      1.781      2.288
REMARK INTER + INTRA:          -7.575
REMARK INTER:                  -6.226
REMARK INTRA:                  -1.349
REMARK UNBOUND:                -1.035
REMARK SMILES CCCCCCCCCCCC(=O)[O-]
REMARK SMILES IDX 7 1 8 2 9 3 10 4 11 5 12 6 13 7 14 8 6 9 5 10 4 11 3 12 2 13
REMARK SMILES IDX 1 14
REMARK H PARENT
REMARK Flexibility Score: inf
ROOT
ATOM      1  C   UNL     1       2.665   7.457  -9.722  1.00  0.00     0.000 C 
ENDROOT
BRANCH   1   2
ATOM      2  C   UNL     1       4.125   7.749  -9.342  1.00  0.00     0.000 C 
BRANCH   2   3
ATOM      3  C   UNL     1       4.378   7.443  -7.860  1.00  0.00     0.000 C 
BRANCH   3   4
ATOM      4  C   UNL     1       3.370   8.180  -6.965  1.00  0.00     0.006 C 
BRANCH   4   5
ATOM      5  C   UNL     1       3.759   8.123  -5.483  1.00  0.00     0.053 C 
BRANCH   5   6
ATOM      6  C   UNL     1       2.563   8.256  -4.589  1.00  0.00     0.041 C 
ATOM      7  O   UNL     1       2.537   7.675  -3.473  1.00  0.00    -0.550 OA
ATOM      8  O   UNL     1       1.492   9.052  -4.977  1.00  0.00    -0.550 OA
ENDBRANCH   5   6
ENDBRANCH   4   5
ENDBRANCH   3   4
ENDBRANCH   2   3
ENDBRANCH   1   2
BRANCH   1   9
ATOM      9  C   UNL     1       2.360   5.951  -9.791  1.00  0.00     0.000 C 
BRANCH   9  10
ATOM     10  C   UNL     1       0.868   5.642  -9.585  1.00  0.00    -0.000 C 
BRANCH  10  11
ATOM     11  C   UNL     1       0.127   6.757  -8.827  1.00  0.00    -0.000 C 
BRANCH  11  12
ATOM     12  C   UNL     1       0.024   6.510  -7.307  1.00  0.00    -0.000 C 
BRANCH  12  13
ATOM     13  C   UNL     1       0.374   5.063  -6.928  1.00  0.00    -0.003 C 
ATOM     14  C   UNL     1       1.629   5.007  -6.062  1.00  0.00     0.004 C 
ENDBRANCH  12  13
ENDBRANCH  11  12
ENDBRANCH  10  11
ENDBRANCH   9  10
ENDBRANCH   1   9
TORSDOF 10
ENDMDL
MODEL 6
REMARK VINA RESULT:    -4.093      1.467      3.516
REMARK INTER + INTRA:          -7.520
REMARK INTER:                  -6.149
REMARK INTRA:                  -1.371
REMARK UNBOUND:                -1.035
REMARK SMILES CCCCCCCCCCCC(=O)[O-]
REMARK SMILES IDX 7 1 8 2 9 3 10 4 11 5 12 6 13 7 14 8 6 9 5 10 4 11 3 12 2 13
REMARK SMILES IDX 1 14
REMARK H PARENT
REMARK Flexibility Score: inf
ROOT
ATOM      1  C   UNL     1       1.490   4.803  -8.422  1.00  0.00     0.000 C 
ENDROOT
BRANCH   1   2
ATOM      2  C   UNL     1       0.418   4.319  -7.434  1.00  0.00     0.000 C 
BRANCH   2   3
ATOM      3  C   UNL     1       0.736   4.786  -6.008  1.00  0.00     0.000 C 
BRANCH   3   4
ATOM      4  C   UNL     1       2.032   5.610  -5.973  1.00  0.00     0.006 C 
BRANCH   4   5
ATOM      5  C   UNL     1       1.775   7.080  -5.616  1.00  0.00     0.053 C 
BRANCH   5   6
ATOM      6  C   UNL     1       2.593   7.516  -4.438  1.00  0.00     0.041 C 
ATOM      7  O   UNL     1       2.578   6.847  -3.373  1.00  0.00    -0.550 OA
ATOM      8  O   UNL     1       3.398   8.645  -4.532  1.00  0.00    -0.550 OA
ENDBRANCH   5   6
ENDBRANCH   4   5
ENDBRANCH   3   4
ENDBRANCH   2   3
ENDBRANCH   1   2
BRANCH   1   9
ATOM      9  C   UNL     1       0.894   5.555  -9.623  1.00  0.00     0.000 C 
BRANCH   9  10
ATOM     10  C   UNL     1      -0.021   6.714  -9.198  1.00  0.00    -0.000 C 
BRANCH  10  11
ATOM     11  C   UNL     1       0.750   8.021  -8.943  1.00  0.00    -0.000 C 
BRANCH  11  12
ATOM     12  C   UNL     1       2.104   8.096  -9.682  1.00  0.00    -0.000 C 
BRANCH  12  13
ATOM     13  C   UNL     1       3.286   8.243  -8.713  1.00  0.00    -0.003 C 
ATOM     14  C   UNL     1       4.460   7.364  -9.135  1.00  0.00     0.004 C 
ENDBRANCH  12  13
ENDBRANCH  11  12
ENDBRANCH  10  11
ENDBRANCH   9  10
ENDBRANCH   1   9
TORSDOF 10
ENDMDL
MODEL 7
REMARK VINA RESULT:    -4.038     17.976     20.795
REMARK INTER + INTRA:          -7.433
REMARK INTER:                  -6.054
REMARK INTRA:                  -1.379
REMARK UNBOUND:                -1.035
REMARK SMILES CCCCCCCCCCCC(=O)[O-]
REMARK SMILES IDX 7 1 8 2 9 3 10 4 11 5 12 6 13 7 14 8 6 9 5 10 4 11 3 12 2 13
REMARK SMILES IDX 1 14
REMARK H PARENT
REMARK Flexibility Score: inf
ROOT
ATOM      1  C   UNL     1      -6.517  -3.431   8.048  1.00  0.00     0.000 C 
ENDROOT
BRANCH   1   2
ATOM      2  C   UNL     1      -7.591  -4.519   8.190  1.00  0.00     0.000 C 
BRANCH   2   3
ATOM      3  C   UNL     1      -8.365  -4.700   6.878  1.00  0.00     0.000 C 
BRANCH   3   4
ATOM      4  C   UNL     1      -7.865  -5.931   6.107  1.00  0.00     0.006 C 
BRANCH   4   5
ATOM      5  C   UNL     1      -7.803  -7.183   6.990  1.00  0.00     0.053 C 
BRANCH   5   6
ATOM      6  C   UNL     1      -7.000  -8.275   6.350  1.00  0.00     0.041 C 
ATOM      7  O   UNL     1      -7.456  -9.447   6.291  1.00  0.00    -0.550 OA
ATOM      8  O   UNL     1      -5.762  -7.988   5.788  1.00  0.00    -0.550 OA
ENDBRANCH   5   6
ENDBRANCH   4   5
ENDBRANCH   3   4
ENDBRANCH   2   3
ENDBRANCH   1   2
BRANCH   1   9
ATOM      9  C   UNL     1      -5.131  -3.899   8.523  1.00  0.00     0.000 C 
BRANCH   9  10
ATOM     10  C   UNL     1      -4.750  -5.278   7.960  1.00  0.00    -0.000 C 
BRANCH  10  11
ATOM     11  C   UNL     1      -3.756  -5.190   6.789  1.00  0.00    -0.000 C 
BRANCH  11  12
ATOM     12  C   UNL     1      -4.413  -4.808   5.445  1.00  0.00    -0.000 C 
BRANCH  12  13
ATOM     13  C   UNL     1      -3.725  -3.604   4.785  1.00  0.00    -0.003 C 
ATOM     14  C   UNL     1      -4.408  -2.296   5.174  1.00  0.00     0.004 C 
ENDBRANCH  12  13
ENDBRANCH  11  12
ENDBRANCH  10  11
ENDBRANCH   9  10
ENDBRANCH   1   9
TORSDOF 10
ENDMDL
MODEL 8
REMARK VINA RESULT:    -4.009     17.763     20.455
REMARK INTER + INTRA:          -7.387
REMARK INTER:                  -5.932
REMARK INTRA:                  -1.455
REMARK UNBOUND:                -1.035
REMARK SMILES CCCCCCCCCCCC(=O)[O-]
REMARK SMILES IDX 7 1 8 2 9 3 10 4 11 5 12 6 13 7 14 8 6 9 5 10 4 11 3 12 2 13
REMARK SMILES IDX 1 14
REMARK H PARENT
REMARK Flexibility Score: inf
ROOT
ATOM      1  C   UNL     1      -4.006  -5.017   9.199  1.00  0.00     0.000 C 
ENDROOT
BRANCH   1   2
ATOM      2  C   UNL     1      -4.865  -3.936   9.871  1.00  0.00     0.000 C 
BRANCH   2   3
ATOM      3  C   UNL     1      -5.421  -2.953   8.833  1.00  0.00     0.000 C 
BRANCH   3   4
ATOM      4  C   UNL     1      -6.948  -3.078   8.717  1.00  0.00     0.006 C 
BRANCH   4   5
ATOM      5  C   UNL     1      -7.397  -3.401   7.287  1.00  0.00     0.053 C 
BRANCH   5   6
ATOM      6  C   UNL     1      -8.248  -4.635   7.238  1.00  0.00     0.041 C 
ATOM      7  O   UNL     1      -8.903  -4.994   8.251  1.00  0.00    -0.550 OA
ATOM      8  O   UNL     1      -8.342  -5.367   6.061  1.00  0.00    -0.550 OA
ENDBRANCH   5   6
ENDBRANCH   4   5
ENDBRANCH   3   4
ENDBRANCH   2   3
ENDBRANCH   1   2
BRANCH   1   9
ATOM      9  C   UNL     1      -4.828  -6.240   8.759  1.00  0.00     0.000 C 
BRANCH   9  10
ATOM     10  C   UNL     1      -5.014  -6.309   7.235  1.00  0.00    -0.000 C 
BRANCH  10  11
ATOM     11  C   UNL     1      -3.961  -5.491   6.468  1.00  0.00    -0.000 C 
BRANCH  11  12
ATOM     12  C   UNL     1      -4.506  -4.822   5.187  1.00  0.00    -0.000 C 
BRANCH  12  13
ATOM     13  C   UNL     1      -3.687  -3.587   4.785  1.00  0.00    -0.003 C 
ATOM     14  C   UNL     1      -4.405  -2.297   5.173  1.00  0.00     0.004 C 
ENDBRANCH  12  13
ENDBRANCH  11  12
ENDBRANCH  10  11
ENDBRANCH   9  10
ENDBRANCH   1   9
TORSDOF 10
ENDMDL
MODEL 9
REMARK VINA RESULT:    -3.999      1.707      3.436
REMARK INTER + INTRA:          -7.372
REMARK INTER:                  -6.121
REMARK INTRA:                  -1.250
REMARK UNBOUND:                -1.035
REMARK SMILES CCCCCCCCCCCC(=O)[O-]
REMARK SMILES IDX 7 1 8 2 9 3 10 4 11 5 12 6 13 7 14 8 6 9 5 10 4 11 3 12 2 13
REMARK SMILES IDX 1 14
REMARK H PARENT
REMARK Flexibility Score: inf
ROOT
ATOM      1  C   UNL     1       2.040   6.257  -4.516  1.00  0.00     0.000 C 
ENDROOT
BRANCH   1   2
ATOM      2  C   UNL     1       2.558   7.703  -4.502  1.00  0.00     0.000 C 
BRANCH   2   3
ATOM      3  C   UNL     1       1.983   8.503  -5.678  1.00  0.00     0.000 C 
BRANCH   3   4
ATOM      4  C   UNL     1       3.100   9.190  -6.477  1.00  0.00     0.006 C 
BRANCH   4   5
ATOM      5  C   UNL     1       3.141   8.723  -7.937  1.00  0.00     0.053 C 
BRANCH   5   6
ATOM      6  C   UNL     1       4.052   7.547  -8.119  1.00  0.00     0.041 C 
ATOM      7  O   UNL     1       4.093   6.941  -9.222  1.00  0.00    -0.550 OA
ATOM      8  O   UNL     1       4.881   7.143  -7.079  1.00  0.00    -0.550 OA
ENDBRANCH   5   6
ENDBRANCH   4   5
ENDBRANCH   3   4
ENDBRANCH   2   3
ENDBRANCH   1   2
BRANCH   1   9
ATOM      9  C   UNL     1       1.792   5.729  -5.939  1.00  0.00     0.000 C 
BRANCH   9  10
ATOM     10  C   UNL     1       0.664   4.686  -5.992  1.00  0.00    -0.000 C 
BRANCH  10  11
ATOM     11  C   UNL     1       0.377   4.190  -7.419  1.00  0.00    -0.000 C 
BRANCH  11  12
ATOM     12  C   UNL     1       1.239   4.878  -8.500  1.00  0.00    -0.000 C 
BRANCH  12  13
ATOM     13  C   UNL     1       0.388   5.672  -9.502  1.00  0.00    -0.003 C 
ATOM     14  C   UNL     1       0.004   7.038  -8.941  1.00  0.00     0.004 C 
ENDBRANCH  12  13
ENDBRANCH  11  12
ENDBRANCH  10  11
ENDBRANCH   9  10
ENDBRANCH   1   9
TORSDOF 10
ENDMDL
