MODEL 1
REMARK VINA RESULT:    -4.220      0.000      0.000
REMARK INTER + INTRA:          -9.942
REMARK INTER:                  -7.673
REMARK INTRA:                  -2.268
REMARK UNBOUND:                -2.268
REMARK SMILES CCCCCCCCCCCCCCCC(=O)[O-]
REMARK SMILES IDX 9 1 10 2 11 3 12 4 13 5 14 6 15 7 16 8 17 9 18 10 8 11 7 12
REMARK SMILES IDX 6 13 5 14 4 15 3 16 2 17 1 18
REMARK H PARENT
REMARK Flexibility Score: inf
ROOT
ATOM      1  C   UNL     1      15.460 -34.256  23.428  1.00  0.00     0.000 C 
ENDROOT
BRANCH   1   2
ATOM      2  C   UNL     1      16.776 -33.626  23.931  1.00  0.00     0.000 C 
BRANCH   2   3
ATOM      3  C   UNL     1      16.723 -32.105  24.185  1.00  0.00     0.000 C 
BRANCH   3   4
ATOM      4  C   UNL     1      17.807 -31.287  23.462  1.00  0.00     0.000 C 
BRANCH   4   5
ATOM      5  C   UNL     1      17.285 -30.602  22.188  1.00  0.00     0.000 C 
BRANCH   5   6
ATOM      6  C   UNL     1      18.203 -30.832  20.970  1.00  0.00     0.006 C 
BRANCH   6   7
ATOM      7  C   UNL     1      18.955 -32.172  21.005  1.00  0.00     0.053 C 
BRANCH   7   8
ATOM      8  C   UNL     1      20.442 -31.997  20.991  1.00  0.00     0.041 C 
ATOM      9  O   UNL     1      20.945 -30.857  20.805  1.00  0.00    -0.550 OA
ATOM     10  O   UNL     1      21.275 -33.095  21.168  1.00  0.00    -0.550 OA
ENDBRANCH   7   8
ENDBRANCH   6   7
ENDBRANCH   5   6
ENDBRANCH   4   5
ENDBRANCH   3   4
ENDBRANCH   2   3
ENDBRANCH   1   2
BRANCH   1  11
ATOM     11  C   UNL     1      15.489 -34.759  21.972  1.00  0.00     0.000 C 
BRANCH  11  12
ATOM     12  C   UNL     1      15.507 -33.613  20.946  1.00  0.00    -0.000 C 
BRANCH  12  13
ATOM     13  C   UNL     1      14.099 -33.084  20.627  1.00  0.00    -0.000 C 
BRANCH  13  14
ATOM     14  C   UNL     1      13.910 -31.611  21.038  1.00  0.00    -0.000 C 
BRANCH  14  15
ATOM     15  C   UNL     1      12.755 -31.421  22.034  1.00  0.00    -0.000 C 
BRANCH  15  16
ATOM     16  C   UNL     1      13.230 -31.401  23.497  1.00  0.00    -0.000 C 
BRANCH  16  17
ATOM     17  C   UNL     1      13.748 -30.021  23.929  1.00  0.00    -0.003 C 
ATOM     18  C   UNL     1      12.634 -29.096  24.420  1.00  0.00     0.004 C 
ENDBRANCH  16  17
ENDBRANCH  15  16
ENDBRANCH  14  15
ENDBRANCH  13  14
ENDBRANCH  12  13
ENDBRANCH  11  12
ENDBRANCH   1  11
TORSDOF 14
ENDMDL
MODEL 2
REMARK VINA RESULT:    -4.206      3.485      5.819
REMARK INTER + INTRA:          -9.916
REMARK INTER:                  -8.074
REMARK INTRA:                  -1.842
REMARK UNBOUND:                -2.268
REMARK SMILES CCCCCCCCCCCCCCCC(=O)[O-]
REMARK SMILES IDX 9 1 10 2 11 3 12 4 13 5 14 6 15 7 16 8 17 9 18 10 8 11 7 12
REMARK SMILES IDX 6 13 5 14 4 15 3 16 2 17 1 18
REMARK H PARENT
REMARK Flexibility Score: inf
ROOT
ATOM      1  C   UNL     1      15.102 -33.828  21.333  1.00  0.00     0.000 C 
ENDROOT
BRANCH   1   2
ATOM      2  C   UNL     1      15.442 -34.614  22.617  1.00  0.00     0.000 C 
BRANCH   2   3
ATOM      3  C   UNL     1      15.425 -33.786  23.918  1.00  0.00     0.000 C 
BRANCH   3   4
ATOM      4  C   UNL     1      16.400 -32.595  23.944  1.00  0.00     0.000 C 
BRANCH   4   5
ATOM      5  C   UNL     1      15.684 -31.237  23.845  1.00  0.00     0.000 C 
BRANCH   5   6
ATOM      6  C   UNL     1      14.175 -31.337  24.143  1.00  0.00     0.006 C 
BRANCH   6   7
ATOM      7  C   UNL     1      13.385 -30.071  23.773  1.00  0.00     0.053 C 
BRANCH   7   8
ATOM      8  C   UNL     1      12.323 -30.335  22.751  1.00  0.00     0.041 C 
ATOM      9  O   UNL     1      11.273 -29.638  22.732  1.00  0.00    -0.550 OA
ATOM     10  O   UNL     1      12.484 -31.361  21.828  1.00  0.00    -0.550 OA
ENDBRANCH   7   8
ENDBRANCH   6   7
ENDBRANCH   5   6
ENDBRANCH   4   5
ENDBRANCH   3   4
ENDBRANCH   2   3
ENDBRANCH   1   2
BRANCH   1  11
ATOM     11  C   UNL     1      15.134 -34.654  20.033  1.00  0.00     0.000 C 
BRANCH  11  12
ATOM     12  C   UNL     1      16.508 -34.628  19.342  1.00  0.00    -0.000 C 
BRANCH  12  13
ATOM     13  C   UNL     1      17.272 -35.954  19.497  1.00  0.00    -0.000 C 
BRANCH  13  14
ATOM     14  C   UNL     1      18.684 -35.762  20.081  1.00  0.00    -0.000 C 
BRANCH  14  15
ATOM     15  C   UNL     1      18.783 -34.522  20.985  1.00  0.00    -0.000 C 
BRANCH  15  16
ATOM     16  C   UNL     1      19.697 -33.432  20.399  1.00  0.00    -0.000 C 
BRANCH  16  17
ATOM     17  C   UNL     1      19.434 -32.049  21.015  1.00  0.00    -0.003 C 
ATOM     18  C   UNL     1      18.027 -31.528  20.724  1.00  0.00     0.004 C 
ENDBRANCH  16  17
ENDBRANCH  15  16
ENDBRANCH  14  15
ENDBRANCH  13  14
ENDBRANCH  12  13
ENDBRANCH  11  12
ENDBRANCH   1  11
TORSDOF 14
ENDMDL
MODEL 3
REMARK VINA RESULT:    -4.195      3.511      5.582
REMARK INTER + INTRA:          -9.898
REMARK INTER:                  -7.838
REMARK INTRA:                  -2.060
REMARK UNBOUND:                -2.268
REMARK SMILES CCCCCCCCCCCCCCCC(=O)[O-]
REMARK SMILES IDX 9 1 10 2 11 3 12 4 13 5 14 6 15 7 16 8 17 9 18 10 8 11 7 12
REMARK SMILES IDX 6 13 5 14 4 15 3 16 2 17 1 18
REMARK H PARENT
REMARK Flexibility Score: inf
ROOT
ATOM      1  C   UNL     1      18.836 -32.006  20.912  1.00  0.00     0.000 C 
ENDROOT
BRANCH   1   2
ATOM      2  C   UNL     1      17.457 -31.540  21.425  1.00  0.00     0.000 C 
BRANCH   2   3
ATOM      3  C   UNL     1      17.486 -30.704  22.721  1.00  0.00     0.000 C 
BRANCH   3   4
ATOM      4  C   UNL     1      16.156 -30.019  23.083  1.00  0.00     0.000 C 
BRANCH   4   5
ATOM      5  C   UNL     1      15.080 -30.197  21.999  1.00  0.00     0.000 C 
BRANCH   5   6
ATOM      6  C   UNL     1      13.698 -30.546  22.584  1.00  0.00     0.006 C 
BRANCH   6   7
ATOM      7  C   UNL     1      13.557 -30.217  24.080  1.00  0.00     0.053 C 
BRANCH   7   8
ATOM      8  C   UNL     1      12.768 -28.968  24.321  1.00  0.00     0.041 C 
ATOM      9  O   UNL     1      11.546 -28.921  24.019  1.00  0.00    -0.550 OA
ATOM     10  O   UNL     1      13.385 -27.848  24.866  1.00  0.00    -0.550 OA
ENDBRANCH   7   8
ENDBRANCH   6   7
ENDBRANCH   5   6
ENDBRANCH   4   5
ENDBRANCH   3   4
ENDBRANCH   2   3
ENDBRANCH   1   2
BRANCH   1  11
ATOM     11  C   UNL     1      19.082 -33.526  20.983  1.00  0.00     0.000 C 
BRANCH  11  12
ATOM     12  C   UNL     1      19.060 -34.198  19.600  1.00  0.00    -0.000 C 
BRANCH  12  13
ATOM     13  C   UNL     1      17.636 -34.354  19.041  1.00  0.00    -0.000 C 
BRANCH  13  14
ATOM     14  C   UNL     1      16.819 -35.425  19.789  1.00  0.00    -0.000 C 
BRANCH  14  15
ATOM     15  C   UNL     1      15.632 -34.827  20.561  1.00  0.00    -0.000 C 
BRANCH  15  16
ATOM     16  C   UNL     1      15.775 -34.984  22.085  1.00  0.00    -0.000 C 
BRANCH  16  17
ATOM     17  C   UNL     1      15.073 -33.859  22.861  1.00  0.00    -0.003 C 
ATOM     18  C   UNL     1      15.665 -33.640  24.253  1.00  0.00     0.004 C 
ENDBRANCH  16  17
ENDBRANCH  15  16
ENDBRANCH  14  15
ENDBRANCH  13  14
ENDBRANCH  12  13
ENDBRANCH  11  12
ENDBRANCH   1  11
TORSDOF 14
ENDMDL
MODEL 4
REMARK VINA RESULT:    -4.172      2.009      3.158
REMARK INTER + INTRA:          -9.854
REMARK INTER:                  -8.161
REMARK INTRA:                  -1.693
REMARK UNBOUND:                -2.268
REMARK SMILES CCCCCCCCCCCCCCCC(=O)[O-]
REMARK SMILES IDX 9 1 10 2 11 3 12 4 13 5 14 6 15 7 16 8 17 9 18 10 8 11 7 12
REMARK SMILES IDX 6 13 5 14 4 15 3 16 2 17 1 18
REMARK H PARENT
REMARK Flexibility Score: inf
ROOT
ATOM      1  C   UNL     1      16.284 -35.621  20.420  1.00  0.00     0.000 C 
ENDROOT
BRANCH   1   2
ATOM      2  C   UNL     1      17.532 -35.864  19.546  1.00  0.00     0.000 C 
BRANCH   2   3
ATOM      3  C   UNL     1      18.423 -34.626  19.315  1.00  0.00     0.000 C 
BRANCH   3   4
ATOM      4  C   UNL     1      19.472 -34.366  20.410  1.00  0.00     0.000 C 
BRANCH   4   5
ATOM      5  C   UNL     1      19.108 -33.176  21.313  1.00  0.00     0.000 C 
BRANCH   5   6
ATOM      6  C   UNL     1      18.347 -32.068  20.559  1.00  0.00     0.006 C 
BRANCH   6   7
ATOM      7  C   UNL     1      17.208 -31.432  21.374  1.00  0.00     0.053 C 
BRANCH   7   8
ATOM      8  C   UNL     1      17.472 -29.996  21.706  1.00  0.00     0.041 C 
ATOM      9  O   UNL     1      18.629 -29.517  21.576  1.00  0.00    -0.550 OA
ATOM     10  O   UNL     1      16.441 -29.188  22.173  1.00  0.00    -0.550 OA
ENDBRANCH   7   8
ENDBRANCH   6   7
ENDBRANCH   5   6
ENDBRANCH   4   5
ENDBRANCH   3   4
ENDBRANCH   2   3
ENDBRANCH   1   2
BRANCH   1  11
ATOM     11  C   UNL     1      15.351 -34.496  19.932  1.00  0.00     0.000 C 
BRANCH  11  12
ATOM     12  C   UNL     1      14.608 -33.797  21.083  1.00  0.00    -0.000 C 
BRANCH  12  13
ATOM     13  C   UNL     1      13.762 -32.606  20.602  1.00  0.00    -0.000 C 
BRANCH  13  14
ATOM     14  C   UNL     1      13.351 -31.667  21.751  1.00  0.00    -0.000 C 
BRANCH  14  15
ATOM     15  C   UNL     1      14.046 -32.019  23.077  1.00  0.00    -0.000 C 
BRANCH  15  16
ATOM     16  C   UNL     1      13.924 -30.900  24.126  1.00  0.00    -0.000 C 
BRANCH  16  17
ATOM     17  C   UNL     1      12.904 -29.824  23.723  1.00  0.00    -0.003 C 
ATOM     18  C   UNL     1      12.890 -28.631  24.678  1.00  0.00     0.004 C 
ENDBRANCH  16  17
ENDBRANCH  15  16
ENDBRANCH  14  15
ENDBRANCH  13  14
ENDBRANCH  12  13
ENDBRANCH  11  12
ENDBRANCH   1  11
TORSDOF 14
ENDMDL
MODEL 5
REMARK VINA RESULT:    -4.169      3.334      6.006
REMARK INTER + INTRA:          -9.849
REMARK INTER:                  -7.569
REMARK INTRA:                  -2.280
REMARK UNBOUND:                -2.268
REMARK SMILES CCCCCCCCCCCCCCCC(=O)[O-]
REMARK SMILES IDX 9 1 10 2 11 3 12 4 13 5 14 6 15 7 16 8 17 9 18 10 8 11 7 12
REMARK SMILES IDX 6 13 5 14 4 15 3 16 2 17 1 18
REMARK H PARENT
REMARK Flexibility Score: inf
ROOT
ATOM      1  C   UNL     1      17.265 -36.123  19.367  1.00  0.00     0.000 C 
ENDROOT
BRANCH   1   2
ATOM      2  C   UNL     1      16.361 -34.900  19.630  1.00  0.00     0.000 C 
BRANCH   2   3
ATOM      3  C   UNL     1      15.336 -35.073  20.770  1.00  0.00     0.000 C 
BRANCH   3   4
ATOM      4  C   UNL     1      15.042 -33.797  21.579  1.00  0.00     0.000 C 
BRANCH   4   5
ATOM      5  C   UNL     1      15.354 -33.955  23.076  1.00  0.00     0.000 C 
BRANCH   5   6
ATOM      6  C   UNL     1      15.368 -32.609  23.826  1.00  0.00     0.006 C 
BRANCH   6   7
ATOM      7  C   UNL     1      13.967 -32.068  24.155  1.00  0.00     0.053 C 
BRANCH   7   8
ATOM      8  C   UNL     1      13.805 -30.627  23.782  1.00  0.00     0.041 C 
ATOM      9  O   UNL     1      14.413 -30.158  22.783  1.00  0.00    -0.550 OA
ATOM     10  O   UNL     1      12.994 -29.796  24.546  1.00  0.00    -0.550 OA
ENDBRANCH   7   8
ENDBRANCH   6   7
ENDBRANCH   5   6
ENDBRANCH   4   5
ENDBRANCH   3   4
ENDBRANCH   2   3
ENDBRANCH   1   2
BRANCH   1  11
ATOM     11  C   UNL     1      17.439 -37.078  20.563  1.00  0.00     0.000 C 
BRANCH  11  12
ATOM     12  C   UNL     1      18.723 -36.802  21.364  1.00  0.00    -0.000 C 
BRANCH  12  13
ATOM     13  C   UNL     1      18.466 -35.950  22.618  1.00  0.00    -0.000 C 
BRANCH  13  14
ATOM     14  C   UNL     1      19.013 -34.517  22.485  1.00  0.00    -0.000 C 
BRANCH  14  15
ATOM     15  C   UNL     1      20.021 -34.376  21.332  1.00  0.00    -0.000 C 
BRANCH  15  16
ATOM     16  C   UNL     1      19.772 -33.123  20.475  1.00  0.00    -0.000 C 
BRANCH  16  17
ATOM     17  C   UNL     1      18.462 -32.410  20.843  1.00  0.00    -0.003 C 
ATOM     18  C   UNL     1      18.664 -30.932  21.175  1.00  0.00     0.004 C 
ENDBRANCH  16  17
ENDBRANCH  15  16
ENDBRANCH  14  15
ENDBRANCH  13  14
ENDBRANCH  12  13
ENDBRANCH  11  12
ENDBRANCH   1  11
TORSDOF 14
ENDMDL
MODEL 6
REMARK VINA RESULT:    -4.164      3.254      5.411
REMARK INTER + INTRA:          -9.841
REMARK INTER:                  -7.304
REMARK INTRA:                  -2.537
REMARK UNBOUND:                -2.268
REMARK SMILES CCCCCCCCCCCCCCCC(=O)[O-]
REMARK SMILES IDX 9 1 10 2 11 3 12 4 13 5 14 6 15 7 16 8 17 9 18 10 8 11 7 12
REMARK SMILES IDX 6 13 5 14 4 15 3 16 2 17 1 18
REMARK H PARENT
REMARK Flexibility Score: inf
ROOT
ATOM      1  C   UNL     1      19.071 -34.603  19.514  1.00  0.00     0.000 C 
ENDROOT
BRANCH   1   2
ATOM      2  C   UNL     1      19.662 -33.565  20.491  1.00  0.00     0.000 C 
BRANCH   2   3
ATOM      3  C   UNL     1      18.810 -32.296  20.698  1.00  0.00     0.000 C 
BRANCH   3   4
ATOM      4  C   UNL     1      18.456 -31.981  22.162  1.00  0.00     0.000 C 
BRANCH   4   5
ATOM      5  C   UNL     1      17.097 -31.276  22.308  1.00  0.00     0.000 C 
BRANCH   5   6
ATOM      6  C   UNL     1      16.373 -31.647  23.618  1.00  0.00     0.006 C 
BRANCH   6   7
ATOM      7  C   UNL     1      15.037 -30.911  23.817  1.00  0.00     0.053 C 
BRANCH   7   8
ATOM      8  C   UNL     1      13.872 -31.848  23.900  1.00  0.00     0.041 C 
ATOM      9  O   UNL     1      13.895 -32.820  24.700  1.00  0.00    -0.550 OA
ATOM     10  O   UNL     1      12.765 -31.657  23.082  1.00  0.00    -0.550 OA
ENDBRANCH   7   8
ENDBRANCH   6   7
ENDBRANCH   5   6
ENDBRANCH   4   5
ENDBRANCH   3   4
ENDBRANCH   2   3
ENDBRANCH   1   2
BRANCH   1  11
ATOM     11  C   UNL     1      17.647 -34.293  19.013  1.00  0.00     0.000 C 
BRANCH  11  12
ATOM     12  C   UNL     1      16.572 -35.147  19.708  1.00  0.00    -0.000 C 
BRANCH  12  13
ATOM     13  C   UNL     1      15.504 -34.292  20.411  1.00  0.00    -0.000 C 
BRANCH  13  14
ATOM     14  C   UNL     1      15.359 -34.634  21.906  1.00  0.00    -0.000 C 
BRANCH  14  15
ATOM     15  C   UNL     1      16.629 -35.275  22.489  1.00  0.00    -0.000 C 
BRANCH  15  16
ATOM     16  C   UNL     1      16.679 -35.203  24.025  1.00  0.00    -0.000 C 
BRANCH  16  17
ATOM     17  C   UNL     1      18.075 -35.516  24.584  1.00  0.00    -0.003 C 
ATOM     18  C   UNL     1      19.167 -35.469  23.515  1.00  0.00     0.004 C 
ENDBRANCH  16  17
ENDBRANCH  15  16
ENDBRANCH  14  15
ENDBRANCH  13  14
ENDBRANCH  12  13
ENDBRANCH  11  12
ENDBRANCH   1  11
TORSDOF 14
ENDMDL
MODEL 7
REMARK VINA RESULT:    -4.119      3.255      5.562
REMARK INTER + INTRA:          -9.759
REMARK INTER:                  -7.592
REMARK INTRA:                  -2.167
REMARK UNBOUND:                -2.268
REMARK SMILES CCCCCCCCCCCCCCCC(=O)[O-]
REMARK SMILES IDX 9 1 10 2 11 3 12 4 13 5 14 6 15 7 16 8 17 9 18 10 8 11 7 12
REMARK SMILES IDX 6 13 5 14 4 15 3 16 2 17 1 18
REMARK H PARENT
REMARK Flexibility Score: inf
ROOT
ATOM      1  C   UNL     1      16.217 -34.198  24.025  1.00  0.00     0.000 C 
ENDROOT
BRANCH   1   2
ATOM      2  C   UNL     1      17.227 -33.164  24.567  1.00  0.00     0.000 C 
BRANCH   2   3
ATOM      3  C   UNL     1      17.654 -32.073  23.564  1.00  0.00     0.000 C 
BRANCH   3   4
ATOM      4  C   UNL     1      16.531 -31.118  23.124  1.00  0.00     0.000 C 
BRANCH   4   5
ATOM      5  C   UNL     1      16.171 -31.266  21.637  1.00  0.00     0.000 C 
BRANCH   5   6
ATOM      6  C   UNL     1      14.649 -31.311  21.395  1.00  0.00     0.006 C 
BRANCH   6   7
ATOM      7  C   UNL     1      13.839 -31.771  22.619  1.00  0.00     0.053 C 
BRANCH   7   8
ATOM      8  C   UNL     1      12.924 -30.705  23.136  1.00  0.00     0.041 C 
ATOM      9  O   UNL     1      11.891 -30.387  22.489  1.00  0.00    -0.550 OA
ATOM     10  O   UNL     1      13.219 -30.052  24.327  1.00  0.00    -0.550 OA
ENDBRANCH   7   8
ENDBRANCH   6   7
ENDBRANCH   5   6
ENDBRANCH   4   5
ENDBRANCH   3   4
ENDBRANCH   2   3
ENDBRANCH   1   2
BRANCH   1  11
ATOM     11  C   UNL     1      16.667 -34.949  22.757  1.00  0.00     0.000 C 
BRANCH  11  12
ATOM     12  C   UNL     1      15.587 -34.967  21.661  1.00  0.00    -0.000 C 
BRANCH  12  13
ATOM     13  C   UNL     1      16.075 -35.634  20.364  1.00  0.00    -0.000 C 
BRANCH  13  14
ATOM     14  C   UNL     1      16.619 -34.618  19.342  1.00  0.00    -0.000 C 
BRANCH  14  15
ATOM     15  C   UNL     1      18.153 -34.530  19.360  1.00  0.00    -0.000 C 
BRANCH  15  16
ATOM     16  C   UNL     1      18.669 -33.334  20.179  1.00  0.00    -0.000 C 
BRANCH  16  17
ATOM     17  C   UNL     1      20.148 -33.482  20.568  1.00  0.00    -0.003 C 
ATOM     18  C   UNL     1      20.783 -32.161  21.001  1.00  0.00     0.004 C 
ENDBRANCH  16  17
ENDBRANCH  15  16
ENDBRANCH  14  15
ENDBRANCH  13  14
ENDBRANCH  12  13
ENDBRANCH  11  12
ENDBRANCH   1  11
TORSDOF 14
ENDMDL
MODEL 8
REMARK VINA RESULT:    -4.097      3.629      6.217
REMARK INTER + INTRA:          -9.718
REMARK INTER:                  -7.658
REMARK INTRA:                  -2.060
REMARK UNBOUND:                -2.268
REMARK SMILES CCCCCCCCCCCCCCCC(=O)[O-]
REMARK SMILES IDX 9 1 10 2 11 3 12 4 13 5 14 6 15 7 16 8 17 9 18 10 8 11 7 12
REMARK SMILES IDX 6 13 5 14 4 15 3 16 2 17 1 18
REMARK H PARENT
REMARK Flexibility Score: inf
ROOT
ATOM      1  C   UNL     1      18.795 -35.622  23.047  1.00  0.00     0.000 C 
ENDROOT
BRANCH   1   2
ATOM      2  C   UNL     1      17.468 -35.315  23.773  1.00  0.00     0.000 C 
BRANCH   2   3
ATOM      3  C   UNL     1      17.084 -33.822  23.837  1.00  0.00     0.000 C 
BRANCH   3   4
ATOM      4  C   UNL     1      15.801 -33.448  23.074  1.00  0.00     0.000 C 
BRANCH   4   5
ATOM      5  C   UNL     1      14.565 -33.377  23.986  1.00  0.00     0.000 C 
BRANCH   5   6
ATOM      6  C   UNL     1      14.112 -31.930  24.264  1.00  0.00     0.006 C 
BRANCH   6   7
ATOM      7  C   UNL     1      14.179 -31.012  23.032  1.00  0.00     0.053 C 
BRANCH   7   8
ATOM      8  C   UNL     1      13.029 -31.221  22.097  1.00  0.00     0.041 C 
ATOM      9  O   UNL     1      13.173 -31.923  21.061  1.00  0.00    -0.550 OA
ATOM     10  O   UNL     1      11.800 -30.628  22.360  1.00  0.00    -0.550 OA
ENDBRANCH   7   8
ENDBRANCH   6   7
ENDBRANCH   5   6
ENDBRANCH   4   5
ENDBRANCH   3   4
ENDBRANCH   2   3
ENDBRANCH   1   2
BRANCH   1  11
ATOM     11  C   UNL     1      19.446 -34.420  22.336  1.00  0.00     0.000 C 
BRANCH  11  12
ATOM     12  C   UNL     1      20.112 -34.805  21.004  1.00  0.00    -0.000 C 
BRANCH  12  13
ATOM     13  C   UNL     1      19.421 -34.159  19.791  1.00  0.00    -0.000 C 
BRANCH  13  14
ATOM     14  C   UNL     1      17.961 -33.765  20.079  1.00  0.00    -0.000 C 
BRANCH  14  15
ATOM     15  C   UNL     1      16.954 -34.631  19.304  1.00  0.00    -0.000 C 
BRANCH  15  16
ATOM     16  C   UNL     1      16.559 -35.908  20.065  1.00  0.00    -0.000 C 
BRANCH  16  17
ATOM     17  C   UNL     1      17.153 -37.176  19.434  1.00  0.00    -0.003 C 
ATOM     18  C   UNL     1      17.946 -38.021  20.430  1.00  0.00     0.004 C 
ENDBRANCH  16  17
ENDBRANCH  15  16
ENDBRANCH  14  15
ENDBRANCH  13  14
ENDBRANCH  12  13
ENDBRANCH  11  12
ENDBRANCH   1  11
TORSDOF 14
ENDMDL
MODEL 9
REMARK VINA RESULT:    -4.077      3.336      5.715
REMARK INTER + INTRA:          -9.683
REMARK INTER:                  -7.407
REMARK INTRA:                  -2.276
REMARK UNBOUND:                -2.268
REMARK SMILES CCCCCCCCCCCCCCCC(=O)[O-]
REMARK SMILES IDX 9 1 10 2 11 3 12 4 13 5 14 6 15 7 16 8 17 9 18 10 8 11 7 12
REMARK SMILES IDX 6 13 5 14 4 15 3 16 2 17 1 18
REMARK H PARENT
REMARK Flexibility Score: inf
ROOT
ATOM      1  C   UNL     1      17.154 -35.677  20.098  1.00  0.00     0.000 C 
ENDROOT
BRANCH   1   2
ATOM      2  C   UNL     1      15.864 -35.379  20.891  1.00  0.00     0.000 C 
BRANCH   2   3
ATOM      3  C   UNL     1      15.014 -34.211  20.349  1.00  0.00     0.000 C 
BRANCH   3   4
ATOM      4  C   UNL     1      14.609 -33.160  21.398  1.00  0.00     0.000 C 
BRANCH   4   5
ATOM      5  C   UNL     1      14.794 -33.657  22.841  1.00  0.00     0.000 C 
BRANCH   5   6
ATOM      6  C   UNL     1      14.327 -32.627  23.889  1.00  0.00     0.006 C 
BRANCH   6   7
ATOM      7  C   UNL     1      14.501 -31.166  23.443  1.00  0.00     0.053 C 
BRANCH   7   8
ATOM      8  C   UNL     1      13.237 -30.373  23.565  1.00  0.00     0.041 C 
ATOM      9  O   UNL     1      12.365 -30.425  22.657  1.00  0.00    -0.550 OA
ATOM     10  O   UNL     1      13.026 -29.564  24.675  1.00  0.00    -0.550 OA
ENDBRANCH   7   8
ENDBRANCH   6   7
ENDBRANCH   5   6
ENDBRANCH   4   5
ENDBRANCH   3   4
ENDBRANCH   2   3
ENDBRANCH   1   2
BRANCH   1  11
ATOM     11  C   UNL     1      17.785 -34.461  19.393  1.00  0.00     0.000 C 
BRANCH  11  12
ATOM     12  C   UNL     1      19.278 -34.290  19.721  1.00  0.00    -0.000 C 
BRANCH  12  13
ATOM     13  C   UNL     1      19.558 -33.027  20.554  1.00  0.00    -0.000 C 
BRANCH  13  14
ATOM     14  C   UNL     1      18.278 -32.414  21.152  1.00  0.00    -0.000 C 
BRANCH  14  15
ATOM     15  C   UNL     1      18.389 -32.182  22.668  1.00  0.00    -0.000 C 
BRANCH  15  16
ATOM     16  C   UNL     1      18.180 -33.471  23.482  1.00  0.00    -0.000 C 
BRANCH  16  17
ATOM     17  C   UNL     1      18.035 -33.198  24.987  1.00  0.00    -0.003 C 
ATOM     18  C   UNL     1      17.196 -34.255  25.704  1.00  0.00     0.004 C 
ENDBRANCH  16  17
ENDBRANCH  15  16
ENDBRANCH  14  15
ENDBRANCH  13  14
ENDBRANCH  12  13
ENDBRANCH  11  12
ENDBRANCH   1  11
TORSDOF 14
ENDMDL
