MODEL 1
REMARK VINA RESULT:    -4.139      0.000      0.000
REMARK INTER + INTRA:         -10.556
REMARK INTER:                  -8.010
REMARK INTRA:                  -2.546
REMARK UNBOUND:                -2.546
REMARK SMILES CCCCCCCCCCCCCCCCCC(=O)[O-]
REMARK SMILES IDX 10 1 11 2 12 3 13 4 14 5 15 6 16 7 17 8 18 9 19 10 20 11
REMARK SMILES IDX 9 12 8 13 7 14 6 15 5 16 4 17 3 18 2 19 1 20
REMARK H PARENT
REMARK Flexibility Score: inf
ROOT
ATOM      1  C   UNL     1      43.983  12.917  23.595  1.00  0.00     0.000 C 
ENDROOT
BRANCH   1   2
ATOM      2  C   UNL     1      42.722  12.671  22.742  1.00  0.00     0.000 C 
BRANCH   2   3
ATOM      3  C   UNL     1      41.667  13.787  22.817  1.00  0.00     0.000 C 
BRANCH   3   4
ATOM      4  C   UNL     1      42.289  15.190  22.866  1.00  0.00     0.000 C 
BRANCH   4   5
ATOM      5  C   UNL     1      42.005  15.959  21.570  1.00  0.00     0.000 C 
BRANCH   5   6
ATOM      6  C   UNL     1      43.291  16.564  20.994  1.00  0.00     0.000 C 
BRANCH   6   7
ATOM      7  C   UNL     1      44.461  15.574  21.106  1.00  0.00     0.006 C 
BRANCH   7   8
ATOM      8  C   UNL     1      45.766  16.261  21.527  1.00  0.00     0.053 C 
BRANCH   8   9
ATOM      9  C   UNL     1      45.684  16.810  22.919  1.00  0.00     0.041 C 
ATOM     10  O   UNL     1      45.580  16.030  23.902  1.00  0.00    -0.550 OA
ATOM     11  O   UNL     1      45.753  18.181  23.133  1.00  0.00    -0.550 OA
ENDBRANCH   8   9
ENDBRANCH   7   8
ENDBRANCH   6   7
ENDBRANCH   5   6
ENDBRANCH   4   5
ENDBRANCH   3   4
ENDBRANCH   2   3
ENDBRANCH   1   2
BRANCH   1  12
ATOM     12  C   UNL     1      45.210  12.098  23.139  1.00  0.00     0.000 C 
BRANCH  12  13
ATOM     13  C   UNL     1      45.247  11.907  21.613  1.00  0.00    -0.000 C 
BRANCH  13  14
ATOM     14  C   UNL     1      45.392  10.433  21.202  1.00  0.00    -0.000 C 
BRANCH  14  15
ATOM     15  C   UNL     1      44.091   9.635  21.381  1.00  0.00    -0.000 C 
BRANCH  15  16
ATOM     16  C   UNL     1      44.370   8.270  22.026  1.00  0.00    -0.000 C 
BRANCH  16  17
ATOM     17  C   UNL     1      45.605   8.282  22.944  1.00  0.00    -0.000 C 
BRANCH  17  18
ATOM     18  C   UNL     1      45.313   8.581  24.429  1.00  0.00    -0.000 C 
BRANCH  18  19
ATOM     19  C   UNL     1      43.842   8.410  24.848  1.00  0.00    -0.003 C 
ATOM     20  C   UNL     1      43.209   9.710  25.343  1.00  0.00     0.004 C 
ENDBRANCH  18  19
ENDBRANCH  17  18
ENDBRANCH  16  17
ENDBRANCH  15  16
ENDBRANCH  14  15
ENDBRANCH  13  14
ENDBRANCH  12  13
ENDBRANCH   1  12
TORSDOF 16
ENDMDL
MODEL 2
REMARK VINA RESULT:    -4.059      2.895      6.422
REMARK INTER + INTRA:         -10.401
REMARK INTER:                  -7.600
REMARK INTRA:                  -2.801
REMARK UNBOUND:                -2.546
REMARK SMILES CCCCCCCCCCCCCCCCCC(=O)[O-]
REMARK SMILES IDX 10 1 11 2 12 3 13 4 14 5 15 6 16 7 17 8 18 9 19 10 20 11
REMARK SMILES IDX 9 12 8 13 7 14 6 15 5 16 4 17 3 18 2 19 1 20
REMARK H PARENT
REMARK Flexibility Score: inf
ROOT
ATOM      1  C   UNL     1      40.711  12.208  25.199  1.00  0.00     0.000 C 
ENDROOT
BRANCH   1   2
ATOM      2  C   UNL     1      41.880  11.227  25.418  1.00  0.00     0.000 C 
BRANCH   2   3
ATOM      3  C   UNL     1      43.084  11.819  26.169  1.00  0.00     0.000 C 
BRANCH   3   4
ATOM      4  C   UNL     1      44.360  11.851  25.315  1.00  0.00     0.000 C 
BRANCH   4   5
ATOM      5  C   UNL     1      44.739  13.291  24.952  1.00  0.00     0.000 C 
BRANCH   5   6
ATOM      6  C   UNL     1      45.039  13.422  23.454  1.00  0.00     0.000 C 
BRANCH   6   7
ATOM      7  C   UNL     1      44.307  12.336  22.651  1.00  0.00     0.006 C 
BRANCH   7   8
ATOM      8  C   UNL     1      45.234  11.618  21.662  1.00  0.00     0.053 C 
BRANCH   8   9
ATOM      9  C   UNL     1      44.973  10.143  21.622  1.00  0.00     0.041 C 
ATOM     10  O   UNL     1      44.607   9.537  22.663  1.00  0.00    -0.550 OA
ATOM     11  O   UNL     1      45.103   9.444  20.428  1.00  0.00    -0.550 OA
ENDBRANCH   8   9
ENDBRANCH   7   8
ENDBRANCH   6   7
ENDBRANCH   5   6
ENDBRANCH   4   5
ENDBRANCH   3   4
ENDBRANCH   2   3
ENDBRANCH   1   2
BRANCH   1  12
ATOM     12  C   UNL     1      40.993  13.282  24.127  1.00  0.00     0.000 C 
BRANCH  12  13
ATOM     13  C   UNL     1      41.181  14.680  24.742  1.00  0.00    -0.000 C 
BRANCH  13  14
ATOM     14  C   UNL     1      41.933  15.643  23.809  1.00  0.00    -0.000 C 
BRANCH  14  15
ATOM     15  C   UNL     1      41.980  15.148  22.355  1.00  0.00    -0.000 C 
BRANCH  15  16
ATOM     16  C   UNL     1      41.735  16.304  21.375  1.00  0.00    -0.000 C 
BRANCH  16  17
ATOM     17  C   UNL     1      43.009  16.734  20.626  1.00  0.00    -0.000 C 
BRANCH  17  18
ATOM     18  C   UNL     1      44.290  15.971  21.024  1.00  0.00    -0.000 C 
BRANCH  18  19
ATOM     19  C   UNL     1      45.437  16.855  21.546  1.00  0.00    -0.003 C 
ATOM     20  C   UNL     1      45.387  17.063  23.059  1.00  0.00     0.004 C 
ENDBRANCH  18  19
ENDBRANCH  17  18
ENDBRANCH  16  17
ENDBRANCH  15  16
ENDBRANCH  14  15
ENDBRANCH  13  14
ENDBRANCH  12  13
ENDBRANCH   1  12
TORSDOF 16
ENDMDL
MODEL 3
REMARK VINA RESULT:    -3.962      3.036      6.495
REMARK INTER + INTRA:         -10.213
REMARK INTER:                  -7.442
REMARK INTRA:                  -2.771
REMARK UNBOUND:                -2.546
REMARK SMILES CCCCCCCCCCCCCCCCCC(=O)[O-]
REMARK SMILES IDX 10 1 11 2 12 3 13 4 14 5 15 6 16 7 17 8 18 9 19 10 20 11
REMARK SMILES IDX 9 12 8 13 7 14 6 15 5 16 4 17 3 18 2 19 1 20
REMARK H PARENT
REMARK Flexibility Score: inf
ROOT
ATOM      1  C   UNL     1      41.563  12.968  23.848  1.00  0.00     0.000 C 
ENDROOT
BRANCH   1   2
ATOM      2  C   UNL     1      42.242  13.753  24.988  1.00  0.00     0.000 C 
BRANCH   2   3
ATOM      3  C   UNL     1      43.219  12.929  25.844  1.00  0.00     0.000 C 
BRANCH   3   4
ATOM      4  C   UNL     1      44.682  13.098  25.405  1.00  0.00     0.000 C 
BRANCH   4   5
ATOM      5  C   UNL     1      45.077  12.014  24.394  1.00  0.00     0.000 C 
BRANCH   5   6
ATOM      6  C   UNL     1      45.381  12.626  23.021  1.00  0.00     0.000 C 
BRANCH   6   7
ATOM      7  C   UNL     1      44.602  11.901  21.913  1.00  0.00     0.006 C 
BRANCH   7   8
ATOM      8  C   UNL     1      44.054  10.546  22.378  1.00  0.00     0.053 C 
BRANCH   8   9
ATOM      9  C   UNL     1      44.227   9.487  21.333  1.00  0.00     0.041 C 
ATOM     10  O   UNL     1      45.219   9.516  20.559  1.00  0.00    -0.550 OA
ATOM     11  O   UNL     1      43.307   8.449  21.233  1.00  0.00    -0.550 OA
ENDBRANCH   8   9
ENDBRANCH   7   8
ENDBRANCH   6   7
ENDBRANCH   5   6
ENDBRANCH   4   5
ENDBRANCH   3   4
ENDBRANCH   2   3
ENDBRANCH   1   2
BRANCH   1  12
ATOM     12  C   UNL     1      41.372  13.790  22.556  1.00  0.00     0.000 C 
BRANCH  12  13
ATOM     13  C   UNL     1      42.010  15.186  22.655  1.00  0.00    -0.000 C 
BRANCH  13  14
ATOM     14  C   UNL     1      41.666  16.084  21.457  1.00  0.00    -0.000 C 
BRANCH  14  15
ATOM     15  C   UNL     1      42.912  16.587  20.712  1.00  0.00    -0.000 C 
BRANCH  15  16
ATOM     16  C   UNL     1      44.195  16.084  21.389  1.00  0.00    -0.000 C 
BRANCH  16  17
ATOM     17  C   UNL     1      45.297  17.156  21.457  1.00  0.00    -0.000 C 
BRANCH  17  18
ATOM     18  C   UNL     1      45.936  17.348  22.848  1.00  0.00    -0.000 C 
BRANCH  18  19
ATOM     19  C   UNL     1      45.528  16.301  23.900  1.00  0.00    -0.003 C 
ATOM     20  C   UNL     1      44.734  16.900  25.059  1.00  0.00     0.004 C 
ENDBRANCH  18  19
ENDBRANCH  17  18
ENDBRANCH  16  17
ENDBRANCH  15  16
ENDBRANCH  14  15
ENDBRANCH  13  14
ENDBRANCH  12  13
ENDBRANCH   1  12
TORSDOF 16
ENDMDL
MODEL 4
REMARK VINA RESULT:    -3.934      2.930      5.809
REMARK INTER + INTRA:         -10.160
REMARK INTER:                  -7.359
REMARK INTRA:                  -2.801
REMARK UNBOUND:                -2.546
REMARK SMILES CCCCCCCCCCCCCCCCCC(=O)[O-]
REMARK SMILES IDX 10 1 11 2 12 3 13 4 14 5 15 6 16 7 17 8 18 9 19 10 20 11
REMARK SMILES IDX 9 12 8 13 7 14 6 15 5 16 4 17 3 18 2 19 1 20
REMARK H PARENT
REMARK Flexibility Score: inf
ROOT
ATOM      1  C   UNL     1      42.807  16.734  20.691  1.00  0.00     0.000 C 
ENDROOT
BRANCH   1   2
ATOM      2  C   UNL     1      41.649  16.033  21.429  1.00  0.00     0.000 C 
BRANCH   2   3
ATOM      3  C   UNL     1      42.022  15.442  22.799  1.00  0.00     0.000 C 
BRANCH   3   4
ATOM      4  C   UNL     1      41.498  14.011  22.992  1.00  0.00     0.000 C 
BRANCH   4   5
ATOM      5  C   UNL     1      42.581  12.981  22.649  1.00  0.00     0.000 C 
BRANCH   5   6
ATOM      6  C   UNL     1      42.882  12.076  23.849  1.00  0.00     0.000 C 
BRANCH   6   7
ATOM      7  C   UNL     1      43.971  11.050  23.503  1.00  0.00     0.006 C 
BRANCH   7   8
ATOM      8  C   UNL     1      44.192  10.923  21.990  1.00  0.00     0.053 C 
BRANCH   8   9
ATOM      9  C   UNL     1      45.129   9.803  21.656  1.00  0.00     0.041 C 
ATOM     10  O   UNL     1      45.161   9.331  20.490  1.00  0.00    -0.550 OA
ATOM     11  O   UNL     1      45.989   9.301  22.626  1.00  0.00    -0.550 OA
ENDBRANCH   8   9
ENDBRANCH   7   8
ENDBRANCH   6   7
ENDBRANCH   5   6
ENDBRANCH   4   5
ENDBRANCH   3   4
ENDBRANCH   2   3
ENDBRANCH   1   2
BRANCH   1  12
ATOM     12  C   UNL     1      44.189  16.494  21.336  1.00  0.00     0.000 C 
BRANCH  12  13
ATOM     13  C   UNL     1      44.975  15.378  20.626  1.00  0.00    -0.000 C 
BRANCH  13  14
ATOM     14  C   UNL     1      45.912  14.615  21.576  1.00  0.00    -0.000 C 
BRANCH  14  15
ATOM     15  C   UNL     1      46.081  15.314  22.934  1.00  0.00    -0.000 C 
BRANCH  15  16
ATOM     16  C   UNL     1      45.644  14.393  24.082  1.00  0.00    -0.000 C 
BRANCH  16  17
ATOM     17  C   UNL     1      45.421  15.149  25.404  1.00  0.00    -0.000 C 
BRANCH  17  18
ATOM     18  C   UNL     1      44.463  16.354  25.314  1.00  0.00    -0.000 C 
BRANCH  18  19
ATOM     19  C   UNL     1      43.347  16.377  26.373  1.00  0.00    -0.003 C 
ATOM     20  C   UNL     1      42.576  15.061  26.455  1.00  0.00     0.004 C 
ENDBRANCH  18  19
ENDBRANCH  17  18
ENDBRANCH  16  17
ENDBRANCH  15  16
ENDBRANCH  14  15
ENDBRANCH  13  14
ENDBRANCH  12  13
ENDBRANCH   1  12
TORSDOF 16
ENDMDL
MODEL 5
REMARK VINA RESULT:    -3.893      2.279      6.765
REMARK INTER + INTRA:         -10.081
REMARK INTER:                  -7.817
REMARK INTRA:                  -2.264
REMARK UNBOUND:                -2.546
REMARK SMILES CCCCCCCCCCCCCCCCCC(=O)[O-]
REMARK SMILES IDX 10 1 11 2 12 3 13 4 14 5 15 6 16 7 17 8 18 9 19 10 20 11
REMARK SMILES IDX 9 12 8 13 7 14 6 15 5 16 4 17 3 18 2 19 1 20
REMARK H PARENT
REMARK Flexibility Score: inf
ROOT
ATOM      1  C   UNL     1      45.393  10.377  21.131  1.00  0.00     0.000 C 
ENDROOT
BRANCH   1   2
ATOM      2  C   UNL     1      44.000   9.859  21.538  1.00  0.00     0.000 C 
BRANCH   2   3
ATOM      3  C   UNL     1      44.002   8.495  22.249  1.00  0.00     0.000 C 
BRANCH   3   4
ATOM      4  C   UNL     1      45.418   8.003  22.586  1.00  0.00     0.000 C 
BRANCH   4   5
ATOM      5  C   UNL     1      45.698   8.130  24.088  1.00  0.00     0.000 C 
BRANCH   5   6
ATOM      6  C   UNL     1      44.395   8.282  24.881  1.00  0.00     0.000 C 
BRANCH   6   7
ATOM      7  C   UNL     1      44.481   9.464  25.858  1.00  0.00     0.006 C 
BRANCH   7   8
ATOM      8  C   UNL     1      44.230  10.810  25.167  1.00  0.00     0.053 C 
BRANCH   8   9
ATOM      9  C   UNL     1      42.768  11.087  25.000  1.00  0.00     0.041 C 
ATOM     10  O   UNL     1      41.930  10.551  25.771  1.00  0.00    -0.550 OA
ATOM     11  O   UNL     1      42.332  11.962  24.011  1.00  0.00    -0.550 OA
ENDBRANCH   8   9
ENDBRANCH   7   8
ENDBRANCH   6   7
ENDBRANCH   5   6
ENDBRANCH   4   5
ENDBRANCH   3   4
ENDBRANCH   2   3
ENDBRANCH   1   2
BRANCH   1  12
ATOM     12  C   UNL     1      45.877  11.582  21.966  1.00  0.00     0.000 C 
BRANCH  12  13
ATOM     13  C   UNL     1      44.934  12.792  21.839  1.00  0.00    -0.000 C 
BRANCH  13  14
ATOM     14  C   UNL     1      45.203  13.869  22.902  1.00  0.00    -0.000 C 
BRANCH  14  15
ATOM     15  C   UNL     1      45.649  15.207  22.293  1.00  0.00    -0.000 C 
BRANCH  15  16
ATOM     16  C   UNL     1      45.728  15.114  20.763  1.00  0.00    -0.000 C 
BRANCH  16  17
ATOM     17  C   UNL     1      44.604  15.894  20.057  1.00  0.00    -0.000 C 
BRANCH  17  18
ATOM     18  C   UNL     1      43.751  16.789  20.980  1.00  0.00    -0.000 C 
BRANCH  18  19
ATOM     19  C   UNL     1      42.245  16.470  20.982  1.00  0.00    -0.003 C 
ATOM     20  C   UNL     1      41.847  15.477  22.072  1.00  0.00     0.004 C 
ENDBRANCH  18  19
ENDBRANCH  17  18
ENDBRANCH  16  17
ENDBRANCH  15  16
ENDBRANCH  14  15
ENDBRANCH  13  14
ENDBRANCH  12  13
ENDBRANCH   1  12
TORSDOF 16
ENDMDL
MODEL 6
REMARK VINA RESULT:    -3.893      2.944      6.733
REMARK INTER + INTRA:         -10.080
REMARK INTER:                  -8.346
REMARK INTRA:                  -1.734
REMARK UNBOUND:                -2.546
REMARK SMILES CCCCCCCCCCCCCCCCCC(=O)[O-]
REMARK SMILES IDX 10 1 11 2 12 3 13 4 14 5 15 6 16 7 17 8 18 9 19 10 20 11
REMARK SMILES IDX 9 12 8 13 7 14 6 15 5 16 4 17 3 18 2 19 1 20
REMARK H PARENT
REMARK Flexibility Score: inf
ROOT
ATOM      1  C   UNL     1      45.898  14.367  22.026  1.00  0.00     0.000 C 
ENDROOT
BRANCH   1   2
ATOM      2  C   UNL     1      45.299  12.969  21.771  1.00  0.00     0.000 C 
BRANCH   2   3
ATOM      3  C   UNL     1      45.126  12.104  23.031  1.00  0.00     0.000 C 
BRANCH   3   4
ATOM      4  C   UNL     1      43.704  11.542  23.176  1.00  0.00     0.000 C 
BRANCH   4   5
ATOM      5  C   UNL     1      43.676  10.376  24.171  1.00  0.00     0.000 C 
BRANCH   5   6
ATOM      6  C   UNL     1      45.056   9.719  24.291  1.00  0.00     0.000 C 
BRANCH   6   7
ATOM      7  C   UNL     1      44.995   8.238  23.890  1.00  0.00     0.006 C 
BRANCH   7   8
ATOM      8  C   UNL     1      45.693   7.968  22.550  1.00  0.00     0.053 C 
BRANCH   8   9
ATOM      9  C   UNL     1      44.802   8.276  21.386  1.00  0.00     0.041 C 
ATOM     10  O   UNL     1      43.844   7.510  21.102  1.00  0.00    -0.550 OA
ATOM     11  O   UNL     1      45.010   9.426  20.634  1.00  0.00    -0.550 OA
ENDBRANCH   8   9
ENDBRANCH   7   8
ENDBRANCH   6   7
ENDBRANCH   5   6
ENDBRANCH   4   5
ENDBRANCH   3   4
ENDBRANCH   2   3
ENDBRANCH   1   2
BRANCH   1  12
ATOM     12  C   UNL     1      45.742  15.336  20.835  1.00  0.00     0.000 C 
BRANCH  12  13
ATOM     13  C   UNL     1      44.777  16.492  21.149  1.00  0.00    -0.000 C 
BRANCH  13  14
ATOM     14  C   UNL     1      43.543  16.501  20.234  1.00  0.00    -0.000 C 
BRANCH  14  15
ATOM     15  C   UNL     1      42.239  16.786  20.995  1.00  0.00    -0.000 C 
BRANCH  15  16
ATOM     16  C   UNL     1      41.651  15.494  21.579  1.00  0.00    -0.000 C 
BRANCH  16  17
ATOM     17  C   UNL     1      42.056  15.261  23.046  1.00  0.00    -0.000 C 
BRANCH  17  18
ATOM     18  C   UNL     1      41.241  14.179  23.785  1.00  0.00    -0.000 C 
BRANCH  18  19
ATOM     19  C   UNL     1      41.292  14.263  25.320  1.00  0.00    -0.003 C 
ATOM     20  C   UNL     1      40.931  15.648  25.854  1.00  0.00     0.004 C 
ENDBRANCH  18  19
ENDBRANCH  17  18
ENDBRANCH  16  17
ENDBRANCH  15  16
ENDBRANCH  14  15
ENDBRANCH  13  14
ENDBRANCH  12  13
ENDBRANCH   1  12
TORSDOF 16
ENDMDL
MODEL 7
REMARK VINA RESULT:    -3.880      3.638      6.067
REMARK INTER + INTRA:         -10.056
REMARK INTER:                  -8.077
REMARK INTRA:                  -1.979
REMARK UNBOUND:                -2.546
REMARK SMILES CCCCCCCCCCCCCCCCCC(=O)[O-]
REMARK SMILES IDX 10 1 11 2 12 3 13 4 14 5 15 6 16 7 17 8 18 9 19 10 20 11
REMARK SMILES IDX 9 12 8 13 7 14 6 15 5 16 4 17 3 18 2 19 1 20
REMARK H PARENT
REMARK Flexibility Score: inf
ROOT
ATOM      1  C   UNL     1      41.971  16.502  21.159  1.00  0.00     0.000 C 
ENDROOT
BRANCH   1   2
ATOM      2  C   UNL     1      41.820  15.554  22.365  1.00  0.00     0.000 C 
BRANCH   2   3
ATOM      3  C   UNL     1      41.144  14.210  22.047  1.00  0.00     0.000 C 
BRANCH   3   4
ATOM      4  C   UNL     1      40.799  13.404  23.309  1.00  0.00     0.000 C 
BRANCH   4   5
ATOM      5  C   UNL     1      41.306  14.118  24.568  1.00  0.00     0.000 C 
BRANCH   5   6
ATOM      6  C   UNL     1      40.954  13.324  25.832  1.00  0.00     0.000 C 
BRANCH   6   7
ATOM      7  C   UNL     1      40.510  11.897  25.477  1.00  0.00     0.006 C 
BRANCH   7   8
ATOM      8  C   UNL     1      39.185  11.515  26.149  1.00  0.00     0.053 C 
BRANCH   8   9
ATOM      9  C   UNL     1      39.260  10.170  26.805  1.00  0.00     0.041 C 
ATOM     10  O   UNL     1      40.098   9.957  27.720  1.00  0.00    -0.550 OA
ATOM     11  O   UNL     1      38.384   9.160  26.425  1.00  0.00    -0.550 OA
ENDBRANCH   8   9
ENDBRANCH   7   8
ENDBRANCH   6   7
ENDBRANCH   5   6
ENDBRANCH   4   5
ENDBRANCH   3   4
ENDBRANCH   2   3
ENDBRANCH   1   2
BRANCH   1  12
ATOM     12  C   UNL     1      43.376  16.474  20.519  1.00  0.00     0.000 C 
BRANCH  12  13
ATOM     13  C   UNL     1      44.450  15.970  21.499  1.00  0.00    -0.000 C 
BRANCH  13  14
ATOM     14  C   UNL     1      45.550  15.152  20.804  1.00  0.00    -0.000 C 
BRANCH  14  15
ATOM     15  C   UNL     1      45.776  13.781  21.460  1.00  0.00    -0.000 C 
BRANCH  15  16
ATOM     16  C   UNL     1      44.700  13.496  22.517  1.00  0.00    -0.000 C 
BRANCH  16  17
ATOM     17  C   UNL     1      44.669  12.021  22.958  1.00  0.00    -0.000 C 
BRANCH  17  18
ATOM     18  C   UNL     1      43.467  11.208  22.434  1.00  0.00    -0.000 C 
BRANCH  18  19
ATOM     19  C   UNL     1      43.836   9.915  21.684  1.00  0.00    -0.003 C 
ATOM     20  C   UNL     1      45.179  10.007  20.961  1.00  0.00     0.004 C 
ENDBRANCH  18  19
ENDBRANCH  17  18
ENDBRANCH  16  17
ENDBRANCH  15  16
ENDBRANCH  14  15
ENDBRANCH  13  14
ENDBRANCH  12  13
ENDBRANCH   1  12
TORSDOF 16
ENDMDL
MODEL 8
REMARK VINA RESULT:    -3.836      1.706      3.020
REMARK INTER + INTRA:          -9.970
REMARK INTER:                  -7.697
REMARK INTRA:                  -2.273
REMARK UNBOUND:                -2.546
REMARK SMILES CCCCCCCCCCCCCCCCCC(=O)[O-]
REMARK SMILES IDX 10 1 11 2 12 3 13 4 14 5 15 6 16 7 17 8 18 9 19 10 20 11
REMARK SMILES IDX 9 12 8 13 7 14 6 15 5 16 4 17 3 18 2 19 1 20
REMARK H PARENT
REMARK Flexibility Score: inf
ROOT
ATOM      1  C   UNL     1      44.391  11.434  22.076  1.00  0.00     0.000 C 
ENDROOT
BRANCH   1   2
ATOM      2  C   UNL     1      44.940  12.091  23.358  1.00  0.00     0.000 C 
BRANCH   2   3
ATOM      3  C   UNL     1      43.948  12.143  24.532  1.00  0.00     0.000 C 
BRANCH   3   4
ATOM      4  C   UNL     1      42.515  11.779  24.115  1.00  0.00     0.000 C 
BRANCH   4   5
ATOM      5  C   UNL     1      41.591  12.999  24.213  1.00  0.00     0.000 C 
BRANCH   5   6
ATOM      6  C   UNL     1      41.521  13.747  22.877  1.00  0.00     0.000 C 
BRANCH   6   7
ATOM      7  C   UNL     1      42.105  15.162  23.009  1.00  0.00     0.006 C 
BRANCH   7   8
ATOM      8  C   UNL     1      43.514  15.268  22.411  1.00  0.00     0.053 C 
BRANCH   8   9
ATOM      9  C   UNL     1      43.588  16.311  21.338  1.00  0.00     0.041 C 
ATOM     10  O   UNL     1      44.693  16.833  21.038  1.00  0.00    -0.550 OA
ATOM     11  O   UNL     1      42.440  16.683  20.649  1.00  0.00    -0.550 OA
ENDBRANCH   8   9
ENDBRANCH   7   8
ENDBRANCH   6   7
ENDBRANCH   5   6
ENDBRANCH   4   5
ENDBRANCH   3   4
ENDBRANCH   2   3
ENDBRANCH   1   2
BRANCH   1  12
ATOM     12  C   UNL     1      45.462  10.687  21.253  1.00  0.00     0.000 C 
BRANCH  12  13
ATOM     13  C   UNL     1      44.950   9.334  20.727  1.00  0.00    -0.000 C 
BRANCH  13  14
ATOM     14  C   UNL     1      44.518   8.384  21.854  1.00  0.00    -0.000 C 
BRANCH  14  15
ATOM     15  C   UNL     1      45.708   7.798  22.629  1.00  0.00    -0.000 C 
BRANCH  15  16
ATOM     16  C   UNL     1      45.667   8.228  24.102  1.00  0.00    -0.000 C 
BRANCH  16  17
ATOM     17  C   UNL     1      44.238   8.487  24.611  1.00  0.00    -0.000 C 
BRANCH  17  18
ATOM     18  C   UNL     1      44.076   8.461  26.145  1.00  0.00    -0.000 C 
BRANCH  18  19
ATOM     19  C   UNL     1      45.037   7.512  26.884  1.00  0.00    -0.003 C 
ATOM     20  C   UNL     1      44.410   6.154  27.197  1.00  0.00     0.004 C 
ENDBRANCH  18  19
ENDBRANCH  17  18
ENDBRANCH  16  17
ENDBRANCH  15  16
ENDBRANCH  14  15
ENDBRANCH  13  14
ENDBRANCH  12  13
ENDBRANCH   1  12
TORSDOF 16
ENDMDL
MODEL 9
REMARK VINA RESULT:    -3.783      1.555      3.062
REMARK INTER + INTRA:          -9.867
REMARK INTER:                  -7.655
REMARK INTRA:                  -2.213
REMARK UNBOUND:                -2.546
REMARK SMILES CCCCCCCCCCCCCCCCCC(=O)[O-]
REMARK SMILES IDX 10 1 11 2 12 3 13 4 14 5 15 6 16 7 17 8 18 9 19 10 20 11
REMARK SMILES IDX 9 12 8 13 7 14 6 15 5 16 4 17 3 18 2 19 1 20
REMARK H PARENT
REMARK Flexibility Score: inf
ROOT
ATOM      1  C   UNL     1      41.565  14.386  22.221  1.00  0.00     0.000 C 
ENDROOT
BRANCH   1   2
ATOM      2  C   UNL     1      41.792  15.900  22.399  1.00  0.00     0.000 C 
BRANCH   2   3
ATOM      3  C   UNL     1      41.987  16.681  21.089  1.00  0.00     0.000 C 
BRANCH   3   4
ATOM      4  C   UNL     1      43.337  16.389  20.417  1.00  0.00     0.000 C 
BRANCH   4   5
ATOM      5  C   UNL     1      44.500  16.779  21.337  1.00  0.00     0.000 C 
BRANCH   5   6
ATOM      6  C   UNL     1      45.646  15.765  21.236  1.00  0.00     0.000 C 
BRANCH   6   7
ATOM      7  C   UNL     1      45.641  14.809  22.438  1.00  0.00     0.006 C 
BRANCH   7   8
ATOM      8  C   UNL     1      45.757  15.553  23.775  1.00  0.00     0.053 C 
BRANCH   8   9
ATOM      9  C   UNL     1      44.858  14.965  24.819  1.00  0.00     0.041 C 
ATOM     10  O   UNL     1      45.141  13.857  25.347  1.00  0.00    -0.550 OA
ATOM     11  O   UNL     1      43.725  15.655  25.233  1.00  0.00    -0.550 OA
ENDBRANCH   8   9
ENDBRANCH   7   8
ENDBRANCH   6   7
ENDBRANCH   5   6
ENDBRANCH   4   5
ENDBRANCH   3   4
ENDBRANCH   2   3
ENDBRANCH   1   2
BRANCH   1  12
ATOM     12  C   UNL     1      41.218  13.651  23.532  1.00  0.00     0.000 C 
BRANCH  12  13
ATOM     13  C   UNL     1      42.210  12.516  23.843  1.00  0.00    -0.000 C 
BRANCH  13  14
ATOM     14  C   UNL     1      43.046  12.107  22.620  1.00  0.00    -0.000 C 
BRANCH  14  15
ATOM     15  C   UNL     1      44.321  11.339  23.001  1.00  0.00    -0.000 C 
BRANCH  15  16
ATOM     16  C   UNL     1      44.114  10.543  24.297  1.00  0.00    -0.000 C 
BRANCH  16  17
ATOM     17  C   UNL     1      44.400   9.040  24.130  1.00  0.00    -0.000 C 
BRANCH  17  18
ATOM     18  C   UNL     1      45.654   8.702  23.298  1.00  0.00    -0.000 C 
BRANCH  18  19
ATOM     19  C   UNL     1      45.421   7.711  22.144  1.00  0.00    -0.003 C 
ATOM     20  C   UNL     1      44.131   7.987  21.373  1.00  0.00     0.004 C 
ENDBRANCH  18  19
ENDBRANCH  17  18
ENDBRANCH  16  17
ENDBRANCH  15  16
ENDBRANCH  14  15
ENDBRANCH  13  14
ENDBRANCH  12  13
ENDBRANCH   1  12
TORSDOF 16
ENDMDL
