MODEL 1
REMARK VINA RESULT:    -4.806      0.000      0.000
REMARK INTER + INTRA:         -15.530
REMARK INTER:                 -12.111
REMARK INTRA:                  -3.419
REMARK UNBOUND:                -3.419
REMARK SMILES CCCCCCCCCCCCCCCCCCCCCCCCCCCC(=O)[O-]
REMARK SMILES IDX 15 1 16 2 17 3 18 4 19 5 20 6 21 7 22 8 23 9 24 10 25 11
REMARK SMILES IDX 26 12 27 13 28 14 29 15 30 16 14 17 13 18 12 19 11 20 10 21
REMARK SMILES IDX 9 22 8 23 7 24 6 25 5 26 4 27 3 28 2 29 1 30
REMARK H PARENT
REMARK Flexibility Score: inf
ROOT
ATOM      1  C   UNL     1      -8.924   1.119 -21.283  1.00  0.00     0.000 C 
ENDROOT
BRANCH   1   2
ATOM      2  C   UNL     1      -9.454   1.360 -22.714  1.00  0.00     0.000 C 
BRANCH   2   3
ATOM      3  C   UNL     1     -10.160   0.140 -23.332  1.00  0.00     0.000 C 
BRANCH   3   4
ATOM      4  C   UNL     1     -10.109  -1.103 -22.428  1.00  0.00     0.000 C 
BRANCH   4   5
ATOM      5  C   UNL     1     -11.491  -1.456 -21.835  1.00  0.00     0.000 C 
BRANCH   5   6
ATOM      6  C   UNL     1     -11.500  -2.781 -21.054  1.00  0.00     0.000 C 
BRANCH   6   7
ATOM      7  C   UNL     1     -12.758  -3.643 -21.276  1.00  0.00     0.000 C 
BRANCH   7   8
ATOM      8  C   UNL     1     -13.434  -3.478 -22.654  1.00  0.00     0.000 C 
BRANCH   8   9
ATOM      9  C   UNL     1     -12.831  -4.328 -23.788  1.00  0.00     0.000 C 
BRANCH   9  10
ATOM     10  C   UNL     1     -12.739  -3.566 -25.120  1.00  0.00     0.000 C 
BRANCH  10  11
ATOM     11  C   UNL     1     -11.321  -3.050 -25.407  1.00  0.00     0.000 C 
BRANCH  11  12
ATOM     12  C   UNL     1     -10.563  -3.938 -26.405  1.00  0.00     0.006 C 
BRANCH  12  13
ATOM     13  C   UNL     1     -10.313  -3.195 -27.722  1.00  0.00     0.053 C 
BRANCH  13  14
ATOM     14  C   UNL     1      -8.868  -2.834 -27.863  1.00  0.00     0.041 C 
ATOM     15  O   UNL     1      -8.490  -2.078 -28.799  1.00  0.00    -0.550 OA
ATOM     16  O   UNL     1      -7.933  -3.336 -26.965  1.00  0.00    -0.550 OA
ENDBRANCH  13  14
ENDBRANCH  12  13
ENDBRANCH  11  12
ENDBRANCH  10  11
ENDBRANCH   9  10
ENDBRANCH   8   9
ENDBRANCH   7   8
ENDBRANCH   6   7
ENDBRANCH   5   6
ENDBRANCH   4   5
ENDBRANCH   3   4
ENDBRANCH   2   3
ENDBRANCH   1   2
BRANCH   1  17
ATOM     17  C   UNL     1      -9.235   2.296 -20.340  1.00  0.00     0.000 C 
BRANCH  17  18
ATOM     18  C   UNL     1     -10.140   1.893 -19.161  1.00  0.00     0.000 C 
BRANCH  18  19
ATOM     19  C   UNL     1     -11.443   1.163 -19.549  1.00  0.00     0.000 C 
BRANCH  19  20
ATOM     20  C   UNL     1     -12.586   2.067 -20.046  1.00  0.00     0.000 C 
BRANCH  20  21
ATOM     21  C   UNL     1     -12.839   1.942 -21.557  1.00  0.00     0.000 C 
BRANCH  21  22
ATOM     22  C   UNL     1     -13.691   3.095 -22.113  1.00  0.00    -0.000 C 
BRANCH  22  23
ATOM     23  C   UNL     1     -15.144   2.679 -22.405  1.00  0.00    -0.000 C 
BRANCH  23  24
ATOM     24  C   UNL     1     -16.073   2.895 -21.195  1.00  0.00    -0.000 C 
BRANCH  24  25
ATOM     25  C   UNL     1     -16.044   4.319 -20.603  1.00  0.00    -0.000 C 
BRANCH  25  26
ATOM     26  C   UNL     1     -16.831   5.376 -21.402  1.00  0.00    -0.000 C 
BRANCH  26  27
ATOM     27  C   UNL     1     -15.960   6.193 -22.380  1.00  0.00    -0.000 C 
BRANCH  27  28
ATOM     28  C   UNL     1     -16.700   6.518 -23.689  1.00  0.00    -0.000 C 
BRANCH  28  29
ATOM     29  C   UNL     1     -15.923   6.061 -24.932  1.00  0.00    -0.003 C 
ATOM     30  C   UNL     1     -14.498   5.608 -24.606  1.00  0.00     0.004 C 
ENDBRANCH  28  29
ENDBRANCH  27  28
ENDBRANCH  26  27
ENDBRANCH  25  26
ENDBRANCH  24  25
ENDBRANCH  23  24
ENDBRANCH  22  23
ENDBRANCH  21  22
ENDBRANCH  20  21
ENDBRANCH  19  20
ENDBRANCH  18  19
ENDBRANCH  17  18
ENDBRANCH   1  17
TORSDOF 26
ENDMDL
MODEL 2
REMARK VINA RESULT:    -4.762      4.201      7.381
REMARK INTER + INTRA:         -15.419
REMARK INTER:                 -11.110
REMARK INTRA:                  -4.308
REMARK UNBOUND:                -3.419
REMARK SMILES CCCCCCCCCCCCCCCCCCCCCCCCCCCC(=O)[O-]
REMARK SMILES IDX 15 1 16 2 17 3 18 4 19 5 20 6 21 7 22 8 23 9 24 10 25 11
REMARK SMILES IDX 26 12 27 13 28 14 29 15 30 16 14 17 13 18 12 19 11 20 10 21
REMARK SMILES IDX 9 22 8 23 7 24 6 25 5 26 4 27 3 28 2 29 1 30
REMARK H PARENT
REMARK Flexibility Score: inf
ROOT
ATOM      1  C   UNL     1      -9.562  -2.177 -26.013  1.00  0.00     0.000 C 
ENDROOT
BRANCH   1   2
ATOM      2  C   UNL     1      -9.155  -1.993 -27.492  1.00  0.00     0.000 C 
BRANCH   2   3
ATOM      3  C   UNL     1      -8.496  -3.235 -28.117  1.00  0.00     0.000 C 
BRANCH   3   4
ATOM      4  C   UNL     1      -8.664  -3.298 -29.644  1.00  0.00     0.000 C 
BRANCH   4   5
ATOM      5  C   UNL     1      -9.542  -4.487 -30.090  1.00  0.00     0.000 C 
BRANCH   5   6
ATOM      6  C   UNL     1     -10.385  -5.086 -28.950  1.00  0.00     0.000 C 
BRANCH   6   7
ATOM      7  C   UNL     1     -11.889  -4.758 -29.029  1.00  0.00     0.000 C 
BRANCH   7   8
ATOM      8  C   UNL     1     -12.263  -3.300 -28.692  1.00  0.00     0.000 C 
BRANCH   8   9
ATOM      9  C   UNL     1     -13.203  -2.613 -29.699  1.00  0.00     0.000 C 
BRANCH   9  10
ATOM     10  C   UNL     1     -13.272  -3.349 -31.048  1.00  0.00     0.000 C 
BRANCH  10  11
ATOM     11  C   UNL     1     -12.453  -2.649 -32.144  1.00  0.00     0.000 C 
BRANCH  11  12
ATOM     12  C   UNL     1     -11.799  -3.644 -33.114  1.00  0.00     0.006 C 
BRANCH  12  13
ATOM     13  C   UNL     1     -11.429  -2.961 -34.436  1.00  0.00     0.053 C 
BRANCH  13  14
ATOM     14  C   UNL     1     -10.151  -2.195 -34.298  1.00  0.00     0.041 C 
ATOM     15  O   UNL     1      -9.975  -1.132 -34.953  1.00  0.00    -0.550 OA
ATOM     16  O   UNL     1      -9.150  -2.655 -33.452  1.00  0.00    -0.550 OA
ENDBRANCH  13  14
ENDBRANCH  12  13
ENDBRANCH  11  12
ENDBRANCH  10  11
ENDBRANCH   9  10
ENDBRANCH   8   9
ENDBRANCH   7   8
ENDBRANCH   6   7
ENDBRANCH   5   6
ENDBRANCH   4   5
ENDBRANCH   3   4
ENDBRANCH   2   3
ENDBRANCH   1   2
BRANCH   1  17
ATOM     17  C   UNL     1      -9.655  -3.661 -25.614  1.00  0.00     0.000 C 
BRANCH  17  18
ATOM     18  C   UNL     1     -11.091  -4.100 -25.273  1.00  0.00     0.000 C 
BRANCH  18  19
ATOM     19  C   UNL     1     -12.145  -2.972 -25.280  1.00  0.00     0.000 C 
BRANCH  19  20
ATOM     20  C   UNL     1     -12.885  -2.749 -23.949  1.00  0.00     0.000 C 
BRANCH  20  21
ATOM     21  C   UNL     1     -12.589  -3.838 -22.904  1.00  0.00     0.000 C 
BRANCH  21  22
ATOM     22  C   UNL     1     -11.841  -3.293 -21.676  1.00  0.00    -0.000 C 
BRANCH  22  23
ATOM     23  C   UNL     1     -10.315  -3.461 -21.782  1.00  0.00    -0.000 C 
BRANCH  23  24
ATOM     24  C   UNL     1      -9.585  -2.114 -21.945  1.00  0.00    -0.000 C 
BRANCH  24  25
ATOM     25  C   UNL     1     -10.496  -0.872 -21.879  1.00  0.00    -0.000 C 
BRANCH  25  26
ATOM     26  C   UNL     1     -10.202   0.212 -22.934  1.00  0.00    -0.000 C 
BRANCH  26  27
ATOM     27  C   UNL     1      -9.332   1.373 -22.408  1.00  0.00    -0.000 C 
BRANCH  27  28
ATOM     28  C   UNL     1      -9.937   2.038 -21.159  1.00  0.00    -0.000 C 
BRANCH  28  29
ATOM     29  C   UNL     1      -8.880   2.360 -20.094  1.00  0.00    -0.003 C 
ATOM     30  C   UNL     1      -7.822   1.262 -19.958  1.00  0.00     0.004 C 
ENDBRANCH  28  29
ENDBRANCH  27  28
ENDBRANCH  26  27
ENDBRANCH  25  26
ENDBRANCH  24  25
ENDBRANCH  23  24
ENDBRANCH  22  23
ENDBRANCH  21  22
ENDBRANCH  20  21
ENDBRANCH  19  20
ENDBRANCH  18  19
ENDBRANCH  17  18
ENDBRANCH   1  17
TORSDOF 26
ENDMDL
MODEL 3
REMARK VINA RESULT:    -4.720      3.996      9.297
REMARK INTER + INTRA:         -15.313
REMARK INTER:                 -10.983
REMARK INTRA:                  -4.330
REMARK UNBOUND:                -3.419
REMARK SMILES CCCCCCCCCCCCCCCCCCCCCCCCCCCC(=O)[O-]
REMARK SMILES IDX 15 1 16 2 17 3 18 4 19 5 20 6 21 7 22 8 23 9 24 10 25 11
REMARK SMILES IDX 26 12 27 13 28 14 29 15 30 16 14 17 13 18 12 19 11 20 10 21
REMARK SMILES IDX 9 22 8 23 7 24 6 25 5 26 4 27 3 28 2 29 1 30
REMARK H PARENT
REMARK Flexibility Score: inf
ROOT
ATOM      1  C   UNL     1      -9.151  -2.411 -27.489  1.00  0.00     0.000 C 
ENDROOT
BRANCH   1   2
ATOM      2  C   UNL     1     -10.054  -2.605 -26.250  1.00  0.00     0.000 C 
BRANCH   2   3
ATOM      3  C   UNL     1     -10.369  -4.077 -25.933  1.00  0.00     0.000 C 
BRANCH   3   4
ATOM      4  C   UNL     1     -11.793  -4.281 -25.390  1.00  0.00     0.000 C 
BRANCH   4   5
ATOM      5  C   UNL     1     -12.530  -2.945 -25.154  1.00  0.00     0.000 C 
BRANCH   5   6
ATOM      6  C   UNL     1     -13.083  -2.796 -23.725  1.00  0.00     0.000 C 
BRANCH   6   7
ATOM      7  C   UNL     1     -12.568  -3.853 -22.729  1.00  0.00     0.000 C 
BRANCH   7   8
ATOM      8  C   UNL     1     -11.595  -3.324 -21.653  1.00  0.00     0.000 C 
BRANCH   8   9
ATOM      9  C   UNL     1     -10.123  -3.218 -22.095  1.00  0.00     0.000 C 
BRANCH   9  10
ATOM     10  C   UNL     1      -9.566  -1.789 -21.973  1.00  0.00     0.000 C 
BRANCH  10  11
ATOM     11  C   UNL     1     -10.169  -0.832 -23.013  1.00  0.00     0.000 C 
BRANCH  11  12
ATOM     12  C   UNL     1     -10.614   0.502 -22.394  1.00  0.00     0.006 C 
BRANCH  12  13
ATOM     13  C   UNL     1     -12.017   0.387 -21.788  1.00  0.00     0.053 C 
BRANCH  13  14
ATOM     14  C   UNL     1     -12.375   1.631 -21.038  1.00  0.00     0.041 C 
ATOM     15  O   UNL     1     -12.090   1.739 -19.815  1.00  0.00    -0.550 OA
ATOM     16  O   UNL     1     -13.031   2.672 -21.685  1.00  0.00    -0.550 OA
ENDBRANCH  13  14
ENDBRANCH  12  13
ENDBRANCH  11  12
ENDBRANCH  10  11
ENDBRANCH   9  10
ENDBRANCH   8   9
ENDBRANCH   7   8
ENDBRANCH   6   7
ENDBRANCH   5   6
ENDBRANCH   4   5
ENDBRANCH   3   4
ENDBRANCH   2   3
ENDBRANCH   1   2
BRANCH   1  17
ATOM     17  C   UNL     1      -8.233  -3.621 -27.737  1.00  0.00     0.000 C 
BRANCH  17  18
ATOM     18  C   UNL     1      -8.020  -3.914 -29.235  1.00  0.00     0.000 C 
BRANCH  18  19
ATOM     19  C   UNL     1      -8.780  -2.983 -30.203  1.00  0.00     0.000 C 
BRANCH  19  20
ATOM     20  C   UNL     1      -9.256  -3.636 -31.512  1.00  0.00     0.000 C 
BRANCH  20  21
ATOM     21  C   UNL     1      -9.663  -2.612 -32.584  1.00  0.00     0.000 C 
BRANCH  21  22
ATOM     22  C   UNL     1     -11.057  -2.889 -33.171  1.00  0.00    -0.000 C 
BRANCH  22  23
ATOM     23  C   UNL     1     -12.147  -1.978 -32.580  1.00  0.00    -0.000 C 
BRANCH  23  24
ATOM     24  C   UNL     1     -12.862  -2.620 -31.376  1.00  0.00    -0.000 C 
BRANCH  24  25
ATOM     25  C   UNL     1     -12.452  -2.053 -30.002  1.00  0.00    -0.000 C 
BRANCH  25  26
ATOM     26  C   UNL     1     -12.877  -2.904 -28.789  1.00  0.00    -0.000 C 
BRANCH  26  27
ATOM     27  C   UNL     1     -13.028  -4.407 -29.106  1.00  0.00    -0.000 C 
BRANCH  27  28
ATOM     28  C   UNL     1     -14.227  -5.040 -28.376  1.00  0.00    -0.000 C 
BRANCH  28  29
ATOM     29  C   UNL     1     -15.367  -5.414 -29.333  1.00  0.00    -0.003 C 
ATOM     30  C   UNL     1     -16.053  -4.189 -29.944  1.00  0.00     0.004 C 
ENDBRANCH  28  29
ENDBRANCH  27  28
ENDBRANCH  26  27
ENDBRANCH  25  26
ENDBRANCH  24  25
ENDBRANCH  23  24
ENDBRANCH  22  23
ENDBRANCH  21  22
ENDBRANCH  20  21
ENDBRANCH  19  20
ENDBRANCH  18  19
ENDBRANCH  17  18
ENDBRANCH   1  17
TORSDOF 26
ENDMDL
MODEL 4
REMARK VINA RESULT:    -4.693      1.886      4.195
REMARK INTER + INTRA:         -15.246
REMARK INTER:                 -11.568
REMARK INTRA:                  -3.678
REMARK UNBOUND:                -3.419
REMARK SMILES CCCCCCCCCCCCCCCCCCCCCCCCCCCC(=O)[O-]
REMARK SMILES IDX 15 1 16 2 17 3 18 4 19 5 20 6 21 7 22 8 23 9 24 10 25 11
REMARK SMILES IDX 26 12 27 13 28 14 29 15 30 16 14 17 13 18 12 19 11 20 10 21
REMARK SMILES IDX 9 22 8 23 7 24 6 25 5 26 4 27 3 28 2 29 1 30
REMARK H PARENT
REMARK Flexibility Score: inf
ROOT
ATOM      1  C   UNL     1     -13.310   2.943 -22.238  1.00  0.00     0.000 C 
ENDROOT
BRANCH   1   2
ATOM      2  C   UNL     1     -12.414   1.763 -21.798  1.00  0.00     0.000 C 
BRANCH   2   3
ATOM      3  C   UNL     1     -12.345   1.566 -20.274  1.00  0.00     0.000 C 
BRANCH   3   4
ATOM      4  C   UNL     1     -10.903   1.496 -19.744  1.00  0.00     0.000 C 
BRANCH   4   5
ATOM      5  C   UNL     1      -9.900   1.043 -20.827  1.00  0.00     0.000 C 
BRANCH   5   6
ATOM      6  C   UNL     1      -8.684   0.290 -20.257  1.00  0.00     0.000 C 
BRANCH   6   7
ATOM      7  C   UNL     1      -8.740  -1.240 -20.438  1.00  0.00     0.000 C 
BRANCH   7   8
ATOM      8  C   UNL     1      -9.960  -1.934 -19.798  1.00  0.00     0.000 C 
BRANCH   8   9
ATOM      9  C   UNL     1     -10.199  -3.388 -20.245  1.00  0.00     0.000 C 
BRANCH   9  10
ATOM     10  C   UNL     1     -11.408  -3.532 -21.184  1.00  0.00     0.000 C 
BRANCH  10  11
ATOM     11  C   UNL     1     -12.100  -2.189 -21.463  1.00  0.00     0.000 C 
BRANCH  11  12
ATOM     12  C   UNL     1     -12.275  -1.919 -22.965  1.00  0.00     0.006 C 
BRANCH  12  13
ATOM     13  C   UNL     1     -10.992  -1.341 -23.573  1.00  0.00     0.053 C 
BRANCH  13  14
ATOM     14  C   UNL     1     -10.496  -2.207 -24.688  1.00  0.00     0.041 C 
ATOM     15  O   UNL     1      -9.603  -1.784 -25.471  1.00  0.00    -0.550 OA
ATOM     16  O   UNL     1     -11.023  -3.481 -24.870  1.00  0.00    -0.550 OA
ENDBRANCH  13  14
ENDBRANCH  12  13
ENDBRANCH  11  12
ENDBRANCH  10  11
ENDBRANCH   9  10
ENDBRANCH   8   9
ENDBRANCH   7   8
ENDBRANCH   6   7
ENDBRANCH   5   6
ENDBRANCH   4   5
ENDBRANCH   3   4
ENDBRANCH   2   3
ENDBRANCH   1   2
BRANCH   1  17
ATOM     17  C   UNL     1     -14.651   2.468 -22.828  1.00  0.00     0.000 C 
BRANCH  17  18
ATOM     18  C   UNL     1     -15.845   2.740 -21.894  1.00  0.00     0.000 C 
BRANCH  18  19
ATOM     19  C   UNL     1     -15.501   3.469 -20.578  1.00  0.00     0.000 C 
BRANCH  19  20
ATOM     20  C   UNL     1     -16.410   3.138 -19.381  1.00  0.00     0.000 C 
BRANCH  20  21
ATOM     21  C   UNL     1     -17.718   2.442 -19.790  1.00  0.00     0.000 C 
BRANCH  21  22
ATOM     22  C   UNL     1     -18.967   3.238 -19.379  1.00  0.00    -0.000 C 
BRANCH  22  23
ATOM     23  C   UNL     1     -18.703   4.749 -19.261  1.00  0.00    -0.000 C 
BRANCH  23  24
ATOM     24  C   UNL     1     -19.907   5.595 -19.716  1.00  0.00    -0.000 C 
BRANCH  24  25
ATOM     25  C   UNL     1     -19.549   6.811 -20.594  1.00  0.00    -0.000 C 
BRANCH  25  26
ATOM     26  C   UNL     1     -18.052   6.955 -20.934  1.00  0.00    -0.000 C 
BRANCH  26  27
ATOM     27  C   UNL     1     -17.754   6.950 -22.448  1.00  0.00    -0.000 C 
BRANCH  27  28
ATOM     28  C   UNL     1     -16.520   6.100 -22.798  1.00  0.00    -0.000 C 
BRANCH  28  29
ATOM     29  C   UNL     1     -16.175   6.152 -24.293  1.00  0.00    -0.003 C 
ATOM     30  C   UNL     1     -14.782   5.596 -24.598  1.00  0.00     0.004 C 
ENDBRANCH  28  29
ENDBRANCH  27  28
ENDBRANCH  26  27
ENDBRANCH  25  26
ENDBRANCH  24  25
ENDBRANCH  23  24
ENDBRANCH  22  23
ENDBRANCH  21  22
ENDBRANCH  20  21
ENDBRANCH  19  20
ENDBRANCH  18  19
ENDBRANCH  17  18
ENDBRANCH   1  17
TORSDOF 26
ENDMDL
MODEL 5
REMARK VINA RESULT:    -4.684      4.558      9.547
REMARK INTER + INTRA:         -15.224
REMARK INTER:                 -11.237
REMARK INTRA:                  -3.987
REMARK UNBOUND:                -3.419
REMARK SMILES CCCCCCCCCCCCCCCCCCCCCCCCCCCC(=O)[O-]
REMARK SMILES IDX 15 1 16 2 17 3 18 4 19 5 20 6 21 7 22 8 23 9 24 10 25 11
REMARK SMILES IDX 26 12 27 13 28 14 29 15 30 16 14 17 13 18 12 19 11 20 10 21
REMARK SMILES IDX 9 22 8 23 7 24 6 25 5 26 4 27 3 28 2 29 1 30
REMARK H PARENT
REMARK Flexibility Score: inf
ROOT
ATOM      1  C   UNL     1      -8.700  -2.355 -27.552  1.00  0.00     0.000 C 
ENDROOT
BRANCH   1   2
ATOM      2  C   UNL     1      -9.497  -2.434 -26.231  1.00  0.00     0.000 C 
BRANCH   2   3
ATOM      3  C   UNL     1      -9.620  -3.857 -25.660  1.00  0.00     0.000 C 
BRANCH   3   4
ATOM      4  C   UNL     1     -11.071  -4.362 -25.613  1.00  0.00     0.000 C 
BRANCH   4   5
ATOM      5  C   UNL     1     -12.094  -3.206 -25.559  1.00  0.00     0.000 C 
BRANCH   5   6
ATOM      6  C   UNL     1     -13.036  -3.279 -24.345  1.00  0.00     0.000 C 
BRANCH   6   7
ATOM      7  C   UNL     1     -12.717  -2.265 -23.229  1.00  0.00     0.000 C 
BRANCH   7   8
ATOM      8  C   UNL     1     -12.505  -2.875 -21.827  1.00  0.00     0.000 C 
BRANCH   8   9
ATOM      9  C   UNL     1     -11.037  -3.131 -21.437  1.00  0.00     0.000 C 
BRANCH   9  10
ATOM     10  C   UNL     1     -10.043  -2.363 -22.324  1.00  0.00     0.000 C 
BRANCH  10  11
ATOM     11  C   UNL     1      -9.670  -0.991 -21.739  1.00  0.00     0.000 C 
BRANCH  11  12
ATOM     12  C   UNL     1      -9.931   0.158 -22.724  1.00  0.00     0.006 C 
BRANCH  12  13
ATOM     13  C   UNL     1      -9.205   1.434 -22.285  1.00  0.00     0.053 C 
BRANCH  13  14
ATOM     14  C   UNL     1      -9.943   2.110 -21.173  1.00  0.00     0.041 C 
ATOM     15  O   UNL     1      -9.310   2.628 -20.213  1.00  0.00    -0.550 OA
ATOM     16  O   UNL     1     -11.331   2.165 -21.189  1.00  0.00    -0.550 OA
ENDBRANCH  13  14
ENDBRANCH  12  13
ENDBRANCH  11  12
ENDBRANCH  10  11
ENDBRANCH   9  10
ENDBRANCH   8   9
ENDBRANCH   7   8
ENDBRANCH   6   7
ENDBRANCH   5   6
ENDBRANCH   4   5
ENDBRANCH   3   4
ENDBRANCH   2   3
ENDBRANCH   1   2
BRANCH   1  17
ATOM     17  C   UNL     1      -7.731  -3.539 -27.720  1.00  0.00     0.000 C 
BRANCH  17  18
ATOM     18  C   UNL     1      -7.668  -4.059 -29.169  1.00  0.00     0.000 C 
BRANCH  18  19
ATOM     19  C   UNL     1      -8.573  -3.318 -30.175  1.00  0.00     0.000 C 
BRANCH  19  20
ATOM     20  C   UNL     1      -9.730  -4.147 -30.760  1.00  0.00     0.000 C 
BRANCH  20  21
ATOM     21  C   UNL     1     -10.442  -5.015 -29.709  1.00  0.00     0.000 C 
BRANCH  21  22
ATOM     22  C   UNL     1     -11.841  -4.487 -29.352  1.00  0.00    -0.000 C 
BRANCH  22  23
ATOM     23  C   UNL     1     -11.863  -2.968 -29.108  1.00  0.00    -0.000 C 
BRANCH  23  24
ATOM     24  C   UNL     1     -12.809  -2.230 -30.075  1.00  0.00    -0.000 C 
BRANCH  24  25
ATOM     25  C   UNL     1     -13.018  -2.928 -31.434  1.00  0.00    -0.000 C 
BRANCH  25  26
ATOM     26  C   UNL     1     -12.412  -2.195 -32.647  1.00  0.00    -0.000 C 
BRANCH  26  27
ATOM     27  C   UNL     1     -12.404  -3.035 -33.942  1.00  0.00    -0.000 C 
BRANCH  27  28
ATOM     28  C   UNL     1     -11.150  -2.779 -34.796  1.00  0.00    -0.000 C 
BRANCH  28  29
ATOM     29  C   UNL     1     -10.060  -2.020 -34.026  1.00  0.00    -0.003 C 
ATOM     30  C   UNL     1      -8.689  -2.693 -34.121  1.00  0.00     0.004 C 
ENDBRANCH  28  29
ENDBRANCH  27  28
ENDBRANCH  26  27
ENDBRANCH  25  26
ENDBRANCH  24  25
ENDBRANCH  23  24
ENDBRANCH  22  23
ENDBRANCH  21  22
ENDBRANCH  20  21
ENDBRANCH  19  20
ENDBRANCH  18  19
ENDBRANCH  17  18
ENDBRANCH   1  17
TORSDOF 26
ENDMDL
MODEL 6
REMARK VINA RESULT:    -4.683      5.114      8.402
REMARK INTER + INTRA:         -15.219
REMARK INTER:                 -10.170
REMARK INTRA:                  -5.049
REMARK UNBOUND:                -3.419
REMARK SMILES CCCCCCCCCCCCCCCCCCCCCCCCCCCC(=O)[O-]
REMARK SMILES IDX 15 1 16 2 17 3 18 4 19 5 20 6 21 7 22 8 23 9 24 10 25 11
REMARK SMILES IDX 26 12 27 13 28 14 29 15 30 16 14 17 13 18 12 19 11 20 10 21
REMARK SMILES IDX 9 22 8 23 7 24 6 25 5 26 4 27 3 28 2 29 1 30
REMARK H PARENT
REMARK Flexibility Score: inf
ROOT
ATOM      1  C   UNL     1     -10.428  -1.402 -23.645  1.00  0.00     0.000 C 
ENDROOT
BRANCH   1   2
ATOM      2  C   UNL     1     -11.716  -1.667 -22.833  1.00  0.00     0.000 C 
BRANCH   2   3
ATOM      3  C   UNL     1     -12.759  -2.518 -23.579  1.00  0.00     0.000 C 
BRANCH   3   4
ATOM      4  C   UNL     1     -13.308  -3.674 -22.728  1.00  0.00     0.000 C 
BRANCH   4   5
ATOM      5  C   UNL     1     -12.516  -4.984 -22.933  1.00  0.00     0.000 C 
BRANCH   5   6
ATOM      6  C   UNL     1     -12.267  -5.759 -21.627  1.00  0.00     0.000 C 
BRANCH   6   7
ATOM      7  C   UNL     1     -10.924  -5.441 -20.942  1.00  0.00     0.000 C 
BRANCH   7   8
ATOM      8  C   UNL     1      -9.810  -4.934 -21.882  1.00  0.00     0.000 C 
BRANCH   8   9
ATOM      9  C   UNL     1      -8.927  -3.810 -21.308  1.00  0.00     0.000 C 
BRANCH   9  10
ATOM     10  C   UNL     1      -9.263  -3.477 -19.845  1.00  0.00     0.000 C 
BRANCH  10  11
ATOM     11  C   UNL     1      -9.834  -2.060 -19.679  1.00  0.00     0.000 C 
BRANCH  11  12
ATOM     12  C   UNL     1      -8.878  -0.977 -20.201  1.00  0.00     0.006 C 
BRANCH  12  13
ATOM     13  C   UNL     1      -9.550   0.400 -20.192  1.00  0.00     0.053 C 
BRANCH  13  14
ATOM     14  C   UNL     1      -8.536   1.485 -20.002  1.00  0.00     0.041 C 
ATOM     15  O   UNL     1      -8.903   2.687 -19.901  1.00  0.00    -0.550 OA
ATOM     16  O   UNL     1      -7.183   1.172 -19.943  1.00  0.00    -0.550 OA
ENDBRANCH  13  14
ENDBRANCH  12  13
ENDBRANCH  11  12
ENDBRANCH  10  11
ENDBRANCH   9  10
ENDBRANCH   8   9
ENDBRANCH   7   8
ENDBRANCH   6   7
ENDBRANCH   5   6
ENDBRANCH   4   5
ENDBRANCH   3   4
ENDBRANCH   2   3
ENDBRANCH   1   2
BRANCH   1  17
ATOM     17  C   UNL     1     -10.104  -2.551 -24.616  1.00  0.00     0.000 C 
BRANCH  17  18
ATOM     18  C   UNL     1      -9.532  -2.056 -25.958  1.00  0.00     0.000 C 
BRANCH  18  19
ATOM     19  C   UNL     1      -8.450  -2.958 -26.587  1.00  0.00     0.000 C 
BRANCH  19  20
ATOM     20  C   UNL     1      -8.354  -2.906 -28.123  1.00  0.00     0.000 C 
BRANCH  20  21
ATOM     21  C   UNL     1      -9.472  -3.695 -28.823  1.00  0.00     0.000 C 
BRANCH  21  22
ATOM     22  C   UNL     1      -9.441  -5.195 -28.485  1.00  0.00    -0.000 C 
BRANCH  22  23
ATOM     23  C   UNL     1     -10.832  -5.761 -28.147  1.00  0.00    -0.000 C 
BRANCH  23  24
ATOM     24  C   UNL     1     -11.299  -5.371 -26.732  1.00  0.00    -0.000 C 
BRANCH  24  25
ATOM     25  C   UNL     1     -12.712  -4.758 -26.663  1.00  0.00    -0.000 C 
BRANCH  25  26
ATOM     26  C   UNL     1     -12.827  -3.318 -27.201  1.00  0.00    -0.000 C 
BRANCH  26  27
ATOM     27  C   UNL     1     -13.555  -3.217 -28.559  1.00  0.00    -0.000 C 
BRANCH  27  28
ATOM     28  C   UNL     1     -12.807  -2.314 -29.556  1.00  0.00    -0.000 C 
BRANCH  28  29
ATOM     29  C   UNL     1     -12.924  -2.814 -31.003  1.00  0.00    -0.003 C 
ATOM     30  C   UNL     1     -12.295  -4.194 -31.205  1.00  0.00     0.004 C 
ENDBRANCH  28  29
ENDBRANCH  27  28
ENDBRANCH  26  27
ENDBRANCH  25  26
ENDBRANCH  24  25
ENDBRANCH  23  24
ENDBRANCH  22  23
ENDBRANCH  21  22
ENDBRANCH  20  21
ENDBRANCH  19  20
ENDBRANCH  18  19
ENDBRANCH  17  18
ENDBRANCH   1  17
TORSDOF 26
ENDMDL
MODEL 7
REMARK VINA RESULT:    -4.682      4.877      9.715
REMARK INTER + INTRA:         -15.218
REMARK INTER:                 -10.638
REMARK INTRA:                  -4.580
REMARK UNBOUND:                -3.419
REMARK SMILES CCCCCCCCCCCCCCCCCCCCCCCCCCCC(=O)[O-]
REMARK SMILES IDX 15 1 16 2 17 3 18 4 19 5 20 6 21 7 22 8 23 9 24 10 25 11
REMARK SMILES IDX 26 12 27 13 28 14 29 15 30 16 14 17 13 18 12 19 11 20 10 21
REMARK SMILES IDX 9 22 8 23 7 24 6 25 5 26 4 27 3 28 2 29 1 30
REMARK H PARENT
REMARK Flexibility Score: inf
ROOT
ATOM      1  C   UNL     1     -12.688  -2.181 -29.799  1.00  0.00     0.000 C 
ENDROOT
BRANCH   1   2
ATOM      2  C   UNL     1     -12.846  -2.520 -31.298  1.00  0.00     0.000 C 
BRANCH   2   3
ATOM      3  C   UNL     1     -13.428  -3.919 -31.563  1.00  0.00     0.000 C 
BRANCH   3   4
ATOM      4  C   UNL     1     -12.386  -4.908 -32.111  1.00  0.00     0.000 C 
BRANCH   4   5
ATOM      5  C   UNL     1     -11.393  -5.377 -31.025  1.00  0.00     0.000 C 
BRANCH   5   6
ATOM      6  C   UNL     1      -9.921  -5.102 -31.382  1.00  0.00     0.000 C 
BRANCH   6   7
ATOM      7  C   UNL     1      -9.489  -3.632 -31.219  1.00  0.00     0.000 C 
BRANCH   7   8
ATOM      8  C   UNL     1      -9.232  -2.871 -32.537  1.00  0.00     0.000 C 
BRANCH   8   9
ATOM      9  C   UNL     1      -9.625  -3.628 -33.819  1.00  0.00     0.000 C 
BRANCH   9  10
ATOM     10  C   UNL     1      -9.805  -2.696 -35.029  1.00  0.00     0.000 C 
BRANCH  10  11
ATOM     11  C   UNL     1     -10.204  -1.269 -34.620  1.00  0.00     0.000 C 
BRANCH  11  12
ATOM     12  C   UNL     1     -11.710  -1.010 -34.783  1.00  0.00     0.006 C 
BRANCH  12  13
ATOM     13  C   UNL     1     -12.141   0.236 -34.003  1.00  0.00     0.053 C 
BRANCH  13  14
ATOM     14  C   UNL     1     -12.454   1.364 -34.935  1.00  0.00     0.041 C 
ATOM     15  O   UNL     1     -13.648   1.727 -35.114  1.00  0.00    -0.550 OA
ATOM     16  O   UNL     1     -11.429   2.014 -35.613  1.00  0.00    -0.550 OA
ENDBRANCH  13  14
ENDBRANCH  12  13
ENDBRANCH  11  12
ENDBRANCH  10  11
ENDBRANCH   9  10
ENDBRANCH   8   9
ENDBRANCH   7   8
ENDBRANCH   6   7
ENDBRANCH   5   6
ENDBRANCH   4   5
ENDBRANCH   3   4
ENDBRANCH   2   3
ENDBRANCH   1   2
BRANCH   1  17
ATOM     17  C   UNL     1     -13.442  -3.172 -28.894  1.00  0.00     0.000 C 
BRANCH  17  18
ATOM     18  C   UNL     1     -12.730  -3.416 -27.550  1.00  0.00     0.000 C 
BRANCH  18  19
ATOM     19  C   UNL     1     -11.746  -4.605 -27.532  1.00  0.00     0.000 C 
BRANCH  19  20
ATOM     20  C   UNL     1     -10.253  -4.230 -27.562  1.00  0.00     0.000 C 
BRANCH  20  21
ATOM     21  C   UNL     1     -10.006  -2.723 -27.382  1.00  0.00     0.000 C 
BRANCH  21  22
ATOM     22  C   UNL     1      -9.340  -2.387 -26.038  1.00  0.00    -0.000 C 
BRANCH  22  23
ATOM     23  C   UNL     1      -8.961  -3.640 -25.228  1.00  0.00    -0.000 C 
BRANCH  23  24
ATOM     24  C   UNL     1      -9.765  -3.761 -23.920  1.00  0.00    -0.000 C 
BRANCH  24  25
ATOM     25  C   UNL     1     -10.998  -4.683 -24.002  1.00  0.00    -0.000 C 
BRANCH  25  26
ATOM     26  C   UNL     1     -12.353  -3.986 -23.768  1.00  0.00    -0.000 C 
BRANCH  26  27
ATOM     27  C   UNL     1     -12.259  -2.447 -23.705  1.00  0.00    -0.000 C 
BRANCH  27  28
ATOM     28  C   UNL     1     -12.576  -1.899 -22.302  1.00  0.00    -0.000 C 
BRANCH  28  29
ATOM     29  C   UNL     1     -11.872  -0.565 -22.019  1.00  0.00    -0.003 C 
ATOM     30  C   UNL     1     -10.550  -0.421 -22.776  1.00  0.00     0.004 C 
ENDBRANCH  28  29
ENDBRANCH  27  28
ENDBRANCH  26  27
ENDBRANCH  25  26
ENDBRANCH  24  25
ENDBRANCH  23  24
ENDBRANCH  22  23
ENDBRANCH  21  22
ENDBRANCH  20  21
ENDBRANCH  19  20
ENDBRANCH  18  19
ENDBRANCH  17  18
ENDBRANCH   1  17
TORSDOF 26
ENDMDL
MODEL 8
REMARK VINA RESULT:    -4.607      4.753      9.374
REMARK INTER + INTRA:         -15.029
REMARK INTER:                 -11.191
REMARK INTRA:                  -3.839
REMARK UNBOUND:                -3.419
REMARK SMILES CCCCCCCCCCCCCCCCCCCCCCCCCCCC(=O)[O-]
REMARK SMILES IDX 15 1 16 2 17 3 18 4 19 5 20 6 21 7 22 8 23 9 24 10 25 11
REMARK SMILES IDX 26 12 27 13 28 14 29 15 30 16 14 17 13 18 12 19 11 20 10 21
REMARK SMILES IDX 9 22 8 23 7 24 6 25 5 26 4 27 3 28 2 29 1 30
REMARK H PARENT
REMARK Flexibility Score: inf
ROOT
ATOM      1  C   UNL     1     -12.997  -4.047 -27.827  1.00  0.00     0.000 C 
ENDROOT
BRANCH   1   2
ATOM      2  C   UNL     1     -14.036  -4.604 -28.827  1.00  0.00     0.000 C 
BRANCH   2   3
ATOM      3  C   UNL     1     -14.094  -3.836 -30.159  1.00  0.00     0.000 C 
BRANCH   3   4
ATOM      4  C   UNL     1     -13.239  -2.558 -30.152  1.00  0.00     0.000 C 
BRANCH   4   5
ATOM      5  C   UNL     1     -12.504  -2.334 -31.491  1.00  0.00     0.000 C 
BRANCH   5   6
ATOM      6  C   UNL     1     -12.355  -3.616 -32.329  1.00  0.00     0.000 C 
BRANCH   6   7
ATOM      7  C   UNL     1     -10.918  -4.168 -32.400  1.00  0.00     0.000 C 
BRANCH   7   8
ATOM      8  C   UNL     1      -9.803  -3.140 -32.109  1.00  0.00     0.000 C 
BRANCH   8   9
ATOM      9  C   UNL     1      -9.281  -2.373 -33.338  1.00  0.00     0.000 C 
BRANCH   9  10
ATOM     10  C   UNL     1      -9.737  -2.996 -34.668  1.00  0.00     0.000 C 
BRANCH  10  11
ATOM     11  C   UNL     1     -10.741  -2.110 -35.420  1.00  0.00     0.000 C 
BRANCH  11  12
ATOM     12  C   UNL     1     -11.083  -0.825 -34.650  1.00  0.00     0.006 C 
BRANCH  12  13
ATOM     13  C   UNL     1     -10.816   0.417 -35.506  1.00  0.00     0.053 C 
BRANCH  13  14
ATOM     14  C   UNL     1     -12.010   1.320 -35.520  1.00  0.00     0.041 C 
ATOM     15  O   UNL     1     -12.175   2.140 -36.463  1.00  0.00    -0.550 OA
ATOM     16  O   UNL     1     -12.938   1.263 -34.487  1.00  0.00    -0.550 OA
ENDBRANCH  13  14
ENDBRANCH  12  13
ENDBRANCH  11  12
ENDBRANCH  10  11
ENDBRANCH   9  10
ENDBRANCH   8   9
ENDBRANCH   7   8
ENDBRANCH   6   7
ENDBRANCH   5   6
ENDBRANCH   4   5
ENDBRANCH   3   4
ENDBRANCH   2   3
ENDBRANCH   1   2
BRANCH   1  17
ATOM     17  C   UNL     1     -11.757  -4.952 -27.710  1.00  0.00     0.000 C 
BRANCH  17  18
ATOM     18  C   UNL     1     -10.538  -4.398 -28.471  1.00  0.00     0.000 C 
BRANCH  18  19
ATOM     19  C   UNL     1     -10.332  -2.872 -28.365  1.00  0.00     0.000 C 
BRANCH  19  20
ATOM     20  C   UNL     1      -9.106  -2.426 -27.548  1.00  0.00     0.000 C 
BRANCH  20  21
ATOM     21  C   UNL     1      -9.441  -2.111 -26.081  1.00  0.00     0.000 C 
BRANCH  21  22
ATOM     22  C   UNL     1      -9.455  -3.366 -25.193  1.00  0.00    -0.000 C 
BRANCH  22  23
ATOM     23  C   UNL     1     -10.477  -3.277 -24.047  1.00  0.00    -0.000 C 
BRANCH  23  24
ATOM     24  C   UNL     1     -11.866  -2.818 -24.530  1.00  0.00    -0.000 C 
BRANCH  24  25
ATOM     25  C   UNL     1     -12.868  -2.491 -23.404  1.00  0.00    -0.000 C 
BRANCH  25  26
ATOM     26  C   UNL     1     -12.234  -2.014 -22.083  1.00  0.00    -0.000 C 
BRANCH  26  27
ATOM     27  C   UNL     1     -12.102  -0.480 -21.974  1.00  0.00    -0.000 C 
BRANCH  27  28
ATOM     28  C   UNL     1     -10.724   0.022 -22.439  1.00  0.00    -0.000 C 
BRANCH  28  29
ATOM     29  C   UNL     1      -9.579  -0.513 -21.568  1.00  0.00    -0.003 C 
ATOM     30  C   UNL     1      -9.731  -0.137 -20.093  1.00  0.00     0.004 C 
ENDBRANCH  28  29
ENDBRANCH  27  28
ENDBRANCH  26  27
ENDBRANCH  25  26
ENDBRANCH  24  25
ENDBRANCH  23  24
ENDBRANCH  22  23
ENDBRANCH  21  22
ENDBRANCH  20  21
ENDBRANCH  19  20
ENDBRANCH  18  19
ENDBRANCH  17  18
ENDBRANCH   1  17
TORSDOF 26
ENDMDL
MODEL 9
REMARK VINA RESULT:    -4.607      4.454      8.546
REMARK INTER + INTRA:         -15.028
REMARK INTER:                 -10.195
REMARK INTRA:                  -4.833
REMARK UNBOUND:                -3.419
REMARK SMILES CCCCCCCCCCCCCCCCCCCCCCCCCCCC(=O)[O-]
REMARK SMILES IDX 15 1 16 2 17 3 18 4 19 5 20 6 21 7 22 8 23 9 24 10 25 11
REMARK SMILES IDX 26 12 27 13 28 14 29 15 30 16 14 17 13 18 12 19 11 20 10 21
REMARK SMILES IDX 9 22 8 23 7 24 6 25 5 26 4 27 3 28 2 29 1 30
REMARK H PARENT
REMARK Flexibility Score: inf
ROOT
ATOM      1  C   UNL     1     -12.958  -2.338 -22.989  1.00  0.00     0.000 C 
ENDROOT
BRANCH   1   2
ATOM      2  C   UNL     1     -12.792  -3.257 -21.758  1.00  0.00     0.000 C 
BRANCH   2   3
ATOM      3  C   UNL     1     -13.634  -4.544 -21.821  1.00  0.00     0.000 C 
BRANCH   3   4
ATOM      4  C   UNL     1     -12.845  -5.750 -22.356  1.00  0.00     0.000 C 
BRANCH   4   5
ATOM      5  C   UNL     1     -11.418  -5.826 -21.770  1.00  0.00     0.000 C 
BRANCH   5   6
ATOM      6  C   UNL     1     -10.314  -5.782 -22.842  1.00  0.00     0.000 C 
BRANCH   6   7
ATOM      7  C   UNL     1      -9.275  -4.662 -22.640  1.00  0.00     0.000 C 
BRANCH   7   8
ATOM      8  C   UNL     1      -8.220  -4.933 -21.547  1.00  0.00     0.000 C 
BRANCH   8   9
ATOM      9  C   UNL     1      -8.282  -3.993 -20.328  1.00  0.00     0.000 C 
BRANCH   9  10
ATOM     10  C   UNL     1      -9.360  -2.906 -20.468  1.00  0.00     0.000 C 
BRANCH  10  11
ATOM     11  C   UNL     1      -8.762  -1.506 -20.677  1.00  0.00     0.000 C 
BRANCH  11  12
ATOM     12  C   UNL     1      -9.718  -0.387 -20.237  1.00  0.00     0.006 C 
BRANCH  12  13
ATOM     13  C   UNL     1     -10.640   0.033 -21.387  1.00  0.00     0.053 C 
BRANCH  13  14
ATOM     14  C   UNL     1      -9.866   0.726 -22.464  1.00  0.00     0.041 C 
ATOM     15  O   UNL     1      -9.074   1.662 -22.173  1.00  0.00    -0.550 OA
ATOM     16  O   UNL     1     -10.022   0.344 -23.791  1.00  0.00    -0.550 OA
ENDBRANCH  13  14
ENDBRANCH  12  13
ENDBRANCH  11  12
ENDBRANCH  10  11
ENDBRANCH   9  10
ENDBRANCH   8   9
ENDBRANCH   7   8
ENDBRANCH   6   7
ENDBRANCH   5   6
ENDBRANCH   4   5
ENDBRANCH   3   4
ENDBRANCH   2   3
ENDBRANCH   1   2
BRANCH   1  17
ATOM     17  C   UNL     1     -11.913  -2.632 -24.081  1.00  0.00     0.000 C 
BRANCH  17  18
ATOM     18  C   UNL     1     -12.546  -3.128 -25.395  1.00  0.00     0.000 C 
BRANCH  18  19
ATOM     19  C   UNL     1     -12.165  -4.564 -25.810  1.00  0.00     0.000 C 
BRANCH  19  20
ATOM     20  C   UNL     1     -12.233  -4.857 -27.319  1.00  0.00     0.000 C 
BRANCH  20  21
ATOM     21  C   UNL     1     -13.672  -4.941 -27.854  1.00  0.00     0.000 C 
BRANCH  21  22
ATOM     22  C   UNL     1     -13.973  -3.873 -28.918  1.00  0.00    -0.000 C 
BRANCH  22  23
ATOM     23  C   UNL     1     -12.865  -2.810 -29.029  1.00  0.00    -0.000 C 
BRANCH  23  24
ATOM     24  C   UNL     1     -12.217  -2.779 -30.426  1.00  0.00    -0.000 C 
BRANCH  24  25
ATOM     25  C   UNL     1     -11.046  -3.765 -30.617  1.00  0.00    -0.000 C 
BRANCH  25  26
ATOM     26  C   UNL     1      -9.649  -3.189 -30.315  1.00  0.00    -0.000 C 
BRANCH  26  27
ATOM     27  C   UNL     1      -9.179  -3.425 -28.864  1.00  0.00    -0.000 C 
BRANCH  27  28
ATOM     28  C   UNL     1      -9.158  -2.126 -28.039  1.00  0.00    -0.000 C 
BRANCH  28  29
ATOM     29  C   UNL     1      -9.157  -2.391 -26.527  1.00  0.00    -0.003 C 
ATOM     30  C   UNL     1      -8.419  -3.678 -26.151  1.00  0.00     0.004 C 
ENDBRANCH  28  29
ENDBRANCH  27  28
ENDBRANCH  26  27
ENDBRANCH  25  26
ENDBRANCH  24  25
ENDBRANCH  23  24
ENDBRANCH  22  23
ENDBRANCH  21  22
ENDBRANCH  20  21
ENDBRANCH  19  20
ENDBRANCH  18  19
ENDBRANCH  17  18
ENDBRANCH   1  17
TORSDOF 26
ENDMDL
