MODEL 1
REMARK VINA RESULT:    -5.587      0.000      0.000
REMARK INTER + INTRA:         -14.218
REMARK INTER:                 -12.120
REMARK INTRA:                  -2.099
REMARK UNBOUND:                -2.099
REMARK SMILES CCCCCCCCCCCCCCCCCCCCCC(=O)[O-]
REMARK SMILES IDX 12 1 11 2 10 3 9 4 8 5 7 6 6 7 5 8 4 9 3 10 2 11 1 12 13 13
REMARK SMILES IDX 14 14 15 15 16 16 17 17 18 18 19 19 20 20 21 21 22 22 23 23
REMARK SMILES IDX 24 24
REMARK H PARENT
REMARK Flexibility Score: inf
ROOT
ATOM      1  C   UNL     1     -10.016  -2.959  -8.203  1.00  0.00     0.000 C 
ENDROOT
BRANCH   1   2
ATOM      2  C   UNL     1      -9.852  -4.490  -8.179  1.00  0.00     0.000 C 
BRANCH   2   3
ATOM      3  C   UNL     1     -10.691  -5.258  -9.218  1.00  0.00     0.000 C 
BRANCH   3   4
ATOM      4  C   UNL     1     -10.956  -6.718  -8.819  1.00  0.00    -0.000 C 
BRANCH   4   5
ATOM      5  C   UNL     1     -12.447  -7.095  -8.901  1.00  0.00    -0.000 C 
BRANCH   5   6
ATOM      6  C   UNL     1     -13.432  -5.908  -8.843  1.00  0.00    -0.000 C 
BRANCH   6   7
ATOM      7  C   UNL     1     -14.730  -6.172  -8.057  1.00  0.00    -0.000 C 
BRANCH   7   8
ATOM      8  C   UNL     1     -14.718  -7.522  -7.324  1.00  0.00    -0.000 C 
BRANCH   8   9
ATOM      9  C   UNL     1     -14.601  -7.324  -5.808  1.00  0.00    -0.000 C 
BRANCH   9  10
ATOM     10  C   UNL     1     -13.134  -7.408  -5.355  1.00  0.00    -0.000 C 
BRANCH  10  11
ATOM     11  C   UNL     1     -12.468  -6.028  -5.252  1.00  0.00    -0.003 C 
ATOM     12  C   UNL     1     -10.943  -6.109  -5.199  1.00  0.00     0.004 C 
ENDBRANCH  10  11
ENDBRANCH   9  10
ENDBRANCH   8   9
ENDBRANCH   7   8
ENDBRANCH   6   7
ENDBRANCH   5   6
ENDBRANCH   4   5
ENDBRANCH   3   4
ENDBRANCH   2   3
ENDBRANCH   1   2
BRANCH   1  13
ATOM     13  C   UNL     1     -10.998  -2.423  -9.263  1.00  0.00     0.000 C 
BRANCH  13  14
ATOM     14  C   UNL     1     -11.002  -0.884  -9.388  1.00  0.00     0.000 C 
BRANCH  14  15
ATOM     15  C   UNL     1     -12.047  -0.376 -10.395  1.00  0.00     0.000 C 
BRANCH  15  16
ATOM     16  C   UNL     1     -13.328  -1.224 -10.394  1.00  0.00     0.000 C 
BRANCH  16  17
ATOM     17  C   UNL     1     -14.590  -0.386 -10.651  1.00  0.00     0.000 C 
BRANCH  17  18
ATOM     18  C   UNL     1     -15.026   0.357  -9.382  1.00  0.00     0.000 C 
BRANCH  18  19
ATOM     19  C   UNL     1     -15.018   1.876  -9.608  1.00  0.00     0.000 C 
BRANCH  19  20
ATOM     20  C   UNL     1     -13.624   2.503  -9.428  1.00  0.00     0.006 C 
BRANCH  20  21
ATOM     21  C   UNL     1     -13.631   3.887  -8.759  1.00  0.00     0.053 C 
BRANCH  21  22
ATOM     22  C   UNL     1     -12.595   3.996  -7.684  1.00  0.00     0.041 C 
ATOM     23  O   UNL     1     -12.933   4.284  -6.504  1.00  0.00    -0.550 OA
ATOM     24  O   UNL     1     -11.253   3.813  -7.991  1.00  0.00    -0.550 OA
ENDBRANCH  21  22
ENDBRANCH  20  21
ENDBRANCH  19  20
ENDBRANCH  18  19
ENDBRANCH  17  18
ENDBRANCH  16  17
ENDBRANCH  15  16
ENDBRANCH  14  15
ENDBRANCH  13  14
ENDBRANCH   1  13
TORSDOF 20
ENDMDL
MODEL 2
REMARK VINA RESULT:    -5.368      3.340      8.118
REMARK INTER + INTRA:         -13.742
REMARK INTER:                 -11.477
REMARK INTRA:                  -2.265
REMARK UNBOUND:                -2.099
REMARK SMILES CCCCCCCCCCCCCCCCCCCCCC(=O)[O-]
REMARK SMILES IDX 12 1 11 2 10 3 9 4 8 5 7 6 6 7 5 8 4 9 3 10 2 11 1 12 13 13
REMARK SMILES IDX 14 14 15 15 16 16 17 17 18 18 19 19 20 20 21 21 22 22 23 23
REMARK SMILES IDX 24 24
REMARK H PARENT
REMARK Flexibility Score: inf
ROOT
ATOM      1  C   UNL     1      -9.950  -2.941  -9.427  1.00  0.00     0.000 C 
ENDROOT
BRANCH   1   2
ATOM      2  C   UNL     1     -10.660  -1.851  -8.604  1.00  0.00     0.000 C 
BRANCH   2   3
ATOM      3  C   UNL     1     -11.133  -0.624  -9.406  1.00  0.00     0.000 C 
BRANCH   3   4
ATOM      4  C   UNL     1     -12.077  -0.988 -10.563  1.00  0.00    -0.000 C 
BRANCH   4   5
ATOM      5  C   UNL     1     -13.277  -1.839 -10.107  1.00  0.00    -0.000 C 
BRANCH   5   6
ATOM      6  C   UNL     1     -14.665  -1.271 -10.472  1.00  0.00    -0.000 C 
BRANCH   6   7
ATOM      7  C   UNL     1     -14.716   0.256 -10.669  1.00  0.00    -0.000 C 
BRANCH   7   8
ATOM      8  C   UNL     1     -14.830   1.023  -9.343  1.00  0.00    -0.000 C 
BRANCH   8   9
ATOM      9  C   UNL     1     -14.367   2.476  -9.507  1.00  0.00    -0.000 C 
BRANCH   9  10
ATOM     10  C   UNL     1     -12.839   2.583  -9.373  1.00  0.00    -0.000 C 
BRANCH  10  11
ATOM     11  C   UNL     1     -12.403   3.811  -8.559  1.00  0.00    -0.003 C 
ATOM     12  C   UNL     1     -13.418   4.200  -7.485  1.00  0.00     0.004 C 
ENDBRANCH  10  11
ENDBRANCH   9  10
ENDBRANCH   8   9
ENDBRANCH   7   8
ENDBRANCH   6   7
ENDBRANCH   5   6
ENDBRANCH   4   5
ENDBRANCH   3   4
ENDBRANCH   2   3
ENDBRANCH   1   2
BRANCH   1  13
ATOM     13  C   UNL     1      -9.119  -3.945  -8.603  1.00  0.00     0.000 C 
BRANCH  13  14
ATOM     14  C   UNL     1      -9.943  -5.125  -8.044  1.00  0.00     0.000 C 
BRANCH  14  15
ATOM     15  C   UNL     1     -10.434  -6.077  -9.148  1.00  0.00     0.000 C 
BRANCH  15  16
ATOM     16  C   UNL     1     -11.896  -6.508  -8.948  1.00  0.00     0.000 C 
BRANCH  16  17
ATOM     17  C   UNL     1     -12.815  -5.326  -8.602  1.00  0.00     0.000 C 
BRANCH  17  18
ATOM     18  C   UNL     1     -14.290  -5.746  -8.639  1.00  0.00     0.000 C 
BRANCH  18  19
ATOM     19  C   UNL     1     -14.520  -7.011  -7.798  1.00  0.00     0.000 C 
BRANCH  19  20
ATOM     20  C   UNL     1     -14.202  -6.806  -6.307  1.00  0.00     0.006 C 
BRANCH  20  21
ATOM     21  C   UNL     1     -13.232  -7.843  -5.716  1.00  0.00     0.053 C 
BRANCH  21  22
ATOM     22  C   UNL     1     -11.866  -7.273  -5.496  1.00  0.00     0.041 C 
ATOM     23  O   UNL     1     -11.729  -6.072  -5.138  1.00  0.00    -0.550 OA
ATOM     24  O   UNL     1     -10.741  -8.058  -5.718  1.00  0.00    -0.550 OA
ENDBRANCH  21  22
ENDBRANCH  20  21
ENDBRANCH  19  20
ENDBRANCH  18  19
ENDBRANCH  17  18
ENDBRANCH  16  17
ENDBRANCH  15  16
ENDBRANCH  14  15
ENDBRANCH  13  14
ENDBRANCH   1  13
TORSDOF 20
ENDMDL
MODEL 3
REMARK VINA RESULT:    -4.759     15.622     19.308
REMARK INTER + INTRA:         -12.423
REMARK INTER:                  -9.211
REMARK INTRA:                  -3.212
REMARK UNBOUND:                -2.099
REMARK SMILES CCCCCCCCCCCCCCCCCCCCCC(=O)[O-]
REMARK SMILES IDX 12 1 11 2 10 3 9 4 8 5 7 6 6 7 5 8 4 9 3 10 2 11 1 12 13 13
REMARK SMILES IDX 14 14 15 15 16 16 17 17 18 18 19 19 20 20 21 21 22 22 23 23
REMARK SMILES IDX 24 24
REMARK H PARENT
REMARK Flexibility Score: inf
ROOT
ATOM      1  C   UNL     1      -8.234   8.805   4.982  1.00  0.00     0.000 C 
ENDROOT
BRANCH   1   2
ATOM      2  C   UNL     1      -6.951   9.574   5.346  1.00  0.00     0.000 C 
BRANCH   2   3
ATOM      3  C   UNL     1      -7.123  11.095   5.525  1.00  0.00     0.000 C 
BRANCH   3   4
ATOM      4  C   UNL     1      -7.221  11.521   6.998  1.00  0.00    -0.000 C 
BRANCH   4   5
ATOM      5  C   UNL     1      -8.670  11.793   7.445  1.00  0.00    -0.000 C 
BRANCH   5   6
ATOM      6  C   UNL     1      -9.697  11.927   6.301  1.00  0.00    -0.000 C 
BRANCH   6   7
ATOM      7  C   UNL     1     -11.082  11.317   6.590  1.00  0.00    -0.000 C 
BRANCH   7   8
ATOM      8  C   UNL     1     -11.647  10.532   5.398  1.00  0.00    -0.000 C 
BRANCH   8   9
ATOM      9  C   UNL     1     -12.835   9.661   5.825  1.00  0.00    -0.000 C 
BRANCH   9  10
ATOM     10  C   UNL     1     -12.366   8.480   6.690  1.00  0.00    -0.000 C 
BRANCH  10  11
ATOM     11  C   UNL     1     -13.267   8.248   7.912  1.00  0.00    -0.003 C 
ATOM     12  C   UNL     1     -13.765   9.552   8.536  1.00  0.00     0.004 C 
ENDBRANCH  10  11
ENDBRANCH   9  10
ENDBRANCH   8   9
ENDBRANCH   7   8
ENDBRANCH   6   7
ENDBRANCH   5   6
ENDBRANCH   4   5
ENDBRANCH   3   4
ENDBRANCH   2   3
ENDBRANCH   1   2
BRANCH   1  13
ATOM     13  C   UNL     1      -8.811   7.925   6.108  1.00  0.00     0.000 C 
BRANCH  13  14
ATOM     14  C   UNL     1      -9.454   6.614   5.608  1.00  0.00     0.000 C 
BRANCH  14  15
ATOM     15  C   UNL     1      -9.336   5.471   6.630  1.00  0.00     0.000 C 
BRANCH  15  16
ATOM     16  C   UNL     1      -9.868   5.862   8.017  1.00  0.00     0.000 C 
BRANCH  16  17
ATOM     17  C   UNL     1     -10.747   4.768   8.641  1.00  0.00     0.000 C 
BRANCH  17  18
ATOM     18  C   UNL     1     -10.989   3.623   7.650  1.00  0.00     0.000 C 
BRANCH  18  19
ATOM     19  C   UNL     1     -12.460   3.580   7.211  1.00  0.00     0.000 C 
BRANCH  19  20
ATOM     20  C   UNL     1     -12.928   4.891   6.554  1.00  0.00     0.006 C 
BRANCH  20  21
ATOM     21  C   UNL     1     -12.701   4.957   5.035  1.00  0.00     0.053 C 
BRANCH  21  22
ATOM     22  C   UNL     1     -13.821   5.655   4.329  1.00  0.00     0.041 C 
ATOM     23  O   UNL     1     -13.970   5.518   3.085  1.00  0.00    -0.550 OA
ATOM     24  O   UNL     1     -14.682   6.482   5.039  1.00  0.00    -0.550 OA
ENDBRANCH  21  22
ENDBRANCH  20  21
ENDBRANCH  19  20
ENDBRANCH  18  19
ENDBRANCH  17  18
ENDBRANCH  16  17
ENDBRANCH  15  16
ENDBRANCH  14  15
ENDBRANCH  13  14
ENDBRANCH   1  13
TORSDOF 20
ENDMDL
MODEL 4
REMARK VINA RESULT:    -4.693     16.068     19.083
REMARK INTER + INTRA:         -12.278
REMARK INTER:                  -9.472
REMARK INTRA:                  -2.807
REMARK UNBOUND:                -2.099
REMARK SMILES CCCCCCCCCCCCCCCCCCCCCC(=O)[O-]
REMARK SMILES IDX 12 1 11 2 10 3 9 4 8 5 7 6 6 7 5 8 4 9 3 10 2 11 1 12 13 13
REMARK SMILES IDX 14 14 15 15 16 16 17 17 18 18 19 19 20 20 21 21 22 22 23 23
REMARK SMILES IDX 24 24
REMARK H PARENT
REMARK Flexibility Score: inf
ROOT
ATOM      1  C   UNL     1     -12.251   4.562   5.186  1.00  0.00     0.000 C 
ENDROOT
BRANCH   1   2
ATOM      2  C   UNL     1     -13.268   5.686   4.915  1.00  0.00     0.000 C 
BRANCH   2   3
ATOM      3  C   UNL     1     -13.634   6.551   6.136  1.00  0.00     0.000 C 
BRANCH   3   4
ATOM      4  C   UNL     1     -13.635   8.057   5.829  1.00  0.00    -0.000 C 
BRANCH   4   5
ATOM      5  C   UNL     1     -12.410   8.784   6.415  1.00  0.00    -0.000 C 
BRANCH   5   6
ATOM      6  C   UNL     1     -12.415  10.319   6.253  1.00  0.00    -0.000 C 
BRANCH   6   7
ATOM      7  C   UNL     1     -11.024  10.970   6.137  1.00  0.00    -0.000 C 
BRANCH   7   8
ATOM      8  C   UNL     1     -10.729  11.495   4.724  1.00  0.00    -0.000 C 
BRANCH   8   9
ATOM      9  C   UNL     1     -12.020  11.917   4.013  1.00  0.00    -0.000 C 
BRANCH   9  10
ATOM     10  C   UNL     1     -11.977  11.536   2.524  1.00  0.00    -0.000 C 
BRANCH  10  11
ATOM     11  C   UNL     1     -13.277  10.872   2.047  1.00  0.00    -0.003 C 
ATOM     12  C   UNL     1     -14.294  10.685   3.172  1.00  0.00     0.004 C 
ENDBRANCH  10  11
ENDBRANCH   9  10
ENDBRANCH   8   9
ENDBRANCH   7   8
ENDBRANCH   6   7
ENDBRANCH   5   6
ENDBRANCH   4   5
ENDBRANCH   3   4
ENDBRANCH   2   3
ENDBRANCH   1   2
BRANCH   1  13
ATOM     13  C   UNL     1     -12.375   3.888   6.566  1.00  0.00     0.000 C 
BRANCH  13  14
ATOM     14  C   UNL     1     -11.020   3.634   7.261  1.00  0.00     0.000 C 
BRANCH  14  15
ATOM     15  C   UNL     1     -10.761   4.607   8.424  1.00  0.00     0.000 C 
BRANCH  15  16
ATOM     16  C   UNL     1     -10.113   5.921   7.960  1.00  0.00     0.000 C 
BRANCH  16  17
ATOM     17  C   UNL     1      -9.230   5.734   6.716  1.00  0.00     0.000 C 
BRANCH  17  18
ATOM     18  C   UNL     1      -9.454   6.867   5.706  1.00  0.00     0.000 C 
BRANCH  18  19
ATOM     19  C   UNL     1      -8.742   8.151   6.158  1.00  0.00     0.000 C 
BRANCH  19  20
ATOM     20  C   UNL     1      -7.965   8.837   5.020  1.00  0.00     0.006 C 
BRANCH  20  21
ATOM     21  C   UNL     1      -7.309  10.171   5.414  1.00  0.00     0.053 C 
BRANCH  21  22
ATOM     22  C   UNL     1      -6.546  10.065   6.697  1.00  0.00     0.041 C 
ATOM     23  O   UNL     1      -5.312   9.809   6.682  1.00  0.00    -0.550 OA
ATOM     24  O   UNL     1      -7.204  10.217   7.911  1.00  0.00    -0.550 OA
ENDBRANCH  21  22
ENDBRANCH  20  21
ENDBRANCH  19  20
ENDBRANCH  18  19
ENDBRANCH  17  18
ENDBRANCH  16  17
ENDBRANCH  15  16
ENDBRANCH  14  15
ENDBRANCH  13  14
ENDBRANCH   1  13
TORSDOF 20
ENDMDL
MODEL 5
REMARK VINA RESULT:    -4.542     16.091     18.488
REMARK INTER + INTRA:         -11.952
REMARK INTER:                  -9.547
REMARK INTRA:                  -2.405
REMARK UNBOUND:                -2.099
REMARK SMILES CCCCCCCCCCCCCCCCCCCCCC(=O)[O-]
REMARK SMILES IDX 12 1 11 2 10 3 9 4 8 5 7 6 6 7 5 8 4 9 3 10 2 11 1 12 13 13
REMARK SMILES IDX 14 14 15 15 16 16 17 17 18 18 19 19 20 20 21 21 22 22 23 23
REMARK SMILES IDX 24 24
REMARK H PARENT
REMARK Flexibility Score: inf
ROOT
ATOM      1  C   UNL     1     -12.765   4.582   8.223  1.00  0.00     0.000 C 
ENDROOT
BRANCH   1   2
ATOM      2  C   UNL     1     -11.344   4.077   8.536  1.00  0.00     0.000 C 
BRANCH   2   3
ATOM      3  C   UNL     1     -10.225   4.684   7.669  1.00  0.00     0.000 C 
BRANCH   3   4
ATOM      4  C   UNL     1     -10.541   4.649   6.166  1.00  0.00    -0.000 C 
BRANCH   4   5
ATOM      5  C   UNL     1      -9.826   5.765   5.381  1.00  0.00    -0.000 C 
BRANCH   5   6
ATOM      6  C   UNL     1      -9.783   7.140   6.082  1.00  0.00    -0.000 C 
BRANCH   6   7
ATOM      7  C   UNL     1      -8.707   8.109   5.557  1.00  0.00    -0.000 C 
BRANCH   7   8
ATOM      8  C   UNL     1      -9.036   9.580   5.851  1.00  0.00    -0.000 C 
BRANCH   8   9
ATOM      9  C   UNL     1      -7.813  10.475   5.618  1.00  0.00    -0.000 C 
BRANCH   9  10
ATOM     10  C   UNL     1      -7.025  10.677   6.922  1.00  0.00    -0.000 C 
BRANCH  10  11
ATOM     11  C   UNL     1      -5.593  10.127   6.838  1.00  0.00    -0.003 C 
ATOM     12  C   UNL     1      -4.832  10.645   5.618  1.00  0.00     0.004 C 
ENDBRANCH  10  11
ENDBRANCH   9  10
ENDBRANCH   8   9
ENDBRANCH   7   8
ENDBRANCH   6   7
ENDBRANCH   5   6
ENDBRANCH   4   5
ENDBRANCH   3   4
ENDBRANCH   2   3
ENDBRANCH   1   2
BRANCH   1  13
ATOM     13  C   UNL     1     -13.109   5.969   8.800  1.00  0.00     0.000 C 
BRANCH  13  14
ATOM     14  C   UNL     1     -13.880   6.879   7.820  1.00  0.00     0.000 C 
BRANCH  14  15
ATOM     15  C   UNL     1     -13.528   6.596   6.350  1.00  0.00     0.000 C 
BRANCH  15  16
ATOM     16  C   UNL     1     -13.638   7.847   5.465  1.00  0.00     0.000 C 
BRANCH  16  17
ATOM     17  C   UNL     1     -12.818   9.027   6.009  1.00  0.00     0.000 C 
BRANCH  17  18
ATOM     18  C   UNL     1     -13.193  10.333   5.299  1.00  0.00     0.000 C 
BRANCH  18  19
ATOM     19  C   UNL     1     -14.392  10.122   4.363  1.00  0.00     0.000 C 
BRANCH  19  20
ATOM     20  C   UNL     1     -14.296  10.950   3.069  1.00  0.00     0.006 C 
BRANCH  20  21
ATOM     21  C   UNL     1     -13.493  10.277   1.944  1.00  0.00     0.053 C 
BRANCH  21  22
ATOM     22  C   UNL     1     -12.275  11.065   1.573  1.00  0.00     0.041 C 
ATOM     23  O   UNL     1     -11.719  10.885   0.457  1.00  0.00    -0.550 OA
ATOM     24  O   UNL     1     -11.737  11.975   2.473  1.00  0.00    -0.550 OA
ENDBRANCH  21  22
ENDBRANCH  20  21
ENDBRANCH  19  20
ENDBRANCH  18  19
ENDBRANCH  17  18
ENDBRANCH  16  17
ENDBRANCH  15  16
ENDBRANCH  14  15
ENDBRANCH  13  14
ENDBRANCH   1  13
TORSDOF 20
ENDMDL
MODEL 6
REMARK VINA RESULT:    -4.527     16.054     18.840
REMARK INTER + INTRA:         -11.918
REMARK INTER:                  -9.139
REMARK INTRA:                  -2.779
REMARK UNBOUND:                -2.099
REMARK SMILES CCCCCCCCCCCCCCCCCCCCCC(=O)[O-]
REMARK SMILES IDX 12 1 11 2 10 3 9 4 8 5 7 6 6 7 5 8 4 9 3 10 2 11 1 12 13 13
REMARK SMILES IDX 14 14 15 15 16 16 17 17 18 18 19 19 20 20 21 21 22 22 23 23
REMARK SMILES IDX 24 24
REMARK H PARENT
REMARK Flexibility Score: inf
ROOT
ATOM      1  C   UNL     1     -11.004   3.497   7.676  1.00  0.00     0.000 C 
ENDROOT
BRANCH   1   2
ATOM      2  C   UNL     1     -11.790   3.550   6.353  1.00  0.00     0.000 C 
BRANCH   2   3
ATOM      3  C   UNL     1     -11.415   4.710   5.411  1.00  0.00     0.000 C 
BRANCH   3   4
ATOM      4  C   UNL     1     -10.056   5.344   5.747  1.00  0.00    -0.000 C 
BRANCH   4   5
ATOM      5  C   UNL     1     -10.170   6.832   6.126  1.00  0.00    -0.000 C 
BRANCH   5   6
ATOM      6  C   UNL     1      -8.833   7.600   6.192  1.00  0.00    -0.000 C 
BRANCH   6   7
ATOM      7  C   UNL     1      -8.712   8.789   5.220  1.00  0.00    -0.000 C 
BRANCH   7   8
ATOM      8  C   UNL     1      -9.532  10.008   5.666  1.00  0.00    -0.000 C 
BRANCH   8   9
ATOM      9  C   UNL     1      -8.654  11.263   5.744  1.00  0.00    -0.000 C 
BRANCH   9  10
ATOM     10  C   UNL     1      -7.216  10.956   5.299  1.00  0.00    -0.000 C 
BRANCH  10  11
ATOM     11  C   UNL     1      -6.209  11.041   6.455  1.00  0.00    -0.003 C 
ATOM     12  C   UNL     1      -4.961  10.191   6.217  1.00  0.00     0.004 C 
ENDBRANCH  10  11
ENDBRANCH   9  10
ENDBRANCH   8   9
ENDBRANCH   7   8
ENDBRANCH   6   7
ENDBRANCH   5   6
ENDBRANCH   4   5
ENDBRANCH   3   4
ENDBRANCH   2   3
ENDBRANCH   1   2
BRANCH   1  13
ATOM     13  C   UNL     1     -11.812   3.880   8.932  1.00  0.00     0.000 C 
BRANCH  13  14
ATOM     14  C   UNL     1     -12.001   5.401   9.112  1.00  0.00     0.000 C 
BRANCH  14  15
ATOM     15  C   UNL     1     -13.449   5.851   8.852  1.00  0.00     0.000 C 
BRANCH  15  16
ATOM     16  C   UNL     1     -13.553   6.867   7.704  1.00  0.00     0.000 C 
BRANCH  16  17
ATOM     17  C   UNL     1     -13.317   8.311   8.173  1.00  0.00     0.000 C 
BRANCH  17  18
ATOM     18  C   UNL     1     -12.939   9.218   6.995  1.00  0.00     0.000 C 
BRANCH  18  19
ATOM     19  C   UNL     1     -13.345   8.578   5.659  1.00  0.00     0.000 C 
BRANCH  19  20
ATOM     20  C   UNL     1     -14.454   9.358   4.933  1.00  0.00     0.006 C 
BRANCH  20  21
ATOM     21  C   UNL     1     -14.091  10.813   4.595  1.00  0.00     0.053 C 
BRANCH  21  22
ATOM     22  C   UNL     1     -13.185  10.905   3.407  1.00  0.00     0.041 C 
ATOM     23  O   UNL     1     -12.024  11.380   3.530  1.00  0.00    -0.550 OA
ATOM     24  O   UNL     1     -13.633  10.496   2.158  1.00  0.00    -0.550 OA
ENDBRANCH  21  22
ENDBRANCH  20  21
ENDBRANCH  19  20
ENDBRANCH  18  19
ENDBRANCH  17  18
ENDBRANCH  16  17
ENDBRANCH  15  16
ENDBRANCH  14  15
ENDBRANCH  13  14
ENDBRANCH   1  13
TORSDOF 20
ENDMDL
MODEL 7
REMARK VINA RESULT:    -4.509     15.738     19.208
REMARK INTER + INTRA:         -11.878
REMARK INTER:                  -8.742
REMARK INTRA:                  -3.137
REMARK UNBOUND:                -2.099
REMARK SMILES CCCCCCCCCCCCCCCCCCCCCC(=O)[O-]
REMARK SMILES IDX 12 1 11 2 10 3 9 4 8 5 7 6 6 7 5 8 4 9 3 10 2 11 1 12 13 13
REMARK SMILES IDX 14 14 15 15 16 16 17 17 18 18 19 19 20 20 21 21 22 22 23 23
REMARK SMILES IDX 24 24
REMARK H PARENT
REMARK Flexibility Score: inf
ROOT
ATOM      1  C   UNL     1      -9.190   6.825   5.343  1.00  0.00     0.000 C 
ENDROOT
BRANCH   1   2
ATOM      2  C   UNL     1      -9.311   8.119   6.171  1.00  0.00     0.000 C 
BRANCH   2   3
ATOM      3  C   UNL     1      -7.976   8.804   6.518  1.00  0.00     0.000 C 
BRANCH   3   4
ATOM      4  C   UNL     1      -7.328   9.507   5.315  1.00  0.00    -0.000 C 
BRANCH   4   5
ATOM      5  C   UNL     1      -7.540  11.033   5.331  1.00  0.00    -0.000 C 
BRANCH   5   6
ATOM      6  C   UNL     1      -8.572  11.543   6.358  1.00  0.00    -0.000 C 
BRANCH   6   7
ATOM      7  C   UNL     1      -9.987  11.788   5.799  1.00  0.00    -0.000 C 
BRANCH   7   8
ATOM      8  C   UNL     1     -11.094  11.356   6.772  1.00  0.00    -0.000 C 
BRANCH   8   9
ATOM      9  C   UNL     1     -12.451  11.275   6.062  1.00  0.00    -0.000 C 
BRANCH   9  10
ATOM     10  C   UNL     1     -12.268  10.994   4.561  1.00  0.00    -0.000 C 
BRANCH  10  11
ATOM     11  C   UNL     1     -13.533  10.412   3.912  1.00  0.00    -0.003 C 
ATOM     12  C   UNL     1     -13.702  10.843   2.456  1.00  0.00     0.004 C 
ENDBRANCH  10  11
ENDBRANCH   9  10
ENDBRANCH   8   9
ENDBRANCH   7   8
ENDBRANCH   6   7
ENDBRANCH   5   6
ENDBRANCH   4   5
ENDBRANCH   3   4
ENDBRANCH   2   3
ENDBRANCH   1   2
BRANCH   1  13
ATOM     13  C   UNL     1      -9.405   5.520   6.134  1.00  0.00     0.000 C 
BRANCH  13  14
ATOM     14  C   UNL     1      -9.987   5.737   7.547  1.00  0.00     0.000 C 
BRANCH  14  15
ATOM     15  C   UNL     1     -10.576   4.449   8.147  1.00  0.00     0.000 C 
BRANCH  15  16
ATOM     16  C   UNL     1     -12.022   4.631   8.633  1.00  0.00     0.000 C 
BRANCH  16  17
ATOM     17  C   UNL     1     -12.316   6.072   9.078  1.00  0.00     0.000 C 
BRANCH  17  18
ATOM     18  C   UNL     1     -13.555   6.628   8.365  1.00  0.00     0.000 C 
BRANCH  18  19
ATOM     19  C   UNL     1     -13.188   7.839   7.495  1.00  0.00     0.000 C 
BRANCH  19  20
ATOM     20  C   UNL     1     -12.853   7.456   6.043  1.00  0.00     0.006 C 
BRANCH  20  21
ATOM     21  C   UNL     1     -13.992   6.746   5.294  1.00  0.00     0.053 C 
BRANCH  21  22
ATOM     22  C   UNL     1     -13.507   5.554   4.531  1.00  0.00     0.041 C 
ATOM     23  O   UNL     1     -13.903   5.350   3.352  1.00  0.00    -0.550 OA
ATOM     24  O   UNL     1     -12.641   4.649   5.133  1.00  0.00    -0.550 OA
ENDBRANCH  21  22
ENDBRANCH  20  21
ENDBRANCH  19  20
ENDBRANCH  18  19
ENDBRANCH  17  18
ENDBRANCH  16  17
ENDBRANCH  15  16
ENDBRANCH  14  15
ENDBRANCH  13  14
ENDBRANCH   1  13
TORSDOF 20
ENDMDL
MODEL 8
REMARK VINA RESULT:    -4.461     16.255     19.383
REMARK INTER + INTRA:         -11.776
REMARK INTER:                  -7.995
REMARK INTRA:                  -3.781
REMARK UNBOUND:                -2.099
REMARK SMILES CCCCCCCCCCCCCCCCCCCCCC(=O)[O-]
REMARK SMILES IDX 12 1 11 2 10 3 9 4 8 5 7 6 6 7 5 8 4 9 3 10 2 11 1 12 13 13
REMARK SMILES IDX 14 14 15 15 16 16 17 17 18 18 19 19 20 20 21 21 22 22 23 23
REMARK SMILES IDX 24 24
REMARK H PARENT
REMARK Flexibility Score: inf
ROOT
ATOM      1  C   UNL     1     -10.731   5.017   5.380  1.00  0.00     0.000 C 
ENDROOT
BRANCH   1   2
ATOM      2  C   UNL     1      -9.470   5.379   6.188  1.00  0.00     0.000 C 
BRANCH   2   3
ATOM      3  C   UNL     1      -9.469   6.788   6.809  1.00  0.00     0.000 C 
BRANCH   3   4
ATOM      4  C   UNL     1      -9.327   7.907   5.766  1.00  0.00    -0.000 C 
BRANCH   4   5
ATOM      5  C   UNL     1     -10.172   9.149   6.106  1.00  0.00    -0.000 C 
BRANCH   5   6
ATOM      6  C   UNL     1      -9.893  10.395   5.238  1.00  0.00    -0.000 C 
BRANCH   6   7
ATOM      7  C   UNL     1     -10.024  11.744   5.969  1.00  0.00    -0.000 C 
BRANCH   7   8
ATOM      8  C   UNL     1      -9.318  11.754   7.332  1.00  0.00    -0.000 C 
BRANCH   8   9
ATOM      9  C   UNL     1      -7.796  11.841   7.164  1.00  0.00    -0.000 C 
BRANCH   9  10
ATOM     10  C   UNL     1      -7.107  10.594   7.741  1.00  0.00    -0.000 C 
BRANCH  10  11
ATOM     11  C   UNL     1      -6.269   9.845   6.694  1.00  0.00    -0.003 C 
ATOM     12  C   UNL     1      -6.234  10.559   5.343  1.00  0.00     0.004 C 
ENDBRANCH  10  11
ENDBRANCH   9  10
ENDBRANCH   8   9
ENDBRANCH   7   8
ENDBRANCH   6   7
ENDBRANCH   5   6
ENDBRANCH   4   5
ENDBRANCH   3   4
ENDBRANCH   2   3
ENDBRANCH   1   2
BRANCH   1  13
ATOM     13  C   UNL     1     -11.654   3.976   6.041  1.00  0.00     0.000 C 
BRANCH  13  14
ATOM     14  C   UNL     1     -11.169   3.504   7.428  1.00  0.00     0.000 C 
BRANCH  14  15
ATOM     15  C   UNL     1     -12.129   3.911   8.560  1.00  0.00     0.000 C 
BRANCH  15  16
ATOM     16  C   UNL     1     -13.035   5.089   8.168  1.00  0.00     0.000 C 
BRANCH  16  17
ATOM     17  C   UNL     1     -12.550   6.424   8.755  1.00  0.00     0.000 C 
BRANCH  17  18
ATOM     18  C   UNL     1     -13.076   7.609   7.935  1.00  0.00     0.000 C 
BRANCH  18  19
ATOM     19  C   UNL     1     -13.364   7.188   6.486  1.00  0.00     0.000 C 
BRANCH  19  20
ATOM     20  C   UNL     1     -13.897   8.343   5.620  1.00  0.00     0.006 C 
BRANCH  20  21
ATOM     21  C   UNL     1     -13.793   9.729   6.277  1.00  0.00     0.053 C 
BRANCH  21  22
ATOM     22  C   UNL     1     -13.621  10.819   5.265  1.00  0.00     0.041 C 
ATOM     23  O   UNL     1     -13.861  12.016   5.575  1.00  0.00    -0.550 OA
ATOM     24  O   UNL     1     -13.228  10.508   3.970  1.00  0.00    -0.550 OA
ENDBRANCH  21  22
ENDBRANCH  20  21
ENDBRANCH  19  20
ENDBRANCH  18  19
ENDBRANCH  17  18
ENDBRANCH  16  17
ENDBRANCH  15  16
ENDBRANCH  14  15
ENDBRANCH  13  14
ENDBRANCH   1  13
TORSDOF 20
ENDMDL
MODEL 9
REMARK VINA RESULT:    -4.441     16.621     19.137
REMARK INTER + INTRA:         -11.731
REMARK INTER:                  -9.244
REMARK INTRA:                  -2.488
REMARK UNBOUND:                -2.099
REMARK SMILES CCCCCCCCCCCCCCCCCCCCCC(=O)[O-]
REMARK SMILES IDX 12 1 11 2 10 3 9 4 8 5 7 6 6 7 5 8 4 9 3 10 2 11 1 12 13 13
REMARK SMILES IDX 14 14 15 15 16 16 17 17 18 18 19 19 20 20 21 21 22 22 23 23
REMARK SMILES IDX 24 24
REMARK H PARENT
REMARK Flexibility Score: inf
ROOT
ATOM      1  C   UNL     1     -12.145   4.046   9.027  1.00  0.00     0.000 C 
ENDROOT
BRANCH   1   2
ATOM      2  C   UNL     1     -13.235   4.983   8.474  1.00  0.00     0.000 C 
BRANCH   2   3
ATOM      3  C   UNL     1     -13.207   6.421   9.024  1.00  0.00     0.000 C 
BRANCH   3   4
ATOM      4  C   UNL     1     -12.916   7.474   7.943  1.00  0.00    -0.000 C 
BRANCH   4   5
ATOM      5  C   UNL     1     -13.316   7.005   6.532  1.00  0.00    -0.000 C 
BRANCH   5   6
ATOM      6  C   UNL     1     -13.504   8.130   5.492  1.00  0.00    -0.000 C 
BRANCH   6   7
ATOM      7  C   UNL     1     -14.137   9.425   6.036  1.00  0.00    -0.000 C 
BRANCH   7   8
ATOM      8  C   UNL     1     -13.233  10.652   5.849  1.00  0.00    -0.000 C 
BRANCH   8   9
ATOM      9  C   UNL     1     -12.765  10.775   4.393  1.00  0.00    -0.000 C 
BRANCH   9  10
ATOM     10  C   UNL     1     -13.945  11.099   3.463  1.00  0.00    -0.000 C 
BRANCH  10  11
ATOM     11  C   UNL     1     -13.690  10.662   2.012  1.00  0.00    -0.003 C 
ATOM     12  C   UNL     1     -12.305  11.065   1.508  1.00  0.00     0.004 C 
ENDBRANCH  10  11
ENDBRANCH   9  10
ENDBRANCH   8   9
ENDBRANCH   7   8
ENDBRANCH   6   7
ENDBRANCH   5   6
ENDBRANCH   4   5
ENDBRANCH   3   4
ENDBRANCH   2   3
ENDBRANCH   1   2
BRANCH   1  13
ATOM     13  C   UNL     1     -11.065   3.628   8.010  1.00  0.00     0.000 C 
BRANCH  13  14
ATOM     14  C   UNL     1     -10.252   4.811   7.443  1.00  0.00     0.000 C 
BRANCH  14  15
ATOM     15  C   UNL     1     -10.435   4.979   5.924  1.00  0.00     0.000 C 
BRANCH  15  16
ATOM     16  C   UNL     1      -9.530   6.075   5.339  1.00  0.00     0.000 C 
BRANCH  16  17
ATOM     17  C   UNL     1      -9.608   7.388   6.133  1.00  0.00     0.000 C 
BRANCH  17  18
ATOM     18  C   UNL     1      -8.774   8.487   5.464  1.00  0.00     0.000 C 
BRANCH  18  19
ATOM     19  C   UNL     1      -9.375   9.874   5.738  1.00  0.00     0.000 C 
BRANCH  19  20
ATOM     20  C   UNL     1      -8.344  11.009   5.611  1.00  0.00     0.006 C 
BRANCH  20  21
ATOM     21  C   UNL     1      -6.904  10.535   5.356  1.00  0.00     0.053 C 
BRANCH  21  22
ATOM     22  C   UNL     1      -6.114  10.433   6.622  1.00  0.00     0.041 C 
ATOM     23  O   UNL     1      -4.976   9.891   6.618  1.00  0.00    -0.550 OA
ATOM     24  O   UNL     1      -6.646  10.907   7.814  1.00  0.00    -0.550 OA
ENDBRANCH  21  22
ENDBRANCH  20  21
ENDBRANCH  19  20
ENDBRANCH  18  19
ENDBRANCH  17  18
ENDBRANCH  16  17
ENDBRANCH  15  16
ENDBRANCH  14  15
ENDBRANCH  13  14
ENDBRANCH   1  13
TORSDOF 20
ENDMDL
