MODEL 1
REMARK VINA RESULT:    -3.886      0.000      0.000
REMARK INTER + INTRA:         -10.086
REMARK INTER:                  -7.520
REMARK INTRA:                  -2.566
REMARK UNBOUND:                -2.566
REMARK SMILES CCCCCCCCCCCCCCCCCC(=O)[O-]
REMARK SMILES IDX 10 1 11 2 12 3 13 4 14 5 15 6 16 7 17 8 18 9 19 10 20 11
REMARK SMILES IDX 9 12 8 13 7 14 6 15 5 16 4 17 3 18 2 19 1 20
REMARK H PARENT
REMARK Flexibility Score: inf
ROOT
ATOM      1  C   UNL     1     186.003 182.974 198.608  1.00  0.00     0.000 C 
ENDROOT
BRANCH   1   2
ATOM      2  C   UNL     1     186.609 181.604 198.958  1.00  0.00     0.000 C 
BRANCH   2   3
ATOM      3  C   UNL     1     185.615 180.693 199.698  1.00  0.00     0.000 C 
BRANCH   3   4
ATOM      4  C   UNL     1     185.954 180.541 201.191  1.00  0.00     0.000 C 
BRANCH   4   5
ATOM      5  C   UNL     1     184.752 180.844 202.104  1.00  0.00     0.000 C 
BRANCH   5   6
ATOM      6  C   UNL     1     183.457 181.098 201.315  1.00  0.00     0.000 C 
BRANCH   6   7
ATOM      7  C   UNL     1     182.418 181.890 202.125  1.00  0.00     0.006 C 
BRANCH   7   8
ATOM      8  C   UNL     1     181.156 182.197 201.306  1.00  0.00     0.053 C 
BRANCH   8   9
ATOM      9  C   UNL     1     180.777 183.643 201.390  1.00  0.00     0.041 C 
ATOM     10  O   UNL     1     181.529 184.463 201.980  1.00  0.00    -0.550 OA
ATOM     11  O   UNL     1     179.578 184.081 200.842  1.00  0.00    -0.550 OA
ENDBRANCH   8   9
ENDBRANCH   7   8
ENDBRANCH   6   7
ENDBRANCH   5   6
ENDBRANCH   4   5
ENDBRANCH   3   4
ENDBRANCH   2   3
ENDBRANCH   1   2
BRANCH   1  12
ATOM     12  C   UNL     1     186.036 183.957 199.793  1.00  0.00     0.000 C 
BRANCH  12  13
ATOM     13  C   UNL     1     184.652 184.545 200.110  1.00  0.00    -0.000 C 
BRANCH  13  14
ATOM     14  C   UNL     1     183.572 184.075 199.124  1.00  0.00    -0.000 C 
BRANCH  14  15
ATOM     15  C   UNL     1     182.853 185.270 198.487  1.00  0.00    -0.000 C 
BRANCH  15  16
ATOM     16  C   UNL     1     183.841 186.159 197.717  1.00  0.00    -0.000 C 
BRANCH  16  17
ATOM     17  C   UNL     1     183.316 187.590 197.501  1.00  0.00    -0.000 C 
BRANCH  17  18
ATOM     18  C   UNL     1     183.274 188.470 198.768  1.00  0.00    -0.000 C 
BRANCH  18  19
ATOM     19  C   UNL     1     184.508 188.355 199.679  1.00  0.00    -0.003 C 
ATOM     20  C   UNL     1     184.159 187.936 201.106  1.00  0.00     0.004 C 
ENDBRANCH  18  19
ENDBRANCH  17  18
ENDBRANCH  16  17
ENDBRANCH  15  16
ENDBRANCH  14  15
ENDBRANCH  13  14
ENDBRANCH  12  13
ENDBRANCH   1  12
TORSDOF 16
ENDMDL
MODEL 2
REMARK VINA RESULT:    -3.773      3.057      5.304
REMARK INTER + INTRA:          -9.868
REMARK INTER:                  -7.304
REMARK INTRA:                  -2.564
REMARK UNBOUND:                -2.566
REMARK SMILES CCCCCCCCCCCCCCCCCC(=O)[O-]
REMARK SMILES IDX 10 1 11 2 12 3 13 4 14 5 15 6 16 7 17 8 18 9 19 10 20 11
REMARK SMILES IDX 9 12 8 13 7 14 6 15 5 16 4 17 3 18 2 19 1 20
REMARK H PARENT
REMARK Flexibility Score: inf
ROOT
ATOM      1  C   UNL     1     185.990 180.375 199.776  1.00  0.00     0.000 C 
ENDROOT
BRANCH   1   2
ATOM      2  C   UNL     1     186.669 181.657 199.266  1.00  0.00     0.000 C 
BRANCH   2   3
ATOM      3  C   UNL     1     186.860 182.704 200.377  1.00  0.00     0.000 C 
BRANCH   3   4
ATOM      4  C   UNL     1     185.893 183.891 200.241  1.00  0.00     0.000 C 
BRANCH   4   5
ATOM      5  C   UNL     1     184.967 183.763 199.017  1.00  0.00     0.000 C 
BRANCH   5   6
ATOM      6  C   UNL     1     185.067 184.971 198.070  1.00  0.00     0.000 C 
BRANCH   6   7
ATOM      7  C   UNL     1     186.320 185.824 198.333  1.00  0.00     0.006 C 
BRANCH   7   8
ATOM      8  C   UNL     1     186.001 187.325 198.367  1.00  0.00     0.053 C 
BRANCH   8   9
ATOM      9  C   UNL     1     187.159 188.127 198.877  1.00  0.00     0.041 C 
ATOM     10  O   UNL     1     188.205 187.549 199.276  1.00  0.00    -0.550 OA
ATOM     11  O   UNL     1     187.071 189.512 198.940  1.00  0.00    -0.550 OA
ENDBRANCH   8   9
ENDBRANCH   7   8
ENDBRANCH   6   7
ENDBRANCH   5   6
ENDBRANCH   4   5
ENDBRANCH   3   4
ENDBRANCH   2   3
ENDBRANCH   1   2
BRANCH   1  12
ATOM     12  C   UNL     1     185.934 180.305 201.313  1.00  0.00     0.000 C 
BRANCH  12  13
ATOM     13  C   UNL     1     184.507 180.087 201.841  1.00  0.00    -0.000 C 
BRANCH  13  14
ATOM     14  C   UNL     1     183.759 181.406 202.081  1.00  0.00    -0.000 C 
BRANCH  14  15
ATOM     15  C   UNL     1     182.510 181.498 201.196  1.00  0.00    -0.000 C 
BRANCH  15  16
ATOM     16  C   UNL     1     181.682 182.745 201.540  1.00  0.00    -0.000 C 
BRANCH  16  17
ATOM     17  C   UNL     1     182.549 183.933 201.993  1.00  0.00    -0.000 C 
BRANCH  17  18
ATOM     18  C   UNL     1     182.244 185.272 201.288  1.00  0.00    -0.000 C 
BRANCH  18  19
ATOM     19  C   UNL     1     183.383 186.305 201.336  1.00  0.00    -0.003 C 
ATOM     20  C   UNL     1     183.066 187.578 200.552  1.00  0.00     0.004 C 
ENDBRANCH  18  19
ENDBRANCH  17  18
ENDBRANCH  16  17
ENDBRANCH  15  16
ENDBRANCH  14  15
ENDBRANCH  13  14
ENDBRANCH  12  13
ENDBRANCH   1  12
TORSDOF 16
ENDMDL
MODEL 3
REMARK VINA RESULT:    -3.746      1.563      2.488
REMARK INTER + INTRA:          -9.816
REMARK INTER:                  -7.731
REMARK INTRA:                  -2.086
REMARK UNBOUND:                -2.566
REMARK SMILES CCCCCCCCCCCCCCCCCC(=O)[O-]
REMARK SMILES IDX 10 1 11 2 12 3 13 4 14 5 15 6 16 7 17 8 18 9 19 10 20 11
REMARK SMILES IDX 9 12 8 13 7 14 6 15 5 16 4 17 3 18 2 19 1 20
REMARK H PARENT
REMARK Flexibility Score: inf
ROOT
ATOM      1  C   UNL     1     185.983 182.457 198.693  1.00  0.00     0.000 C 
ENDROOT
BRANCH   1   2
ATOM      2  C   UNL     1     186.693 181.150 199.082  1.00  0.00     0.000 C 
BRANCH   2   3
ATOM      3  C   UNL     1     185.790 180.209 199.898  1.00  0.00     0.000 C 
BRANCH   3   4
ATOM      4  C   UNL     1     185.979 180.379 201.414  1.00  0.00     0.000 C 
BRANCH   4   5
ATOM      5  C   UNL     1     184.812 181.134 202.076  1.00  0.00     0.000 C 
BRANCH   5   6
ATOM      6  C   UNL     1     183.539 181.129 201.213  1.00  0.00     0.000 C 
BRANCH   6   7
ATOM      7  C   UNL     1     182.452 182.071 201.759  1.00  0.00     0.006 C 
BRANCH   7   8
ATOM      8  C   UNL     1     181.104 181.870 201.053  1.00  0.00     0.053 C 
BRANCH   8   9
ATOM      9  C   UNL     1     180.537 183.166 200.561  1.00  0.00     0.041 C 
ATOM     10  O   UNL     1     180.412 184.143 201.346  1.00  0.00    -0.550 OA
ATOM     11  O   UNL     1     180.119 183.286 199.242  1.00  0.00    -0.550 OA
ENDBRANCH   8   9
ENDBRANCH   7   8
ENDBRANCH   6   7
ENDBRANCH   5   6
ENDBRANCH   4   5
ENDBRANCH   3   4
ENDBRANCH   2   3
ENDBRANCH   1   2
BRANCH   1  12
ATOM     12  C   UNL     1     186.264 183.602 199.684  1.00  0.00     0.000 C 
BRANCH  12  13
ATOM     13  C   UNL     1     185.049 184.522 199.882  1.00  0.00    -0.000 C 
BRANCH  13  14
ATOM     14  C   UNL     1     183.885 184.173 198.942  1.00  0.00    -0.000 C 
BRANCH  14  15
ATOM     15  C   UNL     1     182.927 185.361 198.790  1.00  0.00    -0.000 C 
BRANCH  15  16
ATOM     16  C   UNL     1     183.599 186.516 198.033  1.00  0.00    -0.000 C 
BRANCH  16  17
ATOM     17  C   UNL     1     183.620 186.300 196.509  1.00  0.00    -0.000 C 
BRANCH  17  18
ATOM     18  C   UNL     1     185.020 186.354 195.860  1.00  0.00    -0.000 C 
BRANCH  18  19
ATOM     19  C   UNL     1     185.026 186.675 194.355  1.00  0.00    -0.003 C 
ATOM     20  C   UNL     1     185.883 185.706 193.543  1.00  0.00     0.004 C 
ENDBRANCH  18  19
ENDBRANCH  17  18
ENDBRANCH  16  17
ENDBRANCH  15  16
ENDBRANCH  14  15
ENDBRANCH  13  14
ENDBRANCH  12  13
ENDBRANCH   1  12
TORSDOF 16
ENDMDL
MODEL 4
REMARK VINA RESULT:    -3.713      2.723      5.477
REMARK INTER + INTRA:          -9.752
REMARK INTER:                  -7.670
REMARK INTRA:                  -2.082
REMARK UNBOUND:                -2.566
REMARK SMILES CCCCCCCCCCCCCCCCCC(=O)[O-]
REMARK SMILES IDX 10 1 11 2 12 3 13 4 14 5 15 6 16 7 17 8 18 9 19 10 20 11
REMARK SMILES IDX 9 12 8 13 7 14 6 15 5 16 4 17 3 18 2 19 1 20
REMARK H PARENT
REMARK Flexibility Score: inf
ROOT
ATOM      1  C   UNL     1     186.596 180.962 199.302  1.00  0.00     0.000 C 
ENDROOT
BRANCH   1   2
ATOM      2  C   UNL     1     187.132 182.029 200.270  1.00  0.00     0.000 C 
BRANCH   2   3
ATOM      3  C   UNL     1     186.480 183.405 200.049  1.00  0.00     0.000 C 
BRANCH   3   4
ATOM      4  C   UNL     1     185.483 183.404 198.879  1.00  0.00     0.000 C 
BRANCH   4   5
ATOM      5  C   UNL     1     184.201 184.198 199.191  1.00  0.00     0.000 C 
BRANCH   5   6
ATOM      6  C   UNL     1     184.444 185.347 200.183  1.00  0.00     0.000 C 
BRANCH   6   7
ATOM      7  C   UNL     1     184.938 186.629 199.491  1.00  0.00     0.006 C 
BRANCH   7   8
ATOM      8  C   UNL     1     185.475 187.659 200.494  1.00  0.00     0.053 C 
BRANCH   8   9
ATOM      9  C   UNL     1     185.914 188.920 199.815  1.00  0.00     0.041 C 
ATOM     10  O   UNL     1     185.434 189.237 198.694  1.00  0.00    -0.550 OA
ATOM     11  O   UNL     1     186.873 189.731 200.407  1.00  0.00    -0.550 OA
ENDBRANCH   8   9
ENDBRANCH   7   8
ENDBRANCH   6   7
ENDBRANCH   5   6
ENDBRANCH   4   5
ENDBRANCH   3   4
ENDBRANCH   2   3
ENDBRANCH   1   2
BRANCH   1  12
ATOM     12  C   UNL     1     185.617 179.985 199.978  1.00  0.00     0.000 C 
BRANCH  12  13
ATOM     13  C   UNL     1     185.651 180.083 201.511  1.00  0.00    -0.000 C 
BRANCH  13  14
ATOM     14  C   UNL     1     184.257 180.296 202.120  1.00  0.00    -0.000 C 
BRANCH  14  15
ATOM     15  C   UNL     1     183.817 181.758 201.986  1.00  0.00    -0.000 C 
BRANCH  15  16
ATOM     16  C   UNL     1     182.293 181.889 202.119  1.00  0.00    -0.000 C 
BRANCH  16  17
ATOM     17  C   UNL     1     181.782 183.304 201.793  1.00  0.00    -0.000 C 
BRANCH  17  18
ATOM     18  C   UNL     1     180.423 183.357 201.062  1.00  0.00    -0.000 C 
BRANCH  18  19
ATOM     19  C   UNL     1     180.231 184.570 200.136  1.00  0.00    -0.003 C 
ATOM     20  C   UNL     1     180.907 185.835 200.663  1.00  0.00     0.004 C 
ENDBRANCH  18  19
ENDBRANCH  17  18
ENDBRANCH  16  17
ENDBRANCH  15  16
ENDBRANCH  14  15
ENDBRANCH  13  14
ENDBRANCH  12  13
ENDBRANCH   1  12
TORSDOF 16
ENDMDL
MODEL 5
REMARK VINA RESULT:    -3.689      2.325      4.682
REMARK INTER + INTRA:          -9.706
REMARK INTER:                  -7.374
REMARK INTRA:                  -2.333
REMARK UNBOUND:                -2.566
REMARK SMILES CCCCCCCCCCCCCCCCCC(=O)[O-]
REMARK SMILES IDX 10 1 11 2 12 3 13 4 14 5 15 6 16 7 17 8 18 9 19 10 20 11
REMARK SMILES IDX 9 12 8 13 7 14 6 15 5 16 4 17 3 18 2 19 1 20
REMARK H PARENT
REMARK Flexibility Score: inf
ROOT
ATOM      1  C   UNL     1     184.220 180.375 202.048  1.00  0.00     0.000 C 
ENDROOT
BRANCH   1   2
ATOM      2  C   UNL     1     183.119 181.115 201.269  1.00  0.00     0.000 C 
BRANCH   2   3
ATOM      3  C   UNL     1     182.445 182.216 202.106  1.00  0.00     0.000 C 
BRANCH   3   4
ATOM      4  C   UNL     1     181.527 183.117 201.263  1.00  0.00     0.000 C 
BRANCH   4   5
ATOM      5  C   UNL     1     181.812 184.616 201.474  1.00  0.00     0.000 C 
BRANCH   5   6
ATOM      6  C   UNL     1     181.462 185.464 200.241  1.00  0.00     0.000 C 
BRANCH   6   7
ATOM      7  C   UNL     1     181.521 184.656 198.933  1.00  0.00     0.006 C 
BRANCH   7   8
ATOM      8  C   UNL     1     182.071 185.486 197.765  1.00  0.00     0.053 C 
BRANCH   8   9
ATOM      9  C   UNL     1     180.985 185.913 196.827  1.00  0.00     0.041 C 
ATOM     10  O   UNL     1     180.044 185.124 196.544  1.00  0.00    -0.550 OA
ATOM     11  O   UNL     1     181.026 187.172 196.242  1.00  0.00    -0.550 OA
ENDBRANCH   8   9
ENDBRANCH   7   8
ENDBRANCH   6   7
ENDBRANCH   5   6
ENDBRANCH   4   5
ENDBRANCH   3   4
ENDBRANCH   2   3
ENDBRANCH   1   2
BRANCH   1  12
ATOM     12  C   UNL     1     185.475 180.114 201.196  1.00  0.00     0.000 C 
BRANCH  12  13
ATOM     13  C   UNL     1     186.664 180.995 201.612  1.00  0.00    -0.000 C 
BRANCH  13  14
ATOM     14  C   UNL     1     187.304 181.724 200.421  1.00  0.00    -0.000 C 
BRANCH  14  15
ATOM     15  C   UNL     1     186.593 181.363 199.111  1.00  0.00    -0.000 C 
BRANCH  15  16
ATOM     16  C   UNL     1     186.050 182.620 198.415  1.00  0.00    -0.000 C 
BRANCH  16  17
ATOM     17  C   UNL     1     184.914 183.297 199.203  1.00  0.00    -0.000 C 
BRANCH  17  18
ATOM     18  C   UNL     1     185.229 184.721 199.710  1.00  0.00    -0.000 C 
BRANCH  18  19
ATOM     19  C   UNL     1     186.359 185.444 198.957  1.00  0.00    -0.003 C 
ATOM     20  C   UNL     1     187.206 186.334 199.865  1.00  0.00     0.004 C 
ENDBRANCH  18  19
ENDBRANCH  17  18
ENDBRANCH  16  17
ENDBRANCH  15  16
ENDBRANCH  14  15
ENDBRANCH  13  14
ENDBRANCH  12  13
ENDBRANCH   1  12
TORSDOF 16
ENDMDL
MODEL 6
REMARK VINA RESULT:    -3.674     11.648     14.563
REMARK INTER + INTRA:          -9.675
REMARK INTER:                  -6.832
REMARK INTRA:                  -2.843
REMARK UNBOUND:                -2.566
REMARK SMILES CCCCCCCCCCCCCCCCCC(=O)[O-]
REMARK SMILES IDX 10 1 11 2 12 3 13 4 14 5 15 6 16 7 17 8 18 9 19 10 20 11
REMARK SMILES IDX 9 12 8 13 7 14 6 15 5 16 4 17 3 18 2 19 1 20
REMARK H PARENT
REMARK Flexibility Score: inf
ROOT
ATOM      1  C   UNL     1     195.373 190.967 201.132  1.00  0.00     0.000 C 
ENDROOT
BRANCH   1   2
ATOM      2  C   UNL     1     195.290 192.501 201.072  1.00  0.00     0.000 C 
BRANCH   2   3
ATOM      3  C   UNL     1     195.807 193.067 199.738  1.00  0.00     0.000 C 
BRANCH   3   4
ATOM      4  C   UNL     1     195.542 194.575 199.595  1.00  0.00     0.000 C 
BRANCH   4   5
ATOM      5  C   UNL     1     194.854 195.176 200.834  1.00  0.00     0.000 C 
BRANCH   5   6
ATOM      6  C   UNL     1     195.105 196.686 200.977  1.00  0.00     0.000 C 
BRANCH   6   7
ATOM      7  C   UNL     1     193.801 197.500 201.011  1.00  0.00     0.006 C 
BRANCH   7   8
ATOM      8  C   UNL     1     193.349 197.929 199.609  1.00  0.00     0.053 C 
BRANCH   8   9
ATOM      9  C   UNL     1     192.124 197.187 199.169  1.00  0.00     0.041 C 
ATOM     10  O   UNL     1     191.942 196.928 197.949  1.00  0.00    -0.550 OA
ATOM     11  O   UNL     1     191.168 196.807 200.103  1.00  0.00    -0.550 OA
ENDBRANCH   8   9
ENDBRANCH   7   8
ENDBRANCH   6   7
ENDBRANCH   5   6
ENDBRANCH   4   5
ENDBRANCH   3   4
ENDBRANCH   2   3
ENDBRANCH   1   2
BRANCH   1  12
ATOM     12  C   UNL     1     194.042 190.287 200.765  1.00  0.00     0.000 C 
BRANCH  12  13
ATOM     13  C   UNL     1     194.222 189.148 199.750  1.00  0.00    -0.000 C 
BRANCH  13  14
ATOM     14  C   UNL     1     193.491 189.416 198.426  1.00  0.00    -0.000 C 
BRANCH  14  15
ATOM     15  C   UNL     1     194.406 190.139 197.430  1.00  0.00    -0.000 C 
BRANCH  15  16
ATOM     16  C   UNL     1     193.781 191.464 196.970  1.00  0.00    -0.000 C 
BRANCH  16  17
ATOM     17  C   UNL     1     192.474 191.799 197.711  1.00  0.00    -0.000 C 
BRANCH  17  18
ATOM     18  C   UNL     1     192.420 193.210 198.335  1.00  0.00    -0.000 C 
BRANCH  18  19
ATOM     19  C   UNL     1     191.855 193.267 199.765  1.00  0.00    -0.003 C 
ATOM     20  C   UNL     1     190.913 192.106 200.080  1.00  0.00     0.004 C 
ENDBRANCH  18  19
ENDBRANCH  17  18
ENDBRANCH  16  17
ENDBRANCH  15  16
ENDBRANCH  14  15
ENDBRANCH  13  14
ENDBRANCH  12  13
ENDBRANCH   1  12
TORSDOF 16
ENDMDL
MODEL 7
REMARK VINA RESULT:    -3.668     12.951     15.716
REMARK INTER + INTRA:          -9.664
REMARK INTER:                  -7.367
REMARK INTRA:                  -2.297
REMARK UNBOUND:                -2.566
REMARK SMILES CCCCCCCCCCCCCCCCCC(=O)[O-]
REMARK SMILES IDX 10 1 11 2 12 3 13 4 14 5 15 6 16 7 17 8 18 9 19 10 20 11
REMARK SMILES IDX 9 12 8 13 7 14 6 15 5 16 4 17 3 18 2 19 1 20
REMARK H PARENT
REMARK Flexibility Score: inf
ROOT
ATOM      1  C   UNL     1     196.231 193.803 198.715  1.00  0.00     0.000 C 
ENDROOT
BRANCH   1   2
ATOM      2  C   UNL     1     194.820 194.352 198.980  1.00  0.00     0.000 C 
BRANCH   2   3
ATOM      3  C   UNL     1     193.861 193.277 199.520  1.00  0.00     0.000 C 
BRANCH   3   4
ATOM      4  C   UNL     1     194.575 191.948 199.820  1.00  0.00     0.000 C 
BRANCH   4   5
ATOM      5  C   UNL     1     194.053 190.787 198.954  1.00  0.00     0.000 C 
BRANCH   5   6
ATOM      6  C   UNL     1     193.285 191.273 197.714  1.00  0.00     0.000 C 
BRANCH   6   7
ATOM      7  C   UNL     1     194.184 191.384 196.470  1.00  0.00     0.006 C 
BRANCH   7   8
ATOM      8  C   UNL     1     193.839 192.612 195.615  1.00  0.00     0.053 C 
BRANCH   8   9
ATOM      9  C   UNL     1     194.112 192.371 194.162  1.00  0.00     0.041 C 
ATOM     10  O   UNL     1     195.296 192.347 193.734  1.00  0.00    -0.550 OA
ATOM     11  O   UNL     1     193.056 192.203 193.275  1.00  0.00    -0.550 OA
ENDBRANCH   8   9
ENDBRANCH   7   8
ENDBRANCH   6   7
ENDBRANCH   5   6
ENDBRANCH   4   5
ENDBRANCH   3   4
ENDBRANCH   2   3
ENDBRANCH   1   2
BRANCH   1  12
ATOM     12  C   UNL     1     197.330 194.629 199.408  1.00  0.00     0.000 C 
BRANCH  12  13
ATOM     13  C   UNL     1     196.978 194.975 200.863  1.00  0.00    -0.000 C 
BRANCH  13  14
ATOM     14  C   UNL     1     197.335 196.424 201.228  1.00  0.00    -0.000 C 
BRANCH  14  15
ATOM     15  C   UNL     1     196.238 197.059 202.091  1.00  0.00    -0.000 C 
BRANCH  15  16
ATOM     16  C   UNL     1     194.983 196.175 202.124  1.00  0.00    -0.000 C 
BRANCH  16  17
ATOM     17  C   UNL     1     193.735 196.886 201.571  1.00  0.00    -0.000 C 
BRANCH  17  18
ATOM     18  C   UNL     1     193.965 197.704 200.282  1.00  0.00    -0.000 C 
BRANCH  18  19
ATOM     19  C   UNL     1     192.687 198.071 199.509  1.00  0.00    -0.003 C 
ATOM     20  C   UNL     1     192.268 196.996 198.507  1.00  0.00     0.004 C 
ENDBRANCH  18  19
ENDBRANCH  17  18
ENDBRANCH  16  17
ENDBRANCH  15  16
ENDBRANCH  14  15
ENDBRANCH  13  14
ENDBRANCH  12  13
ENDBRANCH   1  12
TORSDOF 16
ENDMDL
MODEL 8
REMARK VINA RESULT:    -3.667     13.164     15.874
REMARK INTER + INTRA:          -9.663
REMARK INTER:                  -7.351
REMARK INTRA:                  -2.312
REMARK UNBOUND:                -2.566
REMARK SMILES CCCCCCCCCCCCCCCCCC(=O)[O-]
REMARK SMILES IDX 10 1 11 2 12 3 13 4 14 5 15 6 16 7 17 8 18 9 19 10 20 11
REMARK SMILES IDX 9 12 8 13 7 14 6 15 5 16 4 17 3 18 2 19 1 20
REMARK H PARENT
REMARK Flexibility Score: inf
ROOT
ATOM      1  C   UNL     1     198.062 195.386 199.795  1.00  0.00     0.000 C 
ENDROOT
BRANCH   1   2
ATOM      2  C   UNL     1     196.936 194.365 199.560  1.00  0.00     0.000 C 
BRANCH   2   3
ATOM      3  C   UNL     1     196.577 193.581 200.834  1.00  0.00     0.000 C 
BRANCH   3   4
ATOM      4  C   UNL     1     195.058 193.462 201.044  1.00  0.00     0.000 C 
BRANCH   4   5
ATOM      5  C   UNL     1     194.253 193.880 199.799  1.00  0.00     0.000 C 
BRANCH   5   6
ATOM      6  C   UNL     1     192.788 193.420 199.861  1.00  0.00     0.000 C 
BRANCH   6   7
ATOM      7  C   UNL     1     192.244 192.998 198.485  1.00  0.00     0.006 C 
BRANCH   7   8
ATOM      8  C   UNL     1     192.738 193.918 197.360  1.00  0.00     0.053 C 
BRANCH   8   9
ATOM      9  C   UNL     1     193.453 193.153 196.289  1.00  0.00     0.041 C 
ATOM     10  O   UNL     1     194.207 192.191 196.593  1.00  0.00    -0.550 OA
ATOM     11  O   UNL     1     193.309 193.521 194.958  1.00  0.00    -0.550 OA
ENDBRANCH   8   9
ENDBRANCH   7   8
ENDBRANCH   6   7
ENDBRANCH   5   6
ENDBRANCH   4   5
ENDBRANCH   3   4
ENDBRANCH   2   3
ENDBRANCH   1   2
BRANCH   1  12
ATOM     12  C   UNL     1     198.078 195.929 201.235  1.00  0.00     0.000 C 
BRANCH  12  13
ATOM     13  C   UNL     1     197.360 197.282 201.364  1.00  0.00    -0.000 C 
BRANCH  13  14
ATOM     14  C   UNL     1     195.965 197.152 201.995  1.00  0.00    -0.000 C 
BRANCH  14  15
ATOM     15  C   UNL     1     194.962 198.084 201.307  1.00  0.00    -0.000 C 
BRANCH  15  16
ATOM     16  C   UNL     1     194.191 197.345 200.203  1.00  0.00    -0.000 C 
BRANCH  16  17
ATOM     17  C   UNL     1     192.805 197.957 199.928  1.00  0.00    -0.000 C 
BRANCH  17  18
ATOM     18  C   UNL     1     191.633 196.953 199.939  1.00  0.00    -0.000 C 
BRANCH  18  19
ATOM     19  C   UNL     1     191.226 196.447 201.334  1.00  0.00    -0.003 C 
ATOM     20  C   UNL     1     189.717 196.260 201.483  1.00  0.00     0.004 C 
ENDBRANCH  18  19
ENDBRANCH  17  18
ENDBRANCH  16  17
ENDBRANCH  15  16
ENDBRANCH  14  15
ENDBRANCH  13  14
ENDBRANCH  12  13
ENDBRANCH   1  12
TORSDOF 16
ENDMDL
MODEL 9
REMARK VINA RESULT:    -3.663     11.152     13.819
REMARK INTER + INTRA:          -9.654
REMARK INTER:                  -6.456
REMARK INTRA:                  -3.198
REMARK UNBOUND:                -2.566
REMARK SMILES CCCCCCCCCCCCCCCCCC(=O)[O-]
REMARK SMILES IDX 10 1 11 2 12 3 13 4 14 5 15 6 16 7 17 8 18 9 19 10 20 11
REMARK SMILES IDX 9 12 8 13 7 14 6 15 5 16 4 17 3 18 2 19 1 20
REMARK H PARENT
REMARK Flexibility Score: inf
ROOT
ATOM      1  C   UNL     1     194.701 189.133 198.625  1.00  0.00     0.000 C 
ENDROOT
BRANCH   1   2
ATOM      2  C   UNL     1     195.266 189.287 200.046  1.00  0.00     0.000 C 
BRANCH   2   3
ATOM      3  C   UNL     1     196.034 190.607 200.235  1.00  0.00     0.000 C 
BRANCH   3   4
ATOM      4  C   UNL     1     195.366 191.534 201.264  1.00  0.00     0.000 C 
BRANCH   4   5
ATOM      5  C   UNL     1     195.602 193.025 200.959  1.00  0.00     0.000 C 
BRANCH   5   6
ATOM      6  C   UNL     1     196.048 193.268 199.508  1.00  0.00     0.000 C 
BRANCH   6   7
ATOM      7  C   UNL     1     195.452 194.557 198.916  1.00  0.00     0.006 C 
BRANCH   7   8
ATOM      8  C   UNL     1     194.448 195.221 199.868  1.00  0.00     0.053 C 
BRANCH   8   9
ATOM      9  C   UNL     1     193.516 196.140 199.141  1.00  0.00     0.041 C 
ATOM     10  O   UNL     1     192.741 195.688 198.256  1.00  0.00    -0.550 OA
ATOM     11  O   UNL     1     193.524 197.501 199.419  1.00  0.00    -0.550 OA
ENDBRANCH   8   9
ENDBRANCH   7   8
ENDBRANCH   6   7
ENDBRANCH   5   6
ENDBRANCH   4   5
ENDBRANCH   3   4
ENDBRANCH   2   3
ENDBRANCH   1   2
BRANCH   1  12
ATOM     12  C   UNL     1     195.174 190.248 197.674  1.00  0.00     0.000 C 
BRANCH  12  13
ATOM     13  C   UNL     1     194.015 191.112 197.155  1.00  0.00    -0.000 C 
BRANCH  13  14
ATOM     14  C   UNL     1     192.706 190.866 197.920  1.00  0.00    -0.000 C 
BRANCH  14  15
ATOM     15  C   UNL     1     192.068 192.189 198.357  1.00  0.00    -0.000 C 
BRANCH  15  16
ATOM     16  C   UNL     1     192.123 192.350 199.883  1.00  0.00    -0.000 C 
BRANCH  16  17
ATOM     17  C   UNL     1     191.205 191.361 200.623  1.00  0.00    -0.000 C 
BRANCH  17  18
ATOM     18  C   UNL     1     191.936 190.280 201.448  1.00  0.00    -0.000 C 
BRANCH  18  19
ATOM     19  C   UNL     1     191.235 188.912 201.492  1.00  0.00    -0.003 C 
ATOM     20  C   UNL     1     191.829 187.906 200.507  1.00  0.00     0.004 C 
ENDBRANCH  18  19
ENDBRANCH  17  18
ENDBRANCH  16  17
ENDBRANCH  15  16
ENDBRANCH  14  15
ENDBRANCH  13  14
ENDBRANCH  12  13
ENDBRANCH   1  12
TORSDOF 16
ENDMDL
