MODEL 1
REMARK VINA RESULT:    -3.535      0.000      0.000
REMARK INTER + INTRA:          -7.910
REMARK INTER:                  -6.015
REMARK INTRA:                  -1.895
REMARK UNBOUND:                -1.895
REMARK SMILES CCCCCCCCCCCCCC(=O)[O-]
REMARK SMILES IDX 8 1 9 2 10 3 11 4 12 5 13 6 14 7 15 8 16 9 7 10 6 11 5 12
REMARK SMILES IDX 4 13 3 14 2 15 1 16
REMARK H PARENT
REMARK Flexibility Score: inf
ROOT
ATOM      1  C   UNL     1       3.947  -1.722 400.650  1.00  0.00     0.000 C 
ENDROOT
BRANCH   1   2
ATOM      2  C   UNL     1       5.338  -2.163 401.131  1.00  0.00     0.000 C 
BRANCH   2   3
ATOM      3  C   UNL     1       6.476  -1.564 400.286  1.00  0.00     0.000 C 
BRANCH   3   4
ATOM      4  C   UNL     1       7.330  -0.561 401.090  1.00  0.00     0.000 C 
BRANCH   4   5
ATOM      5  C   UNL     1       7.887   0.593 400.239  1.00  0.00     0.006 C 
BRANCH   5   6
ATOM      6  C   UNL     1       7.070   0.843 398.965  1.00  0.00     0.053 C 
BRANCH   6   7
ATOM      7  C   UNL     1       7.977   1.065 397.797  1.00  0.00     0.041 C 
ATOM      8  O   UNL     1       8.238   0.119 397.008  1.00  0.00    -0.550 OA
ATOM      9  O   UNL     1       8.577   2.304 397.608  1.00  0.00    -0.550 OA
ENDBRANCH   6   7
ENDBRANCH   5   6
ENDBRANCH   4   5
ENDBRANCH   3   4
ENDBRANCH   2   3
ENDBRANCH   1   2
BRANCH   1  10
ATOM     10  C   UNL     1       3.983  -0.402 399.861  1.00  0.00     0.000 C 
BRANCH  10  11
ATOM     11  C   UNL     1       3.214   0.727 400.580  1.00  0.00    -0.000 C 
BRANCH  11  12
ATOM     12  C   UNL     1       3.950   2.078 400.566  1.00  0.00    -0.000 C 
BRANCH  12  13
ATOM     13  C   UNL     1       4.159   2.660 401.971  1.00  0.00    -0.000 C 
BRANCH  13  14
ATOM     14  C   UNL     1       5.303   1.944 402.698  1.00  0.00    -0.000 C 
BRANCH  14  15
ATOM     15  C   UNL     1       4.850   1.442 404.073  1.00  0.00    -0.003 C 
ATOM     16  C   UNL     1       4.488  -0.040 404.027  1.00  0.00     0.004 C 
ENDBRANCH  14  15
ENDBRANCH  13  14
ENDBRANCH  12  13
ENDBRANCH  11  12
ENDBRANCH  10  11
ENDBRANCH   1  10
TORSDOF 12
ENDMDL
MODEL 2
REMARK VINA RESULT:    -3.523      4.061      5.568
REMARK INTER + INTRA:          -7.888
REMARK INTER:                  -6.026
REMARK INTRA:                  -1.862
REMARK UNBOUND:                -1.895
REMARK SMILES CCCCCCCCCCCCCC(=O)[O-]
REMARK SMILES IDX 8 1 9 2 10 3 11 4 12 5 13 6 14 7 15 8 16 9 7 10 6 11 5 12
REMARK SMILES IDX 4 13 3 14 2 15 1 16
REMARK H PARENT
REMARK Flexibility Score: inf
ROOT
ATOM      1  C   UNL     1       4.478   0.158 399.977  1.00  0.00     0.000 C 
ENDROOT
BRANCH   1   2
ATOM      2  C   UNL     1       3.893  -1.261 399.958  1.00  0.00     0.000 C 
BRANCH   2   3
ATOM      3  C   UNL     1       4.333  -2.103 401.168  1.00  0.00     0.000 C 
BRANCH   3   4
ATOM      4  C   UNL     1       3.352  -3.257 401.461  1.00  0.00     0.000 C 
BRANCH   4   5
ATOM      5  C   UNL     1       3.558  -3.904 402.842  1.00  0.00     0.006 C 
BRANCH   5   6
ATOM      6  C   UNL     1       4.041  -2.906 403.902  1.00  0.00     0.053 C 
BRANCH   6   7
ATOM      7  C   UNL     1       2.951  -2.620 404.886  1.00  0.00     0.041 C 
ATOM      8  O   UNL     1       1.788  -3.061 404.690  1.00  0.00    -0.550 OA
ATOM      9  O   UNL     1       3.208  -1.823 405.995  1.00  0.00    -0.550 OA
ENDBRANCH   6   7
ENDBRANCH   5   6
ENDBRANCH   4   5
ENDBRANCH   3   4
ENDBRANCH   2   3
ENDBRANCH   1   2
BRANCH   1  10
ATOM     10  C   UNL     1       3.473   1.209 400.481  1.00  0.00     0.000 C 
BRANCH  10  11
ATOM     11  C   UNL     1       3.912   1.839 401.820  1.00  0.00    -0.000 C 
BRANCH  11  12
ATOM     12  C   UNL     1       3.627   0.948 403.041  1.00  0.00    -0.000 C 
BRANCH  12  13
ATOM     13  C   UNL     1       4.867   0.717 403.915  1.00  0.00    -0.000 C 
BRANCH  13  14
ATOM     14  C   UNL     1       6.140   1.185 403.200  1.00  0.00    -0.000 C 
BRANCH  14  15
ATOM     15  C   UNL     1       7.026  -0.007 402.822  1.00  0.00    -0.003 C 
ATOM     16  C   UNL     1       7.805   0.271 401.539  1.00  0.00     0.004 C 
ENDBRANCH  14  15
ENDBRANCH  13  14
ENDBRANCH  12  13
ENDBRANCH  11  12
ENDBRANCH  10  11
ENDBRANCH   1  10
TORSDOF 12
ENDMDL
MODEL 3
REMARK VINA RESULT:    -3.497      3.585      5.140
REMARK INTER + INTRA:          -7.845
REMARK INTER:                  -5.773
REMARK INTRA:                  -2.072
REMARK UNBOUND:                -1.895
REMARK SMILES CCCCCCCCCCCCCC(=O)[O-]
REMARK SMILES IDX 8 1 9 2 10 3 11 4 12 5 13 6 14 7 15 8 16 9 7 10 6 11 5 12
REMARK SMILES IDX 4 13 3 14 2 15 1 16
REMARK H PARENT
REMARK Flexibility Score: inf
ROOT
ATOM      1  C   UNL     1       5.173   1.423 400.124  1.00  0.00     0.000 C 
ENDROOT
BRANCH   1   2
ATOM      2  C   UNL     1       5.319  -0.063 399.764  1.00  0.00     0.000 C 
BRANCH   2   3
ATOM      3  C   UNL     1       4.088  -0.895 400.164  1.00  0.00     0.000 C 
BRANCH   3   4
ATOM      4  C   UNL     1       4.470  -2.324 400.606  1.00  0.00     0.000 C 
BRANCH   4   5
ATOM      5  C   UNL     1       3.257  -3.217 400.915  1.00  0.00     0.006 C 
BRANCH   5   6
ATOM      6  C   UNL     1       3.612  -4.423 401.794  1.00  0.00     0.053 C 
BRANCH   6   7
ATOM      7  C   UNL     1       3.855  -3.988 403.205  1.00  0.00     0.041 C 
ATOM      8  O   UNL     1       4.964  -4.212 403.756  1.00  0.00    -0.550 OA
ATOM      9  O   UNL     1       2.837  -3.378 403.929  1.00  0.00    -0.550 OA
ENDBRANCH   6   7
ENDBRANCH   5   6
ENDBRANCH   4   5
ENDBRANCH   3   4
ENDBRANCH   2   3
ENDBRANCH   1   2
BRANCH   1  10
ATOM     10  C   UNL     1       3.868   1.725 400.882  1.00  0.00     0.000 C 
BRANCH  10  11
ATOM     11  C   UNL     1       4.103   2.639 402.103  1.00  0.00    -0.000 C 
BRANCH  11  12
ATOM     12  C   UNL     1       4.637   1.892 403.337  1.00  0.00    -0.000 C 
BRANCH  12  13
ATOM     13  C   UNL     1       3.982   0.517 403.533  1.00  0.00    -0.000 C 
BRANCH  13  14
ATOM     14  C   UNL     1       5.027  -0.542 403.903  1.00  0.00    -0.000 C 
BRANCH  14  15
ATOM     15  C   UNL     1       6.422  -0.129 403.421  1.00  0.00    -0.003 C 
ATOM     16  C   UNL     1       7.158  -1.307 402.788  1.00  0.00     0.004 C 
ENDBRANCH  14  15
ENDBRANCH  13  14
ENDBRANCH  12  13
ENDBRANCH  11  12
ENDBRANCH  10  11
ENDBRANCH   1  10
TORSDOF 12
ENDMDL
MODEL 4
REMARK VINA RESULT:    -3.494      3.391      5.872
REMARK INTER + INTRA:          -7.839
REMARK INTER:                  -6.318
REMARK INTRA:                  -1.522
REMARK UNBOUND:                -1.895
REMARK SMILES CCCCCCCCCCCCCC(=O)[O-]
REMARK SMILES IDX 8 1 9 2 10 3 11 4 12 5 13 6 14 7 15 8 16 9 7 10 6 11 5 12
REMARK SMILES IDX 4 13 3 14 2 15 1 16
REMARK H PARENT
REMARK Flexibility Score: inf
ROOT
ATOM      1  C   UNL     1       3.808   2.168 400.970  1.00  0.00     0.000 C 
ENDROOT
BRANCH   1   2
ATOM      2  C   UNL     1       4.702   2.466 402.183  1.00  0.00     0.000 C 
BRANCH   2   3
ATOM      3  C   UNL     1       4.242   1.731 403.455  1.00  0.00     0.000 C 
BRANCH   3   4
ATOM      4  C   UNL     1       5.375   0.893 404.083  1.00  0.00     0.000 C 
BRANCH   4   5
ATOM      5  C   UNL     1       5.196  -0.623 403.893  1.00  0.00     0.006 C 
BRANCH   5   6
ATOM      6  C   UNL     1       4.096  -1.211 404.785  1.00  0.00     0.053 C 
BRANCH   6   7
ATOM      7  C   UNL     1       3.506  -2.431 404.153  1.00  0.00     0.041 C 
ATOM      8  O   UNL     1       3.976  -2.875 403.072  1.00  0.00    -0.550 OA
ATOM      9  O   UNL     1       2.405  -3.051 404.732  1.00  0.00    -0.550 OA
ENDBRANCH   6   7
ENDBRANCH   5   6
ENDBRANCH   4   5
ENDBRANCH   3   4
ENDBRANCH   2   3
ENDBRANCH   1   2
BRANCH   1  10
ATOM     10  C   UNL     1       3.379   0.691 400.897  1.00  0.00     0.000 C 
BRANCH  10  11
ATOM     11  C   UNL     1       4.135  -0.080 399.795  1.00  0.00    -0.000 C 
BRANCH  11  12
ATOM     12  C   UNL     1       5.222  -1.022 400.340  1.00  0.00    -0.000 C 
BRANCH  12  13
ATOM     13  C   UNL     1       6.609  -0.366 400.396  1.00  0.00    -0.000 C 
BRANCH  13  14
ATOM     14  C   UNL     1       6.723   0.769 399.372  1.00  0.00    -0.000 C 
BRANCH  14  15
ATOM     15  C   UNL     1       7.792   0.453 398.321  1.00  0.00    -0.003 C 
ATOM     16  C   UNL     1       8.204   1.710 397.558  1.00  0.00     0.004 C 
ENDBRANCH  14  15
ENDBRANCH  13  14
ENDBRANCH  12  13
ENDBRANCH  11  12
ENDBRANCH  10  11
ENDBRANCH   1  10
TORSDOF 12
ENDMDL
MODEL 5
REMARK VINA RESULT:    -3.491      4.446      6.593
REMARK INTER + INTRA:          -7.835
REMARK INTER:                  -6.315
REMARK INTRA:                  -1.521
REMARK UNBOUND:                -1.895
REMARK SMILES CCCCCCCCCCCCCC(=O)[O-]
REMARK SMILES IDX 8 1 9 2 10 3 11 4 12 5 13 6 14 7 15 8 16 9 7 10 6 11 5 12
REMARK SMILES IDX 4 13 3 14 2 15 1 16
REMARK H PARENT
REMARK Flexibility Score: inf
ROOT
ATOM      1  C   UNL     1       5.353   2.426 402.836  1.00  0.00     0.000 C 
ENDROOT
BRANCH   1   2
ATOM      2  C   UNL     1       5.028   1.577 404.074  1.00  0.00     0.000 C 
BRANCH   2   3
ATOM      3  C   UNL     1       5.194   0.068 403.821  1.00  0.00     0.000 C 
BRANCH   3   4
ATOM      4  C   UNL     1       3.882  -0.708 404.057  1.00  0.00     0.000 C 
BRANCH   4   5
ATOM      5  C   UNL     1       4.098  -2.133 404.595  1.00  0.00     0.006 C 
BRANCH   5   6
ATOM      6  C   UNL     1       3.084  -2.523 405.678  1.00  0.00     0.053 C 
BRANCH   6   7
ATOM      7  C   UNL     1       3.685  -2.365 407.038  1.00  0.00     0.041 C 
ATOM      8  O   UNL     1       4.936  -2.370 407.183  1.00  0.00    -0.550 OA
ATOM      9  O   UNL     1       2.863  -2.263 408.154  1.00  0.00    -0.550 OA
ENDBRANCH   6   7
ENDBRANCH   5   6
ENDBRANCH   4   5
ENDBRANCH   3   4
ENDBRANCH   2   3
ENDBRANCH   1   2
BRANCH   1  10
ATOM     10  C   UNL     1       4.121   2.676 401.948  1.00  0.00     0.000 C 
BRANCH  10  11
ATOM     11  C   UNL     1       4.194   1.897 400.618  1.00  0.00    -0.000 C 
BRANCH  11  12
ATOM     12  C   UNL     1       3.364   0.603 400.617  1.00  0.00    -0.000 C 
BRANCH  12  13
ATOM     13  C   UNL     1       4.000  -0.516 399.780  1.00  0.00    -0.000 C 
BRANCH  13  14
ATOM     14  C   UNL     1       5.113  -1.223 400.562  1.00  0.00    -0.000 C 
BRANCH  14  15
ATOM     15  C   UNL     1       4.867  -2.735 400.620  1.00  0.00    -0.003 C 
ATOM     16  C   UNL     1       3.407  -3.044 400.942  1.00  0.00     0.004 C 
ENDBRANCH  14  15
ENDBRANCH  13  14
ENDBRANCH  12  13
ENDBRANCH  11  12
ENDBRANCH  10  11
ENDBRANCH   1  10
TORSDOF 12
ENDMDL
MODEL 6
REMARK VINA RESULT:    -3.490      3.065      5.015
REMARK INTER + INTRA:          -7.833
REMARK INTER:                  -5.806
REMARK INTRA:                  -2.028
REMARK UNBOUND:                -1.895
REMARK SMILES CCCCCCCCCCCCCC(=O)[O-]
REMARK SMILES IDX 8 1 9 2 10 3 11 4 12 5 13 6 14 7 15 8 16 9 7 10 6 11 5 12
REMARK SMILES IDX 4 13 3 14 2 15 1 16
REMARK H PARENT
REMARK Flexibility Score: inf
ROOT
ATOM      1  C   UNL     1       3.967   1.589 403.058  1.00  0.00     0.000 C 
ENDROOT
BRANCH   1   2
ATOM      2  C   UNL     1       5.202   1.721 403.961  1.00  0.00     0.000 C 
BRANCH   2   3
ATOM      3  C   UNL     1       5.999   0.410 404.075  1.00  0.00     0.000 C 
BRANCH   3   4
ATOM      4  C   UNL     1       5.085  -0.804 404.345  1.00  0.00     0.000 C 
BRANCH   4   5
ATOM      5  C   UNL     1       5.144  -1.876 403.243  1.00  0.00     0.006 C 
BRANCH   5   6
ATOM      6  C   UNL     1       3.798  -2.575 403.019  1.00  0.00     0.053 C 
BRANCH   6   7
ATOM      7  C   UNL     1       3.871  -3.483 401.832  1.00  0.00     0.041 C 
ATOM      8  O   UNL     1       4.758  -4.376 401.770  1.00  0.00    -0.550 OA
ATOM      9  O   UNL     1       2.993  -3.311 400.769  1.00  0.00    -0.550 OA
ENDBRANCH   6   7
ENDBRANCH   5   6
ENDBRANCH   4   5
ENDBRANCH   3   4
ENDBRANCH   2   3
ENDBRANCH   1   2
BRANCH   1  10
ATOM     10  C   UNL     1       3.988   2.572 401.874  1.00  0.00     0.000 C 
BRANCH  10  11
ATOM     11  C   UNL     1       3.648   1.880 400.537  1.00  0.00    -0.000 C 
BRANCH  11  12
ATOM     12  C   UNL     1       3.608   0.346 400.631  1.00  0.00    -0.000 C 
BRANCH  12  13
ATOM     13  C   UNL     1       4.730  -0.332 399.832  1.00  0.00    -0.000 C 
BRANCH  13  14
ATOM     14  C   UNL     1       5.966   0.571 399.743  1.00  0.00    -0.000 C 
BRANCH  14  15
ATOM     15  C   UNL     1       7.089   0.054 400.648  1.00  0.00    -0.003 C 
ATOM     16  C   UNL     1       7.437  -1.396 400.322  1.00  0.00     0.004 C 
ENDBRANCH  14  15
ENDBRANCH  13  14
ENDBRANCH  12  13
ENDBRANCH  11  12
ENDBRANCH  10  11
ENDBRANCH   1  10
TORSDOF 12
ENDMDL
MODEL 7
REMARK VINA RESULT:    -3.489      4.137      5.492
REMARK INTER + INTRA:          -7.832
REMARK INTER:                  -6.200
REMARK INTRA:                  -1.632
REMARK UNBOUND:                -1.895
REMARK SMILES CCCCCCCCCCCCCC(=O)[O-]
REMARK SMILES IDX 8 1 9 2 10 3 11 4 12 5 13 6 14 7 15 8 16 9 7 10 6 11 5 12
REMARK SMILES IDX 4 13 3 14 2 15 1 16
REMARK H PARENT
REMARK Flexibility Score: inf
ROOT
ATOM      1  C   UNL     1       4.911  -1.492 400.377  1.00  0.00     0.000 C 
ENDROOT
BRANCH   1   2
ATOM      2  C   UNL     1       3.667  -2.335 400.062  1.00  0.00     0.000 C 
BRANCH   2   3
ATOM      3  C   UNL     1       3.272  -3.268 401.220  1.00  0.00     0.000 C 
BRANCH   3   4
ATOM      4  C   UNL     1       4.456  -3.547 402.170  1.00  0.00     0.000 C 
BRANCH   4   5
ATOM      5  C   UNL     1       4.027  -4.097 403.542  1.00  0.00     0.006 C 
BRANCH   5   6
ATOM      6  C   UNL     1       3.126  -3.127 404.318  1.00  0.00     0.053 C 
BRANCH   6   7
ATOM      7  C   UNL     1       3.750  -2.770 405.630  1.00  0.00     0.041 C 
ATOM      8  O   UNL     1       5.003  -2.759 405.754  1.00  0.00    -0.550 OA
ATOM      9  O   UNL     1       2.946  -2.498 406.730  1.00  0.00    -0.550 OA
ENDBRANCH   6   7
ENDBRANCH   5   6
ENDBRANCH   4   5
ENDBRANCH   3   4
ENDBRANCH   2   3
ENDBRANCH   1   2
BRANCH   1  10
ATOM     10  C   UNL     1       4.821  -0.065 399.808  1.00  0.00     0.000 C 
BRANCH  10  11
ATOM     11  C   UNL     1       3.560   0.678 400.299  1.00  0.00    -0.000 C 
BRANCH  11  12
ATOM     12  C   UNL     1       3.840   2.112 400.780  1.00  0.00    -0.000 C 
BRANCH  12  13
ATOM     13  C   UNL     1       4.092   2.197 402.292  1.00  0.00    -0.000 C 
BRANCH  13  14
ATOM     14  C   UNL     1       3.586   0.938 403.006  1.00  0.00    -0.000 C 
BRANCH  14  15
ATOM     15  C   UNL     1       4.685   0.326 403.881  1.00  0.00    -0.003 C 
ATOM     16  C   UNL     1       6.070   0.597 403.300  1.00  0.00     0.004 C 
ENDBRANCH  14  15
ENDBRANCH  13  14
ENDBRANCH  12  13
ENDBRANCH  11  12
ENDBRANCH  10  11
ENDBRANCH   1  10
TORSDOF 12
ENDMDL
MODEL 8
REMARK VINA RESULT:    -3.434      4.685      6.119
REMARK INTER + INTRA:          -7.738
REMARK INTER:                  -6.680
REMARK INTRA:                  -1.057
REMARK UNBOUND:                -1.895
REMARK SMILES CCCCCCCCCCCCCC(=O)[O-]
REMARK SMILES IDX 8 1 9 2 10 3 11 4 12 5 13 6 14 7 15 8 16 9 7 10 6 11 5 12
REMARK SMILES IDX 4 13 3 14 2 15 1 16
REMARK H PARENT
REMARK Flexibility Score: inf
ROOT
ATOM      1  C   UNL     1       4.411  -1.344 400.535  1.00  0.00     0.000 C 
ENDROOT
BRANCH   1   2
ATOM      2  C   UNL     1       3.605  -2.586 400.128  1.00  0.00     0.000 C 
BRANCH   2   3
ATOM      3  C   UNL     1       3.283  -3.504 401.320  1.00  0.00     0.000 C 
BRANCH   3   4
ATOM      4  C   UNL     1       4.453  -4.453 401.655  1.00  0.00     0.000 C 
BRANCH   4   5
ATOM      5  C   UNL     1       4.039  -5.659 402.517  1.00  0.00     0.006 C 
BRANCH   5   6
ATOM      6  C   UNL     1       3.955  -6.964 401.716  1.00  0.00     0.053 C 
BRANCH   6   7
ATOM      7  C   UNL     1       4.351  -8.127 402.569  1.00  0.00     0.041 C 
ATOM      8  O   UNL     1       4.262  -9.301 402.122  1.00  0.00    -0.550 OA
ATOM      9  O   UNL     1       4.771  -7.919 403.877  1.00  0.00    -0.550 OA
ENDBRANCH   6   7
ENDBRANCH   5   6
ENDBRANCH   4   5
ENDBRANCH   3   4
ENDBRANCH   2   3
ENDBRANCH   1   2
BRANCH   1  10
ATOM     10  C   UNL     1       3.995  -0.084 399.756  1.00  0.00     0.000 C 
BRANCH  10  11
ATOM     11  C   UNL     1       3.649   1.092 400.693  1.00  0.00    -0.000 C 
BRANCH  11  12
ATOM     12  C   UNL     1       4.883   1.849 401.212  1.00  0.00    -0.000 C 
BRANCH  12  13
ATOM     13  C   UNL     1       4.754   2.263 402.685  1.00  0.00    -0.000 C 
BRANCH  13  14
ATOM     14  C   UNL     1       4.019   1.190 403.496  1.00  0.00    -0.000 C 
BRANCH  14  15
ATOM     15  C   UNL     1       4.983   0.087 403.947  1.00  0.00    -0.003 C 
ATOM     16  C   UNL     1       4.241  -1.223 404.200  1.00  0.00     0.004 C 
ENDBRANCH  14  15
ENDBRANCH  13  14
ENDBRANCH  12  13
ENDBRANCH  11  12
ENDBRANCH  10  11
ENDBRANCH   1  10
TORSDOF 12
ENDMDL
MODEL 9
REMARK VINA RESULT:    -3.397      1.040      2.375
REMARK INTER + INTRA:          -7.674
REMARK INTER:                  -5.637
REMARK INTRA:                  -2.038
REMARK UNBOUND:                -1.895
REMARK SMILES CCCCCCCCCCCCCC(=O)[O-]
REMARK SMILES IDX 8 1 9 2 10 3 11 4 12 5 13 6 14 7 15 8 16 9 7 10 6 11 5 12
REMARK SMILES IDX 4 13 3 14 2 15 1 16
REMARK H PARENT
REMARK Flexibility Score: inf
ROOT
ATOM      1  C   UNL     1       6.429  -2.805 401.056  1.00  0.00     0.000 C 
ENDROOT
BRANCH   1   2
ATOM      2  C   UNL     1       7.475  -1.762 400.635  1.00  0.00     0.000 C 
BRANCH   2   3
ATOM      3  C   UNL     1       7.330  -0.434 401.399  1.00  0.00     0.000 C 
BRANCH   3   4
ATOM      4  C   UNL     1       7.346   0.785 400.452  1.00  0.00     0.000 C 
BRANCH   4   5
ATOM      5  C   UNL     1       7.086   0.424 398.979  1.00  0.00     0.006 C 
BRANCH   5   6
ATOM      6  C   UNL     1       7.853   1.321 398.001  1.00  0.00     0.053 C 
BRANCH   6   7
ATOM      7  C   UNL     1       9.328   1.162 398.192  1.00  0.00     0.041 C 
ATOM      8  O   UNL     1      10.067   2.177 398.294  1.00  0.00    -0.550 OA
ATOM      9  O   UNL     1       9.895  -0.106 398.209  1.00  0.00    -0.550 OA
ENDBRANCH   6   7
ENDBRANCH   5   6
ENDBRANCH   4   5
ENDBRANCH   3   4
ENDBRANCH   2   3
ENDBRANCH   1   2
BRANCH   1  10
ATOM     10  C   UNL     1       5.051  -2.182 401.344  1.00  0.00     0.000 C 
BRANCH  10  11
ATOM     11  C   UNL     1       4.187  -2.069 400.070  1.00  0.00    -0.000 C 
BRANCH  11  12
ATOM     12  C   UNL     1       3.718  -0.635 399.772  1.00  0.00    -0.000 C 
BRANCH  12  13
ATOM     13  C   UNL     1       3.695   0.259 401.019  1.00  0.00    -0.000 C 
BRANCH  13  14
ATOM     14  C   UNL     1       3.667   1.743 400.633  1.00  0.00    -0.000 C 
BRANCH  14  15
ATOM     15  C   UNL     1       4.334   2.603 401.711  1.00  0.00    -0.003 C 
ATOM     16  C   UNL     1       4.486   1.829 403.018  1.00  0.00     0.004 C 
ENDBRANCH  14  15
ENDBRANCH  13  14
ENDBRANCH  12  13
ENDBRANCH  11  12
ENDBRANCH  10  11
ENDBRANCH   1  10
TORSDOF 12
ENDMDL
