MODEL 1
REMARK VINA RESULT:    -6.340      0.000      0.000
REMARK INTER + INTRA:          -7.959
REMARK INTER:                  -7.637
REMARK INTRA:                  -0.322
REMARK UNBOUND:                -0.322
REMARK SMILES O=c1c(O)c(-c2ccc(O)c(O)c2)oc2cc(O)cc(O)c12
REMARK SMILES IDX 5 1 3 2 2 3 1 4 22 5 20 6 19 7 17 8 16 9 15 10 14 11 6 12
REMARK SMILES IDX 7 13 8 14 9 15 13 16 11 17 10 18 12 20 4 22 21 24 18 26
REMARK H PARENT 10 19 12 21 4 23 21 25 18 27
REMARK Flexibility Score: inf
ROOT
ATOM      1  C   UNL     1    -117.862  -2.122  77.794  1.00  0.00     0.180 A 
ATOM      2  C   UNL     1    -117.943  -0.750  78.090  1.00  0.00     0.208 A 
ATOM      3  C   UNL     1    -116.832  -0.110  78.661  1.00  0.00     0.238 A 
ATOM      4  O   UNL     1    -116.929   1.105  78.974  1.00  0.00    -0.285 OA
ATOM      5  C   UNL     1    -115.648  -0.845  78.912  1.00  0.00     0.111 A 
ATOM      6  C   UNL     1    -114.448  -0.289  79.450  1.00  0.00     0.134 A 
ATOM      7  C   UNL     1    -113.381  -1.135  79.779  1.00  0.00     0.093 A 
ATOM      8  C   UNL     1    -113.448  -2.508  79.529  1.00  0.00     0.123 A 
ATOM      9  C   UNL     1    -114.592  -3.051  78.949  1.00  0.00     0.094 A 
ATOM     10  C   UNL     1    -115.686  -2.237  78.643  1.00  0.00     0.146 A 
ATOM     11  O   UNL     1    -116.762  -2.797  78.102  1.00  0.00    -0.452 OA
ENDROOT
BRANCH   1  12
ATOM     12  C   UNL     1    -118.984  -2.861  77.169  1.00  0.00     0.025 A 
ATOM     13  C   UNL     1    -119.998  -3.446  77.947  1.00  0.00     0.016 A 
ATOM     14  C   UNL     1    -121.060  -4.118  77.335  1.00  0.00     0.051 A 
ATOM     15  C   UNL     1    -121.130  -4.202  75.939  1.00  0.00     0.157 A 
ATOM     16  C   UNL     1    -119.071  -2.930  75.769  1.00  0.00     0.062 A 
ATOM     17  C   UNL     1    -120.136  -3.605  75.154  1.00  0.00     0.158 A 
BRANCH  15  18
ATOM     18  O   UNL     1    -122.186  -4.873  75.323  1.00  0.00    -0.504 OA
ATOM     19  H   UNL     1    -122.135  -5.863  75.114  1.00  0.00     0.293 HD
ENDBRANCH  15  18
BRANCH  17  20
ATOM     20  O   UNL     1    -120.212  -3.684  73.764  1.00  0.00    -0.504 OA
ATOM     21  H   UNL     1    -119.379  -3.755  73.191  1.00  0.00     0.293 HD
ENDBRANCH  17  20
ENDBRANCH   1  12
BRANCH   2  22
ATOM     22  O   UNL     1    -119.129  -0.048  77.854  1.00  0.00    -0.502 OA
ATOM     23  H   UNL     1    -119.165   0.963  77.820  1.00  0.00     0.293 HD
ENDBRANCH   2  22
BRANCH   6  24
ATOM     24  O   UNL     1    -114.244   1.080  79.652  1.00  0.00    -0.507 OA
ATOM     25  H   UNL     1    -114.227   1.773  78.920  1.00  0.00     0.293 HD
ENDBRANCH   6  24
BRANCH   8  26
ATOM     26  O   UNL     1    -112.377  -3.340  79.844  1.00  0.00    -0.508 OA
ATOM     27  H   UNL     1    -111.623  -3.506  79.188  1.00  0.00     0.293 HD
ENDBRANCH   8  26
TORSDOF 6
ENDMDL
MODEL 2
REMARK VINA RESULT:    -6.113      7.864      9.295
REMARK INTER + INTRA:          -7.685
REMARK INTER:                  -7.547
REMARK INTRA:                  -0.139
REMARK UNBOUND:                -0.322
REMARK SMILES O=c1c(O)c(-c2ccc(O)c(O)c2)oc2cc(O)cc(O)c12
REMARK SMILES IDX 5 1 3 2 2 3 1 4 22 5 20 6 19 7 17 8 16 9 15 10 14 11 6 12
REMARK SMILES IDX 7 13 8 14 9 15 13 16 11 17 10 18 12 20 4 22 21 24 18 26
REMARK H PARENT 10 19 12 21 4 23 21 25 18 27
REMARK Flexibility Score: inf
ROOT
ATOM      1  C   UNL     1    -115.857 -10.057  80.421  1.00  0.00     0.180 A 
ATOM      2  C   UNL     1    -115.303  -8.833  80.837  1.00  0.00     0.208 A 
ATOM      3  C   UNL     1    -114.501  -8.110  79.940  1.00  0.00     0.238 A 
ATOM      4  O   UNL     1    -113.964  -7.042  80.336  1.00  0.00    -0.285 OA
ATOM      5  C   UNL     1    -114.277  -8.609  78.634  1.00  0.00     0.111 A 
ATOM      6  C   UNL     1    -113.515  -7.939  77.630  1.00  0.00     0.134 A 
ATOM      7  C   UNL     1    -113.250  -8.587  76.417  1.00  0.00     0.093 A 
ATOM      8  C   UNL     1    -113.775  -9.854  76.148  1.00  0.00     0.123 A 
ATOM      9  C   UNL     1    -114.569 -10.490  77.098  1.00  0.00     0.094 A 
ATOM     10  C   UNL     1    -114.821  -9.884  78.332  1.00  0.00     0.146 A 
ATOM     11  O   UNL     1    -115.574 -10.530  79.213  1.00  0.00    -0.452 OA
ENDROOT
BRANCH   1  12
ATOM     12  C   UNL     1    -116.732 -10.865  81.302  1.00  0.00     0.025 A 
ATOM     13  C   UNL     1    -116.344 -12.140  81.747  1.00  0.00     0.016 A 
ATOM     14  C   UNL     1    -117.175 -12.875  82.597  1.00  0.00     0.051 A 
ATOM     15  C   UNL     1    -118.398 -12.341  83.024  1.00  0.00     0.157 A 
ATOM     16  C   UNL     1    -117.948 -10.325  81.750  1.00  0.00     0.062 A 
ATOM     17  C   UNL     1    -118.784 -11.062  82.603  1.00  0.00     0.158 A 
BRANCH  15  18
ATOM     18  O   UNL     1    -119.231 -13.071  83.871  1.00  0.00    -0.504 OA
ATOM     19  H   UNL     1    -120.169 -13.334  83.592  1.00  0.00     0.293 HD
ENDBRANCH  15  18
BRANCH  17  20
ATOM     20  O   UNL     1    -119.997 -10.529  83.036  1.00  0.00    -0.504 OA
ATOM     21  H   UNL     1    -120.871 -10.761  82.578  1.00  0.00     0.293 HD
ENDBRANCH  17  20
ENDBRANCH   1  12
BRANCH   2  22
ATOM     22  O   UNL     1    -115.519  -8.369  82.138  1.00  0.00    -0.502 OA
ATOM     23  H   UNL     1    -116.181  -7.632  82.349  1.00  0.00     0.293 HD
ENDBRANCH   2  22
BRANCH   6  24
ATOM     24  O   UNL     1    -113.022  -6.637  77.763  1.00  0.00    -0.507 OA
ATOM     25  H   UNL     1    -113.401  -5.829  77.293  1.00  0.00     0.293 HD
ENDBRANCH   6  24
BRANCH   8  26
ATOM     26  O   UNL     1    -113.519 -10.484  74.932  1.00  0.00    -0.508 OA
ATOM     27  H   UNL     1    -113.074  -9.996  74.164  1.00  0.00     0.293 HD
ENDBRANCH   8  26
TORSDOF 6
ENDMDL
MODEL 3
REMARK VINA RESULT:    -6.063     15.609     17.206
REMARK INTER + INTRA:          -7.625
REMARK INTER:                  -7.339
REMARK INTRA:                  -0.286
REMARK UNBOUND:                -0.322
REMARK SMILES O=c1c(O)c(-c2ccc(O)c(O)c2)oc2cc(O)cc(O)c12
REMARK SMILES IDX 5 1 3 2 2 3 1 4 22 5 20 6 19 7 17 8 16 9 15 10 14 11 6 12
REMARK SMILES IDX 7 13 8 14 9 15 13 16 11 17 10 18 12 20 4 22 21 24 18 26
REMARK H PARENT 10 19 12 21 4 23 21 25 18 27
REMARK Flexibility Score: inf
ROOT
ATOM      1  C   UNL     1    -117.999 -14.069  88.336  1.00  0.00     0.180 A 
ATOM      2  C   UNL     1    -119.273 -14.484  88.760  1.00  0.00     0.208 A 
ATOM      3  C   UNL     1    -119.412 -15.741  89.370  1.00  0.00     0.238 A 
ATOM      4  O   UNL     1    -120.564 -16.129  89.699  1.00  0.00    -0.285 OA
ATOM      5  C   UNL     1    -118.274 -16.559  89.564  1.00  0.00     0.111 A 
ATOM      6  C   UNL     1    -118.292 -17.834  90.208  1.00  0.00     0.134 A 
ATOM      7  C   UNL     1    -117.130 -18.615  90.228  1.00  0.00     0.093 A 
ATOM      8  C   UNL     1    -115.934 -18.139  89.684  1.00  0.00     0.123 A 
ATOM      9  C   UNL     1    -115.891 -16.872  89.107  1.00  0.00     0.094 A 
ATOM     10  C   UNL     1    -117.044 -16.085  89.041  1.00  0.00     0.146 A 
ATOM     11  O   UNL     1    -116.962 -14.888  88.472  1.00  0.00    -0.452 OA
ENDROOT
BRANCH   1  12
ATOM     12  C   UNL     1    -117.769 -12.749  87.706  1.00  0.00     0.025 A 
ATOM     13  C   UNL     1    -118.090 -12.515  86.358  1.00  0.00     0.016 A 
ATOM     14  C   UNL     1    -117.887 -11.254  85.791  1.00  0.00     0.051 A 
ATOM     15  C   UNL     1    -117.374 -10.206  86.567  1.00  0.00     0.157 A 
ATOM     16  C   UNL     1    -117.275 -11.689  88.485  1.00  0.00     0.062 A 
ATOM     17  C   UNL     1    -117.070 -10.423  87.917  1.00  0.00     0.158 A 
BRANCH  15  18
ATOM     18  O   UNL     1    -117.168  -8.946  86.006  1.00  0.00    -0.504 OA
ATOM     19  H   UNL     1    -117.607  -8.678  85.132  1.00  0.00     0.293 HD
ENDBRANCH  15  18
BRANCH  17  20
ATOM     20  O   UNL     1    -116.566  -9.376  88.688  1.00  0.00    -0.504 OA
ATOM     21  H   UNL     1    -116.293  -9.514  89.654  1.00  0.00     0.293 HD
ENDBRANCH  17  20
ENDBRANCH   1  12
BRANCH   2  22
ATOM     22  O   UNL     1    -120.388 -13.669  88.540  1.00  0.00    -0.502 OA
ATOM     23  H   UNL     1    -121.164 -13.956  87.955  1.00  0.00     0.293 HD
ENDBRANCH   2  22
BRANCH   6  24
ATOM     24  O   UNL     1    -119.410 -18.362  90.861  1.00  0.00    -0.507 OA
ATOM     25  H   UNL     1    -120.193 -18.798  90.399  1.00  0.00     0.293 HD
ENDBRANCH   6  24
BRANCH   8  26
ATOM     26  O   UNL     1    -114.778 -18.915  89.723  1.00  0.00    -0.508 OA
ATOM     27  H   UNL     1    -114.693 -19.710  90.346  1.00  0.00     0.293 HD
ENDBRANCH   8  26
TORSDOF 6
ENDMDL
MODEL 4
REMARK VINA RESULT:    -5.985      7.382     10.261
REMARK INTER + INTRA:          -7.532
REMARK INTER:                  -7.198
REMARK INTRA:                  -0.335
REMARK UNBOUND:                -0.322
REMARK SMILES O=c1c(O)c(-c2ccc(O)c(O)c2)oc2cc(O)cc(O)c12
REMARK SMILES IDX 5 1 3 2 2 3 1 4 22 5 20 6 19 7 17 8 16 9 15 10 14 11 6 12
REMARK SMILES IDX 7 13 8 14 9 15 13 16 11 17 10 18 12 20 4 22 21 24 18 26
REMARK H PARENT 10 19 12 21 4 23 21 25 18 27
REMARK Flexibility Score: inf
ROOT
ATOM      1  C   UNL     1    -108.963  -2.300  75.357  1.00  0.00     0.180 A 
ATOM      2  C   UNL     1    -108.865  -3.681  75.112  1.00  0.00     0.208 A 
ATOM      3  C   UNL     1    -107.733  -4.174  74.445  1.00  0.00     0.238 A 
ATOM      4  O   UNL     1    -107.676  -5.404  74.180  1.00  0.00    -0.285 OA
ATOM      5  C   UNL     1    -106.705  -3.286  74.048  1.00  0.00     0.111 A 
ATOM      6  C   UNL     1    -105.495  -3.682  73.402  1.00  0.00     0.134 A 
ATOM      7  C   UNL     1    -104.607  -2.704  72.937  1.00  0.00     0.093 A 
ATOM      8  C   UNL     1    -104.855  -1.346  73.153  1.00  0.00     0.123 A 
ATOM      9  C   UNL     1    -106.004  -0.952  73.834  1.00  0.00     0.094 A 
ATOM     10  C   UNL     1    -106.926  -1.904  74.278  1.00  0.00     0.146 A 
ATOM     11  O   UNL     1    -108.014  -1.484  74.914  1.00  0.00    -0.452 OA
ENDROOT
BRANCH   1  12
ATOM     12  C   UNL     1    -110.114  -1.707  76.076  1.00  0.00     0.025 A 
ATOM     13  C   UNL     1    -110.121  -1.590  77.477  1.00  0.00     0.016 A 
ATOM     14  C   UNL     1    -111.208  -1.005  78.132  1.00  0.00     0.051 A 
ATOM     15  C   UNL     1    -112.296  -0.517  77.397  1.00  0.00     0.157 A 
ATOM     16  C   UNL     1    -111.198  -1.197  75.343  1.00  0.00     0.062 A 
ATOM     17  C   UNL     1    -112.290  -0.610  76.000  1.00  0.00     0.158 A 
BRANCH  15  18
ATOM     18  O   UNL     1    -113.383   0.066  78.046  1.00  0.00    -0.504 OA
ATOM     19  H   UNL     1    -113.703   0.998  77.809  1.00  0.00     0.293 HD
ENDBRANCH  15  18
BRANCH  17  20
ATOM     20  O   UNL     1    -113.371  -0.117  75.270  1.00  0.00    -0.504 OA
ATOM     21  H   UNL     1    -113.985   0.595  75.648  1.00  0.00     0.293 HD
ENDBRANCH  17  20
ENDBRANCH   1  12
BRANCH   2  22
ATOM     22  O   UNL     1    -109.902  -4.538  75.492  1.00  0.00    -0.502 OA
ATOM     23  H   UNL     1    -110.769  -4.607  74.974  1.00  0.00     0.293 HD
ENDBRANCH   2  22
BRANCH   6  24
ATOM     24  O   UNL     1    -105.108  -5.014  73.219  1.00  0.00    -0.507 OA
ATOM     25  H   UNL     1    -104.334  -5.313  72.647  1.00  0.00     0.293 HD
ENDBRANCH   6  24
BRANCH   8  26
ATOM     26  O   UNL     1    -103.959  -0.380  72.701  1.00  0.00    -0.508 OA
ATOM     27  H   UNL     1    -103.754  -0.266  71.715  1.00  0.00     0.293 HD
ENDBRANCH   8  26
TORSDOF 6
ENDMDL
MODEL 5
REMARK VINA RESULT:    -5.947      7.429     10.839
REMARK INTER + INTRA:          -7.485
REMARK INTER:                  -7.176
REMARK INTRA:                  -0.309
REMARK UNBOUND:                -0.322
REMARK SMILES O=c1c(O)c(-c2ccc(O)c(O)c2)oc2cc(O)cc(O)c12
REMARK SMILES IDX 5 1 3 2 2 3 1 4 22 5 20 6 19 7 17 8 16 9 15 10 14 11 6 12
REMARK SMILES IDX 7 13 8 14 9 15 13 16 11 17 10 18 12 20 4 22 21 24 18 26
REMARK H PARENT 10 19 12 21 4 23 21 25 18 27
REMARK Flexibility Score: inf
ROOT
ATOM      1  C   UNL     1    -108.857  -2.436  74.548  1.00  0.00     0.180 A 
ATOM      2  C   UNL     1    -109.149  -1.938  75.830  1.00  0.00     0.208 A 
ATOM      3  C   UNL     1    -110.405  -1.357  76.064  1.00  0.00     0.238 A 
ATOM      4  O   UNL     1    -110.641  -0.865  77.199  1.00  0.00    -0.285 OA
ATOM      5  C   UNL     1    -111.360  -1.298  75.021  1.00  0.00     0.111 A 
ATOM      6  C   UNL     1    -112.678  -0.768  75.158  1.00  0.00     0.134 A 
ATOM      7  C   UNL     1    -113.493  -0.639  74.026  1.00  0.00     0.093 A 
ATOM      8  C   UNL     1    -113.059  -1.082  72.773  1.00  0.00     0.123 A 
ATOM      9  C   UNL     1    -111.797  -1.654  72.641  1.00  0.00     0.094 A 
ATOM     10  C   UNL     1    -110.948  -1.763  73.746  1.00  0.00     0.146 A 
ATOM     11  O   UNL     1    -109.748  -2.305  73.573  1.00  0.00    -0.452 OA
ENDROOT
BRANCH   1  12
ATOM     12  C   UNL     1    -107.563  -3.083  74.230  1.00  0.00     0.025 A 
ATOM     13  C   UNL     1    -107.427  -4.482  74.225  1.00  0.00     0.016 A 
ATOM     14  C   UNL     1    -106.203  -5.073  73.898  1.00  0.00     0.051 A 
ATOM     15  C   UNL     1    -105.104  -4.274  73.559  1.00  0.00     0.157 A 
ATOM     16  C   UNL     1    -106.463  -2.289  73.868  1.00  0.00     0.062 A 
ATOM     17  C   UNL     1    -105.234  -2.880  73.541  1.00  0.00     0.158 A 
BRANCH  15  18
ATOM     18  O   UNL     1    -103.880  -4.858  73.233  1.00  0.00    -0.504 OA
ATOM     19  H   UNL     1    -103.826  -5.674  72.633  1.00  0.00     0.293 HD
ENDBRANCH  15  18
BRANCH  17  20
ATOM     20  O   UNL     1    -104.140  -2.088  73.195  1.00  0.00    -0.504 OA
ATOM     21  H   UNL     1    -104.082  -1.629  72.294  1.00  0.00     0.293 HD
ENDBRANCH  17  20
ENDBRANCH   1  12
BRANCH   2  22
ATOM     22  O   UNL     1    -108.184  -1.988  76.840  1.00  0.00    -0.502 OA
ATOM     23  H   UNL     1    -107.272  -2.406  76.701  1.00  0.00     0.293 HD
ENDBRANCH   2  22
BRANCH   6  24
ATOM     24  O   UNL     1    -113.242  -0.382  76.379  1.00  0.00    -0.507 OA
ATOM     25  H   UNL     1    -113.377  -0.995  77.168  1.00  0.00     0.293 HD
ENDBRANCH   6  24
BRANCH   8  26
ATOM     26  O   UNL     1    -113.881  -0.964  71.655  1.00  0.00    -0.508 OA
ATOM     27  H   UNL     1    -114.759  -0.459  71.693  1.00  0.00     0.293 HD
ENDBRANCH   8  26
TORSDOF 6
ENDMDL
MODEL 6
REMARK VINA RESULT:    -5.929      2.779      3.489
REMARK INTER + INTRA:          -7.465
REMARK INTER:                  -7.197
REMARK INTRA:                  -0.267
REMARK UNBOUND:                -0.322
REMARK SMILES O=c1c(O)c(-c2ccc(O)c(O)c2)oc2cc(O)cc(O)c12
REMARK SMILES IDX 5 1 3 2 2 3 1 4 22 5 20 6 19 7 17 8 16 9 15 10 14 11 6 12
REMARK SMILES IDX 7 13 8 14 9 15 13 16 11 17 10 18 12 20 4 22 21 24 18 26
REMARK H PARENT 10 19 12 21 4 23 21 25 18 27
REMARK Flexibility Score: inf
ROOT
ATOM      1  C   UNL     1    -117.023  -1.631  79.524  1.00  0.00     0.180 A 
ATOM      2  C   UNL     1    -116.197  -0.517  79.761  1.00  0.00     0.208 A 
ATOM      3  C   UNL     1    -115.361  -0.517  80.888  1.00  0.00     0.238 A 
ATOM      4  O   UNL     1    -114.665   0.505  81.124  1.00  0.00    -0.285 OA
ATOM      5  C   UNL     1    -115.347  -1.636  81.755  1.00  0.00     0.111 A 
ATOM      6  C   UNL     1    -114.509  -1.760  82.904  1.00  0.00     0.134 A 
ATOM      7  C   UNL     1    -114.672  -2.854  83.764  1.00  0.00     0.093 A 
ATOM      8  C   UNL     1    -115.599  -3.861  83.479  1.00  0.00     0.123 A 
ATOM      9  C   UNL     1    -116.379  -3.778  82.329  1.00  0.00     0.094 A 
ATOM     10  C   UNL     1    -116.264  -2.680  81.472  1.00  0.00     0.146 A 
ATOM     11  O   UNL     1    -117.035  -2.636  80.392  1.00  0.00    -0.452 OA
ENDROOT
BRANCH   1  12
ATOM     12  C   UNL     1    -117.914  -1.715  78.344  1.00  0.00     0.025 A 
ATOM     13  C   UNL     1    -117.603  -2.542  77.251  1.00  0.00     0.016 A 
ATOM     14  C   UNL     1    -118.471  -2.625  76.158  1.00  0.00     0.051 A 
ATOM     15  C   UNL     1    -119.665  -1.893  76.149  1.00  0.00     0.157 A 
ATOM     16  C   UNL     1    -119.123  -1.001  78.339  1.00  0.00     0.062 A 
ATOM     17  C   UNL     1    -119.994  -1.082  77.243  1.00  0.00     0.158 A 
BRANCH  15  18
ATOM     18  O   UNL     1    -120.534  -1.971  75.061  1.00  0.00    -0.504 OA
ATOM     19  H   UNL     1    -121.536  -1.869  75.175  1.00  0.00     0.293 HD
ENDBRANCH  15  18
BRANCH  17  20
ATOM     20  O   UNL     1    -121.187  -0.361  77.234  1.00  0.00    -0.504 OA
ATOM     21  H   UNL     1    -121.396   0.309  76.503  1.00  0.00     0.293 HD
ENDBRANCH  17  20
ENDBRANCH   1  12
BRANCH   2  22
ATOM     22  O   UNL     1    -116.243   0.586  78.904  1.00  0.00    -0.502 OA
ATOM     23  H   UNL     1    -115.527   0.767  78.211  1.00  0.00     0.293 HD
ENDBRANCH   2  22
BRANCH   6  24
ATOM     24  O   UNL     1    -113.491  -0.859  83.229  1.00  0.00    -0.507 OA
ATOM     25  H   UNL     1    -112.746  -1.045  83.883  1.00  0.00     0.293 HD
ENDBRANCH   6  24
BRANCH   8  26
ATOM     26  O   UNL     1    -115.744  -4.953  84.331  1.00  0.00    -0.508 OA
ATOM     27  H   UNL     1    -115.846  -4.836  85.332  1.00  0.00     0.293 HD
ENDBRANCH   8  26
TORSDOF 6
ENDMDL
MODEL 7
REMARK VINA RESULT:    -5.899      7.080     10.526
REMARK INTER + INTRA:          -7.427
REMARK INTER:                  -7.105
REMARK INTRA:                  -0.323
REMARK UNBOUND:                -0.322
REMARK SMILES O=c1c(O)c(-c2ccc(O)c(O)c2)oc2cc(O)cc(O)c12
REMARK SMILES IDX 5 1 3 2 2 3 1 4 22 5 20 6 19 7 17 8 16 9 15 10 14 11 6 12
REMARK SMILES IDX 7 13 8 14 9 15 13 16 11 17 10 18 12 20 4 22 21 24 18 26
REMARK H PARENT 10 19 12 21 4 23 21 25 18 27
REMARK Flexibility Score: inf
ROOT
ATOM      1  C   UNL     1    -108.777  -2.613  74.904  1.00  0.00     0.180 A 
ATOM      2  C   UNL     1    -109.967  -2.809  74.182  1.00  0.00     0.208 A 
ATOM      3  C   UNL     1    -111.140  -2.173  74.617  1.00  0.00     0.238 A 
ATOM      4  O   UNL     1    -112.213  -2.396  73.998  1.00  0.00    -0.285 OA
ATOM      5  C   UNL     1    -111.106  -1.335  75.757  1.00  0.00     0.111 A 
ATOM      6  C   UNL     1    -112.227  -0.609  76.263  1.00  0.00     0.134 A 
ATOM      7  C   UNL     1    -112.110   0.085  77.474  1.00  0.00     0.093 A 
ATOM      8  C   UNL     1    -110.896   0.133  78.163  1.00  0.00     0.123 A 
ATOM      9  C   UNL     1    -109.781  -0.524  77.646  1.00  0.00     0.094 A 
ATOM     10  C   UNL     1    -109.876  -1.255  76.459  1.00  0.00     0.146 A 
ATOM     11  O   UNL     1    -108.792  -1.874  76.008  1.00  0.00    -0.452 OA
ENDROOT
BRANCH   1  12
ATOM     12  C   UNL     1    -107.495  -3.230  74.494  1.00  0.00     0.025 A 
ATOM     13  C   UNL     1    -107.131  -4.517  74.927  1.00  0.00     0.016 A 
ATOM     14  C   UNL     1    -105.927  -5.090  74.507  1.00  0.00     0.051 A 
ATOM     15  C   UNL     1    -105.078  -4.391  73.641  1.00  0.00     0.157 A 
ATOM     16  C   UNL     1    -106.649  -2.543  73.608  1.00  0.00     0.062 A 
ATOM     17  C   UNL     1    -105.441  -3.117  73.187  1.00  0.00     0.158 A 
BRANCH  15  18
ATOM     18  O   UNL     1    -103.875  -4.958  73.221  1.00  0.00    -0.504 OA
ATOM     19  H   UNL     1    -103.084  -4.383  72.952  1.00  0.00     0.293 HD
ENDBRANCH  15  18
BRANCH  17  20
ATOM     20  O   UNL     1    -104.596  -2.426  72.318  1.00  0.00    -0.504 OA
ATOM     21  H   UNL     1    -104.214  -1.520  72.561  1.00  0.00     0.293 HD
ENDBRANCH  17  20
ENDBRANCH   1  12
BRANCH   2  22
ATOM     22  O   UNL     1    -109.983  -3.658  73.071  1.00  0.00    -0.502 OA
ATOM     23  H   UNL     1    -110.177  -4.650  73.147  1.00  0.00     0.293 HD
ENDBRANCH   2  22
BRANCH   6  24
ATOM     24  O   UNL     1    -113.457  -0.516  75.606  1.00  0.00    -0.507 OA
ATOM     25  H   UNL     1    -113.756  -1.122  74.857  1.00  0.00     0.293 HD
ENDBRANCH   6  24
BRANCH   8  26
ATOM     26  O   UNL     1    -110.784   0.839  79.358  1.00  0.00    -0.508 OA
ATOM     27  H   UNL     1    -110.306   1.731  79.405  1.00  0.00     0.293 HD
ENDBRANCH   8  26
TORSDOF 6
ENDMDL
MODEL 8
REMARK VINA RESULT:    -5.858     10.246     12.083
REMARK INTER + INTRA:          -7.378
REMARK INTER:                  -7.076
REMARK INTRA:                  -0.302
REMARK UNBOUND:                -0.322
REMARK SMILES O=c1c(O)c(-c2ccc(O)c(O)c2)oc2cc(O)cc(O)c12
REMARK SMILES IDX 5 1 3 2 2 3 1 4 22 5 20 6 19 7 17 8 16 9 15 10 14 11 6 12
REMARK SMILES IDX 7 13 8 14 9 15 13 16 11 17 10 18 12 20 4 22 21 24 18 26
REMARK H PARENT 10 19 12 21 4 23 21 25 18 27
REMARK Flexibility Score: inf
ROOT
ATOM      1  C   UNL     1    -106.607  -4.780  75.185  1.00  0.00     0.180 A 
ATOM      2  C   UNL     1    -105.583  -4.786  74.221  1.00  0.00     0.208 A 
ATOM      3  C   UNL     1    -105.196  -3.572  73.631  1.00  0.00     0.238 A 
ATOM      4  O   UNL     1    -104.316  -3.592  72.731  1.00  0.00    -0.285 OA
ATOM      5  C   UNL     1    -105.824  -2.366  74.024  1.00  0.00     0.111 A 
ATOM      6  C   UNL     1    -105.484  -1.074  73.521  1.00  0.00     0.134 A 
ATOM      7  C   UNL     1    -106.260   0.034  73.882  1.00  0.00     0.093 A 
ATOM      8  C   UNL     1    -107.324  -0.093  74.778  1.00  0.00     0.123 A 
ATOM      9  C   UNL     1    -107.627  -1.340  75.320  1.00  0.00     0.094 A 
ATOM     10  C   UNL     1    -106.893  -2.470  74.951  1.00  0.00     0.146 A 
ATOM     11  O   UNL     1    -107.222  -3.642  75.483  1.00  0.00    -0.452 OA
ENDROOT
BRANCH   1  12
ATOM     12  C   UNL     1    -107.053  -6.015  75.868  1.00  0.00     0.025 A 
ATOM     13  C   UNL     1    -106.313  -6.576  76.924  1.00  0.00     0.016 A 
ATOM     14  C   UNL     1    -106.766  -7.729  77.571  1.00  0.00     0.051 A 
ATOM     15  C   UNL     1    -107.970  -8.329  77.182  1.00  0.00     0.157 A 
ATOM     16  C   UNL     1    -108.271  -6.609  75.497  1.00  0.00     0.062 A 
ATOM     17  C   UNL     1    -108.726  -7.767  76.146  1.00  0.00     0.158 A 
BRANCH  15  18
ATOM     18  O   UNL     1    -108.425  -9.480  77.824  1.00  0.00    -0.504 OA
ATOM     19  H   UNL     1    -108.741 -10.288  77.299  1.00  0.00     0.293 HD
ENDBRANCH  15  18
BRANCH  17  20
ATOM     20  O   UNL     1    -109.928  -8.362  75.766  1.00  0.00    -0.504 OA
ATOM     21  H   UNL     1    -110.491  -8.887  76.425  1.00  0.00     0.293 HD
ENDBRANCH  17  20
ENDBRANCH   1  12
BRANCH   2  22
ATOM     22  O   UNL     1    -104.990  -5.991  73.833  1.00  0.00    -0.502 OA
ATOM     23  H   UNL     1    -104.195  -6.029  73.207  1.00  0.00     0.293 HD
ENDBRANCH   2  22
BRANCH   6  24
ATOM     24  O   UNL     1    -104.385  -0.824  72.693  1.00  0.00    -0.507 OA
ATOM     25  H   UNL     1    -103.603  -0.236  72.938  1.00  0.00     0.293 HD
ENDBRANCH   6  24
BRANCH   8  26
ATOM     26  O   UNL     1    -108.081   1.017  75.144  1.00  0.00    -0.508 OA
ATOM     27  H   UNL     1    -108.663   1.013  75.974  1.00  0.00     0.293 HD
ENDBRANCH   8  26
TORSDOF 6
ENDMDL
MODEL 9
REMARK VINA RESULT:    -5.852      3.818      5.318
REMARK INTER + INTRA:          -7.371
REMARK INTER:                  -7.195
REMARK INTRA:                  -0.176
REMARK UNBOUND:                -0.322
REMARK SMILES O=c1c(O)c(-c2ccc(O)c(O)c2)oc2cc(O)cc(O)c12
REMARK SMILES IDX 5 1 3 2 2 3 1 4 22 5 20 6 19 7 17 8 16 9 15 10 14 11 6 12
REMARK SMILES IDX 7 13 8 14 9 15 13 16 11 17 10 18 12 20 4 22 21 24 18 26
REMARK H PARENT 10 19 12 21 4 23 21 25 18 27
REMARK Flexibility Score: inf
ROOT
ATOM      1  C   UNL     1    -114.904  -2.763  76.909  1.00  0.00     0.180 A 
ATOM      2  C   UNL     1    -114.028  -3.803  77.264  1.00  0.00     0.208 A 
ATOM      3  C   UNL     1    -112.796  -3.912  76.599  1.00  0.00     0.238 A 
ATOM      4  O   UNL     1    -112.040  -4.878  76.884  1.00  0.00    -0.285 OA
ATOM      5  C   UNL     1    -112.448  -2.970  75.602  1.00  0.00     0.111 A 
ATOM      6  C   UNL     1    -111.209  -2.962  74.893  1.00  0.00     0.134 A 
ATOM      7  C   UNL     1    -111.024  -2.062  73.835  1.00  0.00     0.093 A 
ATOM      8  C   UNL     1    -112.010  -1.129  73.503  1.00  0.00     0.123 A 
ATOM      9  C   UNL     1    -113.198  -1.091  74.228  1.00  0.00     0.094 A 
ATOM     10  C   UNL     1    -113.425  -1.999  75.265  1.00  0.00     0.146 A 
ATOM     11  O   UNL     1    -114.577  -1.935  75.923  1.00  0.00    -0.452 OA
ENDROOT
BRANCH   1  12
ATOM     12  C   UNL     1    -116.210  -2.568  77.580  1.00  0.00     0.025 A 
ATOM     13  C   UNL     1    -116.289  -2.266  78.951  1.00  0.00     0.016 A 
ATOM     14  C   UNL     1    -117.531  -2.062  79.559  1.00  0.00     0.051 A 
ATOM     15  C   UNL     1    -118.708  -2.145  78.804  1.00  0.00     0.157 A 
ATOM     16  C   UNL     1    -117.391  -2.629  76.824  1.00  0.00     0.062 A 
ATOM     17  C   UNL     1    -118.638  -2.425  77.434  1.00  0.00     0.158 A 
BRANCH  15  18
ATOM     18  O   UNL     1    -119.950  -1.944  79.406  1.00  0.00    -0.504 OA
ATOM     19  H   UNL     1    -120.644  -2.682  79.447  1.00  0.00     0.293 HD
ENDBRANCH  15  18
BRANCH  17  20
ATOM     20  O   UNL     1    -119.811  -2.500  76.683  1.00  0.00    -0.504 OA
ATOM     21  H   UNL     1    -120.026  -3.310  76.115  1.00  0.00     0.293 HD
ENDBRANCH  17  20
ENDBRANCH   1  12
BRANCH   2  22
ATOM     22  O   UNL     1    -114.401  -4.736  78.237  1.00  0.00    -0.502 OA
ATOM     23  H   UNL     1    -113.951  -5.639  78.325  1.00  0.00     0.293 HD
ENDBRANCH   2  22
BRANCH   6  24
ATOM     24  O   UNL     1    -110.126  -3.790  75.204  1.00  0.00    -0.507 OA
ATOM     25  H   UNL     1    -110.195  -4.776  75.401  1.00  0.00     0.293 HD
ENDBRANCH   6  24
BRANCH   8  26
ATOM     26  O   UNL     1    -111.812  -0.228  72.460  1.00  0.00    -0.508 OA
ATOM     27  H   UNL     1    -110.895   0.148  72.250  1.00  0.00     0.293 HD
ENDBRANCH   8  26
TORSDOF 6
ENDMDL
