MODEL 1
REMARK VINA RESULT:    -4.479      0.000      0.000
REMARK INTER + INTRA:          -5.561
REMARK INTER:                  -5.264
REMARK INTRA:                  -0.296
REMARK UNBOUND:                -0.296
REMARK SMILES O=c1c(O)c(-c2ccc(O)cc2)oc2cc(O)cc(O)c12
REMARK SMILES IDX 5 1 3 2 2 3 1 4 21 5 19 6 18 7 16 8 15 9 14 10 13 11 6 12
REMARK SMILES IDX 7 13 8 14 9 15 12 16 11 17 10 18 4 20 20 22 17 24
REMARK H PARENT 10 19 4 21 20 23 17 25
REMARK Flexibility Score: inf
ROOT
ATOM      1  C   UNL     1     -20.977  32.476  22.312  1.00  0.00     0.180 A 
ATOM      2  C   UNL     1     -19.935  32.297  23.238  1.00  0.00     0.208 A 
ATOM      3  C   UNL     1     -19.215  31.091  23.229  1.00  0.00     0.238 A 
ATOM      4  O   UNL     1     -18.247  30.959  24.025  1.00  0.00    -0.285 OA
ATOM      5  C   UNL     1     -19.557  30.073  22.307  1.00  0.00     0.111 A 
ATOM      6  C   UNL     1     -18.921  28.797  22.237  1.00  0.00     0.134 A 
ATOM      7  C   UNL     1     -19.252  27.918  21.199  1.00  0.00     0.093 A 
ATOM      8  C   UNL     1     -20.243  28.241  20.269  1.00  0.00     0.123 A 
ATOM      9  C   UNL     1     -20.911  29.460  20.365  1.00  0.00     0.094 A 
ATOM     10  C   UNL     1     -20.576  30.373  21.367  1.00  0.00     0.146 A 
ATOM     11  O   UNL     1     -21.230  31.529  21.416  1.00  0.00    -0.452 OA
ENDROOT
BRANCH   1  12
ATOM     12  C   UNL     1     -21.796  33.708  22.276  1.00  0.00     0.021 A 
ATOM     13  C   UNL     1     -21.475  34.726  21.363  1.00  0.00     0.016 A 
ATOM     14  C   UNL     1     -22.249  35.889  21.296  1.00  0.00     0.047 A 
ATOM     15  C   UNL     1     -23.362  36.042  22.129  1.00  0.00     0.115 A 
ATOM     16  C   UNL     1     -22.928  33.860  23.097  1.00  0.00     0.016 A 
ATOM     17  C   UNL     1     -23.701  35.023  23.028  1.00  0.00     0.047 A 
BRANCH  15  18
ATOM     18  O   UNL     1     -24.123  37.206  22.053  1.00  0.00    -0.508 OA
ATOM     19  H   UNL     1     -25.122  37.175  21.883  1.00  0.00     0.293 HD
ENDBRANCH  15  18
ENDBRANCH   1  12
BRANCH   2  20
ATOM     20  O   UNL     1     -19.599  33.323  24.125  1.00  0.00    -0.502 OA
ATOM     21  H   UNL     1     -19.041  34.121  23.847  1.00  0.00     0.293 HD
ENDBRANCH   2  20
BRANCH   6  22
ATOM     22  O   UNL     1     -17.986  28.339  23.169  1.00  0.00    -0.507 OA
ATOM     23  H   UNL     1     -16.997  28.531  23.134  1.00  0.00     0.293 HD
ENDBRANCH   6  22
BRANCH   8  24
ATOM     24  O   UNL     1     -20.578  27.353  19.249  1.00  0.00    -0.508 OA
ATOM     25  H   UNL     1     -21.415  26.783  19.296  1.00  0.00     0.293 HD
ENDBRANCH   8  24
TORSDOF 5
ENDMDL
MODEL 2
REMARK VINA RESULT:    -4.328      1.740      3.366
REMARK INTER + INTRA:          -5.384
REMARK INTER:                  -5.191
REMARK INTRA:                  -0.192
REMARK UNBOUND:                -0.296
REMARK SMILES O=c1c(O)c(-c2ccc(O)cc2)oc2cc(O)cc(O)c12
REMARK SMILES IDX 5 1 3 2 2 3 1 4 21 5 19 6 18 7 16 8 15 9 14 10 13 11 6 12
REMARK SMILES IDX 7 13 8 14 9 15 12 16 11 17 10 18 4 20 20 22 17 24
REMARK H PARENT 10 19 4 21 20 23 17 25
REMARK Flexibility Score: inf
ROOT
ATOM      1  C   UNL     1     -21.870  31.893  21.407  1.00  0.00     0.180 A 
ATOM      2  C   UNL     1     -22.951  31.316  20.720  1.00  0.00     0.208 A 
ATOM      3  C   UNL     1     -22.848  29.987  20.280  1.00  0.00     0.238 A 
ATOM      4  O   UNL     1     -23.841  29.458  19.713  1.00  0.00    -0.285 OA
ATOM      5  C   UNL     1     -21.658  29.257  20.516  1.00  0.00     0.111 A 
ATOM      6  C   UNL     1     -21.428  27.918  20.078  1.00  0.00     0.134 A 
ATOM      7  C   UNL     1     -20.266  27.250  20.482  1.00  0.00     0.093 A 
ATOM      8  C   UNL     1     -19.295  27.894  21.252  1.00  0.00     0.123 A 
ATOM      9  C   UNL     1     -19.482  29.221  21.633  1.00  0.00     0.094 A 
ATOM     10  C   UNL     1     -20.649  29.902  21.277  1.00  0.00     0.146 A 
ATOM     11  O   UNL     1     -20.793  31.162  21.672  1.00  0.00    -0.452 OA
ENDROOT
BRANCH   1  12
ATOM     12  C   UNL     1     -21.894  33.296  21.880  1.00  0.00     0.021 A 
ATOM     13  C   UNL     1     -21.868  33.560  23.260  1.00  0.00     0.016 A 
ATOM     14  C   UNL     1     -21.868  34.878  23.729  1.00  0.00     0.047 A 
ATOM     15  C   UNL     1     -21.879  35.946  22.827  1.00  0.00     0.115 A 
ATOM     16  C   UNL     1     -21.886  34.374  20.978  1.00  0.00     0.016 A 
ATOM     17  C   UNL     1     -21.885  35.691  21.450  1.00  0.00     0.047 A 
BRANCH  15  18
ATOM     18  O   UNL     1     -21.880  37.254  23.308  1.00  0.00    -0.508 OA
ATOM     19  H   UNL     1     -22.741  37.780  23.406  1.00  0.00     0.293 HD
ENDBRANCH  15  18
ENDBRANCH   1  12
BRANCH   2  20
ATOM     20  O   UNL     1     -24.125  32.047  20.518  1.00  0.00    -0.502 OA
ATOM     21  H   UNL     1     -24.613  32.057  19.630  1.00  0.00     0.293 HD
ENDBRANCH   2  20
BRANCH   6  22
ATOM     22  O   UNL     1     -22.290  27.215  19.231  1.00  0.00    -0.507 OA
ATOM     23  H   UNL     1     -23.260  27.023  19.430  1.00  0.00     0.293 HD
ENDBRANCH   6  22
BRANCH   8  24
ATOM     24  O   UNL     1     -18.133  27.227  21.635  1.00  0.00    -0.508 OA
ATOM     25  H   UNL     1     -17.784  26.429  21.117  1.00  0.00     0.293 HD
ENDBRANCH   8  24
TORSDOF 5
ENDMDL
MODEL 3
REMARK VINA RESULT:    -4.318      1.345      3.131
REMARK INTER + INTRA:          -5.372
REMARK INTER:                  -5.087
REMARK INTRA:                  -0.285
REMARK UNBOUND:                -0.296
REMARK SMILES O=c1c(O)c(-c2ccc(O)cc2)oc2cc(O)cc(O)c12
REMARK SMILES IDX 5 1 3 2 2 3 1 4 21 5 19 6 18 7 16 8 15 9 14 10 13 11 6 12
REMARK SMILES IDX 7 13 8 14 9 15 12 16 11 17 10 18 4 20 20 22 17 24
REMARK H PARENT 10 19 4 21 20 23 17 25
REMARK Flexibility Score: inf
ROOT
ATOM      1  C   UNL     1     -22.170  31.776  21.290  1.00  0.00     0.180 A 
ATOM      2  C   UNL     1     -22.875  30.863  20.488  1.00  0.00     0.208 A 
ATOM      3  C   UNL     1     -22.325  29.592  20.257  1.00  0.00     0.238 A 
ATOM      4  O   UNL     1     -22.987  28.760  19.583  1.00  0.00    -0.285 OA
ATOM      5  C   UNL     1     -21.069  29.256  20.817  1.00  0.00     0.111 A 
ATOM      6  C   UNL     1     -20.399  28.012  20.616  1.00  0.00     0.134 A 
ATOM      7  C   UNL     1     -19.224  27.738  21.325  1.00  0.00     0.093 A 
ATOM      8  C   UNL     1     -18.658  28.690  22.177  1.00  0.00     0.123 A 
ATOM      9  C   UNL     1     -19.273  29.930  22.334  1.00  0.00     0.094 A 
ATOM     10  C   UNL     1     -20.467  30.218  21.668  1.00  0.00     0.146 A 
ATOM     11  O   UNL     1     -21.026  31.408  21.856  1.00  0.00    -0.452 OA
ENDROOT
BRANCH   1  12
ATOM     12  C   UNL     1     -22.673  33.142  21.558  1.00  0.00     0.021 A 
ATOM     13  C   UNL     1     -22.300  34.197  20.707  1.00  0.00     0.016 A 
ATOM     14  C   UNL     1     -22.781  35.491  20.929  1.00  0.00     0.047 A 
ATOM     15  C   UNL     1     -23.653  35.745  21.992  1.00  0.00     0.115 A 
ATOM     16  C   UNL     1     -23.565  33.401  22.614  1.00  0.00     0.016 A 
ATOM     17  C   UNL     1     -24.046  34.696  22.833  1.00  0.00     0.047 A 
BRANCH  15  18
ATOM     18  O   UNL     1     -24.123  37.039  22.202  1.00  0.00    -0.508 OA
ATOM     19  H   UNL     1     -24.013  37.504  23.097  1.00  0.00     0.293 HD
ENDBRANCH  15  18
ENDBRANCH   1  12
BRANCH   2  20
ATOM     20  O   UNL     1     -24.124  31.207  19.963  1.00  0.00    -0.502 OA
ATOM     21  H   UNL     1     -24.252  31.990  19.332  1.00  0.00     0.293 HD
ENDBRANCH   2  20
BRANCH   6  22
ATOM     22  O   UNL     1     -20.829  27.030  19.717  1.00  0.00    -0.507 OA
ATOM     23  H   UNL     1     -20.516  26.072  19.719  1.00  0.00     0.293 HD
ENDBRANCH   6  22
BRANCH   8  24
ATOM     24  O   UNL     1     -17.479  28.416  22.867  1.00  0.00    -0.508 OA
ATOM     25  H   UNL     1     -16.894  29.159  23.232  1.00  0.00     0.293 HD
ENDBRANCH   8  24
TORSDOF 5
ENDMDL
MODEL 4
REMARK VINA RESULT:    -4.286      1.241      2.916
REMARK INTER + INTRA:          -5.334
REMARK INTER:                  -5.045
REMARK INTRA:                  -0.289
REMARK UNBOUND:                -0.296
REMARK SMILES O=c1c(O)c(-c2ccc(O)cc2)oc2cc(O)cc(O)c12
REMARK SMILES IDX 5 1 3 2 2 3 1 4 21 5 19 6 18 7 16 8 15 9 14 10 13 11 6 12
REMARK SMILES IDX 7 13 8 14 9 15 12 16 11 17 10 18 4 20 20 22 17 24
REMARK H PARENT 10 19 4 21 20 23 17 25
REMARK Flexibility Score: inf
ROOT
ATOM      1  C   UNL     1     -21.501  31.955  21.891  1.00  0.00     0.180 A 
ATOM      2  C   UNL     1     -22.066  30.912  21.137  1.00  0.00     0.208 A 
ATOM      3  C   UNL     1     -21.379  29.691  21.041  1.00  0.00     0.238 A 
ATOM      4  O   UNL     1     -21.915  28.743  20.410  1.00  0.00    -0.285 OA
ATOM      5  C   UNL     1     -20.128  29.534  21.686  1.00  0.00     0.111 A 
ATOM      6  C   UNL     1     -19.326  28.355  21.622  1.00  0.00     0.134 A 
ATOM      7  C   UNL     1     -18.170  28.264  22.406  1.00  0.00     0.093 A 
ATOM      8  C   UNL     1     -17.751  29.334  23.200  1.00  0.00     0.123 A 
ATOM      9  C   UNL     1     -18.496  30.512  23.223  1.00  0.00     0.094 A 
ATOM     10  C   UNL     1     -19.673  30.619  22.480  1.00  0.00     0.146 A 
ATOM     11  O   UNL     1     -20.359  31.755  22.539  1.00  0.00    -0.452 OA
ENDROOT
BRANCH   1  12
ATOM     12  C   UNL     1     -22.153  33.278  22.018  1.00  0.00     0.021 A 
ATOM     13  C   UNL     1     -21.883  34.277  21.067  1.00  0.00     0.016 A 
ATOM     14  C   UNL     1     -22.505  35.526  21.156  1.00  0.00     0.047 A 
ATOM     15  C   UNL     1     -23.416  35.788  22.185  1.00  0.00     0.115 A 
ATOM     16  C   UNL     1     -23.085  33.541  23.039  1.00  0.00     0.016 A 
ATOM     17  C   UNL     1     -23.706  34.791  23.124  1.00  0.00     0.047 A 
BRANCH  15  18
ATOM     18  O   UNL     1     -24.026  37.037  22.262  1.00  0.00    -0.508 OA
ATOM     19  H   UNL     1     -24.943  37.204  21.862  1.00  0.00     0.293 HD
ENDBRANCH  15  18
ENDBRANCH   1  12
BRANCH   2  20
ATOM     20  O   UNL     1     -23.312  31.080  20.527  1.00  0.00    -0.502 OA
ATOM     21  H   UNL     1     -23.831  31.948  20.582  1.00  0.00     0.293 HD
ENDBRANCH   2  20
BRANCH   6  22
ATOM     22  O   UNL     1     -19.605  27.266  20.791  1.00  0.00    -0.507 OA
ATOM     23  H   UNL     1     -20.333  27.246  20.094  1.00  0.00     0.293 HD
ENDBRANCH   6  22
BRANCH   8  24
ATOM     24  O   UNL     1     -16.590  29.241  23.965  1.00  0.00    -0.508 OA
ATOM     25  H   UNL     1     -16.564  29.554  24.929  1.00  0.00     0.293 HD
ENDBRANCH   8  24
TORSDOF 5
ENDMDL
MODEL 5
REMARK VINA RESULT:    -4.256      8.399     10.379
REMARK INTER + INTRA:          -5.299
REMARK INTER:                  -5.028
REMARK INTRA:                  -0.271
REMARK UNBOUND:                -0.296
REMARK SMILES O=c1c(O)c(-c2ccc(O)cc2)oc2cc(O)cc(O)c12
REMARK SMILES IDX 5 1 3 2 2 3 1 4 21 5 19 6 18 7 16 8 15 9 14 10 13 11 6 12
REMARK SMILES IDX 7 13 8 14 9 15 12 16 11 17 10 18 4 20 20 22 17 24
REMARK H PARENT 10 19 4 21 20 23 17 25
REMARK Flexibility Score: inf
ROOT
ATOM      1  C   UNL     1     -19.195  23.674  19.413  1.00  0.00     0.180 A 
ATOM      2  C   UNL     1     -20.521  23.375  19.767  1.00  0.00     0.208 A 
ATOM      3  C   UNL     1     -21.477  23.207  18.752  1.00  0.00     0.238 A 
ATOM      4  O   UNL     1     -22.651  22.886  19.075  1.00  0.00    -0.285 OA
ATOM      5  C   UNL     1     -21.098  23.356  17.397  1.00  0.00     0.111 A 
ATOM      6  C   UNL     1     -21.992  23.248  16.289  1.00  0.00     0.134 A 
ATOM      7  C   UNL     1     -21.483  23.284  14.985  1.00  0.00     0.093 A 
ATOM      8  C   UNL     1     -20.122  23.490  14.749  1.00  0.00     0.123 A 
ATOM      9  C   UNL     1     -19.250  23.657  15.822  1.00  0.00     0.094 A 
ATOM     10  C   UNL     1     -19.723  23.590  17.135  1.00  0.00     0.146 A 
ATOM     11  O   UNL     1     -18.857  23.742  18.130  1.00  0.00    -0.452 OA
ENDROOT
BRANCH   1  12
ATOM     12  C   UNL     1     -18.137  23.890  20.425  1.00  0.00     0.021 A 
ATOM     13  C   UNL     1     -17.192  22.878  20.665  1.00  0.00     0.016 A 
ATOM     14  C   UNL     1     -16.171  23.070  21.601  1.00  0.00     0.047 A 
ATOM     15  C   UNL     1     -16.072  24.278  22.298  1.00  0.00     0.115 A 
ATOM     16  C   UNL     1     -18.021  25.110  21.116  1.00  0.00     0.016 A 
ATOM     17  C   UNL     1     -16.998  25.299  22.051  1.00  0.00     0.047 A 
BRANCH  15  18
ATOM     18  O   UNL     1     -15.051  24.454  23.229  1.00  0.00    -0.508 OA
ATOM     19  H   UNL     1     -14.100  24.657  22.941  1.00  0.00     0.293 HD
ENDBRANCH  15  18
ENDBRANCH   1  12
BRANCH   2  20
ATOM     20  O   UNL     1     -20.869  23.210  21.111  1.00  0.00    -0.502 OA
ATOM     21  H   UNL     1     -20.524  23.822  21.841  1.00  0.00     0.293 HD
ENDBRANCH   2  20
BRANCH   6  22
ATOM     22  O   UNL     1     -23.380  23.132  16.415  1.00  0.00    -0.507 OA
ATOM     23  H   UNL     1     -24.048  23.785  16.036  1.00  0.00     0.293 HD
ENDBRANCH   6  22
BRANCH   8  24
ATOM     24  O   UNL     1     -19.626  23.541  13.447  1.00  0.00    -0.508 OA
ATOM     25  H   UNL     1     -20.239  23.673  12.651  1.00  0.00     0.293 HD
ENDBRANCH   8  24
TORSDOF 5
ENDMDL
MODEL 6
REMARK VINA RESULT:    -4.114      9.144     11.238
REMARK INTER + INTRA:          -5.132
REMARK INTER:                  -5.325
REMARK INTRA:                   0.193
REMARK UNBOUND:                -0.296
REMARK SMILES O=c1c(O)c(-c2ccc(O)cc2)oc2cc(O)cc(O)c12
REMARK SMILES IDX 5 1 3 2 2 3 1 4 21 5 19 6 18 7 16 8 15 9 14 10 13 11 6 12
REMARK SMILES IDX 7 13 8 14 9 15 12 16 11 17 10 18 4 20 20 22 17 24
REMARK H PARENT 10 19 4 21 20 23 17 25
REMARK Flexibility Score: inf
ROOT
ATOM      1  C   UNL     1     -21.519  23.544  15.866  1.00  0.00     0.180 A 
ATOM      2  C   UNL     1     -22.465  23.875  16.851  1.00  0.00     0.208 A 
ATOM      3  C   UNL     1     -22.067  23.898  18.198  1.00  0.00     0.238 A 
ATOM      4  O   UNL     1     -22.906  24.248  19.070  1.00  0.00    -0.285 OA
ATOM      5  C   UNL     1     -20.734  23.572  18.544  1.00  0.00     0.111 A 
ATOM      6  C   UNL     1     -20.232  23.524  19.879  1.00  0.00     0.134 A 
ATOM      7  C   UNL     1     -18.865  23.319  20.096  1.00  0.00     0.093 A 
ATOM      8  C   UNL     1     -17.992  23.096  19.029  1.00  0.00     0.123 A 
ATOM      9  C   UNL     1     -18.482  23.081  17.724  1.00  0.00     0.094 A 
ATOM     10  C   UNL     1     -19.836  23.319  17.475  1.00  0.00     0.146 A 
ATOM     11  O   UNL     1     -20.260  23.309  16.216  1.00  0.00    -0.452 OA
ENDROOT
BRANCH   1  12
ATOM     12  C   UNL     1     -21.869  23.475  14.429  1.00  0.00     0.021 A 
ATOM     13  C   UNL     1     -20.910  23.835  13.466  1.00  0.00     0.016 A 
ATOM     14  C   UNL     1     -21.212  23.756  12.103  1.00  0.00     0.047 A 
ATOM     15  C   UNL     1     -22.466  23.302  11.684  1.00  0.00     0.115 A 
ATOM     16  C   UNL     1     -23.122  23.000  14.001  1.00  0.00     0.016 A 
ATOM     17  C   UNL     1     -23.419  22.921  12.637  1.00  0.00     0.047 A 
BRANCH  15  18
ATOM     18  O   UNL     1     -22.753  23.230  10.323  1.00  0.00    -0.508 OA
ATOM     19  H   UNL     1     -22.042  23.404   9.622  1.00  0.00     0.293 HD
ENDBRANCH  15  18
ENDBRANCH   1  12
BRANCH   2  20
ATOM     20  O   UNL     1     -23.770  24.214  16.485  1.00  0.00    -0.502 OA
ATOM     21  H   UNL     1     -24.558  23.597  16.645  1.00  0.00     0.293 HD
ENDBRANCH   2  20
BRANCH   6  22
ATOM     22  O   UNL     1     -21.034  23.643  21.018  1.00  0.00    -0.507 OA
ATOM     23  H   UNL     1     -22.042  23.604  21.019  1.00  0.00     0.293 HD
ENDBRANCH   6  22
BRANCH   8  24
ATOM     24  O   UNL     1     -16.634  22.877  19.254  1.00  0.00    -0.508 OA
ATOM     25  H   UNL     1     -16.147  22.092  18.835  1.00  0.00     0.293 HD
ENDBRANCH   8  24
TORSDOF 5
ENDMDL
MODEL 7
REMARK VINA RESULT:    -3.954      3.182      5.880
REMARK INTER + INTRA:          -4.944
REMARK INTER:                  -4.803
REMARK INTRA:                  -0.141
REMARK UNBOUND:                -0.296
REMARK SMILES O=c1c(O)c(-c2ccc(O)cc2)oc2cc(O)cc(O)c12
REMARK SMILES IDX 5 1 3 2 2 3 1 4 21 5 19 6 18 7 16 8 15 9 14 10 13 11 6 12
REMARK SMILES IDX 7 13 8 14 9 15 12 16 11 17 10 18 4 20 20 22 17 24
REMARK H PARENT 10 19 4 21 20 23 17 25
REMARK Flexibility Score: inf
ROOT
ATOM      1  C   UNL     1     -20.222  27.490  21.087  1.00  0.00     0.180 A 
ATOM      2  C   UNL     1     -20.462  26.511  20.109  1.00  0.00     0.208 A 
ATOM      3  C   UNL     1     -19.591  25.413  20.015  1.00  0.00     0.238 A 
ATOM      4  O   UNL     1     -19.843  24.512  19.172  1.00  0.00    -0.285 OA
ATOM      5  C   UNL     1     -18.482  25.317  20.889  1.00  0.00     0.111 A 
ATOM      6  C   UNL     1     -17.512  24.270  20.856  1.00  0.00     0.134 A 
ATOM      7  C   UNL     1     -16.532  24.206  21.853  1.00  0.00     0.093 A 
ATOM      8  C   UNL     1     -16.445  25.187  22.843  1.00  0.00     0.123 A 
ATOM      9  C   UNL     1     -17.350  26.247  22.848  1.00  0.00     0.094 A 
ATOM     10  C   UNL     1     -18.362  26.318  21.888  1.00  0.00     0.146 A 
ATOM     11  O   UNL     1     -19.211  27.338  21.936  1.00  0.00    -0.452 OA
ENDROOT
BRANCH   1  12
ATOM     12  C   UNL     1     -21.080  28.687  21.232  1.00  0.00     0.021 A 
ATOM     13  C   UNL     1     -22.404  28.540  21.681  1.00  0.00     0.016 A 
ATOM     14  C   UNL     1     -23.225  29.660  21.846  1.00  0.00     0.047 A 
ATOM     15  C   UNL     1     -22.731  30.941  21.581  1.00  0.00     0.115 A 
ATOM     16  C   UNL     1     -20.583  29.980  20.985  1.00  0.00     0.016 A 
ATOM     17  C   UNL     1     -21.406  31.098  21.153  1.00  0.00     0.047 A 
BRANCH  15  18
ATOM     18  O   UNL     1     -23.560  32.047  21.748  1.00  0.00    -0.508 OA
ATOM     19  H   UNL     1     -24.236  32.093  22.502  1.00  0.00     0.293 HD
ENDBRANCH  15  18
ENDBRANCH   1  12
BRANCH   2  20
ATOM     20  O   UNL     1     -21.575  26.614  19.271  1.00  0.00    -0.502 OA
ATOM     21  H   UNL     1     -22.502  26.327  19.560  1.00  0.00     0.293 HD
ENDBRANCH   2  20
BRANCH   6  22
ATOM     22  O   UNL     1     -17.454  23.292  19.858  1.00  0.00    -0.507 OA
ATOM     23  H   UNL     1     -18.257  22.881  19.409  1.00  0.00     0.293 HD
ENDBRANCH   6  22
BRANCH   8  24
ATOM     24  O   UNL     1     -15.456  25.125  23.822  1.00  0.00    -0.508 OA
ATOM     25  H   UNL     1     -15.634  24.711  24.730  1.00  0.00     0.293 HD
ENDBRANCH   8  24
TORSDOF 5
ENDMDL
MODEL 8
REMARK VINA RESULT:    -3.822      8.478     10.447
REMARK INTER + INTRA:          -4.789
REMARK INTER:                  -4.876
REMARK INTRA:                   0.087
REMARK UNBOUND:                -0.296
REMARK SMILES O=c1c(O)c(-c2ccc(O)cc2)oc2cc(O)cc(O)c12
REMARK SMILES IDX 5 1 3 2 2 3 1 4 21 5 19 6 18 7 16 8 15 9 14 10 13 11 6 12
REMARK SMILES IDX 7 13 8 14 9 15 12 16 11 17 10 18 4 20 20 22 17 24
REMARK H PARENT 10 19 4 21 20 23 17 25
REMARK Flexibility Score: inf
ROOT
ATOM      1  C   UNL     1     -20.253  23.698  17.554  1.00  0.00     0.180 A 
ATOM      2  C   UNL     1     -21.234  24.139  18.458  1.00  0.00     0.208 A 
ATOM      3  C   UNL     1     -20.923  24.201  19.826  1.00  0.00     0.238 A 
ATOM      4  O   UNL     1     -21.789  24.648  20.623  1.00  0.00    -0.285 OA
ATOM      5  C   UNL     1     -19.640  23.806  20.275  1.00  0.00     0.111 A 
ATOM      6  C   UNL     1     -19.230  23.789  21.642  1.00  0.00     0.134 A 
ATOM      7  C   UNL     1     -17.896  23.506  21.958  1.00  0.00     0.093 A 
ATOM      8  C   UNL     1     -16.974  23.173  20.963  1.00  0.00     0.123 A 
ATOM      9  C   UNL     1     -17.380  23.127  19.631  1.00  0.00     0.094 A 
ATOM     10  C   UNL     1     -18.695  23.441  19.281  1.00  0.00     0.146 A 
ATOM     11  O   UNL     1     -19.038  23.398  17.998  1.00  0.00    -0.452 OA
ENDROOT
BRANCH   1  12
ATOM     12  C   UNL     1     -20.513  23.582  16.102  1.00  0.00     0.021 A 
ATOM     13  C   UNL     1     -19.530  23.997  15.187  1.00  0.00     0.016 A 
ATOM     14  C   UNL     1     -19.747  23.876  13.811  1.00  0.00     0.047 A 
ATOM     15  C   UNL     1     -20.939  23.325  13.331  1.00  0.00     0.115 A 
ATOM     16  C   UNL     1     -21.702  23.011  15.613  1.00  0.00     0.016 A 
ATOM     17  C   UNL     1     -21.915  22.890  14.236  1.00  0.00     0.047 A 
BRANCH  15  18
ATOM     18  O   UNL     1     -21.141  23.212  11.958  1.00  0.00    -0.508 OA
ATOM     19  H   UNL     1     -22.067  23.284  11.551  1.00  0.00     0.293 HD
ENDBRANCH  15  18
ENDBRANCH   1  12
BRANCH   2  20
ATOM     20  O   UNL     1     -22.487  24.546  17.991  1.00  0.00    -0.502 OA
ATOM     21  H   UNL     1     -23.341  24.054  18.226  1.00  0.00     0.293 HD
ENDBRANCH   2  20
BRANCH   6  22
ATOM     22  O   UNL     1     -20.093  24.017  22.718  1.00  0.00    -0.507 OA
ATOM     23  H   UNL     1     -19.817  24.009  23.688  1.00  0.00     0.293 HD
ENDBRANCH   6  22
BRANCH   8  24
ATOM     24  O   UNL     1     -15.652  22.876  21.288  1.00  0.00    -0.508 OA
ATOM     25  H   UNL     1     -14.897  23.032  20.631  1.00  0.00     0.293 HD
ENDBRANCH   8  24
TORSDOF 5
ENDMDL
MODEL 9
REMARK VINA RESULT:    -3.670      2.498      3.144
REMARK INTER + INTRA:          -4.610
REMARK INTER:                  -4.332
REMARK INTRA:                  -0.277
REMARK UNBOUND:                -0.296
REMARK SMILES O=c1c(O)c(-c2ccc(O)cc2)oc2cc(O)cc(O)c12
REMARK SMILES IDX 5 1 3 2 2 3 1 4 21 5 19 6 18 7 16 8 15 9 14 10 13 11 6 12
REMARK SMILES IDX 7 13 8 14 9 15 12 16 11 17 10 18 4 20 20 22 17 24
REMARK H PARENT 10 19 4 21 20 23 17 25
REMARK Flexibility Score: inf
ROOT
ATOM      1  C   UNL     1     -22.508  31.366  21.635  1.00  0.00     0.180 A 
ATOM      2  C   UNL     1     -23.350  30.776  22.594  1.00  0.00     0.208 A 
ATOM      3  C   UNL     1     -23.410  29.376  22.679  1.00  0.00     0.238 A 
ATOM      4  O   UNL     1     -24.125  28.855  23.575  1.00  0.00    -0.285 OA
ATOM      5  C   UNL     1     -22.641  28.583  21.794  1.00  0.00     0.111 A 
ATOM      6  C   UNL     1     -22.656  27.155  21.764  1.00  0.00     0.134 A 
ATOM      7  C   UNL     1     -21.756  26.473  20.937  1.00  0.00     0.093 A 
ATOM      8  C   UNL     1     -20.888  27.166  20.089  1.00  0.00     0.123 A 
ATOM      9  C   UNL     1     -20.909  28.559  20.067  1.00  0.00     0.094 A 
ATOM     10  C   UNL     1     -21.769  29.268  20.908  1.00  0.00     0.146 A 
ATOM     11  O   UNL     1     -21.748  30.595  20.865  1.00  0.00    -0.452 OA
ENDROOT
BRANCH   1  12
ATOM     12  C   UNL     1     -22.409  32.833  21.469  1.00  0.00     0.021 A 
ATOM     13  C   UNL     1     -23.225  33.478  20.524  1.00  0.00     0.016 A 
ATOM     14  C   UNL     1     -23.164  34.867  20.366  1.00  0.00     0.047 A 
ATOM     15  C   UNL     1     -22.300  35.629  21.158  1.00  0.00     0.115 A 
ATOM     16  C   UNL     1     -21.557  33.607  22.277  1.00  0.00     0.016 A 
ATOM     17  C   UNL     1     -21.499  34.995  22.117  1.00  0.00     0.047 A 
BRANCH  15  18
ATOM     18  O   UNL     1     -22.249  37.010  20.989  1.00  0.00    -0.508 OA
ATOM     19  H   UNL     1     -22.945  37.503  20.440  1.00  0.00     0.293 HD
ENDBRANCH  15  18
ENDBRANCH   1  12
BRANCH   2  20
ATOM     20  O   UNL     1     -24.084  31.578  23.472  1.00  0.00    -0.502 OA
ATOM     21  H   UNL     1     -24.644  31.192  24.222  1.00  0.00     0.293 HD
ENDBRANCH   2  20
BRANCH   6  22
ATOM     22  O   UNL     1     -23.545  26.369  22.502  1.00  0.00    -0.507 OA
ATOM     23  H   UNL     1     -24.336  26.725  23.017  1.00  0.00     0.293 HD
ENDBRANCH   6  22
BRANCH   8  24
ATOM     24  O   UNL     1     -20.007  26.479  19.256  1.00  0.00    -0.508 OA
ATOM     25  H   UNL     1     -19.058  26.802  19.109  1.00  0.00     0.293 HD
ENDBRANCH   8  24
TORSDOF 5
ENDMDL
