MODEL 1
REMARK VINA RESULT:    -3.954      0.000      0.000
REMARK INTER + INTRA:          -8.882
REMARK INTER:                  -7.189
REMARK INTRA:                  -1.693
REMARK UNBOUND:                -1.693
REMARK SMILES CCCCCCCCCCCCCCCC(=O)[O-]
REMARK SMILES IDX 9 1 10 2 11 3 12 4 13 5 14 6 15 7 16 8 17 9 18 10 8 11 7 12
REMARK SMILES IDX 6 13 5 14 4 15 3 16 2 17 1 18
REMARK H PARENT
REMARK Flexibility Score: inf
ROOT
ATOM      1  C   UNL     1      -3.216  25.464   0.889  1.00  0.00     0.000 C 
ENDROOT
BRANCH   1   2
ATOM      2  C   UNL     1      -3.227  26.978   0.621  1.00  0.00     0.000 C 
BRANCH   2   3
ATOM      3  C   UNL     1      -3.993  27.773   1.696  1.00  0.00     0.000 C 
BRANCH   3   4
ATOM      4  C   UNL     1      -4.945  28.858   1.159  1.00  0.00     0.000 C 
BRANCH   4   5
ATOM      5  C   UNL     1      -5.220  28.721  -0.348  1.00  0.00     0.000 C 
BRANCH   5   6
ATOM      6  C   UNL     1      -5.279  30.081  -1.063  1.00  0.00     0.006 C 
BRANCH   6   7
ATOM      7  C   UNL     1      -5.676  31.226  -0.123  1.00  0.00     0.053 C 
BRANCH   7   8
ATOM      8  C   UNL     1      -7.119  31.575  -0.309  1.00  0.00     0.041 C 
ATOM      9  O   UNL     1      -7.546  31.933  -1.439  1.00  0.00    -0.550 OA
ATOM     10  O   UNL     1      -8.004  31.459   0.756  1.00  0.00    -0.550 OA
ENDBRANCH   7   8
ENDBRANCH   6   7
ENDBRANCH   5   6
ENDBRANCH   4   5
ENDBRANCH   3   4
ENDBRANCH   2   3
ENDBRANCH   1   2
BRANCH   1  11
ATOM     11  C   UNL     1      -4.135  25.063   2.054  1.00  0.00     0.000 C 
BRANCH  11  12
ATOM     12  C   UNL     1      -5.217  24.050   1.640  1.00  0.00    -0.000 C 
BRANCH  12  13
ATOM     13  C   UNL     1      -6.594  24.386   2.252  1.00  0.00    -0.000 C 
BRANCH  13  14
ATOM     14  C   UNL     1      -7.085  25.806   1.921  1.00  0.00    -0.000 C 
BRANCH  14  15
ATOM     15  C   UNL     1      -7.454  26.617   3.170  1.00  0.00    -0.000 C 
BRANCH  15  16
ATOM     16  C   UNL     1      -8.398  25.822   4.085  1.00  0.00    -0.000 C 
BRANCH  16  17
ATOM     17  C   UNL     1      -7.774  25.519   5.456  1.00  0.00    -0.003 C 
ATOM     18  C   UNL     1      -6.592  26.432   5.783  1.00  0.00     0.004 C 
ENDBRANCH  16  17
ENDBRANCH  15  16
ENDBRANCH  14  15
ENDBRANCH  13  14
ENDBRANCH  12  13
ENDBRANCH  11  12
ENDBRANCH   1  11
TORSDOF 14
ENDMDL
MODEL 2
REMARK VINA RESULT:    -3.917      3.253      4.022
REMARK INTER + INTRA:          -8.816
REMARK INTER:                  -7.122
REMARK INTRA:                  -1.693
REMARK UNBOUND:                -1.693
REMARK SMILES CCCCCCCCCCCCCCCC(=O)[O-]
REMARK SMILES IDX 9 1 10 2 11 3 12 4 13 5 14 6 15 7 16 8 17 9 18 10 8 11 7 12
REMARK SMILES IDX 6 13 5 14 4 15 3 16 2 17 1 18
REMARK H PARENT
REMARK Flexibility Score: inf
ROOT
ATOM      1  C   UNL     1      -4.067  23.212   0.411  1.00  0.00     0.000 C 
ENDROOT
BRANCH   1   2
ATOM      2  C   UNL     1      -2.789  23.946  -0.028  1.00  0.00     0.000 C 
BRANCH   2   3
ATOM      3  C   UNL     1      -3.078  25.201  -0.874  1.00  0.00     0.000 C 
BRANCH   3   4
ATOM      4  C   UNL     1      -2.365  26.485  -0.410  1.00  0.00     0.000 C 
BRANCH   4   5
ATOM      5  C   UNL     1      -3.075  27.173   0.768  1.00  0.00     0.000 C 
BRANCH   5   6
ATOM      6  C   UNL     1      -2.331  26.982   2.099  1.00  0.00     0.006 C 
BRANCH   6   7
ATOM      7  C   UNL     1      -2.986  27.744   3.258  1.00  0.00     0.053 C 
BRANCH   7   8
ATOM      8  C   UNL     1      -2.221  28.995   3.557  1.00  0.00     0.041 C 
ATOM      9  O   UNL     1      -2.821  30.097   3.660  1.00  0.00    -0.550 OA
ATOM     10  O   UNL     1      -0.849  28.935   3.771  1.00  0.00    -0.550 OA
ENDBRANCH   7   8
ENDBRANCH   6   7
ENDBRANCH   5   6
ENDBRANCH   4   5
ENDBRANCH   3   4
ENDBRANCH   2   3
ENDBRANCH   1   2
BRANCH   1  11
ATOM     11  C   UNL     1      -4.932  24.051   1.364  1.00  0.00     0.000 C 
BRANCH  11  12
ATOM     12  C   UNL     1      -6.322  24.370   0.785  1.00  0.00    -0.000 C 
BRANCH  12  13
ATOM     13  C   UNL     1      -6.622  25.885   0.791  1.00  0.00    -0.000 C 
BRANCH  13  14
ATOM     14  C   UNL     1      -6.357  26.559   2.147  1.00  0.00    -0.000 C 
BRANCH  14  15
ATOM     15  C   UNL     1      -7.443  26.256   3.189  1.00  0.00    -0.000 C 
BRANCH  15  16
ATOM     16  C   UNL     1      -6.830  26.069   4.585  1.00  0.00    -0.000 C 
BRANCH  16  17
ATOM     17  C   UNL     1      -7.872  25.652   5.635  1.00  0.00    -0.003 C 
ATOM     18  C   UNL     1      -7.412  25.929   7.066  1.00  0.00     0.004 C 
ENDBRANCH  16  17
ENDBRANCH  15  16
ENDBRANCH  14  15
ENDBRANCH  13  14
ENDBRANCH  12  13
ENDBRANCH  11  12
ENDBRANCH   1  11
TORSDOF 14
ENDMDL
MODEL 3
REMARK VINA RESULT:    -3.915      1.864      2.390
REMARK INTER + INTRA:          -8.813
REMARK INTER:                  -7.290
REMARK INTRA:                  -1.523
REMARK UNBOUND:                -1.693
REMARK SMILES CCCCCCCCCCCCCCCC(=O)[O-]
REMARK SMILES IDX 9 1 10 2 11 3 12 4 13 5 14 6 15 7 16 8 17 9 18 10 8 11 7 12
REMARK SMILES IDX 6 13 5 14 4 15 3 16 2 17 1 18
REMARK H PARENT
REMARK Flexibility Score: inf
ROOT
ATOM      1  C   UNL     1      -3.512  25.366   2.028  1.00  0.00     0.000 C 
ENDROOT
BRANCH   1   2
ATOM      2  C   UNL     1      -3.425  26.529   3.030  1.00  0.00     0.000 C 
BRANCH   2   3
ATOM      3  C   UNL     1      -2.313  27.538   2.684  1.00  0.00     0.000 C 
BRANCH   3   4
ATOM      4  C   UNL     1      -2.207  28.750   3.629  1.00  0.00     0.000 C 
BRANCH   4   5
ATOM      5  C   UNL     1      -2.811  30.031   3.030  1.00  0.00     0.000 C 
BRANCH   5   6
ATOM      6  C   UNL     1      -2.844  30.006   1.493  1.00  0.00     0.006 C 
BRANCH   6   7
ATOM      7  C   UNL     1      -4.025  30.797   0.915  1.00  0.00     0.053 C 
BRANCH   7   8
ATOM      8  C   UNL     1      -5.136  29.869   0.534  1.00  0.00     0.041 C 
ATOM      9  O   UNL     1      -4.975  28.622   0.607  1.00  0.00    -0.550 OA
ATOM     10  O   UNL     1      -6.366  30.383   0.143  1.00  0.00    -0.550 OA
ENDBRANCH   7   8
ENDBRANCH   6   7
ENDBRANCH   5   6
ENDBRANCH   4   5
ENDBRANCH   3   4
ENDBRANCH   2   3
ENDBRANCH   1   2
BRANCH   1  11
ATOM     11  C   UNL     1      -4.834  24.590   2.139  1.00  0.00     0.000 C 
BRANCH  11  12
ATOM     12  C   UNL     1      -5.652  24.614   0.836  1.00  0.00    -0.000 C 
BRANCH  12  13
ATOM     13  C   UNL     1      -7.059  25.215   1.043  1.00  0.00    -0.000 C 
BRANCH  13  14
ATOM     14  C   UNL     1      -7.171  26.101   2.295  1.00  0.00    -0.000 C 
BRANCH  14  15
ATOM     15  C   UNL     1      -8.417  25.791   3.137  1.00  0.00    -0.000 C 
BRANCH  15  16
ATOM     16  C   UNL     1      -8.072  25.739   4.633  1.00  0.00    -0.000 C 
BRANCH  16  17
ATOM     17  C   UNL     1      -6.660  26.267   4.930  1.00  0.00    -0.003 C 
ATOM     18  C   UNL     1      -6.452  26.600   6.408  1.00  0.00     0.004 C 
ENDBRANCH  16  17
ENDBRANCH  15  16
ENDBRANCH  14  15
ENDBRANCH  13  14
ENDBRANCH  12  13
ENDBRANCH  11  12
ENDBRANCH   1  11
TORSDOF 14
ENDMDL
MODEL 4
REMARK VINA RESULT:    -3.903      1.870      3.219
REMARK INTER + INTRA:          -8.791
REMARK INTER:                  -6.350
REMARK INTRA:                  -2.440
REMARK UNBOUND:                -1.693
REMARK SMILES CCCCCCCCCCCCCCCC(=O)[O-]
REMARK SMILES IDX 9 1 10 2 11 3 12 4 13 5 14 6 15 7 16 8 17 9 18 10 8 11 7 12
REMARK SMILES IDX 6 13 5 14 4 15 3 16 2 17 1 18
REMARK H PARENT
REMARK Flexibility Score: inf
ROOT
ATOM      1  C   UNL     1      -2.593  26.581  -0.512  1.00  0.00     0.000 C 
ENDROOT
BRANCH   1   2
ATOM      2  C   UNL     1      -3.283  27.953  -0.602  1.00  0.00     0.000 C 
BRANCH   2   3
ATOM      3  C   UNL     1      -4.799  27.881  -0.334  1.00  0.00     0.000 C 
BRANCH   3   4
ATOM      4  C   UNL     1      -5.350  28.959   0.617  1.00  0.00     0.000 C 
BRANCH   4   5
ATOM      5  C   UNL     1      -4.468  30.217   0.673  1.00  0.00     0.000 C 
BRANCH   5   6
ATOM      6  C   UNL     1      -5.202  31.475   0.179  1.00  0.00     0.006 C 
BRANCH   6   7
ATOM      7  C   UNL     1      -5.670  31.353  -1.277  1.00  0.00     0.053 C 
BRANCH   7   8
ATOM      8  C   UNL     1      -7.076  31.847  -1.414  1.00  0.00     0.041 C 
ATOM      9  O   UNL     1      -8.041  31.130  -1.036  1.00  0.00    -0.550 OA
ATOM     10  O   UNL     1      -7.319  33.120  -1.916  1.00  0.00    -0.550 OA
ENDBRANCH   7   8
ENDBRANCH   6   7
ENDBRANCH   5   6
ENDBRANCH   4   5
ENDBRANCH   3   4
ENDBRANCH   2   3
ENDBRANCH   1   2
BRANCH   1  11
ATOM     11  C   UNL     1      -1.780  26.413   0.782  1.00  0.00     0.000 C 
BRANCH  11  12
ATOM     12  C   UNL     1      -1.788  27.676   1.661  1.00  0.00    -0.000 C 
BRANCH  12  13
ATOM     13  C   UNL     1      -2.573  27.467   2.975  1.00  0.00    -0.000 C 
BRANCH  13  14
ATOM     14  C   UNL     1      -3.336  26.133   3.029  1.00  0.00    -0.000 C 
BRANCH  14  15
ATOM     15  C   UNL     1      -4.839  26.313   3.286  1.00  0.00    -0.000 C 
BRANCH  15  16
ATOM     16  C   UNL     1      -5.670  25.475   2.303  1.00  0.00    -0.000 C 
BRANCH  16  17
ATOM     17  C   UNL     1      -4.952  24.187   1.873  1.00  0.00    -0.003 C 
ATOM     18  C   UNL     1      -4.942  23.992   0.357  1.00  0.00     0.004 C 
ENDBRANCH  16  17
ENDBRANCH  15  16
ENDBRANCH  14  15
ENDBRANCH  13  14
ENDBRANCH  12  13
ENDBRANCH  11  12
ENDBRANCH   1  11
TORSDOF 14
ENDMDL
MODEL 5
REMARK VINA RESULT:    -3.850      1.826      3.512
REMARK INTER + INTRA:          -8.694
REMARK INTER:                  -6.327
REMARK INTRA:                  -2.367
REMARK UNBOUND:                -1.693
REMARK SMILES CCCCCCCCCCCCCCCC(=O)[O-]
REMARK SMILES IDX 9 1 10 2 11 3 12 4 13 5 14 6 15 7 16 8 17 9 18 10 8 11 7 12
REMARK SMILES IDX 6 13 5 14 4 15 3 16 2 17 1 18
REMARK H PARENT
REMARK Flexibility Score: inf
ROOT
ATOM      1  C   UNL     1      -3.102  26.129   2.846  1.00  0.00     0.000 C 
ENDROOT
BRANCH   1   2
ATOM      2  C   UNL     1      -2.511  27.479   2.406  1.00  0.00     0.000 C 
BRANCH   2   3
ATOM      3  C   UNL     1      -2.217  27.542   0.895  1.00  0.00     0.000 C 
BRANCH   3   4
ATOM      4  C   UNL     1      -3.144  28.464   0.082  1.00  0.00     0.000 C 
BRANCH   4   5
ATOM      5  C   UNL     1      -3.833  29.534   0.945  1.00  0.00     0.000 C 
BRANCH   5   6
ATOM      6  C   UNL     1      -5.280  29.808   0.502  1.00  0.00     0.006 C 
BRANCH   6   7
ATOM      7  C   UNL     1      -5.560  31.302   0.291  1.00  0.00     0.053 C 
BRANCH   7   8
ATOM      8  C   UNL     1      -6.988  31.512  -0.103  1.00  0.00     0.041 C 
ATOM      9  O   UNL     1      -7.893  31.526   0.773  1.00  0.00    -0.550 OA
ATOM     10  O   UNL     1      -7.315  31.742  -1.434  1.00  0.00    -0.550 OA
ENDBRANCH   7   8
ENDBRANCH   6   7
ENDBRANCH   5   6
ENDBRANCH   4   5
ENDBRANCH   3   4
ENDBRANCH   2   3
ENDBRANCH   1   2
BRANCH   1  11
ATOM     11  C   UNL     1      -4.543  26.256   3.365  1.00  0.00     0.000 C 
BRANCH  11  12
ATOM     12  C   UNL     1      -5.554  25.457   2.524  1.00  0.00    -0.000 C 
BRANCH  12  13
ATOM     13  C   UNL     1      -6.388  26.367   1.596  1.00  0.00    -0.000 C 
BRANCH  13  14
ATOM     14  C   UNL     1      -5.995  26.259   0.113  1.00  0.00    -0.000 C 
BRANCH  14  15
ATOM     15  C   UNL     1      -5.526  24.852  -0.281  1.00  0.00    -0.000 C 
BRANCH  15  16
ATOM     16  C   UNL     1      -4.101  24.886  -0.853  1.00  0.00    -0.000 C 
BRANCH  16  17
ATOM     17  C   UNL     1      -3.141  23.951  -0.102  1.00  0.00    -0.003 C 
ATOM     18  C   UNL     1      -3.726  22.555   0.117  1.00  0.00     0.004 C 
ENDBRANCH  16  17
ENDBRANCH  15  16
ENDBRANCH  14  15
ENDBRANCH  13  14
ENDBRANCH  12  13
ENDBRANCH  11  12
ENDBRANCH   1  11
TORSDOF 14
ENDMDL
MODEL 6
REMARK VINA RESULT:    -3.833      4.164      6.352
REMARK INTER + INTRA:          -8.663
REMARK INTER:                  -6.978
REMARK INTRA:                  -1.686
REMARK UNBOUND:                -1.693
REMARK SMILES CCCCCCCCCCCCCCCC(=O)[O-]
REMARK SMILES IDX 9 1 10 2 11 3 12 4 13 5 14 6 15 7 16 8 17 9 18 10 8 11 7 12
REMARK SMILES IDX 6 13 5 14 4 15 3 16 2 17 1 18
REMARK H PARENT
REMARK Flexibility Score: inf
ROOT
ATOM      1  C   UNL     1      -1.031  22.703  -0.664  1.00  0.00     0.000 C 
ENDROOT
BRANCH   1   2
ATOM      2  C   UNL     1      -1.875  21.617   0.025  1.00  0.00     0.000 C 
BRANCH   2   3
ATOM      3  C   UNL     1      -3.360  21.661  -0.383  1.00  0.00     0.000 C 
BRANCH   3   4
ATOM      4  C   UNL     1      -3.768  22.867  -1.249  1.00  0.00     0.000 C 
BRANCH   4   5
ATOM      5  C   UNL     1      -4.721  23.832  -0.523  1.00  0.00     0.000 C 
BRANCH   5   6
ATOM      6  C   UNL     1      -4.786  23.569   0.991  1.00  0.00     0.006 C 
BRANCH   6   7
ATOM      7  C   UNL     1      -5.465  24.709   1.760  1.00  0.00     0.053 C 
BRANCH   7   8
ATOM      8  C   UNL     1      -6.875  24.340   2.100  1.00  0.00     0.041 C 
ATOM      9  O   UNL     1      -7.339  24.592   3.244  1.00  0.00    -0.550 OA
ATOM     10  O   UNL     1      -7.693  23.762   1.137  1.00  0.00    -0.550 OA
ENDBRANCH   7   8
ENDBRANCH   6   7
ENDBRANCH   5   6
ENDBRANCH   4   5
ENDBRANCH   3   4
ENDBRANCH   2   3
ENDBRANCH   1   2
BRANCH   1  11
ATOM     11  C   UNL     1      -0.598  23.816   0.304  1.00  0.00     0.000 C 
BRANCH  11  12
ATOM     12  C   UNL     1      -0.370  25.165  -0.401  1.00  0.00    -0.000 C 
BRANCH  12  13
ATOM     13  C   UNL     1      -1.384  26.238   0.052  1.00  0.00    -0.000 C 
BRANCH  13  14
ATOM     14  C   UNL     1      -2.026  25.939   1.417  1.00  0.00    -0.000 C 
BRANCH  14  15
ATOM     15  C   UNL     1      -2.450  27.208   2.169  1.00  0.00    -0.000 C 
BRANCH  15  16
ATOM     16  C   UNL     1      -1.548  28.395   1.798  1.00  0.00    -0.000 C 
BRANCH  16  17
ATOM     17  C   UNL     1      -1.222  29.287   3.005  1.00  0.00    -0.003 C 
ATOM     18  C   UNL     1      -2.287  29.214   4.100  1.00  0.00     0.004 C 
ENDBRANCH  16  17
ENDBRANCH  15  16
ENDBRANCH  14  15
ENDBRANCH  13  14
ENDBRANCH  12  13
ENDBRANCH  11  12
ENDBRANCH   1  11
TORSDOF 14
ENDMDL
MODEL 7
REMARK VINA RESULT:    -3.804      3.889      6.244
REMARK INTER + INTRA:          -8.610
REMARK INTER:                  -6.452
REMARK INTRA:                  -2.158
REMARK UNBOUND:                -1.693
REMARK SMILES CCCCCCCCCCCCCCCC(=O)[O-]
REMARK SMILES IDX 9 1 10 2 11 3 12 4 13 5 14 6 15 7 16 8 17 9 18 10 8 11 7 12
REMARK SMILES IDX 6 13 5 14 4 15 3 16 2 17 1 18
REMARK H PARENT
REMARK Flexibility Score: inf
ROOT
ATOM      1  C   UNL     1      -0.718  23.849   0.412  1.00  0.00     0.000 C 
ENDROOT
BRANCH   1   2
ATOM      2  C   UNL     1      -1.000  25.346   0.203  1.00  0.00     0.000 C 
BRANCH   2   3
ATOM      3  C   UNL     1      -2.428  25.752   0.617  1.00  0.00     0.000 C 
BRANCH   3   4
ATOM      4  C   UNL     1      -2.711  25.709   2.130  1.00  0.00     0.000 C 
BRANCH   4   5
ATOM      5  C   UNL     1      -4.181  25.397   2.456  1.00  0.00     0.000 C 
BRANCH   5   6
ATOM      6  C   UNL     1      -5.121  25.676   1.271  1.00  0.00     0.006 C 
BRANCH   6   7
ATOM      7  C   UNL     1      -6.554  25.993   1.715  1.00  0.00     0.053 C 
BRANCH   7   8
ATOM      8  C   UNL     1      -7.457  24.835   1.425  1.00  0.00     0.041 C 
ATOM      9  O   UNL     1      -6.980  23.677   1.286  1.00  0.00    -0.550 OA
ATOM     10  O   UNL     1      -8.831  25.026   1.355  1.00  0.00    -0.550 OA
ENDBRANCH   7   8
ENDBRANCH   6   7
ENDBRANCH   5   6
ENDBRANCH   4   5
ENDBRANCH   3   4
ENDBRANCH   2   3
ENDBRANCH   1   2
BRANCH   1  11
ATOM     11  C   UNL     1      -0.147  23.175  -0.846  1.00  0.00     0.000 C 
BRANCH  11  12
ATOM     12  C   UNL     1      -0.851  21.848  -1.183  1.00  0.00    -0.000 C 
BRANCH  12  13
ATOM     13  C   UNL     1      -1.827  21.406  -0.071  1.00  0.00    -0.000 C 
BRANCH  13  14
ATOM     14  C   UNL     1      -3.295  21.358  -0.525  1.00  0.00    -0.000 C 
BRANCH  14  15
ATOM     15  C   UNL     1      -3.973  22.735  -0.505  1.00  0.00    -0.000 C 
BRANCH  15  16
ATOM     16  C   UNL     1      -4.679  23.020  -1.840  1.00  0.00    -0.000 C 
BRANCH  16  17
ATOM     17  C   UNL     1      -3.689  23.293  -2.983  1.00  0.00    -0.003 C 
ATOM     18  C   UNL     1      -3.016  24.661  -2.870  1.00  0.00     0.004 C 
ENDBRANCH  16  17
ENDBRANCH  15  16
ENDBRANCH  14  15
ENDBRANCH  13  14
ENDBRANCH  12  13
ENDBRANCH  11  12
ENDBRANCH   1  11
TORSDOF 14
ENDMDL
MODEL 8
REMARK VINA RESULT:    -3.774      2.984      5.993
REMARK INTER + INTRA:          -8.556
REMARK INTER:                  -6.104
REMARK INTRA:                  -2.452
REMARK UNBOUND:                -1.693
REMARK SMILES CCCCCCCCCCCCCCCC(=O)[O-]
REMARK SMILES IDX 9 1 10 2 11 3 12 4 13 5 14 6 15 7 16 8 17 9 18 10 8 11 7 12
REMARK SMILES IDX 6 13 5 14 4 15 3 16 2 17 1 18
REMARK H PARENT
REMARK Flexibility Score: inf
ROOT
ATOM      1  C   UNL     1      -1.840  30.032   1.769  1.00  0.00     0.000 C 
ENDROOT
BRANCH   1   2
ATOM      2  C   UNL     1      -2.611  29.759   3.071  1.00  0.00     0.000 C 
BRANCH   2   3
ATOM      3  C   UNL     1      -2.419  28.322   3.594  1.00  0.00     0.000 C 
BRANCH   3   4
ATOM      4  C   UNL     1      -3.627  27.386   3.404  1.00  0.00     0.000 C 
BRANCH   4   5
ATOM      5  C   UNL     1      -3.261  26.072   2.693  1.00  0.00     0.000 C 
BRANCH   5   6
ATOM      6  C   UNL     1      -4.482  25.168   2.458  1.00  0.00     0.006 C 
BRANCH   6   7
ATOM      7  C   UNL     1      -5.811  25.921   2.601  1.00  0.00     0.053 C 
BRANCH   7   8
ATOM      8  C   UNL     1      -6.961  25.001   2.337  1.00  0.00     0.041 C 
ATOM      9  O   UNL     1      -6.780  23.756   2.289  1.00  0.00    -0.550 OA
ATOM     10  O   UNL     1      -8.244  25.516   2.192  1.00  0.00    -0.550 OA
ENDBRANCH   7   8
ENDBRANCH   6   7
ENDBRANCH   5   6
ENDBRANCH   4   5
ENDBRANCH   3   4
ENDBRANCH   2   3
ENDBRANCH   1   2
BRANCH   1  11
ATOM     11  C   UNL     1      -0.844  28.913   1.427  1.00  0.00     0.000 C 
BRANCH  11  12
ATOM     12  C   UNL     1      -1.241  28.124   0.166  1.00  0.00    -0.000 C 
BRANCH  12  13
ATOM     13  C   UNL     1      -2.441  28.762  -0.566  1.00  0.00    -0.000 C 
BRANCH  13  14
ATOM     14  C   UNL     1      -3.703  27.882  -0.561  1.00  0.00    -0.000 C 
BRANCH  14  15
ATOM     15  C   UNL     1      -4.885  28.536   0.167  1.00  0.00    -0.000 C 
BRANCH  15  16
ATOM     16  C   UNL     1      -5.294  29.850  -0.516  1.00  0.00    -0.000 C 
BRANCH  16  17
ATOM     17  C   UNL     1      -5.103  31.072   0.396  1.00  0.00    -0.003 C 
ATOM     18  C   UNL     1      -4.261  32.170  -0.254  1.00  0.00     0.004 C 
ENDBRANCH  16  17
ENDBRANCH  15  16
ENDBRANCH  14  15
ENDBRANCH  13  14
ENDBRANCH  12  13
ENDBRANCH  11  12
ENDBRANCH   1  11
TORSDOF 14
ENDMDL
MODEL 9
REMARK VINA RESULT:    -3.742      3.132      6.047
REMARK INTER + INTRA:          -8.497
REMARK INTER:                  -6.464
REMARK INTRA:                  -2.032
REMARK UNBOUND:                -1.693
REMARK SMILES CCCCCCCCCCCCCCCC(=O)[O-]
REMARK SMILES IDX 9 1 10 2 11 3 12 4 13 5 14 6 15 7 16 8 17 9 18 10 8 11 7 12
REMARK SMILES IDX 6 13 5 14 4 15 3 16 2 17 1 18
REMARK H PARENT
REMARK Flexibility Score: inf
ROOT
ATOM      1  C   UNL     1      -3.855  26.366  -0.936  1.00  0.00     0.000 C 
ENDROOT
BRANCH   1   2
ATOM      2  C   UNL     1      -4.186  27.601  -0.083  1.00  0.00     0.000 C 
BRANCH   2   3
ATOM      3  C   UNL     1      -3.439  27.620   1.264  1.00  0.00     0.000 C 
BRANCH   3   4
ATOM      4  C   UNL     1      -2.761  26.295   1.658  1.00  0.00     0.000 C 
BRANCH   4   5
ATOM      5  C   UNL     1      -3.402  25.638   2.892  1.00  0.00     0.000 C 
BRANCH   5   6
ATOM      6  C   UNL     1      -4.812  26.177   3.183  1.00  0.00     0.006 C 
BRANCH   6   7
ATOM      7  C   UNL     1      -5.918  25.246   2.671  1.00  0.00     0.053 C 
BRANCH   7   8
ATOM      8  C   UNL     1      -7.110  26.041   2.238  1.00  0.00     0.041 C 
ATOM      9  O   UNL     1      -7.031  27.293   2.127  1.00  0.00    -0.550 OA
ATOM     10  O   UNL     1      -8.295  25.395   1.911  1.00  0.00    -0.550 OA
ENDBRANCH   7   8
ENDBRANCH   6   7
ENDBRANCH   5   6
ENDBRANCH   4   5
ENDBRANCH   3   4
ENDBRANCH   2   3
ENDBRANCH   1   2
BRANCH   1  11
ATOM     11  C   UNL     1      -4.992  25.332  -0.945  1.00  0.00     0.000 C 
BRANCH  11  12
ATOM     12  C   UNL     1      -4.503  23.908  -1.267  1.00  0.00    -0.000 C 
BRANCH  12  13
ATOM     13  C   UNL     1      -3.895  23.209  -0.032  1.00  0.00    -0.000 C 
BRANCH  13  14
ATOM     14  C   UNL     1      -3.275  21.836  -0.346  1.00  0.00    -0.000 C 
BRANCH  14  15
ATOM     15  C   UNL     1      -1.782  21.761   0.002  1.00  0.00    -0.000 C 
BRANCH  15  16
ATOM     16  C   UNL     1      -1.200  23.163   0.234  1.00  0.00    -0.000 C 
BRANCH  16  17
ATOM     17  C   UNL     1      -0.042  23.486  -0.723  1.00  0.00    -0.003 C 
ATOM     18  C   UNL     1       0.374  22.287  -1.575  1.00  0.00     0.004 C 
ENDBRANCH  16  17
ENDBRANCH  15  16
ENDBRANCH  14  15
ENDBRANCH  13  14
ENDBRANCH  12  13
ENDBRANCH  11  12
ENDBRANCH   1  11
TORSDOF 14
ENDMDL
