MODEL 1
REMARK VINA RESULT:    26.526      0.000      0.000
REMARK INTER + INTRA:          30.862
REMARK INTER:                  31.178
REMARK INTRA:                  -0.316
REMARK UNBOUND:                -0.316
REMARK SMILES O=c1cc(-c2ccc(O)c(O)c2)oc2cc(O)cc(O)c12
REMARK SMILES IDX 4 1 3 2 2 3 1 4 21 5 19 6 18 7 16 8 15 9 14 10 13 11 5 12
REMARK SMILES IDX 6 13 7 14 8 15 12 16 10 17 9 18 11 20 20 22 17 24
REMARK H PARENT 9 19 11 21 20 23 17 25
REMARK Flexibility Score: inf
ROOT
ATOM      1  C   UNL     1      17.629   3.229  12.970  1.00  0.00     0.138 A 
ATOM      2  C   UNL     1      18.027   2.787  14.239  1.00  0.00     0.100 A 
ATOM      3  C   UNL     1      17.147   2.900  15.317  1.00  0.00     0.197 A 
ATOM      4  O   UNL     1      17.554   2.552  16.456  1.00  0.00    -0.289 OA
ATOM      5  C   UNL     1      15.851   3.432  15.113  1.00  0.00     0.107 A 
ATOM      6  C   UNL     1      14.856   3.558  16.129  1.00  0.00     0.134 A 
ATOM      7  C   UNL     1      13.650   4.207  15.836  1.00  0.00     0.093 A 
ATOM      8  C   UNL     1      13.378   4.679  14.553  1.00  0.00     0.123 A 
ATOM      9  C   UNL     1      14.322   4.513  13.538  1.00  0.00     0.094 A 
ATOM     10  C   UNL     1      15.549   3.901  13.807  1.00  0.00     0.146 A 
ATOM     11  O   UNL     1      16.428   3.775  12.818  1.00  0.00    -0.456 OA
ENDROOT
BRANCH   1  12
ATOM     12  C   UNL     1      18.525   3.131  11.790  1.00  0.00     0.021 A 
ATOM     13  C   UNL     1      19.693   2.357  11.870  1.00  0.00     0.016 A 
ATOM     14  C   UNL     1      20.554   2.256  10.777  1.00  0.00     0.051 A 
ATOM     15  C   UNL     1      20.276   2.931   9.584  1.00  0.00     0.157 A 
ATOM     16  C   UNL     1      18.252   3.823  10.595  1.00  0.00     0.062 A 
ATOM     17  C   UNL     1      19.112   3.730   9.493  1.00  0.00     0.158 A 
BRANCH  15  18
ATOM     18  O   UNL     1      21.175   2.783   8.525  1.00  0.00    -0.504 OA
ATOM     19  H   UNL     1      20.898   2.618   7.569  1.00  0.00     0.293 HD
ENDBRANCH  15  18
BRANCH  17  20
ATOM     20  O   UNL     1      18.777   4.446   8.342  1.00  0.00    -0.504 OA
ATOM     21  H   UNL     1      17.988   4.228   7.751  1.00  0.00     0.293 HD
ENDBRANCH  17  20
ENDBRANCH   1  12
BRANCH   6  22
ATOM     22  O   UNL     1      14.991   3.046  17.422  1.00  0.00    -0.507 OA
ATOM     23  H   UNL     1      15.495   2.206  17.660  1.00  0.00     0.293 HD
ENDBRANCH   6  22
BRANCH   8  24
ATOM     24  O   UNL     1      12.161   5.307  14.294  1.00  0.00    -0.508 OA
ATOM     25  H   UNL     1      11.424   4.841  13.778  1.00  0.00     0.293 HD
ENDBRANCH   8  24
TORSDOF 5
ENDMDL
MODEL 2
REMARK VINA RESULT:    27.744      5.430      8.156
REMARK INTER + INTRA:          32.294
REMARK INTER:                  32.611
REMARK INTRA:                  -0.318
REMARK UNBOUND:                -0.316
REMARK SMILES O=c1cc(-c2ccc(O)c(O)c2)oc2cc(O)cc(O)c12
REMARK SMILES IDX 4 1 3 2 2 3 1 4 21 5 19 6 18 7 16 8 15 9 14 10 13 11 5 12
REMARK SMILES IDX 6 13 7 14 8 15 12 16 10 17 9 18 11 20 20 22 17 24
REMARK H PARENT 9 19 11 21 20 23 17 25
REMARK Flexibility Score: inf
ROOT
ATOM      1  C   UNL     1      15.615   8.433  16.562  1.00  0.00     0.138 A 
ATOM      2  C   UNL     1      14.798   8.612  15.438  1.00  0.00     0.100 A 
ATOM      3  C   UNL     1      14.136   7.515  14.884  1.00  0.00     0.197 A 
ATOM      4  O   UNL     1      13.460   7.695  13.838  1.00  0.00    -0.289 OA
ATOM      5  C   UNL     1      14.271   6.238  15.480  1.00  0.00     0.107 A 
ATOM      6  C   UNL     1      13.613   5.056  15.026  1.00  0.00     0.134 A 
ATOM      7  C   UNL     1      13.915   3.825  15.623  1.00  0.00     0.093 A 
ATOM      8  C   UNL     1      14.802   3.743  16.695  1.00  0.00     0.123 A 
ATOM      9  C   UNL     1      15.411   4.900  17.182  1.00  0.00     0.094 A 
ATOM     10  C   UNL     1      15.157   6.138  16.585  1.00  0.00     0.146 A 
ATOM     11  O   UNL     1      15.769   7.214  17.069  1.00  0.00    -0.456 OA
ENDROOT
BRANCH   1  12
ATOM     12  C   UNL     1      16.340   9.565  17.192  1.00  0.00     0.021 A 
ATOM     13  C   UNL     1      16.096  10.875  16.751  1.00  0.00     0.016 A 
ATOM     14  C   UNL     1      16.771  11.954  17.322  1.00  0.00     0.051 A 
ATOM     15  C   UNL     1      17.711  11.752  18.337  1.00  0.00     0.157 A 
ATOM     16  C   UNL     1      17.298   9.359  18.203  1.00  0.00     0.062 A 
ATOM     17  C   UNL     1      17.982  10.436  18.780  1.00  0.00     0.158 A 
BRANCH  15  18
ATOM     18  O   UNL     1      18.348  12.875  18.871  1.00  0.00    -0.504 OA
ATOM     19  H   UNL     1      19.115  13.355  18.424  1.00  0.00     0.293 HD
ENDBRANCH  15  18
BRANCH  17  20
ATOM     20  O   UNL     1      18.919  10.155  19.777  1.00  0.00    -0.504 OA
ATOM     21  H   UNL     1      19.915  10.283  19.668  1.00  0.00     0.293 HD
ENDBRANCH  17  20
ENDBRANCH   1  12
BRANCH   6  22
ATOM     22  O   UNL     1      12.645   5.039  14.017  1.00  0.00    -0.507 OA
ATOM     23  H   UNL     1      11.845   4.427  13.996  1.00  0.00     0.293 HD
ENDBRANCH   6  22
BRANCH   8  24
ATOM     24  O   UNL     1      15.067   2.504  17.275  1.00  0.00    -0.508 OA
ATOM     25  H   UNL     1      15.505   2.427  18.185  1.00  0.00     0.293 HD
ENDBRANCH   8  24
TORSDOF 5
ENDMDL
MODEL 3
REMARK VINA RESULT:    28.651     11.984     13.681
REMARK INTER + INTRA:          33.360
REMARK INTER:                  33.656
REMARK INTRA:                  -0.296
REMARK UNBOUND:                -0.316
REMARK SMILES O=c1cc(-c2ccc(O)c(O)c2)oc2cc(O)cc(O)c12
REMARK SMILES IDX 4 1 3 2 2 3 1 4 21 5 19 6 18 7 16 8 15 9 14 10 13 11 5 12
REMARK SMILES IDX 6 13 7 14 8 15 12 16 10 17 9 18 11 20 20 22 17 24
REMARK H PARENT 9 19 11 21 20 23 17 25
REMARK Flexibility Score: inf
ROOT
ATOM      1  C   UNL     1       7.843   1.139  20.934  1.00  0.00     0.138 A 
ATOM      2  C   UNL     1       7.558   0.421  19.765  1.00  0.00     0.100 A 
ATOM      3  C   UNL     1       7.397  -0.964  19.827  1.00  0.00     0.197 A 
ATOM      4  O   UNL     1       7.203  -1.589  18.752  1.00  0.00    -0.289 OA
ATOM      5  C   UNL     1       7.494  -1.628  21.074  1.00  0.00     0.107 A 
ATOM      6  C   UNL     1       7.310  -3.031  21.264  1.00  0.00     0.134 A 
ATOM      7  C   UNL     1       7.546  -3.592  22.525  1.00  0.00     0.093 A 
ATOM      8  C   UNL     1       7.900  -2.797  23.614  1.00  0.00     0.123 A 
ATOM      9  C   UNL     1       8.030  -1.417  23.452  1.00  0.00     0.094 A 
ATOM     10  C   UNL     1       7.835  -0.831  22.198  1.00  0.00     0.146 A 
ATOM     11  O   UNL     1       7.984   0.485  22.082  1.00  0.00    -0.456 OA
ENDROOT
BRANCH   1  12
ATOM     12  C   UNL     1       8.023   2.612  20.924  1.00  0.00     0.021 A 
ATOM     13  C   UNL     1       8.492   3.260  22.078  1.00  0.00     0.016 A 
ATOM     14  C   UNL     1       8.662   4.645  22.095  1.00  0.00     0.051 A 
ATOM     15  C   UNL     1       8.358   5.416  20.969  1.00  0.00     0.157 A 
ATOM     16  C   UNL     1       7.703   3.389  19.795  1.00  0.00     0.062 A 
ATOM     17  C   UNL     1       7.867   4.780  19.804  1.00  0.00     0.158 A 
BRANCH  15  18
ATOM     18  O   UNL     1       8.556   6.796  21.050  1.00  0.00    -0.504 OA
ATOM     19  H   UNL     1       8.628   7.306  21.918  1.00  0.00     0.293 HD
ENDBRANCH  15  18
BRANCH  17  20
ATOM     20  O   UNL     1       7.528   5.485  18.648  1.00  0.00    -0.504 OA
ATOM     21  H   UNL     1       7.277   5.047  17.773  1.00  0.00     0.293 HD
ENDBRANCH  17  20
ENDBRANCH   1  12
BRANCH   6  22
ATOM     22  O   UNL     1       6.876  -3.904  20.263  1.00  0.00    -0.507 OA
ATOM     23  H   UNL     1       7.473  -4.527  19.743  1.00  0.00     0.293 HD
ENDBRANCH   6  22
BRANCH   8  24
ATOM     24  O   UNL     1       8.112  -3.388  24.858  1.00  0.00    -0.508 OA
ATOM     25  H   UNL     1       8.734  -4.181  24.969  1.00  0.00     0.293 HD
ENDBRANCH   8  24
TORSDOF 5
ENDMDL
