MODEL 1
REMARK VINA RESULT:    37.697      0.000      0.000
REMARK INTER + INTRA:          49.677
REMARK INTER:                  49.818
REMARK INTRA:                  -0.141
REMARK UNBOUND:                -0.141
REMARK SMILES CC[C@H](C=C[C@@H](C)[C@H]1CC[C@@H]2[C@H]3CC=C4C[C@@H](O)CC[C@]4(C)[C@H]3CC[C@@]21C)C(C)C
REMARK SMILES IDX 6 1 7 2 5 3 4 4 3 5 2 6 1 7 28 8 29 9 30 10 8 11 9 12 26 13
REMARK SMILES IDX 10 14 11 15 25 16 27 17 12 18 24 19 23 20 13 21 21 22 14 23
REMARK SMILES IDX 15 24 20 25 22 26 16 27 19 28 17 29 18 30
REMARK H PARENT 18 31
REMARK Flexibility Score: inf
ROOT
ATOM      1  C   UNL     1       3.154  76.170   8.277  1.00  0.00     0.012 C 
ATOM      2  C   UNL     1       1.809  75.784   8.905  1.00  0.00     0.012 C 
ENDROOT
BRANCH   1   3
ATOM      3  C   UNL     1       3.746  77.315   9.064  1.00  0.00    -0.028 C 
ATOM      4  C   UNL     1       3.607  77.375  10.396  1.00  0.00    -0.027 C 
BRANCH   4   5
ATOM      5  C   UNL     1       4.254  78.449  11.251  1.00  0.00     0.014 C 
BRANCH   5   6
ATOM      6  C   UNL     1       3.161  79.125  12.123  1.00  0.00     0.004 C 
ATOM      7  C   UNL     1       1.797  78.452  11.952  1.00  0.00     0.004 C 
ENDBRANCH   5   6
BRANCH   5   8
ATOM      8  C   UNL     1       5.444  77.931  12.124  1.00  0.00    -0.011 C 
ATOM      9  C   UNL     1       6.628  78.923  12.115  1.00  0.00     0.008 C 
ATOM     10  C   UNL     1       5.967  76.548  11.683  1.00  0.00     0.008 C 
ENDBRANCH   5   8
ENDBRANCH   4   5
ENDBRANCH   1   3
BRANCH   1  11
ATOM     11  C   UNL     1       3.014  76.422   6.740  1.00  0.00     0.002 C 
ATOM     12  C   UNL     1       1.582  76.511   6.219  1.00  0.00     0.005 C 
ATOM     13  C   UNL     1       3.760  77.632   6.084  1.00  0.00    -0.026 C 
ATOM     14  C   UNL     1       1.724  76.985   4.784  1.00  0.00     0.005 C 
ATOM     15  C   UNL     1       3.034  77.812   4.707  1.00  0.00    -0.001 C 
ATOM     16  C   UNL     1       5.287  77.341   5.974  1.00  0.00     0.007 C 
ATOM     17  C   UNL     1       3.595  78.950   6.885  1.00  0.00     0.012 C 
ATOM     18  C   UNL     1       3.868  77.419   3.461  1.00  0.00     0.000 C 
ATOM     19  C   UNL     1       5.728  76.379   4.855  1.00  0.00     0.005 C 
ATOM     20  C   UNL     1       4.710  76.148   3.702  1.00  0.00     0.003 C 
ATOM     21  C   UNL     1       4.773  78.556   2.952  1.00  0.00     0.031 C 
ATOM     22  C   UNL     1       5.372  75.650   2.355  1.00  0.00    -0.008 C 
ATOM     23  C   UNL     1       5.564  78.114   1.751  1.00  0.00    -0.027 C 
ATOM     24  C   UNL     1       5.874  76.823   1.491  1.00  0.00    -0.065 C 
ATOM     25  C   UNL     1       4.308  74.874   1.510  1.00  0.00     0.014 C 
ATOM     26  C   UNL     1       6.548  74.676   2.665  1.00  0.00     0.016 C 
ATOM     27  C   UNL     1       6.417  76.476   0.123  1.00  0.00     0.063 C 
ATOM     28  C   UNL     1       4.778  74.516   0.082  1.00  0.00     0.033 C 
ATOM     29  C   UNL     1       5.323  75.744  -0.680  1.00  0.00     0.118 C 
BRANCH  29  30
ATOM     30  O   UNL     1       5.800  75.372  -1.946  1.00  0.00    -0.393 OA
ATOM     31  H   UNL     1       6.743  75.673  -2.017  1.00  0.00     0.210 HD
ENDBRANCH  29  30
ENDBRANCH   1  11
TORSDOF 6
ENDMDL
MODEL 2
REMARK VINA RESULT:    37.739      0.986      1.204
REMARK INTER + INTRA:          49.732
REMARK INTER:                  50.267
REMARK INTRA:                  -0.535
REMARK UNBOUND:                -0.141
REMARK SMILES CC[C@H](C=C[C@@H](C)[C@H]1CC[C@@H]2[C@H]3CC=C4C[C@@H](O)CC[C@]4(C)[C@H]3CC[C@@]21C)C(C)C
REMARK SMILES IDX 6 1 7 2 5 3 4 4 3 5 2 6 1 7 28 8 29 9 30 10 8 11 9 12 26 13
REMARK SMILES IDX 10 14 11 15 25 16 27 17 12 18 24 19 23 20 13 21 21 22 14 23
REMARK SMILES IDX 15 24 20 25 22 26 16 27 19 28 17 29 18 30
REMARK H PARENT 18 31
REMARK Flexibility Score: inf
ROOT
ATOM      1  C   UNL     1       3.633  76.293   7.716  1.00  0.00     0.012 C 
ATOM      2  C   UNL     1       2.383  75.541   8.193  1.00  0.00     0.012 C 
ENDROOT
BRANCH   1   3
ATOM      3  C   UNL     1       3.849  77.491   8.609  1.00  0.00    -0.028 C 
ATOM      4  C   UNL     1       3.900  77.352   9.940  1.00  0.00    -0.027 C 
BRANCH   4   5
ATOM      5  C   UNL     1       4.204  78.501  10.884  1.00  0.00     0.014 C 
BRANCH   5   6
ATOM      6  C   UNL     1       2.865  79.121  11.369  1.00  0.00     0.004 C 
ATOM      7  C   UNL     1       2.000  78.103  12.117  1.00  0.00     0.004 C 
ENDBRANCH   5   6
BRANCH   5   8
ATOM      8  C   UNL     1       5.120  78.105  12.088  1.00  0.00    -0.011 C 
ATOM      9  C   UNL     1       6.432  78.921  12.094  1.00  0.00     0.008 C 
ATOM     10  C   UNL     1       5.483  76.605  12.112  1.00  0.00     0.008 C 
ENDBRANCH   5   8
ENDBRANCH   4   5
ENDBRANCH   1   3
BRANCH   1  11
ATOM     11  C   UNL     1       3.557  76.608   6.186  1.00  0.00     0.002 C 
ATOM     12  C   UNL     1       2.362  77.452   5.749  1.00  0.00     0.005 C 
ATOM     13  C   UNL     1       4.791  77.250   5.467  1.00  0.00    -0.026 C 
ATOM     14  C   UNL     1       2.650  77.805   4.301  1.00  0.00     0.005 C 
ATOM     15  C   UNL     1       4.192  77.813   4.133  1.00  0.00    -0.001 C 
ATOM     16  C   UNL     1       5.922  76.196   5.271  1.00  0.00     0.007 C 
ATOM     17  C   UNL     1       5.398  78.441   6.256  1.00  0.00     0.012 C 
ATOM     18  C   UNL     1       4.616  77.059   2.846  1.00  0.00     0.000 C 
ATOM     19  C   UNL     1       5.720  75.166   4.143  1.00  0.00     0.005 C 
ATOM     20  C   UNL     1       4.668  75.531   3.057  1.00  0.00     0.003 C 
ATOM     21  C   UNL     1       5.954  77.553   2.266  1.00  0.00     0.031 C 
ATOM     22  C   UNL     1       4.885  74.782   1.681  1.00  0.00    -0.008 C 
ATOM     23  C   UNL     1       6.319  76.780   1.027  1.00  0.00    -0.027 C 
ATOM     24  C   UNL     1       5.880  75.526   0.770  1.00  0.00    -0.065 C 
ATOM     25  C   UNL     1       3.524  74.703   0.913  1.00  0.00     0.014 C 
ATOM     26  C   UNL     1       5.382  73.328   1.937  1.00  0.00     0.016 C 
ATOM     27  C   UNL     1       6.076  74.968  -0.622  1.00  0.00     0.063 C 
ATOM     28  C   UNL     1       3.649  74.176  -0.534  1.00  0.00     0.033 C 
ATOM     29  C   UNL     1       4.716  74.942  -1.347  1.00  0.00     0.118 C 
BRANCH  29  30
ATOM     30  O   UNL     1       4.848  74.396  -2.633  1.00  0.00    -0.393 OA
ATOM     31  H   UNL     1       4.393  73.514  -2.637  1.00  0.00     0.210 HD
ENDBRANCH  29  30
ENDBRANCH   1  11
TORSDOF 6
ENDMDL
MODEL 3
REMARK VINA RESULT:    39.350      0.751      1.810
REMARK INTER + INTRA:          51.861
REMARK INTER:                  51.092
REMARK INTRA:                   0.769
REMARK UNBOUND:                -0.141
REMARK SMILES CC[C@H](C=C[C@@H](C)[C@H]1CC[C@@H]2[C@H]3CC=C4C[C@@H](O)CC[C@]4(C)[C@H]3CC[C@@]21C)C(C)C
REMARK SMILES IDX 6 1 7 2 5 3 4 4 3 5 2 6 1 7 28 8 29 9 30 10 8 11 9 12 26 13
REMARK SMILES IDX 10 14 11 15 25 16 27 17 12 18 24 19 23 20 13 21 21 22 14 23
REMARK SMILES IDX 15 24 20 25 22 26 16 27 19 28 17 29 18 30
REMARK H PARENT 18 31
REMARK Flexibility Score: inf
ROOT
ATOM      1  C   UNL     1       3.690  75.955   8.434  1.00  0.00     0.012 C 
ATOM      2  C   UNL     1       3.002  74.644   8.837  1.00  0.00     0.012 C 
ENDROOT
BRANCH   1   3
ATOM      3  C   UNL     1       3.276  77.038   9.402  1.00  0.00    -0.028 C 
ATOM      4  C   UNL     1       3.832  77.117  10.619  1.00  0.00    -0.027 C 
BRANCH   4   5
ATOM      5  C   UNL     1       3.524  78.233  11.600  1.00  0.00     0.014 C 
BRANCH   5   6
ATOM      6  C   UNL     1       4.806  79.084  11.813  1.00  0.00     0.004 C 
ATOM      7  C   UNL     1       6.025  78.213  12.124  1.00  0.00     0.004 C 
ENDBRANCH   5   6
BRANCH   5   8
ATOM      8  C   UNL     1       2.309  79.125  11.183  1.00  0.00    -0.011 C 
ATOM      9  C   UNL     1       1.061  78.820  12.042  1.00  0.00     0.008 C 
ATOM     10  C   UNL     1       1.922  78.973   9.697  1.00  0.00     0.008 C 
ENDBRANCH   5   8
ENDBRANCH   4   5
ENDBRANCH   1   3
BRANCH   1  11
ATOM     11  C   UNL     1       3.447  76.283   6.924  1.00  0.00     0.002 C 
ATOM     12  C   UNL     1       1.996  76.555   6.538  1.00  0.00     0.005 C 
ATOM     13  C   UNL     1       4.270  77.427   6.241  1.00  0.00    -0.026 C 
ATOM     14  C   UNL     1       2.068  77.068   5.111  1.00  0.00     0.005 C 
ATOM     15  C   UNL     1       3.453  77.745   4.942  1.00  0.00    -0.001 C 
ATOM     16  C   UNL     1       5.738  76.971   5.984  1.00  0.00     0.007 C 
ATOM     17  C   UNL     1       4.328  78.722   7.094  1.00  0.00     0.012 C 
ATOM     18  C   UNL     1       4.126  77.312   3.613  1.00  0.00     0.000 C 
ATOM     19  C   UNL     1       5.966  76.012   4.801  1.00  0.00     0.005 C 
ATOM     20  C   UNL     1       4.832  75.944   3.738  1.00  0.00     0.003 C 
ATOM     21  C   UNL     1       5.109  78.359   3.060  1.00  0.00     0.031 C 
ATOM     22  C   UNL     1       5.314  75.431   2.322  1.00  0.00    -0.008 C 
ATOM     23  C   UNL     1       5.737  77.880   1.779  1.00  0.00    -0.027 C 
ATOM     24  C   UNL     1       5.871  76.574   1.453  1.00  0.00    -0.065 C 
ATOM     25  C   UNL     1       4.098  74.815   1.553  1.00  0.00     0.014 C 
ATOM     26  C   UNL     1       6.391  74.319   2.495  1.00  0.00     0.016 C 
ATOM     27  C   UNL     1       6.251  76.224   0.031  1.00  0.00     0.063 C 
ATOM     28  C   UNL     1       4.399  74.464   0.079  1.00  0.00     0.033 C 
ATOM     29  C   UNL     1       5.015  75.654  -0.692  1.00  0.00     0.118 C 
BRANCH  29  30
ATOM     30  O   UNL     1       5.334  75.282  -2.006  1.00  0.00    -0.393 OA
ATOM     31  H   UNL     1       4.810  74.469  -2.230  1.00  0.00     0.210 HD
ENDBRANCH  29  30
ENDBRANCH   1  11
TORSDOF 6
ENDMDL
