MODEL 1
REMARK VINA RESULT:    -5.987      0.000      0.000
REMARK INTER + INTRA:          -7.494
REMARK INTER:                  -7.212
REMARK INTRA:                  -0.282
REMARK UNBOUND:                -0.282
REMARK SMILES O=c1c(O)c(-c2ccc(O)c(O)c2)oc2cc(O)cc(O)c12
REMARK SMILES IDX 5 1 3 2 2 3 1 4 22 5 20 6 19 7 17 8 16 9 15 10 14 11 6 12
REMARK SMILES IDX 7 13 8 14 9 15 13 16 11 17 10 18 12 20 4 22 21 24 18 26
REMARK H PARENT 10 19 12 21 4 23 21 25 18 27
REMARK Flexibility Score: inf
ROOT
ATOM      1  C   UNL     1      -2.998  -1.351  23.412  1.00  0.00     0.180 A 
ATOM      2  C   UNL     1      -3.115  -2.094  24.600  1.00  0.00     0.208 A 
ATOM      3  C   UNL     1      -1.985  -2.758  25.102  1.00  0.00     0.238 A 
ATOM      4  O   UNL     1      -2.110  -3.465  26.136  1.00  0.00    -0.285 OA
ATOM      5  C   UNL     1      -0.748  -2.657  24.421  1.00  0.00     0.111 A 
ATOM      6  C   UNL     1       0.471  -3.256  24.862  1.00  0.00     0.134 A 
ATOM      7  C   UNL     1       1.603  -3.200  24.041  1.00  0.00     0.093 A 
ATOM      8  C   UNL     1       1.579  -2.512  22.825  1.00  0.00     0.123 A 
ATOM      9  C   UNL     1       0.411  -1.875  22.415  1.00  0.00     0.094 A 
ATOM     10  C   UNL     1      -0.746  -1.943  23.195  1.00  0.00     0.146 A 
ATOM     11  O   UNL     1      -1.841  -1.330  22.761  1.00  0.00    -0.452 OA
ENDROOT
BRANCH   1  12
ATOM     12  C   UNL     1      -4.138  -0.603  22.833  1.00  0.00     0.025 A 
ATOM     13  C   UNL     1      -4.530   0.615  23.410  1.00  0.00     0.016 A 
ATOM     14  C   UNL     1      -5.616   1.326  22.893  1.00  0.00     0.051 A 
ATOM     15  C   UNL     1      -6.334   0.825  21.803  1.00  0.00     0.157 A 
ATOM     16  C   UNL     1      -4.874  -1.116  21.750  1.00  0.00     0.062 A 
ATOM     17  C   UNL     1      -5.966  -0.404  21.231  1.00  0.00     0.158 A 
BRANCH  15  18
ATOM     18  O   UNL     1      -7.412   1.558  21.306  1.00  0.00    -0.504 OA
ATOM     19  H   UNL     1      -8.212   1.794  21.879  1.00  0.00     0.293 HD
ENDBRANCH  15  18
BRANCH  17  20
ATOM     20  O   UNL     1      -6.687  -0.916  20.153  1.00  0.00    -0.504 OA
ATOM     21  H   UNL     1      -7.488  -1.522  20.290  1.00  0.00     0.293 HD
ENDBRANCH  17  20
ENDBRANCH   1  12
BRANCH   2  22
ATOM     22  O   UNL     1      -4.351  -2.197  25.244  1.00  0.00    -0.502 OA
ATOM     23  H   UNL     1      -4.461  -2.660  26.138  1.00  0.00     0.293 HD
ENDBRANCH   2  22
BRANCH   6  24
ATOM     24  O   UNL     1       0.627  -3.886  26.099  1.00  0.00    -0.507 OA
ATOM     25  H   UNL     1       1.405  -3.739  26.725  1.00  0.00     0.293 HD
ENDBRANCH   6  24
BRANCH   8  26
ATOM     26  O   UNL     1       2.716  -2.448  22.022  1.00  0.00    -0.508 OA
ATOM     27  H   UNL     1       3.344  -1.653  22.054  1.00  0.00     0.293 HD
ENDBRANCH   8  26
TORSDOF 6
ENDMDL
MODEL 2
REMARK VINA RESULT:    -5.940      3.828      6.214
REMARK INTER + INTRA:          -7.438
REMARK INTER:                  -7.250
REMARK INTRA:                  -0.188
REMARK UNBOUND:                -0.282
REMARK SMILES O=c1c(O)c(-c2ccc(O)c(O)c2)oc2cc(O)cc(O)c12
REMARK SMILES IDX 5 1 3 2 2 3 1 4 22 5 20 6 19 7 17 8 16 9 15 10 14 11 6 12
REMARK SMILES IDX 7 13 8 14 9 15 13 16 11 17 10 18 12 20 4 22 21 24 18 26
REMARK H PARENT 10 19 12 21 4 23 21 25 18 27
REMARK Flexibility Score: inf
ROOT
ATOM      1  C   UNL     1       0.760  -2.735  22.554  1.00  0.00     0.180 A 
ATOM      2  C   UNL     1       1.819  -2.402  23.417  1.00  0.00     0.208 A 
ATOM      3  C   UNL     1       1.587  -2.376  24.802  1.00  0.00     0.238 A 
ATOM      4  O   UNL     1       2.525  -2.026  25.565  1.00  0.00    -0.285 OA
ATOM      5  C   UNL     1       0.305  -2.700  25.307  1.00  0.00     0.111 A 
ATOM      6  C   UNL     1      -0.031  -2.745  26.694  1.00  0.00     0.134 A 
ATOM      7  C   UNL     1      -1.363  -2.949  27.074  1.00  0.00     0.093 A 
ATOM      8  C   UNL     1      -2.359  -3.174  26.121  1.00  0.00     0.123 A 
ATOM      9  C   UNL     1      -2.030  -3.190  24.768  1.00  0.00     0.094 A 
ATOM     10  C   UNL     1      -0.716  -2.954  24.355  1.00  0.00     0.146 A 
ATOM     11  O   UNL     1      -0.447  -2.969  23.055  1.00  0.00    -0.452 OA
ENDROOT
BRANCH   1  12
ATOM     12  C   UNL     1       0.933  -2.807  21.085  1.00  0.00     0.025 A 
ATOM     13  C   UNL     1       0.192  -1.948  20.259  1.00  0.00     0.016 A 
ATOM     14  C   UNL     1       0.324  -2.013  18.870  1.00  0.00     0.051 A 
ATOM     15  C   UNL     1       1.186  -2.945  18.285  1.00  0.00     0.157 A 
ATOM     16  C   UNL     1       1.784  -3.757  20.495  1.00  0.00     0.062 A 
ATOM     17  C   UNL     1       1.917  -3.826  19.100  1.00  0.00     0.158 A 
BRANCH  15  18
ATOM     18  O   UNL     1       1.299  -2.986  16.895  1.00  0.00    -0.504 OA
ATOM     19  H   UNL     1       1.601  -3.818  16.404  1.00  0.00     0.293 HD
ENDBRANCH  15  18
BRANCH  17  20
ATOM     20  O   UNL     1       2.768  -4.767  18.522  1.00  0.00    -0.504 OA
ATOM     21  H   UNL     1       3.740  -4.555  18.326  1.00  0.00     0.293 HD
ENDBRANCH  17  20
ENDBRANCH   1  12
BRANCH   2  22
ATOM     22  O   UNL     1       3.071  -2.065  22.896  1.00  0.00    -0.502 OA
ATOM     23  H   UNL     1       3.606  -1.273  23.232  1.00  0.00     0.293 HD
ENDBRANCH   2  22
BRANCH   6  24
ATOM     24  O   UNL     1       0.902  -2.626  27.728  1.00  0.00    -0.507 OA
ATOM     25  H   UNL     1       1.902  -2.603  27.599  1.00  0.00     0.293 HD
ENDBRANCH   6  24
BRANCH   8  26
ATOM     26  O   UNL     1      -3.679  -3.392  26.509  1.00  0.00    -0.508 OA
ATOM     27  H   UNL     1      -4.457  -3.114  25.923  1.00  0.00     0.293 HD
ENDBRANCH   8  26
TORSDOF 6
ENDMDL
MODEL 3
REMARK VINA RESULT:    -5.849      4.048      6.715
REMARK INTER + INTRA:          -7.327
REMARK INTER:                  -7.005
REMARK INTRA:                  -0.322
REMARK UNBOUND:                -0.282
REMARK SMILES O=c1c(O)c(-c2ccc(O)c(O)c2)oc2cc(O)cc(O)c12
REMARK SMILES IDX 5 1 3 2 2 3 1 4 22 5 20 6 19 7 17 8 16 9 15 10 14 11 6 12
REMARK SMILES IDX 7 13 8 14 9 15 13 16 11 17 10 18 12 20 4 22 21 24 18 26
REMARK H PARENT 10 19 12 21 4 23 21 25 18 27
REMARK Flexibility Score: inf
ROOT
ATOM      1  C   UNL     1       1.077  -3.146  22.679  1.00  0.00     0.180 A 
ATOM      2  C   UNL     1       1.919  -2.282  23.401  1.00  0.00     0.208 A 
ATOM      3  C   UNL     1       1.512  -1.835  24.668  1.00  0.00     0.238 A 
ATOM      4  O   UNL     1       2.245  -1.019  25.285  1.00  0.00    -0.285 OA
ATOM      5  C   UNL     1       0.277  -2.271  25.205  1.00  0.00     0.111 A 
ATOM      6  C   UNL     1      -0.217  -1.913  26.496  1.00  0.00     0.134 A 
ATOM      7  C   UNL     1      -1.510  -2.297  26.871  1.00  0.00     0.093 A 
ATOM      8  C   UNL     1      -2.303  -3.080  26.028  1.00  0.00     0.123 A 
ATOM      9  C   UNL     1      -1.807  -3.483  24.791  1.00  0.00     0.094 A 
ATOM     10  C   UNL     1      -0.534  -3.086  24.373  1.00  0.00     0.146 A 
ATOM     11  O   UNL     1      -0.105  -3.484  23.182  1.00  0.00    -0.452 OA
ENDROOT
BRANCH   1  12
ATOM     12  C   UNL     1       1.448  -3.679  21.349  1.00  0.00     0.025 A 
ATOM     13  C   UNL     1       2.162  -4.884  21.261  1.00  0.00     0.016 A 
ATOM     14  C   UNL     1       2.540  -5.395  20.016  1.00  0.00     0.051 A 
ATOM     15  C   UNL     1       2.224  -4.703  18.844  1.00  0.00     0.157 A 
ATOM     16  C   UNL     1       1.150  -2.974  20.169  1.00  0.00     0.062 A 
ATOM     17  C   UNL     1       1.530  -3.484  18.919  1.00  0.00     0.158 A 
BRANCH  15  18
ATOM     18  O   UNL     1       2.613  -5.237  17.615  1.00  0.00    -0.504 OA
ATOM     19  H   UNL     1       2.082  -5.964  17.152  1.00  0.00     0.293 HD
ENDBRANCH  15  18
BRANCH  17  20
ATOM     20  O   UNL     1       1.225  -2.782  17.753  1.00  0.00    -0.504 OA
ATOM     21  H   UNL     1       1.778  -2.886  16.910  1.00  0.00     0.293 HD
ENDBRANCH  17  20
ENDBRANCH   1  12
BRANCH   2  22
ATOM     22  O   UNL     1       3.125  -1.847  22.843  1.00  0.00    -0.502 OA
ATOM     23  H   UNL     1       3.994  -1.843  23.362  1.00  0.00     0.293 HD
ENDBRANCH   2  22
BRANCH   6  24
ATOM     24  O   UNL     1       0.528  -1.214  27.450  1.00  0.00    -0.507 OA
ATOM     25  H   UNL     1       0.491  -1.381  28.444  1.00  0.00     0.293 HD
ENDBRANCH   6  24
BRANCH   8  26
ATOM     26  O   UNL     1      -3.582  -3.470  26.416  1.00  0.00    -0.508 OA
ATOM     27  H   UNL     1      -3.971  -3.200  27.313  1.00  0.00     0.293 HD
ENDBRANCH   8  26
TORSDOF 6
ENDMDL
MODEL 4
REMARK VINA RESULT:    -5.754      4.804      6.637
REMARK INTER + INTRA:          -7.213
REMARK INTER:                  -6.979
REMARK INTRA:                  -0.234
REMARK UNBOUND:                -0.282
REMARK SMILES O=c1c(O)c(-c2ccc(O)c(O)c2)oc2cc(O)cc(O)c12
REMARK SMILES IDX 5 1 3 2 2 3 1 4 22 5 20 6 19 7 17 8 16 9 15 10 14 11 6 12
REMARK SMILES IDX 7 13 8 14 9 15 13 16 11 17 10 18 12 20 4 22 21 24 18 26
REMARK H PARENT 10 19 12 21 4 23 21 25 18 27
REMARK Flexibility Score: inf
ROOT
ATOM      1  C   UNL     1       1.236  -3.114  23.882  1.00  0.00     0.180 A 
ATOM      2  C   UNL     1       0.098  -3.486  24.620  1.00  0.00     0.208 A 
ATOM      3  C   UNL     1      -0.273  -2.717  25.734  1.00  0.00     0.238 A 
ATOM      4  O   UNL     1      -1.261  -3.087  26.421  1.00  0.00    -0.285 OA
ATOM      5  C   UNL     1       0.486  -1.576  26.087  1.00  0.00     0.111 A 
ATOM      6  C   UNL     1       0.178  -0.701  27.172  1.00  0.00     0.134 A 
ATOM      7  C   UNL     1       1.072   0.322  27.509  1.00  0.00     0.093 A 
ATOM      8  C   UNL     1       2.231   0.542  26.761  1.00  0.00     0.123 A 
ATOM      9  C   UNL     1       2.511  -0.269  25.664  1.00  0.00     0.094 A 
ATOM     10  C   UNL     1       1.656  -1.322  25.324  1.00  0.00     0.146 A 
ATOM     11  O   UNL     1       1.966  -2.077  24.277  1.00  0.00    -0.452 OA
ENDROOT
BRANCH   1  12
ATOM     12  C   UNL     1       1.677  -3.861  22.682  1.00  0.00     0.025 A 
ATOM     13  C   UNL     1       2.288  -5.115  22.833  1.00  0.00     0.016 A 
ATOM     14  C   UNL     1       2.730  -5.827  21.715  1.00  0.00     0.051 A 
ATOM     15  C   UNL     1       2.582  -5.292  20.433  1.00  0.00     0.157 A 
ATOM     16  C   UNL     1       1.546  -3.315  21.392  1.00  0.00     0.062 A 
ATOM     17  C   UNL     1       1.991  -4.027  20.269  1.00  0.00     0.158 A 
BRANCH  15  18
ATOM     18  O   UNL     1       3.030  -6.026  19.335  1.00  0.00    -0.504 OA
ATOM     19  H   UNL     1       2.397  -6.541  18.736  1.00  0.00     0.293 HD
ENDBRANCH  15  18
BRANCH  17  20
ATOM     20  O   UNL     1       1.853  -3.482  18.993  1.00  0.00    -0.504 OA
ATOM     21  H   UNL     1       1.478  -4.023  18.222  1.00  0.00     0.293 HD
ENDBRANCH  17  20
ENDBRANCH   1  12
BRANCH   2  22
ATOM     22  O   UNL     1      -0.625  -4.629  24.267  1.00  0.00    -0.502 OA
ATOM     23  H   UNL     1      -0.176  -5.489  23.974  1.00  0.00     0.293 HD
ENDBRANCH   2  22
BRANCH   6  24
ATOM     24  O   UNL     1      -0.998  -0.776  27.924  1.00  0.00    -0.507 OA
ATOM     25  H   UNL     1      -1.851  -1.217  27.616  1.00  0.00     0.293 HD
ENDBRANCH   6  24
BRANCH   8  26
ATOM     26  O   UNL     1       3.107   1.572  27.094  1.00  0.00    -0.508 OA
ATOM     27  H   UNL     1       3.625   2.079  26.385  1.00  0.00     0.293 HD
ENDBRANCH   8  26
TORSDOF 6
ENDMDL
MODEL 5
REMARK VINA RESULT:    -5.661      2.313      3.714
REMARK INTER + INTRA:          -7.101
REMARK INTER:                  -6.797
REMARK INTRA:                  -0.304
REMARK UNBOUND:                -0.282
REMARK SMILES O=c1c(O)c(-c2ccc(O)c(O)c2)oc2cc(O)cc(O)c12
REMARK SMILES IDX 5 1 3 2 2 3 1 4 22 5 20 6 19 7 17 8 16 9 15 10 14 11 6 12
REMARK SMILES IDX 7 13 8 14 9 15 13 16 11 17 10 18 12 20 4 22 21 24 18 26
REMARK H PARENT 10 19 12 21 4 23 21 25 18 27
REMARK Flexibility Score: inf
ROOT
ATOM      1  C   UNL     1      -1.708  -0.953  20.683  1.00  0.00     0.180 A 
ATOM      2  C   UNL     1      -0.850  -1.581  19.764  1.00  0.00     0.208 A 
ATOM      3  C   UNL     1       0.291  -2.246  20.241  1.00  0.00     0.238 A 
ATOM      4  O   UNL     1       1.083  -2.760  19.409  1.00  0.00    -0.285 OA
ATOM      5  C   UNL     1       0.550  -2.290  21.632  1.00  0.00     0.111 A 
ATOM      6  C   UNL     1       1.654  -2.971  22.230  1.00  0.00     0.134 A 
ATOM      7  C   UNL     1       1.884  -2.837  23.604  1.00  0.00     0.093 A 
ATOM      8  C   UNL     1       1.014  -2.102  24.413  1.00  0.00     0.123 A 
ATOM      9  C   UNL     1      -0.098  -1.484  23.849  1.00  0.00     0.094 A 
ATOM     10  C   UNL     1      -0.335  -1.568  22.474  1.00  0.00     0.146 A 
ATOM     11  O   UNL     1      -1.402  -0.955  21.976  1.00  0.00    -0.452 OA
ENDROOT
BRANCH   1  12
ATOM     12  C   UNL     1      -2.942  -0.253  20.259  1.00  0.00     0.025 A 
ATOM     13  C   UNL     1      -2.865   1.077  19.816  1.00  0.00     0.016 A 
ATOM     14  C   UNL     1      -4.019   1.763  19.431  1.00  0.00     0.051 A 
ATOM     15  C   UNL     1      -5.267   1.138  19.496  1.00  0.00     0.157 A 
ATOM     16  C   UNL     1      -4.200  -0.874  20.343  1.00  0.00     0.062 A 
ATOM     17  C   UNL     1      -5.361  -0.186  19.958  1.00  0.00     0.158 A 
BRANCH  15  18
ATOM     18  O   UNL     1      -6.403   1.846  19.102  1.00  0.00    -0.504 OA
ATOM     19  H   UNL     1      -7.266   1.816  19.631  1.00  0.00     0.293 HD
ENDBRANCH  15  18
BRANCH  17  20
ATOM     20  O   UNL     1      -6.605  -0.810  20.039  1.00  0.00    -0.504 OA
ATOM     21  H   UNL     1      -7.305  -0.696  19.314  1.00  0.00     0.293 HD
ENDBRANCH  17  20
ENDBRANCH   1  12
BRANCH   2  22
ATOM     22  O   UNL     1      -1.113  -1.507  18.393  1.00  0.00    -0.502 OA
ATOM     23  H   UNL     1      -1.578  -0.713  17.971  1.00  0.00     0.293 HD
ENDBRANCH   2  22
BRANCH   6  24
ATOM     24  O   UNL     1       2.528  -3.805  21.528  1.00  0.00    -0.507 OA
ATOM     25  H   UNL     1       2.262  -4.667  21.077  1.00  0.00     0.293 HD
ENDBRANCH   6  24
BRANCH   8  26
ATOM     26  O   UNL     1       1.243  -1.989  25.783  1.00  0.00    -0.508 OA
ATOM     27  H   UNL     1       1.210  -2.796  26.395  1.00  0.00     0.293 HD
ENDBRANCH   8  26
TORSDOF 6
ENDMDL
MODEL 6
REMARK VINA RESULT:    -5.577      1.787      6.741
REMARK INTER + INTRA:          -7.001
REMARK INTER:                  -6.731
REMARK INTRA:                  -0.269
REMARK UNBOUND:                -0.282
REMARK SMILES O=c1c(O)c(-c2ccc(O)c(O)c2)oc2cc(O)cc(O)c12
REMARK SMILES IDX 5 1 3 2 2 3 1 4 22 5 20 6 19 7 17 8 16 9 15 10 14 11 6 12
REMARK SMILES IDX 7 13 8 14 9 15 13 16 11 17 10 18 12 20 4 22 21 24 18 26
REMARK H PARENT 10 19 12 21 4 23 21 25 18 27
REMARK Flexibility Score: inf
ROOT
ATOM      1  C   UNL     1      -1.655  -1.565  23.666  1.00  0.00     0.180 A 
ATOM      2  C   UNL     1      -1.760  -0.860  24.877  1.00  0.00     0.208 A 
ATOM      3  C   UNL     1      -2.890  -0.057  25.102  1.00  0.00     0.238 A 
ATOM      4  O   UNL     1      -2.951   0.614  26.165  1.00  0.00    -0.285 OA
ATOM      5  C   UNL     1      -3.908   0.017  24.122  1.00  0.00     0.111 A 
ATOM      6  C   UNL     1      -5.115   0.767  24.263  1.00  0.00     0.134 A 
ATOM      7  C   UNL     1      -5.992   0.872  23.176  1.00  0.00     0.093 A 
ATOM      8  C   UNL     1      -5.738   0.202  21.977  1.00  0.00     0.123 A 
ATOM      9  C   UNL     1      -4.593  -0.580  21.851  1.00  0.00     0.094 A 
ATOM     10  C   UNL     1      -3.680  -0.676  22.905  1.00  0.00     0.146 A 
ATOM     11  O   UNL     1      -2.596  -1.424  22.738  1.00  0.00    -0.452 OA
ENDROOT
BRANCH   1  12
ATOM     12  C   UNL     1      -0.507  -2.451  23.365  1.00  0.00     0.025 A 
ATOM     13  C   UNL     1       0.430  -2.062  22.395  1.00  0.00     0.016 A 
ATOM     14  C   UNL     1       1.510  -2.891  22.081  1.00  0.00     0.051 A 
ATOM     15  C   UNL     1       1.662  -4.125  22.720  1.00  0.00     0.157 A 
ATOM     16  C   UNL     1      -0.364  -3.701  23.991  1.00  0.00     0.062 A 
ATOM     17  C   UNL     1       0.718  -4.536  23.676  1.00  0.00     0.158 A 
BRANCH  15  18
ATOM     18  O   UNL     1       2.750  -4.932  22.388  1.00  0.00    -0.504 OA
ATOM     19  H   UNL     1       3.620  -4.902  22.905  1.00  0.00     0.293 HD
ENDBRANCH  15  18
BRANCH  17  20
ATOM     20  O   UNL     1       0.856  -5.773  24.306  1.00  0.00    -0.504 OA
ATOM     21  H   UNL     1       1.586  -5.943  24.989  1.00  0.00     0.293 HD
ENDBRANCH  17  20
ENDBRANCH   1  12
BRANCH   2  22
ATOM     22  O   UNL     1      -0.732  -0.929  25.822  1.00  0.00    -0.502 OA
ATOM     23  H   UNL     1      -0.311  -0.104  26.230  1.00  0.00     0.293 HD
ENDBRANCH   2  22
BRANCH   6  24
ATOM     24  O   UNL     1      -5.509   1.397  25.446  1.00  0.00    -0.507 OA
ATOM     25  H   UNL     1      -4.882   1.672  26.187  1.00  0.00     0.293 HD
ENDBRANCH   6  24
BRANCH   8  26
ATOM     26  O   UNL     1      -6.625   0.300  20.907  1.00  0.00    -0.508 OA
ATOM     27  H   UNL     1      -6.608  -0.363  20.141  1.00  0.00     0.293 HD
ENDBRANCH   8  26
TORSDOF 6
ENDMDL
MODEL 7
REMARK VINA RESULT:    -5.472      3.263      7.161
REMARK INTER + INTRA:          -6.874
REMARK INTER:                  -6.643
REMARK INTRA:                  -0.232
REMARK UNBOUND:                -0.282
REMARK SMILES O=c1c(O)c(-c2ccc(O)c(O)c2)oc2cc(O)cc(O)c12
REMARK SMILES IDX 5 1 3 2 2 3 1 4 22 5 20 6 19 7 17 8 16 9 15 10 14 11 6 12
REMARK SMILES IDX 7 13 8 14 9 15 13 16 11 17 10 18 12 20 4 22 21 24 18 26
REMARK H PARENT 10 19 12 21 4 23 21 25 18 27
REMARK Flexibility Score: inf
ROOT
ATOM      1  C   UNL     1       1.002  -2.488  23.250  1.00  0.00     0.180 A 
ATOM      2  C   UNL     1       1.755  -3.260  22.349  1.00  0.00     0.208 A 
ATOM      3  C   UNL     1       1.462  -3.188  20.978  1.00  0.00     0.238 A 
ATOM      4  O   UNL     1       2.104  -3.923  20.183  1.00  0.00    -0.285 OA
ATOM      5  C   UNL     1       0.431  -2.331  20.522  1.00  0.00     0.111 A 
ATOM      6  C   UNL     1       0.076  -2.148  19.152  1.00  0.00     0.134 A 
ATOM      7  C   UNL     1      -1.046  -1.376  18.827  1.00  0.00     0.093 A 
ATOM      8  C   UNL     1      -1.786  -0.726  19.819  1.00  0.00     0.123 A 
ATOM      9  C   UNL     1      -1.411  -0.851  21.154  1.00  0.00     0.094 A 
ATOM     10  C   UNL     1      -0.318  -1.644  21.513  1.00  0.00     0.146 A 
ATOM     11  O   UNL     1      -0.002  -1.744  22.799  1.00  0.00    -0.452 OA
ENDROOT
BRANCH   1  12
ATOM     12  C   UNL     1       1.267  -2.492  24.707  1.00  0.00     0.025 A 
ATOM     13  C   UNL     1       2.433  -1.886  25.199  1.00  0.00     0.016 A 
ATOM     14  C   UNL     1       2.713  -1.896  26.568  1.00  0.00     0.051 A 
ATOM     15  C   UNL     1       1.842  -2.525  27.462  1.00  0.00     0.157 A 
ATOM     16  C   UNL     1       0.402  -3.142  25.605  1.00  0.00     0.062 A 
ATOM     17  C   UNL     1       0.683  -3.155  26.980  1.00  0.00     0.158 A 
BRANCH  15  18
ATOM     18  O   UNL     1       2.146  -2.518  28.824  1.00  0.00    -0.504 OA
ATOM     19  H   UNL     1       2.985  -2.084  29.186  1.00  0.00     0.293 HD
ENDBRANCH  15  18
BRANCH  17  20
ATOM     20  O   UNL     1      -0.183  -3.797  27.865  1.00  0.00    -0.504 OA
ATOM     21  H   UNL     1      -0.971  -4.342  27.536  1.00  0.00     0.293 HD
ENDBRANCH  17  20
ENDBRANCH   1  12
BRANCH   2  22
ATOM     22  O   UNL     1       2.754  -4.116  22.822  1.00  0.00    -0.502 OA
ATOM     23  H   UNL     1       3.139  -4.039  23.755  1.00  0.00     0.293 HD
ENDBRANCH   2  22
BRANCH   6  24
ATOM     24  O   UNL     1       0.802  -2.675  18.081  1.00  0.00    -0.507 OA
ATOM     25  H   UNL     1       1.809  -2.691  18.021  1.00  0.00     0.293 HD
ENDBRANCH   6  24
BRANCH   8  26
ATOM     26  O   UNL     1      -2.891   0.053  19.485  1.00  0.00    -0.508 OA
ATOM     27  H   UNL     1      -3.614  -0.290  18.863  1.00  0.00     0.293 HD
ENDBRANCH   8  26
TORSDOF 6
ENDMDL
MODEL 8
REMARK VINA RESULT:    -5.376      3.859      6.925
REMARK INTER + INTRA:          -6.758
REMARK INTER:                  -6.471
REMARK INTRA:                  -0.286
REMARK UNBOUND:                -0.282
REMARK SMILES O=c1c(O)c(-c2ccc(O)c(O)c2)oc2cc(O)cc(O)c12
REMARK SMILES IDX 5 1 3 2 2 3 1 4 22 5 20 6 19 7 17 8 16 9 15 10 14 11 6 12
REMARK SMILES IDX 7 13 8 14 9 15 13 16 11 17 10 18 12 20 4 22 21 24 18 26
REMARK H PARENT 10 19 12 21 4 23 21 25 18 27
REMARK Flexibility Score: inf
ROOT
ATOM      1  C   UNL     1       0.879  -2.955  24.561  1.00  0.00     0.180 A 
ATOM      2  C   UNL     1       1.749  -2.325  25.467  1.00  0.00     0.208 A 
ATOM      3  C   UNL     1       1.212  -1.686  26.596  1.00  0.00     0.238 A 
ATOM      4  O   UNL     1       1.992  -1.078  27.374  1.00  0.00    -0.285 OA
ATOM      5  C   UNL     1      -0.187  -1.700  26.815  1.00  0.00     0.111 A 
ATOM      6  C   UNL     1      -0.836  -1.120  27.946  1.00  0.00     0.134 A 
ATOM      7  C   UNL     1      -2.235  -1.079  27.992  1.00  0.00     0.093 A 
ATOM      8  C   UNL     1      -3.007  -1.656  26.981  1.00  0.00     0.123 A 
ATOM      9  C   UNL     1      -2.382  -2.276  25.903  1.00  0.00     0.094 A 
ATOM     10  C   UNL     1      -0.988  -2.301  25.809  1.00  0.00     0.146 A 
ATOM     11  O   UNL     1      -0.433  -2.894  24.759  1.00  0.00    -0.452 OA
ENDROOT
BRANCH   1  12
ATOM     12  C   UNL     1       1.371  -3.669  23.361  1.00  0.00     0.025 A 
ATOM     13  C   UNL     1       1.937  -4.946  23.500  1.00  0.00     0.016 A 
ATOM     14  C   UNL     1       2.427  -5.630  22.385  1.00  0.00     0.051 A 
ATOM     15  C   UNL     1       2.372  -5.043  21.117  1.00  0.00     0.157 A 
ATOM     16  C   UNL     1       1.336  -3.072  22.089  1.00  0.00     0.062 A 
ATOM     17  C   UNL     1       1.829  -3.756  20.967  1.00  0.00     0.158 A 
BRANCH  15  18
ATOM     18  O   UNL     1       2.867  -5.749  20.020  1.00  0.00    -0.504 OA
ATOM     19  H   UNL     1       3.759  -5.529  19.596  1.00  0.00     0.293 HD
ENDBRANCH  15  18
BRANCH  17  20
ATOM     20  O   UNL     1       1.785  -3.160  19.707  1.00  0.00    -0.504 OA
ATOM     21  H   UNL     1       2.068  -3.661  18.873  1.00  0.00     0.293 HD
ENDBRANCH  17  20
ENDBRANCH   1  12
BRANCH   2  22
ATOM     22  O   UNL     1       3.125  -2.304  25.221  1.00  0.00    -0.502 OA
ATOM     23  H   UNL     1       3.560  -2.885  24.515  1.00  0.00     0.293 HD
ENDBRANCH   2  22
BRANCH   6  24
ATOM     24  O   UNL     1      -0.159  -0.601  29.053  1.00  0.00    -0.507 OA
ATOM     25  H   UNL     1      -0.290   0.329  29.423  1.00  0.00     0.293 HD
ENDBRANCH   6  24
BRANCH   8  26
ATOM     26  O   UNL     1      -4.398  -1.624  27.044  1.00  0.00    -0.508 OA
ATOM     27  H   UNL     1      -4.971  -2.130  26.378  1.00  0.00     0.293 HD
ENDBRANCH   8  26
TORSDOF 6
ENDMDL
